# CIF file generated by openbabel 3.1.0, see https://openbabel.org
data_I
_chemical_name_common 'image0'
_cell_length_a 9.366
_cell_length_b 9.882
_cell_length_c 19.183
_cell_angle_alpha 85.406
_cell_angle_beta 85.029
_cell_angle_gamma 114.485
_space_group_name_H-M_alt 'P 1'
_space_group_name_Hall 'P 1'
loop_
    _symmetry_equiv_pos_as_xyz
    x,y,z
loop_
    _atom_site_label
    _atom_site_type_symbol
    _atom_site_fract_x
    _atom_site_fract_y
    _atom_site_fract_z
    _atom_site_occupancy
    Zn1      Zn       0.74600    0.45930    0.66678    1.000
    Zn2      Zn       0.36080    0.06030    0.81849    1.000
    Zn3      Zn       0.11170    0.12550    0.56979    1.000
    Zn4      Zn       0.66700    0.66490    0.94415    1.000
    Zn5      Zn       0.79140    0.88620    0.73017    1.000
    P1       P        0.39020    0.24110    0.67450    1.000
    P2       P        0.43270    0.35090    0.89880    1.000
    P3       P        0.00100    0.81600    0.84070    1.000
    P4       P        0.85010    0.19150    0.65370    1.000
    P5       P        0.47940    0.78930    0.84930    1.000
    P6       P        0.85800    0.77840    0.58730    1.000
    O1       O        0.86400    0.33980    0.67440    1.000
    O2       O        0.88850    0.63580    0.60300    1.000
    O3       O        0.53800    0.37600    0.63820    1.000
    O4       O        0.13300    0.97000    0.84170    1.000
    O5       O        0.44190    0.14100    0.72110    1.000
    O6       O        0.45830    0.21060    0.88220    1.000
    O7       O        0.42100    0.91000    0.85630    1.000
    O8       O        0.29200    0.16200    0.62150    1.000
    O9       O        0.95800    0.21000    0.58790    1.000
    O10      O        0.77050    0.76090    0.52210    1.000
    O11      O        0.01920    0.91210    0.57390    1.000
    O12      O        0.58110    0.45890    0.92560    1.000
    O13      O        0.29200    0.30400    0.95760    1.000
    O14      O        0.54300    0.76900    0.91660    1.000
    O15      O        0.89000    0.77300    0.90700    1.000
    O16      O        0.74660    0.78400    0.64880    1.000
    O17      O        0.87500    0.10000    0.71500    1.000
    O18      O        0.91600    0.79800    0.77670    1.000
    O19      O        0.58800    0.81500    0.78570    1.000
    O20      O        0.28600    0.29800    0.72200    1.000
    O21      O        0.39800    0.41900    0.83210    1.000
    O22      O        0.06600    0.69300    0.83800    1.000
    O23      O        0.67500    0.10400    0.63420    1.000
    O24      O        0.32800    0.64300    0.84330    1.000
    H1       H        0.32900    0.34500    0.76440    1.000
    H2       H        0.16300    0.67500    0.84000    1.000
    H3       H        0.59200    0.11700    0.66530    1.000
    H4       H        0.35500    0.55600    0.83890    1.000
    Zn6      Zn       0.25400    0.54070    0.33322    1.000
    Zn7      Zn       0.63920    0.93970    0.18151    1.000
    Zn8      Zn       0.88830    0.87450    0.43021    1.000
    Zn9      Zn       0.33300    0.33510    0.05585    1.000
    Zn10     Zn       0.20860    0.11380    0.26983    1.000
    P7       P        0.60980    0.75890    0.32550    1.000
    P8       P        0.56730    0.64910    0.10120    1.000
    P9       P        0.99900    0.18400    0.15930    1.000
    P10      P        0.14990    0.80850    0.34630    1.000
    P11      P        0.52060    0.21070    0.15070    1.000
    P12      P        0.14200    0.22160    0.41270    1.000
    O25      O        0.13600    0.66020    0.32560    1.000
    O26      O        0.11150    0.36420    0.39700    1.000
    O27      O        0.46200    0.62400    0.36180    1.000
    O28      O        0.86700    0.03000    0.15830    1.000
    O29      O        0.55810    0.85900    0.27890    1.000
    O30      O        0.54170    0.78940    0.11780    1.000
    O31      O        0.57900    0.09000    0.14370    1.000
    O32      O        0.70800    0.83800    0.37850    1.000
    O33      O        0.04200    0.79000    0.41210    1.000
    O34      O        0.22950    0.23910    0.47790    1.000
    O35      O        0.98080    0.08790    0.42610    1.000
    O36      O        0.41890    0.54110    0.07440    1.000
    O37      O        0.70800    0.69600    0.04240    1.000
    O38      O        0.45700    0.23100    0.08340    1.000
    O39      O        0.11000    0.22700    0.09300    1.000
    O40      O        0.25340    0.21600    0.35120    1.000
    O41      O        0.12500    0.90000    0.28500    1.000
    O42      O        0.08400    0.20200    0.22330    1.000
    O43      O        0.41200    0.18500    0.21430    1.000
    O44      O        0.71400    0.70200    0.27800    1.000
    O45      O        0.60200    0.58100    0.16790    1.000
    O46      O        0.93400    0.30700    0.16200    1.000
    O47      O        0.32500    0.89600    0.36580    1.000
    O48      O        0.67200    0.35700    0.15670    1.000
    H5       H        0.67100    0.65500    0.23560    1.000
    H6       H        0.83700    0.32500    0.16000    1.000
    H7       H        0.40800    0.88300    0.33470    1.000
    H8       H        0.64500    0.44400    0.16110    1.000
