data_functionalizedCrystal
_audit_creation_method	'EQeq! by Chris Wilmer'
_symmetry_space_group_name_H-M	'P1'
_symmetry_Int_Tables_number	1
_symmetry_cell_setting	triclinic
loop_
_symmetry_equiv_pos_as_xyz
  x,y,z
_cell_length_a	6.5771
_cell_length_b	11.1226
_cell_length_c	18.033
_cell_angle_alpha	90
_cell_angle_beta	97.602
_cell_angle_gamma	90
loop_
_atom_site_label
_atom_site_type_symbol
_atom_site_fract_x
_atom_site_fract_y
_atom_site_fract_z
_atom_site_charge
Mof_Ca	Ca	0.25266	0.90663	0.47691	1.267
Mof_S 	S 	0.11732	0.19898	0.71174	0.015
Mof_O 	O 	0.0955	0.0962	0.55836	-0.525
Mof_O 	O 	0.4247	0.05675	0.56162	-0.568
Mof_O 	O 	0.3244	0.3218	0.91011	-0.422
Mof_O 	O 	0.0059	0.294	0.85249	-0.314
Mof_C 	C 	0.1946	0.2859	0.8567	0.339
Mof_C 	C 	0.2755	0.0953	0.59173	0.447
Mof_C 	C 	0.3134	0.1374	0.66982	-0.176
Mof_C 	C 	0.4929	0.1372	0.71702	0.042
Mof_H 	H 	0.615	0.1061	0.7044	-0.014
Mof_C 	C 	0.4741	0.1891	0.78708	-0.057
Mof_H 	H 	0.5824	0.196	0.8256	0.051
Mof_C 	C 	0.2792	0.2282	0.79229	-0.081
Mof_Ca	Ca	0.24734	0.40663	0.02309	1.267
Mof_S 	S 	0.38268	0.69898	0.78826	0.012
Mof_O 	O 	0.4045	0.5962	0.94164	-0.526
Mof_O 	O 	0.0753	0.55675	0.93838	-0.566
Mof_O 	O 	0.1756	0.8218	0.58989	-0.424
Mof_O 	O 	0.4941	0.794	0.64751	-0.317
Mof_C 	C 	0.3054	0.7859	0.6433	0.339
Mof_C 	C 	0.2245	0.5953	0.90827	0.447
Mof_C 	C 	0.1866	0.6374	0.83018	-0.178
Mof_C 	C 	0.0071	0.6372	0.78298	0.048
Mof_H 	H 	0.885	0.6061	0.7956	-0.018
Mof_C 	C 	0.0259	0.6891	0.71292	-0.057
Mof_H 	H 	0.9176	0.696	0.6744	0.051
Mof_C 	C 	0.2208	0.7282	0.70771	-0.082
Mof_Ca	Ca	0.74734	0.09337	0.52309	1.267
Mof_S 	S 	0.88268	0.80102	0.28826	0.015
Mof_O 	O 	0.9045	0.9038	0.44164	-0.525
Mof_O 	O 	0.5753	0.94325	0.43838	-0.568
Mof_O 	O 	0.6756	0.6782	0.08989	-0.422
Mof_O 	O 	0.9941	0.706	0.14751	-0.314
Mof_C 	C 	0.8054	0.7141	0.1433	0.339
Mof_C 	C 	0.7245	0.9047	0.40827	0.447
Mof_C 	C 	0.6866	0.8626	0.33018	-0.176
Mof_C 	C 	0.5071	0.8628	0.28298	0.042
Mof_H 	H 	0.385	0.8939	0.2956	-0.014
Mof_C 	C 	0.5259	0.8109	0.21292	-0.057
Mof_H 	H 	0.4176	0.804	0.1744	0.051
Mof_C 	C 	0.7208	0.7718	0.20771	-0.081
Mof_Ca	Ca	0.75266	0.59337	0.97691	1.267
Mof_S 	S 	0.61732	0.30102	0.21174	0.012
Mof_O 	O 	0.5955	0.4038	0.05836	-0.526
Mof_O 	O 	0.9247	0.44325	0.06162	-0.566
Mof_O 	O 	0.8244	0.1782	0.41011	-0.424
Mof_O 	O 	0.5059	0.206	0.35249	-0.317
Mof_C 	C 	0.6946	0.2141	0.3567	0.339
Mof_C 	C 	0.7755	0.4047	0.09173	0.447
Mof_C 	C 	0.8134	0.3626	0.16982	-0.178
Mof_C 	C 	0.9929	0.3628	0.21702	0.048
Mof_H 	H 	0.115	0.3939	0.2044	-0.018
Mof_C 	C 	0.9741	0.3109	0.28708	-0.057
Mof_H 	H 	0.0824	0.304	0.3256	0.051
Mof_C 	C 	0.7792	0.2718	0.29229	-0.082
_end
