data_functionalizedCrystal
_audit_creation_method	'EQeq! by Chris Wilmer'
_symmetry_space_group_name_H-M	'P1'
_symmetry_Int_Tables_number	1
_symmetry_cell_setting	triclinic
loop_
_symmetry_equiv_pos_as_xyz
  x,y,z
_cell_length_a	10.7616
_cell_length_b	16.2417
_cell_length_c	25.6486
_cell_angle_alpha	90
_cell_angle_beta	90
_cell_angle_gamma	90
loop_
_atom_site_label
_atom_site_type_symbol
_atom_site_fract_x
_atom_site_fract_y
_atom_site_fract_z
_atom_site_charge
Mof_Mn	Mn	0.65223	0.93183	0.61952	0.976
Mof_Mn	Mn	0.34777	0.56817	0.11952	0.933
Mof_Mn	Mn	0.15223	0.06817	0.88048	0.89
Mof_Mn	Mn	0.84777	0.43183	0.38048	0.937
Mof_Mn	Mn	0.34777	0.06817	0.38048	0.893
Mof_Mn	Mn	0.65223	0.43183	0.88048	0.937
Mof_Mn	Mn	0.84777	0.93183	0.11952	0.974
Mof_Mn	Mn	0.15223	0.56817	0.61952	0.935
Mof_Mn	Mn	0.5	0	0.5	0.948
Mof_Mn	Mn	0.5	0.5	-0	0.974
Mof_Mn	Mn	-0	0	-0	0.894
Mof_Mn	Mn	4.46806e-33	0.5	0.5	0.981
Mof_H 	H 	0.743	0.6858	0.5202	0.051
Mof_H 	H 	0.5612	0.625	0.3872	0.071
Mof_H 	H 	0.4592	0.8274	0.4681	0.07
Mof_H 	H 	0.4672	0.7876	0.3496	0.111
Mof_H 	H 	0.3587	0.8028	0.3909	0.109
Mof_H 	H 	0.2435	0.6561	0.4142	0.075
Mof_H 	H 	0.1275	0.5469	0.28	0.058
Mof_H 	H 	0.4057	0.7134	0.2771	0.081
Mof_H 	H 	0.257	0.8142	0.0202	0.006
Mof_H 	H 	0.4388	0.875	0.8872	0.065
Mof_H 	H 	0.5408	0.6726	0.9681	0.051
Mof_H 	H 	0.5328	0.7124	0.8496	0.104
Mof_H 	H 	0.6413	0.6972	0.8909	0.102
Mof_H 	H 	0.7565	0.8439	0.9142	0.077
Mof_H 	H 	0.8725	0.9531	0.78	0.071
Mof_H 	H 	0.5943	0.7866	0.7771	0.08
Mof_H 	H 	0.243	0.3142	0.9798	0.107
Mof_H 	H 	0.0612	0.375	0.1128	0.1
Mof_H 	H 	0.9592	0.1726	0.0319	0.131
Mof_H 	H 	0.9672	0.2124	0.1504	0.134
Mof_H 	H 	0.8587	0.1972	0.1091	0.128
Mof_H 	H 	0.7435	0.3439	0.0858	0.078
Mof_H 	H 	0.6275	0.4531	0.22	0.064
Mof_H 	H 	0.9057	0.2866	0.2229	0.087
Mof_H 	H 	0.757	0.1858	0.4798	0.035
Mof_H 	H 	0.9388	0.125	0.6128	0.048
Mof_H 	H 	0.0408	0.3274	0.5319	0.026
Mof_H 	H 	0.0328	0.2876	0.6504	0.09
Mof_H 	H 	0.1413	0.3028	0.6091	0.092
Mof_H 	H 	0.2565	0.1561	0.5858	0.067
Mof_H 	H 	0.3725	0.0469	0.72	0.051
Mof_H 	H 	0.0943	0.2134	0.7229	0.07
Mof_H 	H 	0.257	0.3142	0.4798	0.047
Mof_H 	H 	0.4388	0.375	0.6128	0.07
Mof_H 	H 	0.5408	0.1726	0.5319	0.067
Mof_H 	H 	0.5328	0.2124	0.6504	0.108
Mof_H 	H 	0.6413	0.1972	0.6091	0.106
Mof_H 	H 	0.7565	0.3439	0.5858	0.073
Mof_H 	H 	0.8725	0.4531	0.72	0.064
Mof_H 	H 	0.5943	0.2866	0.7229	0.078
Mof_H 	H 	0.743	0.1858	0.9798	0.092
Mof_H 	H 	0.5612	0.125	0.1128	0.077
Mof_H 	H 	0.4592	0.3274	0.0319	0.084
Mof_H 	H 	0.4672	0.2876	0.1504	0.114
Mof_H 	H 	0.3587	0.3028	0.1091	0.113
Mof_H 	H 	0.2435	0.1561	0.0858	0.073
Mof_H 	H 	0.1275	0.0469	0.22	0.05
Mof_H 	H 	0.4057	0.2134	0.2229	0.079
Mof_H 	H 	0.757	0.6858	0.0202	-0.002
Mof_H 	H 	0.9388	0.625	0.8872	0.048
Mof_H 	H 	0.0408	0.8274	0.9681	0.028
Mof_H 	H 	0.0328	0.7876	0.8496	0.092
Mof_H 	H 	0.1413	0.8028	0.8909	0.094
Mof_H 	H 	0.2565	0.6561	0.9142	0.072
Mof_H 	H 	0.3725	0.5469	0.78	0.059
Mof_H 	H 	0.0943	0.7134	0.7771	0.074
Mof_H 	H 	0.243	0.8142	0.5202	0.061
Mof_H 	H 	0.0612	0.875	0.3872	0.089
Mof_H 	H 	0.9592	0.6726	0.4681	0.099
Mof_H 	H 	0.9672	0.7124	0.3496	0.124
Mof_H 	H 	0.8587	0.6972	0.3909	0.12
Mof_H 	H 	0.7435	0.8439	0.4142	0.08
Mof_H 	H 	0.6275	0.9531	0.28	0.071
Mof_H 	H 	0.9057	0.7866	0.2771	0.087
Mof_C 	C 	0.605	0.7659	0.50022	-0.06
Mof_C 	C 	0.6795	0.6965	0.49539	-0.01
Mof_C 	C 	0.6604	0.6425	0.45365	-0.073
Mof_C 	C 	0.5721	0.661	0.416	-0.084
Mof_C 	C 	0.4995	0.7313	0.4198	0.098
Mof_C 	C 	0.5132	0.7817	0.46341	-0.083
Mof_C 	C 	0.4151	0.7605	0.37643	-0.258
Mof_C 	C 	0.3364	0.6954	0.34956	0.108
Mof_C 	C 	0.2493	0.6497	0.37744	-0.095
Mof_C 	C 	0.1707	0.5949	0.35204	-0.057
Mof_C 	C 	0.1816	0.5836	0.29783	-0.024
Mof_C 	C 	0.2718	0.6265	0.27091	-0.029
Mof_C 	C 	0.3463	0.6827	0.29643	-0.102
Mof_C 	C 	0.6247	0.8259	0.5439	0.315
Mof_C 	C 	0.7423	0.5674	0.44877	0.357
Mof_C 	C 	0.0754	0.5471	0.38295	0.342
Mof_C 	C 	0.2934	0.6109	0.21343	0.288
Mof_C 	C 	0.395	0.7341	0.00022	-0.148
Mof_C 	C 	0.3205	0.8035	0.99539	0.092
Mof_C 	C 	0.3396	0.8575	0.95365	-0.108
Mof_C 	C 	0.4279	0.839	0.916	-0.047
Mof_C 	C 	0.5005	0.7687	0.9198	0.061
Mof_C 	C 	0.4868	0.7183	0.96341	-0.011
Mof_C 	C 	0.5849	0.7395	0.87643	-0.236
Mof_C 	C 	0.6636	0.8046	0.84956	0.103
Mof_C 	C 	0.7507	0.8503	0.87744	-0.09
Mof_C 	C 	0.8293	0.9051	0.85204	-0.051
Mof_C 	C 	0.8184	0.9164	0.79783	-0.021
Mof_C 	C 	0.7282	0.8735	0.77091	-0.023
Mof_C 	C 	0.6537	0.8173	0.79643	-0.097
Mof_C 	C 	0.3753	0.6741	0.0439	0.344
Mof_C 	C 	0.2577	0.9326	0.94877	0.365
Mof_C 	C 	0.9246	0.9529	0.88295	0.362
Mof_C 	C 	0.7066	0.8891	0.71343	0.29
Mof_C 	C 	0.105	0.2341	0.99978	0.07
Mof_C 	C 	0.1795	0.3035	0.00461	-0.149
Mof_C 	C 	0.1604	0.3575	0.04635	0.006
Mof_C 	C 	0.0721	0.339	0.084	-0.191
Mof_C 	C 	0.9995	0.2687	0.0802	0.222
Mof_C 	C 	0.0132	0.2183	0.03659	-0.249
Mof_C 	C 	0.9151	0.2395	0.12357	-0.33
Mof_C 	C 	0.8364	0.3046	0.15044	0.135
Mof_C 	C 	0.7493	0.3503	0.12256	-0.108
Mof_C 	C 	0.6707	0.4051	0.14796	-0.052
Mof_C 	C 	0.6816	0.4164	0.20217	-0.029
Mof_C 	C 	0.7718	0.3735	0.22909	-0.019
Mof_C 	C 	0.8463	0.3173	0.20357	-0.119
Mof_C 	C 	0.1247	0.1741	0.9561	0.271
Mof_C 	C 	0.2423	0.4326	0.05123	0.327
Mof_C 	C 	0.5754	0.4529	0.11705	0.359
Mof_C 	C 	0.7934	0.3891	0.28657	0.285
Mof_C 	C 	0.895	0.2659	0.49978	-0.108
Mof_C 	C 	0.8205	0.1965	0.50461	0.033
Mof_C 	C 	0.8396	0.1425	0.54635	-0.116
Mof_C 	C 	0.9279	0.161	0.584	-0.011
Mof_C 	C 	0.0005	0.2313	0.5802	0.008
Mof_C 	C 	0.9868	0.2817	0.53659	0.015
Mof_C 	C 	0.0849	0.2605	0.62357	-0.203
Mof_C 	C 	0.1636	0.1954	0.65044	0.078
Mof_C 	C 	0.2507	0.1497	0.62256	-0.073
Mof_C 	C 	0.3293	0.0949	0.64796	-0.076
Mof_C 	C 	0.3184	0.0836	0.70217	-0.011
Mof_C 	C 	0.2282	0.1265	0.72909	-0.046
Mof_C 	C 	0.1537	0.1827	0.70357	-0.084
Mof_C 	C 	0.8753	0.3259	0.4561	0.335
Mof_C 	C 	0.7577	0.0674	0.55123	0.376
Mof_C 	C 	0.4246	0.0471	0.61705	0.367
Mof_C 	C 	0.2066	0.1109	0.78657	0.292
Mof_C 	C 	0.395	0.2341	0.49978	-0.066
Mof_C 	C 	0.3205	0.3035	0.50461	-0.005
Mof_C 	C 	0.3396	0.3575	0.54635	-0.075
Mof_C 	C 	0.4279	0.339	0.584	-0.08
Mof_C 	C 	0.5005	0.2687	0.5802	0.094
Mof_C 	C 	0.4868	0.2183	0.53659	-0.078
Mof_C 	C 	0.5849	0.2395	0.62357	-0.253
Mof_C 	C 	0.6636	0.3046	0.65044	0.102
Mof_C 	C 	0.7507	0.3503	0.62256	-0.085
Mof_C 	C 	0.8293	0.4051	0.64796	-0.063
Mof_C 	C 	0.8184	0.4164	0.70217	-0.016
Mof_C 	C 	0.7282	0.3735	0.72909	-0.031
Mof_C 	C 	0.6537	0.3173	0.70357	-0.098
Mof_C 	C 	0.3753	0.1741	0.4561	0.318
Mof_C 	C 	0.2577	0.4326	0.55123	0.36
Mof_C 	C 	0.9246	0.4529	0.61705	0.38
Mof_C 	C 	0.7066	0.3891	0.78657	0.29
Mof_C 	C 	0.605	0.2659	0.99978	0.02
Mof_C 	C 	0.6795	0.1965	0.00461	-0.106
Mof_C 	C 	0.6604	0.1425	0.04635	-0.037
Mof_C 	C 	0.5721	0.161	0.084	-0.119
Mof_C 	C 	0.4995	0.2313	0.0802	0.131
Mof_C 	C 	0.5132	0.2817	0.03659	-0.148
Mof_C 	C 	0.4151	0.2605	0.12357	-0.277
Mof_C 	C 	0.3364	0.1954	0.15044	0.11
Mof_C 	C 	0.2493	0.1497	0.12256	-0.096
Mof_C 	C 	0.1707	0.0949	0.14796	-0.062
Mof_C 	C 	0.1816	0.0836	0.20217	-0.026
Mof_C 	C 	0.2718	0.1265	0.22909	-0.034
Mof_C 	C 	0.3463	0.1827	0.20357	-0.106
Mof_C 	C 	0.6247	0.3259	0.9561	0.292
Mof_C 	C 	0.7423	0.0674	0.05123	0.341
Mof_C 	C 	0.0754	0.0471	0.11705	0.336
Mof_C 	C 	0.2934	0.1109	0.28657	0.287
Mof_C 	C 	0.895	0.7659	0.00022	-0.17
Mof_C 	C 	0.8205	0.6965	0.99539	0.114
Mof_C 	C 	0.8396	0.6425	0.95365	-0.138
Mof_C 	C 	0.9279	0.661	0.916	0
Mof_C 	C 	0.0005	0.7313	0.9198	0.004
Mof_C 	C 	0.9868	0.7817	0.96341	0.046
Mof_C 	C 	0.0849	0.7605	0.87643	-0.202
Mof_C 	C 	0.1636	0.6954	0.84956	0.084
Mof_C 	C 	0.2507	0.6497	0.87744	-0.079
Mof_C 	C 	0.3293	0.5949	0.85204	-0.065
Mof_C 	C 	0.3184	0.5836	0.79783	-0.014
Mof_C 	C 	0.2282	0.6265	0.77091	-0.037
Mof_C 	C 	0.1537	0.6827	0.79643	-0.087
Mof_C 	C 	0.8753	0.8259	0.0439	0.349
Mof_C 	C 	0.7577	0.5674	0.94877	0.383
Mof_C 	C 	0.4246	0.5471	0.88295	0.361
Mof_C 	C 	0.2066	0.6109	0.71343	0.292
Mof_C 	C 	0.105	0.7341	0.50022	-0.029
Mof_C 	C 	0.1795	0.8035	0.49539	-0.039
Mof_C 	C 	0.1604	0.8575	0.45365	-0.039
Mof_C 	C 	0.0721	0.839	0.416	-0.137
Mof_C 	C 	0.9995	0.7687	0.4198	0.162
Mof_C 	C 	0.0132	0.7183	0.46341	-0.153
Mof_C 	C 	0.9151	0.7395	0.37643	-0.296
Mof_C 	C 	0.8364	0.8046	0.34956	0.127
Mof_C 	C 	0.7493	0.8503	0.37744	-0.106
Mof_C 	C 	0.6707	0.9051	0.35204	-0.044
Mof_C 	C 	0.6816	0.9164	0.29783	-0.029
Mof_C 	C 	0.7718	0.8735	0.27091	-0.016
Mof_C 	C 	0.8463	0.8173	0.29643	-0.113
Mof_C 	C 	0.1247	0.6741	0.5439	0.305
Mof_C 	C 	0.2423	0.9326	0.44877	0.34
Mof_C 	C 	0.5754	0.9529	0.38295	0.352
Mof_C 	C 	0.7934	0.8891	0.21343	0.286
Mof_O 	O 	0.5562	0.88982	0.54652	-0.405
Mof_O 	O 	0.7071	0.8138	0.57745	-0.345
Mof_O 	O 	0.8276	0.5594	0.481	-0.387
Mof_O 	O 	0.7192	0.5178	0.41189	-0.382
Mof_O 	O 	0.0909	0.5439	0.43125	-0.383
Mof_O 	O 	0.988	0.5137	0.35791	-0.369
Mof_O 	O 	0.2205	0.5651	0.18844	-0.328
Mof_O 	O 	0.3854	0.6426	0.19164	-0.325
Mof_O 	O 	0.4438	0.61018	0.04652	-0.428
Mof_O 	O 	0.2929	0.6862	0.07745	-0.355
Mof_O 	O 	0.1724	0.9406	0.981	-0.354
Mof_O 	O 	0.2808	0.9822	0.91189	-0.353
Mof_O 	O 	0.9091	0.9561	0.93125	-0.348
Mof_O 	O 	0.012	0.9863	0.85791	-0.365
Mof_O 	O 	0.7795	0.9349	0.68844	-0.318
Mof_O 	O 	0.6146	0.8574	0.69164	-0.322
Mof_O 	O 	0.0562	0.11018	0.95348	-0.404
Mof_O 	O 	0.2071	0.1862	0.92255	-0.332
Mof_O 	O 	0.3276	0.4406	0.019	-0.39
Mof_O 	O 	0.2192	0.4822	0.08811	-0.377
Mof_O 	O 	0.5909	0.4561	0.06875	-0.385
Mof_O 	O 	0.488	0.4863	0.14209	-0.383
Mof_O 	O 	0.7205	0.4349	0.31156	-0.325
Mof_O 	O 	0.8854	0.3574	0.30836	-0.322
Mof_O 	O 	0.9438	0.38982	0.45348	-0.416
Mof_O 	O 	0.7929	0.3138	0.42255	-0.352
Mof_O 	O 	0.6724	0.0594	0.519	-0.401
Mof_O 	O 	0.7808	0.0178	0.58811	-0.411
Mof_O 	O 	0.4091	0.0439	0.56875	-0.393
Mof_O 	O 	0.512	0.0137	0.64209	-0.406
Mof_O 	O 	0.2795	0.0651	0.81156	-0.335
Mof_O 	O 	0.1146	0.1426	0.80836	-0.332
Mof_O 	O 	0.4438	0.11018	0.45348	-0.421
Mof_O 	O 	0.2929	0.1862	0.42255	-0.348
Mof_O 	O 	0.1724	0.4406	0.519	-0.391
Mof_O 	O 	0.2808	0.4822	0.58811	-0.383
Mof_O 	O 	0.9091	0.4561	0.56875	-0.382
Mof_O 	O 	0.012	0.4863	0.64209	-0.399
Mof_O 	O 	0.7795	0.4349	0.81156	-0.325
Mof_O 	O 	0.6146	0.3574	0.80836	-0.326
Mof_O 	O 	0.5562	0.38982	0.95348	-0.406
Mof_O 	O 	0.7071	0.3138	0.92255	-0.337
Mof_O 	O 	0.8276	0.0594	0.019	-0.391
Mof_O 	O 	0.7192	0.0178	0.08811	-0.403
Mof_O 	O 	0.0909	0.0439	0.06875	-0.388
Mof_O 	O 	0.988	0.0137	0.14209	-0.383
Mof_O 	O 	0.2205	0.0651	0.31156	-0.336
Mof_O 	O 	0.3854	0.1426	0.30836	-0.328
Mof_O 	O 	0.9438	0.88982	0.04652	-0.407
Mof_O 	O 	0.7929	0.8138	0.07745	-0.356
Mof_O 	O 	0.6724	0.5594	0.981	-0.384
Mof_O 	O 	0.7808	0.5178	0.91189	-0.386
Mof_O 	O 	0.4091	0.5439	0.93125	-0.377
Mof_O 	O 	0.512	0.5137	0.85791	-0.384
Mof_O 	O 	0.2795	0.5651	0.68844	-0.327
Mof_O 	O 	0.1146	0.6426	0.69164	-0.328
Mof_O 	O 	0.0562	0.61018	0.54652	-0.42
Mof_O 	O 	0.2071	0.6862	0.57745	-0.342
Mof_O 	O 	0.3276	0.9406	0.481	-0.365
Mof_O 	O 	0.2192	0.9822	0.41189	-0.349
Mof_O 	O 	0.5909	0.9561	0.43125	-0.362
Mof_O 	O 	0.488	0.9863	0.35791	-0.358
Mof_O 	O 	0.7205	0.9349	0.18844	-0.319
Mof_O 	O 	0.8854	0.8574	0.19164	-0.32
Mof_H 	H 	0.5644	0.3189	0.3542	0.133
Mof_H 	H 	0.4322	0.3063	0.3816	0.135
Mof_H 	H 	0.5536	0.3213	0.4164	0.135
Mof_H 	H 	0.397	0.5238	0.4176	0.113
Mof_H 	H 	0.4475	0.4545	0.4565	0.115
Mof_H 	H 	0.3277	0.4369	0.4213	0.121
Mof_H 	H 	0.5637	0.4587	0.383	0.124
Mof_H 	H 	0.4529	0.4449	0.3497	0.109
Mof_C 	C 	0.5119	0.3353	0.3836	-0.311
Mof_C 	C 	0.4086	0.4645	0.4226	-0.268
Mof_N 	N 	0.4882	0.4323	0.3814	-0.163
Mof_H 	H 	0.4356	0.1811	0.8542	0.137
Mof_H 	H 	0.5678	0.1937	0.8816	0.139
Mof_H 	H 	0.4464	0.1787	0.9164	0.14
Mof_H 	H 	0.603	0.9762	0.9176	0.174
Mof_H 	H 	0.5525	0.0455	0.9565	0.148
Mof_H 	H 	0.6723	0.0631	0.9213	0.153
Mof_H 	H 	0.4363	0.0413	0.883	0.109
Mof_H 	H 	0.5471	0.0551	0.8497	0.097
Mof_C 	C 	0.4881	0.1647	0.8836	-0.322
Mof_C 	C 	0.5914	0.0355	0.9226	-0.39
Mof_N 	N 	0.5118	0.0677	0.8814	-0.141
Mof_H 	H 	0.0644	0.6811	0.1458	0.147
Mof_H 	H 	0.9322	0.6937	0.1184	0.158
Mof_H 	H 	0.0536	0.6787	0.0836	0.146
Mof_H 	H 	0.897	0.4762	0.0824	0.116
Mof_H 	H 	0.9475	0.5455	0.0435	0.116
Mof_H 	H 	0.8277	0.5631	0.0787	0.122
Mof_H 	H 	0.0637	0.5413	0.117	0.11
Mof_H 	H 	0.9529	0.5551	0.1503	0.11
Mof_C 	C 	0.0119	0.6647	0.1164	-0.366
Mof_C 	C 	0.9086	0.5355	0.0774	-0.272
Mof_N 	N 	0.9882	0.5677	0.1186	-0.144
Mof_H 	H 	0.9356	0.8189	0.6458	0.121
Mof_H 	H 	0.0678	0.8063	0.6184	0.115
Mof_H 	H 	0.9464	0.8213	0.5836	0.124
Mof_H 	H 	0.103	0.0238	0.5824	0.046
Mof_H 	H 	0.0525	0.9545	0.5435	0.081
Mof_H 	H 	0.1723	0.9369	0.5787	0.09
Mof_H 	H 	0.9363	0.9587	0.617	0.148
Mof_H 	H 	0.0471	0.9449	0.6503	0.123
Mof_C 	C 	0.9881	0.8353	0.6164	-0.258
Mof_C 	C 	0.0914	0.9645	0.5774	-0.133
Mof_N 	N 	0.0118	0.9323	0.6186	-0.201
Mof_H 	H 	0.4356	0.6811	0.6458	0.135
Mof_H 	H 	0.5678	0.6937	0.6184	0.136
Mof_H 	H 	0.4464	0.6787	0.5836	0.136
Mof_H 	H 	0.603	0.4762	0.5824	0.114
Mof_H 	H 	0.5525	0.5455	0.5435	0.116
Mof_H 	H 	0.6723	0.5631	0.5787	0.122
Mof_H 	H 	0.4363	0.5413	0.617	0.124
Mof_H 	H 	0.5471	0.5551	0.6503	0.11
Mof_C 	C 	0.4881	0.6647	0.6164	-0.312
Mof_C 	C 	0.5914	0.5355	0.5774	-0.269
Mof_N 	N 	0.5118	0.5677	0.6186	-0.163
Mof_H 	H 	0.5644	0.8189	0.1458	0.131
Mof_H 	H 	0.4322	0.8063	0.1184	0.133
Mof_H 	H 	0.5536	0.8213	0.0836	0.132
Mof_H 	H 	0.397	0.0238	0.0824	0.053
Mof_H 	H 	0.4475	0.9545	0.0435	0.082
Mof_H 	H 	0.3277	0.9369	0.0787	0.092
Mof_H 	H 	0.5637	0.9587	0.117	0.138
Mof_H 	H 	0.4529	0.9449	0.1503	0.123
Mof_C 	C 	0.5119	0.8353	0.1164	-0.301
Mof_C 	C 	0.4086	0.9645	0.0774	-0.145
Mof_N 	N 	0.4882	0.9323	0.1186	-0.186
Mof_H 	H 	0.9356	0.3189	0.8542	0.12
Mof_H 	H 	0.0678	0.3063	0.8816	0.111
Mof_H 	H 	0.9464	0.3213	0.9164	0.125
Mof_H 	H 	0.103	0.5238	0.9176	0.112
Mof_H 	H 	0.0525	0.4545	0.9565	0.115
Mof_H 	H 	0.1723	0.4369	0.9213	0.122
Mof_H 	H 	0.9363	0.4587	0.883	0.137
Mof_H 	H 	0.0471	0.4449	0.8497	0.109
Mof_C 	C 	0.9881	0.3353	0.8836	-0.253
Mof_C 	C 	0.0914	0.4645	0.9226	-0.265
Mof_N 	N 	0.0118	0.4323	0.8814	-0.182
Mof_H 	H 	0.0644	0.1811	0.3542	0.152
Mof_H 	H 	0.9322	0.1937	0.3816	0.167
Mof_H 	H 	0.0536	0.1787	0.4164	0.153
Mof_H 	H 	0.897	0.9762	0.4176	0.171
Mof_H 	H 	0.9475	0.0455	0.4565	0.147
Mof_H 	H 	0.8277	0.0631	0.4213	0.149
Mof_H 	H 	0.0637	0.0413	0.383	0.093
Mof_H 	H 	0.9529	0.0551	0.3497	0.098
Mof_C 	C 	0.0119	0.1647	0.3836	-0.392
Mof_C 	C 	0.9086	0.0355	0.4226	-0.384
Mof_N 	N 	0.9882	0.0677	0.3814	-0.118
_end
