# CIF file generated by openbabel 3.1.0, see https://openbabel.org
data_I
_chemical_name_common 'ATOWOW_clean'
_cell_length_a 14.0599
_cell_length_b 14.0599
_cell_length_c 14.35
_cell_angle_alpha 60.9754
_cell_angle_beta 60.9754
_cell_angle_gamma 83.8911
_space_group_name_H-M_alt 'P 1'
_space_group_name_Hall 'P 1'
loop_
    _symmetry_equiv_pos_as_xyz
    x,y,z
loop_
    _atom_site_label
    _atom_site_type_symbol
    _atom_site_fract_x
    _atom_site_fract_y
    _atom_site_fract_z
    _atom_site_occupancy
    Zn1      Zn       0.98025    0.98025    0.91571    1.000
    Zn2      Zn       0.01975    0.01975    0.08429    1.000
    Zn3      Zn       0.90049    0.09951    0.50000    1.000
    Zn4      Zn       0.09951    0.90049    0.50000    1.000
    H1       H        0.62300    0.93520    0.11570    1.000
    H2       H        0.43330    0.91670    0.23920    1.000
    H3       H        0.49240    0.03620    0.40990    1.000
    H4       H        0.67950    0.03350    0.30250    1.000
    H5       H        0.76420    0.06600    0.79050    1.000
    H6       H        0.85490    0.17210    0.69250    1.000
    H7       H        0.83730    0.10290    0.82590    1.000
    H8       H        0.27520    0.06860    0.49280    1.000
    H9       H        0.06480    0.37700    0.88430    1.000
    H10      H        0.08330    0.56670    0.76080    1.000
    H11      H        0.96380    0.50760    0.59010    1.000
    H12      H        0.96650    0.32050    0.69750    1.000
    H13      H        0.93400    0.23580    0.20950    1.000
    H14      H        0.82790    0.14510    0.30750    1.000
    H15      H        0.89710    0.16270    0.17410    1.000
    H16      H        0.93140    0.72480    0.50720    1.000
    H17      H        0.37700    0.06480    0.88430    1.000
    H18      H        0.56670    0.08330    0.76080    1.000
    H19      H        0.50760    0.96380    0.59010    1.000
    H20      H        0.32050    0.96650    0.69750    1.000
    H21      H        0.23580    0.93400    0.20950    1.000
    H22      H        0.14510    0.82790    0.30750    1.000
    H23      H        0.16270    0.89710    0.17410    1.000
    H24      H        0.72480    0.93140    0.50720    1.000
    H25      H        0.93520    0.62300    0.11570    1.000
    H26      H        0.91670    0.43330    0.23920    1.000
    H27      H        0.03620    0.49240    0.40990    1.000
    H28      H        0.03350    0.67950    0.30250    1.000
    H29      H        0.06600    0.76420    0.79050    1.000
    H30      H        0.17210    0.85490    0.69250    1.000
    H31      H        0.10290    0.83730    0.82590    1.000
    H32      H        0.06860    0.27520    0.49280    1.000
    C1       C        0.79080    0.98700    0.12570    1.000
    C2       C        0.66940    0.98460    0.19870    1.000
    C3       C        0.59660    0.95240    0.17800    1.000
    C4       C        0.48220    0.94480    0.24960    1.000
    C5       C        0.44340    0.97840    0.33340    1.000
    C6       C        0.51790    0.01290    0.35250    1.000
    C7       C        0.63080    0.01340    0.28620    1.000
    C8       C        0.32060    0.97140    0.41010    1.000
    C9       C        0.91850    0.03110    0.72280    1.000
    C10      C        0.83650    0.09910    0.76130    1.000
    C11      C        0.01300    0.20920    0.87430    1.000
    C12      C        0.01540    0.33060    0.80130    1.000
    C13      C        0.04760    0.40340    0.82200    1.000
    C14      C        0.05520    0.51780    0.75040    1.000
    C15      C        0.02160    0.55660    0.66660    1.000
    C16      C        0.98710    0.48210    0.64750    1.000
    C17      C        0.98660    0.36920    0.71380    1.000
    C18      C        0.02860    0.67940    0.58990    1.000
    C19      C        0.96890    0.08150    0.27720    1.000
    C20      C        0.90090    0.16350    0.23870    1.000
    C21      C        0.20920    0.01300    0.87430    1.000
    C22      C        0.33060    0.01540    0.80130    1.000
    C23      C        0.40340    0.04760    0.82200    1.000
    C24      C        0.51780    0.05520    0.75040    1.000
    C25      C        0.55660    0.02160    0.66660    1.000
    C26      C        0.48210    0.98710    0.64750    1.000
    C27      C        0.36920    0.98660    0.71380    1.000
    C28      C        0.67940    0.02860    0.58990    1.000
    C29      C        0.08150    0.96890    0.27720    1.000
    C30      C        0.16350    0.90090    0.23870    1.000
    C31      C        0.98700    0.79080    0.12570    1.000
    C32      C        0.98460    0.66940    0.19870    1.000
    C33      C        0.95240    0.59660    0.17800    1.000
    C34      C        0.94480    0.48220    0.24960    1.000
    C35      C        0.97840    0.44340    0.33340    1.000
    C36      C        0.01290    0.51790    0.35250    1.000
    C37      C        0.01340    0.63080    0.28620    1.000
    C38      C        0.97140    0.32060    0.41010    1.000
    C39      C        0.03110    0.91850    0.72280    1.000
    C40      C        0.09910    0.83650    0.76130    1.000
    N1       N        0.94860    0.02280    0.62530    1.000
    N2       N        0.97720    0.05140    0.37470    1.000
    N3       N        0.05140    0.97720    0.37470    1.000
    N4       N        0.02280    0.94860    0.62530    1.000
    N5       N        0.96980    0.96980    0.78420    1.000
    N6       N        0.03020    0.03020    0.21580    1.000
    O1       O        0.82140    0.97320    0.03500    1.000
    O2       O        0.85120    0.00260    0.15800    1.000
    O3       O        0.25790    0.92790    0.40150    1.000
    O4       O        0.28900    0.01660    0.47460    1.000
    O5       O        0.02680    0.17860    0.96500    1.000
    O6       O        0.99740    0.14880    0.84200    1.000
    O7       O        0.07210    0.74210    0.59850    1.000
    O8       O        0.98340    0.71100    0.52540    1.000
    O9       O        0.17860    0.02680    0.96500    1.000
    O10      O        0.14880    0.99740    0.84200    1.000
    O11      O        0.74210    0.07210    0.59850    1.000
    O12      O        0.71100    0.98340    0.52540    1.000
    O13      O        0.97320    0.82140    0.03500    1.000
    O14      O        0.00260    0.85120    0.15800    1.000
    O15      O        0.92790    0.25790    0.40150    1.000
    O16      O        0.01660    0.28900    0.47460    1.000
