data_functionalizedCrystal
_audit_creation_method	'EQeq! by Chris Wilmer'
_symmetry_space_group_name_H-M	'P1'
_symmetry_Int_Tables_number	1
_symmetry_cell_setting	triclinic
loop_
_symmetry_equiv_pos_as_xyz
  x,y,z
_cell_length_a	14.0474
_cell_length_b	14.34
_cell_length_c	22.1387
_cell_angle_alpha	100.6
_cell_angle_beta	90
_cell_angle_gamma	90
loop_
_atom_site_label
_atom_site_type_symbol
_atom_site_fract_x
_atom_site_fract_y
_atom_site_fract_z
_atom_site_charge
Mof_Mn	Mn	0.87603	0.19008	0.8596	0.885
Mof_Mn	Mn	0.37603	0.80992	0.6404	0.884
Mof_Mn	Mn	0.7522	0.25708	0.73837	0.93
Mof_Mn	Mn	0.62397	0.19008	0.3596	0.885
Mof_Mn	Mn	0.7478	0.25708	0.23837	0.93
Mof_Mn	Mn	0.2522	0.74292	0.76163	0.93
Mof_Mn	Mn	0.12397	0.80992	0.1404	0.886
Mof_Mn	Mn	0.2478	0.74292	0.26163	0.93
Mof_H 	H 	0.8052	0.9314	0.2043	0.155
Mof_H 	H 	0.6379	0.7622	0.5147	0.09
Mof_H 	H 	0.5987	0.8	0.3486	0.176
Mof_H 	H 	0.8207	0.9558	0.1621	0.084
Mof_H 	H 	0.0198	0.4914	0.7533	0.063
Mof_H 	H 	0.3916	0.0973	0.3013	0.106
Mof_H 	H 	0.0797	0.014	0.8717	0.221
Mof_H 	H 	0.9909	0.1868	0.1646	0.192
Mof_H 	H 	0.5936	0.8072	0.5113	0.067
Mof_H 	H 	0.2179	0.099	0.7879	0.039
Mof_H 	H 	0.2694	0.1947	0.9509	0.019
Mof_H 	H 	0.5171	0.0331	0.7591	0.041
Mof_H 	H 	0.9064	0.8072	0.0113	0.067
Mof_H 	H 	0.997	0.2154	0.1258	0.17
Mof_H 	H 	0.6948	0.9314	0.7043	0.156
Mof_H 	H 	0.9304	0.4004	0.9053	0.054
Mof_H 	H 	0.9124	0.0684	0.5968	0.074
Mof_H 	H 	0.003	0.7846	0.8742	0.17
Mof_H 	H 	0.126	0.8789	0.5725	0.064
Mof_H 	H 	0.5085	0.8079	0.3081	-0.049
Mof_H 	H 	0.9711	0.7227	0.0222	0.09
Mof_H 	H 	0.2014	0.1163	0.1529	0.088
Mof_H 	H 	0.2827	0.115	0.9198	0.107
Mof_H 	H 	0.3121	0.181	0.8738	0.06
Mof_H 	H 	0.497	0.7846	0.3742	0.166
Mof_H 	H 	0.0018	0.2069	0.0977	0.039
Mof_H 	H 	0.2157	0.0972	0.9377	0.029
Mof_H 	H 	0.5989	0.0447	0.5889	0.207
Mof_H 	H 	0.2232	0.0114	0.1735	0.087
Mof_H 	H 	0.8071	0.8878	0.6	-0.016
Mof_H 	H 	0.1929	0.1122	0.4	-0.016
Mof_H 	H 	0.3052	0.0686	0.2957	0.156
Mof_H 	H 	0.0091	0.8132	0.8354	0.192
Mof_H 	H 	0.5446	0.0657	0.5311	0.159
Mof_H 	H 	0.3601	0.2891	0.4803	0.099
Mof_H 	H 	0.2548	0.013	0.6268	0.089
Mof_H 	H 	0.7694	0.8053	0.5491	0.019
Mof_H 	H 	0.2768	0.0114	0.6735	0.087
Mof_H 	H 	0.8916	0.9027	0.1987	0.105
Mof_H 	H 	0.7821	0.901	0.2121	0.039
Mof_H 	H 	0.2986	0.1163	0.6529	0.088
Mof_H 	H 	0.655	0.9082	0.2941	0.073
Mof_H 	H 	0.9203	0.986	0.1283	0.221
Mof_H 	H 	0.4011	0.9553	0.4111	0.207
Mof_H 	H 	0.9148	0.035	0.0707	0.291
Mof_H 	H 	0.3071	0.1122	0.9	-0.016
Mof_H 	H 	0.4078	0.2027	0.6386	-0.041
Mof_H 	H 	0.1399	0.2891	0.9803	0.099
Mof_H 	H 	0.2694	0.2252	0.9382	0.047
Mof_H 	H 	0.6793	0.9558	0.6621	0.085
Mof_H 	H 	0.2306	0.2252	0.4382	0.047
Mof_H 	H 	0.5018	0.7931	0.4023	0.04
Mof_H 	H 	0.7179	0.901	0.7121	0.039
Mof_H 	H 	0.8121	0.819	0.6262	0.059
Mof_H 	H 	0.6153	0.0911	0.6355	0.178
Mof_H 	H 	0.4711	0.2773	0.4778	0.09
Mof_H 	H 	0.7302	0.8288	0.7076	0.059
Mof_H 	H 	0.0852	0.965	0.9293	0.291
Mof_H 	H 	0.0936	0.1928	0.9887	0.067
Mof_H 	H 	0.4304	0.5996	0.5947	0.054
Mof_H 	H 	0.5852	0.035	0.5707	0.297
Mof_H 	H 	0.4203	0.014	0.3717	0.228
Mof_H 	H 	0.0876	0.9316	0.4032	0.074
Mof_H 	H 	0.2843	0.0972	0.4377	0.029
Mof_H 	H 	0.9982	0.7931	0.9023	0.039
Mof_H 	H 	0.614	0.381	0.581	0.071
Mof_H 	H 	0.7827	0.885	0.5802	0.107
Mof_H 	H 	0.0446	0.9343	0.9689	0.156
Mof_H 	H 	0.1879	0.181	0.3738	0.059
Mof_H 	H 	0.4982	0.2069	0.5977	0.04
Mof_H 	H 	0.5091	0.1868	0.6646	0.188
Mof_H 	H 	0.3621	0.2378	0.4853	0.09
Mof_H 	H 	0.9829	0.0331	0.2591	0.041
Mof_H 	H 	0.7768	0.9886	0.8265	0.087
Mof_H 	H 	0.8788	0.8523	0.2119	0.068
Mof_H 	H 	0.8843	0.6638	0.0328	0.058
Mof_H 	H 	0.6157	0.6638	0.5328	0.058
Mof_H 	H 	0.8601	0.7109	0.0197	0.099
Mof_H 	H 	0.9678	0.7318	0.0227	0.034
Mof_H 	H 	0.1379	0.2378	0.9853	0.09
Mof_H 	H 	0.9554	0.0657	0.0311	0.156
Mof_H 	H 	0.9078	0.7973	0.8614	-0.041
Mof_H 	H 	0.6084	0.9027	0.6987	0.106
Mof_H 	H 	0.1157	0.3362	0.9672	0.058
Mof_H 	H 	0.386	0.619	0.419	0.071
Mof_H 	H 	0.4554	0.9343	0.4689	0.159
Mof_H 	H 	0.7452	0.987	0.3732	0.089
Mof_H 	H 	0.4915	0.1921	0.6919	-0.049
Mof_H 	H 	0.3788	0.1477	0.2881	0.069
Mof_H 	H 	0.345	0.0918	0.7059	0.073
Mof_H 	H 	0.0085	0.1921	0.1919	-0.052
Mof_H 	H 	0.626	0.1211	0.9275	0.063
Mof_H 	H 	0.2302	0.1712	0.7924	0.059
Mof_H 	H 	0.3847	0.9089	0.3645	0.178
Mof_H 	H 	0.4064	0.1928	0.4887	0.067
Mof_H 	H 	0.6212	0.8523	0.7119	0.069
Mof_H 	H 	0.7014	0.8837	0.3471	0.088
Mof_H 	H 	0.7698	0.8288	0.2076	0.059
Mof_H 	H 	0.9802	0.5086	0.2467	0.063
Mof_H 	H 	0.2306	0.1947	0.4509	0.019
Mof_H 	H 	0.874	0.1211	0.4275	0.064
Mof_H 	H 	0.0987	0.2	0.1514	0.178
Mof_H 	H 	0.5797	0.986	0.6283	0.228
Mof_H 	H 	0.97	0.9684	0.0525	0.194
Mof_H 	H 	0.0922	0.2027	0.1386	-0.041
Mof_H 	H 	0.8621	0.7622	0.0147	0.09
Mof_H 	H 	0.5289	0.7227	0.5222	0.09
Mof_H 	H 	0.9013	0.8	0.8486	0.178
Mof_H 	H 	0.0696	0.5996	0.0947	0.054
Mof_H 	H 	0.4013	0.2	0.6514	0.176
Mof_H 	H 	0.1212	0.1477	0.7881	0.068
Mof_H 	H 	0.47	0.0316	0.4475	0.201
Mof_H 	H 	0.5322	0.7318	0.5227	0.034
Mof_H 	H 	0.7167	0.8924	0.3503	0.051
Mof_H 	H 	0.7694	0.7748	0.5618	0.047
Mof_H 	H 	0.5198	0.5086	0.7467	0.063
Mof_H 	H 	0.2821	0.099	0.2879	0.039
Mof_H 	H 	0.8847	0.0911	0.1355	0.174
Mof_H 	H 	0.4802	0.4914	0.2533	0.063
Mof_H 	H 	0.6399	0.7109	0.5197	0.099
Mof_H 	H 	0.4909	0.8132	0.3354	0.188
Mof_H 	H 	0.1793	0.0442	0.8379	0.084
Mof_H 	H 	0.2452	0.013	0.1268	0.089
Mof_H 	H 	0.0322	0.2682	0.9773	0.034
Mof_H 	H 	0.503	0.2154	0.6258	0.166
Mof_H 	H 	0.374	0.8789	0.0725	0.063
Mof_H 	H 	0.886	0.381	0.081	0.071
Mof_H 	H 	0.845	0.9082	0.7941	0.073
Mof_H 	H 	0.7232	0.9886	0.3265	0.087
Mof_H 	H 	0.5922	0.7973	0.3614	-0.041
Mof_H 	H 	0.2173	0.115	0.4198	0.107
Mof_H 	H 	0.7306	0.8053	0.0491	0.019
Mof_H 	H 	0.4829	0.9669	0.2409	0.041
Mof_H 	H 	0.4678	0.2682	0.4773	0.034
Mof_H 	H 	0.7986	0.8837	0.8471	0.088
Mof_H 	H 	0.1948	0.0686	0.7957	0.155
Mof_H 	H 	0.2698	0.1712	0.2924	0.059
Mof_H 	H 	0.4124	0.9316	0.9032	0.074
Mof_H 	H 	0.6929	0.8878	0.1	-0.016
Mof_H 	H 	0.1153	0.9089	0.8645	0.174
Mof_H 	H 	0.9915	0.8079	0.8081	-0.052
Mof_H 	H 	0.155	0.0918	0.2059	0.073
Mof_H 	H 	0.4148	0.965	0.4293	0.297
Mof_H 	H 	0.3843	0.3362	0.4672	0.058
Mof_H 	H 	0.5696	0.4004	0.4053	0.054
Mof_H 	H 	0.7833	0.8924	0.8503	0.051
Mof_H 	H 	0.3207	0.0442	0.3379	0.085
Mof_H 	H 	0.53	0.9684	0.5525	0.201
Mof_H 	H 	0.0289	0.2773	0.9778	0.09
Mof_H 	H 	0.03	0.0316	0.9475	0.194
Mof_H 	H 	0.2167	0.1076	0.1497	0.051
Mof_H 	H 	0.0989	0.9553	0.9111	0.2
Mof_H 	H 	0.6879	0.819	0.1262	0.06
Mof_H 	H 	0.0171	0.9669	0.7409	0.041
Mof_H 	H 	0.2833	0.1076	0.6497	0.051
Mof_H 	H 	0.7157	0.9028	0.5623	0.029
Mof_H 	H 	0.7306	0.7748	0.0618	0.047
Mof_H 	H 	0.7548	0.987	0.8732	0.089
Mof_H 	H 	0.9011	0.0447	0.0889	0.2
Mof_H 	H 	0.5876	0.0684	0.0968	0.074
Mof_H 	H 	0.7843	0.9028	0.0623	0.029
Mof_H 	H 	0.7173	0.885	0.0802	0.107
Mof_H 	H 	0.114	0.619	0.919	0.071
Mof_H 	H 	0.1084	0.0973	0.8013	0.105
Mof_C 	C 	0.4171	0.916	0.09834	-0.069
Mof_C 	C 	0.5828	0.0863	0.83924	-0.082
Mof_C 	C 	0.5405	0.0352	0.5661	-0.54
Mof_C 	C 	0.404	0.271	0.4624	-0.197
Mof_C 	C 	0.5301	0.8235	0.3715	-0.357
Mof_C 	C 	0.8072	0.9471	0.8649	-0.228
Mof_C 	C 	0.0184	0.9692	0.69918	0.001
Mof_C 	C 	0.671	0.901	0.6808	-0.271
Mof_C 	C 	0.0828	0.9137	0.66076	-0.082
Mof_C 	C 	0.0219	0.5113	0.92254	0.08
Mof_C 	C 	0.411	0.2456	0.4677	-0.206
Mof_C 	C 	0.2511	0.1422	0.9196	-0.056
Mof_C 	C 	0.5184	0.0308	0.80082	0
Mof_C 	C 	0.4809	0.9734	0.07426	0.08
Mof_C 	C 	0.9797	0.5032	0.20418	-0.02
Mof_C 	C 	0.4641	0.5641	0.6764	-0.06
Mof_C 	C 	0.577	0.4273	0.60508	-0.087
Mof_C 	C 	0.0405	0.9648	0.9339	-0.523
Mof_C 	C 	0.9641	0.4359	0.8236	-0.059
Mof_C 	C 	0.589	0.7544	0.5323	-0.206
Mof_C 	C 	0.423	0.5727	0.39492	-0.087
Mof_C 	C 	0.089	0.2456	0.9677	-0.206
Mof_C 	C 	0.928	0.0448	0.1139	-0.602
Mof_C 	C 	0.5339	0.4421	0.38694	-0.063
Mof_C 	C 	0.3072	0.0529	0.6351	-0.228
Mof_C 	C 	0.8998	0.7802	0.1138	0.197
Mof_C 	C 	0.0339	0.5579	0.11306	-0.062
Mof_C 	C 	0.9699	0.8235	0.8715	-0.363
Mof_C 	C 	0.8913	0.0956	0.71733	0.359
Mof_C 	C 	0.886	0.9775	0.8771	0.171
Mof_C 	C 	0.4559	0.9717	0.82464	-0.077
Mof_C 	C 	0.329	0.099	0.3192	-0.271
Mof_C 	C 	0.4699	0.1765	0.6285	-0.357
Mof_C 	C 	0.6392	0.3708	0.69779	0.28
Mof_C 	C 	0.077	0.5727	0.89492	-0.087
Mof_C 	C 	0.1031	0.6319	0.21459	0.326
Mof_C 	C 	0.5191	0.0266	0.92574	0.08
Mof_C 	C 	0.6815	0.9383	0.3328	-0.188
Mof_C 	C 	0.6928	0.9471	0.3649	-0.228
Mof_C 	C 	0.5937	0.7888	0.5991	0.065
Mof_C 	C 	0.8197	0.865	0.1933	-0.189
Mof_C 	C 	0.0333	0.1803	0.1508	-0.096
Mof_C 	C 	0.9063	0.7888	0.0991	0.066
Mof_C 	C 	0.923	0.4273	0.10508	-0.087
Mof_C 	C 	0.3608	0.6292	0.30221	0.28
Mof_C 	C 	0.1564	0.8526	0.68482	0.358
Mof_C 	C 	0.4661	0.5579	0.61306	-0.063
Mof_C 	C 	0.0881	0.0146	0.1165	0.052
Mof_C 	C 	0.3197	0.135	0.3067	-0.19
Mof_C 	C 	0.0829	0.916	0.59834	-0.069
Mof_C 	C 	0.5829	0.084	0.90166	-0.069
Mof_C 	C 	0.4063	0.2112	0.4009	0.065
Mof_C 	C 	0.4595	0.9648	0.4339	-0.54
Mof_C 	C 	0.171	0.099	0.8192	-0.269
Mof_C 	C 	0.5441	0.0283	0.17536	-0.077
Mof_C 	C 	0.8185	0.9383	0.8328	-0.189
Mof_C 	C 	0.1392	0.6292	0.80221	0.28
Mof_C 	C 	0.386	0.0225	0.6229	0.171
Mof_C 	C 	0.4552	0.9701	0.88722	-0.067
Mof_C 	C 	0.5881	0.9854	0.3835	0.053
Mof_C 	C 	0.072	0.9552	0.8861	-0.602
Mof_C 	C 	0.3185	0.0617	0.6672	-0.188
Mof_C 	C 	0.3436	0.8526	0.18482	0.358
Mof_C 	C 	0.1002	0.2198	0.8862	0.197
Mof_C 	C 	0.6564	0.1474	0.81518	0.358
Mof_C 	C 	0.9661	0.4421	0.88694	-0.062
Mof_C 	C 	0.8436	0.1474	0.31518	0.358
Mof_C 	C 	0.4119	0.0146	0.6165	0.053
Mof_C 	C 	0.5765	0.4355	0.66883	-0.039
Mof_C 	C 	0.4172	0.9137	0.16076	-0.082
Mof_C 	C 	0.5219	0.4887	0.57746	0.081
Mof_C 	C 	0.1928	0.0529	0.1351	-0.228
Mof_C 	C 	0.428	0.9552	0.3861	-0.621
Mof_C 	C 	0.9781	0.4887	0.07746	0.08
Mof_C 	C 	0.8608	0.3708	0.19779	0.28
Mof_C 	C 	0.5203	0.5032	0.70418	-0.019
Mof_C 	C 	0.9119	0.9854	0.8835	0.052
Mof_C 	C 	0.6002	0.7802	0.6138	0.198
Mof_C 	C 	0.4797	0.4968	0.29582	-0.019
Mof_C 	C 	0.0301	0.1765	0.1285	-0.363
Mof_C 	C 	0.0937	0.2112	0.9009	0.066
Mof_C 	C 	0.614	0.9775	0.3771	0.171
Mof_C 	C 	0.596	0.729	0.5376	-0.197
Mof_C 	C 	0.5333	0.8197	0.3492	-0.094
Mof_C 	C 	0.0359	0.5641	0.1764	-0.059
Mof_C 	C 	0.9667	0.8197	0.8492	-0.096
Mof_C 	C 	0.114	0.0225	0.1229	0.171
Mof_C 	C 	0.5448	0.0299	0.11278	-0.067
Mof_C 	C 	0.5359	0.4359	0.3236	-0.06
Mof_C 	C 	0.2329	0.1719	0.4048	-0.12
Mof_C 	C 	0.0203	0.4968	0.79582	-0.02
Mof_C 	C 	0.7489	0.8578	0.0804	-0.056
Mof_C 	C 	0.2489	0.1422	0.4196	-0.055
Mof_C 	C 	0.572	0.0448	0.6139	-0.621
Mof_C 	C 	0.096	0.271	0.9624	-0.197
Mof_C 	C 	0.911	0.7544	0.0323	-0.206
Mof_C 	C 	0.1087	0.9044	0.28267	0.359
Mof_C 	C 	0.8969	0.3681	0.78541	0.326
Mof_C 	C 	0.0191	0.9734	0.57426	0.081
Mof_C 	C 	0.7329	0.8281	0.0952	-0.122
Mof_C 	C 	0.9816	0.0308	0.30082	0.001
Mof_C 	C 	0.829	0.901	0.1808	-0.269
Mof_C 	C 	0.4235	0.5645	0.33117	-0.039
Mof_C 	C 	0.904	0.729	0.0376	-0.197
Mof_C 	C 	0.9809	0.0266	0.42574	0.081
Mof_C 	C 	0.9172	0.0863	0.33924	-0.082
Mof_C 	C 	0.3998	0.2198	0.3862	0.198
Mof_C 	C 	0.3969	0.6319	0.71459	0.326
Mof_C 	C 	0.3913	0.9044	0.78267	0.359
Mof_C 	C 	0.2671	0.1719	0.9048	-0.122
Mof_C 	C 	0.0765	0.5645	0.83117	-0.038
Mof_C 	C 	0.6031	0.3681	0.28541	0.326
Mof_C 	C 	0.6087	0.0956	0.21733	0.359
Mof_C 	C 	0.4667	0.1803	0.6508	-0.094
Mof_C 	C 	0.0448	0.9701	0.38722	-0.068
Mof_C 	C 	0.4816	0.9692	0.19918	0
Mof_C 	C 	0.9595	0.0352	0.0661	-0.523
Mof_C 	C 	0.6803	0.865	0.6933	-0.19
Mof_C 	C 	0.4781	0.5113	0.42254	0.081
Mof_C 	C 	0.0441	0.9717	0.32464	-0.077
Mof_C 	C 	0.1803	0.135	0.8067	-0.189
Mof_C 	C 	0.9552	0.0299	0.61278	-0.068
Mof_C 	C 	0.7671	0.8281	0.5952	-0.12
Mof_C 	C 	0.9559	0.0283	0.67536	-0.077
Mof_C 	C 	0.9171	0.084	0.40166	-0.069
Mof_C 	C 	0.1815	0.0617	0.1672	-0.189
Mof_C 	C 	0.7511	0.8578	0.5804	-0.055
Mof_C 	C 	0.9235	0.4355	0.16883	-0.038
Mof_N 	N 	0.9741	0.0291	0.49048	-0.091
Mof_N 	N 	0.0269	0.079	0.1253	0.275
Mof_N 	N 	0.8195	0.8169	0.1351	0.472
Mof_N 	N 	0.462	0.076	0.6051	-0.236
Mof_N 	N 	0.3282	0.1634	0.3787	-0.577
Mof_N 	N 	0.3195	0.1831	0.3649	0.477
Mof_N 	N 	0.038	0.076	0.1051	-0.238
Mof_N 	N 	0.6805	0.8169	0.6351	0.477
Mof_N 	N 	0.4717	0.5246	0.48822	-0.098
Mof_N 	N 	0.1805	0.1831	0.8649	0.472
Mof_N 	N 	0.1718	0.1634	0.8787	-0.572
Mof_N 	N 	0.0283	0.5246	0.98822	-0.098
Mof_N 	N 	0.5259	0.0291	0.99048	-0.092
Mof_N 	N 	0.0259	0.9709	0.50952	-0.091
Mof_N 	N 	0.6718	0.8366	0.6213	-0.577
Mof_N 	N 	0.9731	0.921	0.8747	0.275
Mof_N 	N 	0.538	0.924	0.3949	-0.236
Mof_N 	N 	0.9717	0.4754	0.01178	-0.098
Mof_N 	N 	0.5283	0.4754	0.51178	-0.098
Mof_N 	N 	0.4741	0.9709	0.00952	-0.092
Mof_N 	N 	0.4731	0.079	0.6253	0.275
Mof_N 	N 	0.5269	0.921	0.3747	0.275
Mof_N 	N 	0.8282	0.8366	0.1213	-0.572
Mof_N 	N 	0.962	0.924	0.8949	-0.238
Mof_O 	O 	0.5233	0.7872	0.6278	-0.114
Mof_O 	O 	0.8873	0.0645	0.901	0.133
Mof_O 	O 	0.85135	0.30974	0.81225	-0.435
Mof_O 	O 	0.3873	0.9355	0.599	0.122
Mof_O 	O 	0.64563	0.16387	0.76194	-0.386
Mof_O 	O 	0.88222	0.37251	0.73092	-0.304
Mof_O 	O 	0.61778	0.37251	0.23092	-0.304
Mof_O 	O 	0.101	0.90325	0.22618	-0.385
Mof_O 	O 	0.14894	0.61572	0.74485	-0.311
Mof_O 	O 	0.4723	0.2252	0.3602	-0.216
Mof_O 	O 	0.33643	0.85374	0.808	-0.388
Mof_O 	O 	0.83643	0.14626	0.692	-0.389
Mof_O 	O 	0.5277	0.7748	0.6398	-0.216
Mof_O 	O 	0.4767	0.2128	0.3722	-0.114
Mof_O 	O 	0.16357	0.85374	0.308	-0.389
Mof_O 	O 	0.64894	0.38428	0.75515	-0.311
Mof_O 	O 	0.601	0.09675	0.27382	-0.385
Mof_O 	O 	0.35437	0.83613	0.23806	-0.386
Mof_O 	O 	0.22318	0.8226	0.64936	-0.405
Mof_O 	O 	0.35135	0.69026	0.68775	-0.435
Mof_O 	O 	0.77682	0.1774	0.35064	-0.405
Mof_O 	O 	0.68133	0.30377	0.66269	-0.345
Mof_O 	O 	0.81867	0.30377	0.16269	-0.345
Mof_O 	O 	0.6127	0.0645	0.401	0.122
Mof_O 	O 	0.4237	0.9288	0.5992	-0.438
Mof_O 	O 	0.14563	0.83613	0.73806	-0.386
Mof_O 	O 	0.399	0.90325	0.72618	-0.385
Mof_O 	O 	0.64865	0.30974	0.31225	-0.435
Mof_O 	O 	0.899	0.09675	0.77382	-0.385
Mof_O 	O 	0.85106	0.38428	0.25515	-0.311
Mof_O 	O 	0.9767	0.7872	0.1278	-0.114
Mof_O 	O 	0.85437	0.16387	0.26194	-0.386
Mof_O 	O 	0.9723	0.7748	0.1398	-0.216
Mof_O 	O 	0.18133	0.69623	0.83731	-0.345
Mof_O 	O 	0.5763	0.0712	0.4008	-0.438
Mof_O 	O 	0.38222	0.62749	0.76908	-0.304
Mof_O 	O 	0.1127	0.9355	0.099	0.133
Mof_O 	O 	0.27682	0.8226	0.14936	-0.405
Mof_O 	O 	0.72318	0.1774	0.85064	-0.405
Mof_O 	O 	0.14865	0.69026	0.18775	-0.435
Mof_O 	O 	0.0233	0.2128	0.8722	-0.114
Mof_O 	O 	0.0763	0.9288	0.0992	-0.447
Mof_O 	O 	0.31867	0.69623	0.33731	-0.345
Mof_O 	O 	0.9237	0.0712	0.9008	-0.447
Mof_O 	O 	0.66357	0.14626	0.192	-0.388
Mof_O 	O 	0.11778	0.62749	0.26908	-0.304
Mof_O 	O 	0.35106	0.61572	0.24485	-0.311
Mof_O 	O 	0.0277	0.2252	0.8602	-0.216
_end
