# CIF file generated by openbabel 3.1.0, see https://openbabel.org
data_I
_chemical_name_common 'image0'
_cell_length_a 10.2394
_cell_length_b 37.7863
_cell_length_c 10.0731
_cell_angle_alpha 90
_cell_angle_beta 97.144
_cell_angle_gamma 90
_space_group_name_H-M_alt 'P 1'
_space_group_name_Hall 'P 1'
loop_
    _symmetry_equiv_pos_as_xyz
    x,y,z
loop_
    _atom_site_label
    _atom_site_type_symbol
    _atom_site_fract_x
    _atom_site_fract_y
    _atom_site_fract_z
    _atom_site_occupancy
    Pb1      Pb       0.75179    0.53078    0.99423    1.000
    Pb2      Pb       0.26797    0.21713    0.52425    1.000
    O1       O        0.02160    0.40539    0.90100    1.000
    O2       O        0.80640    0.47924    0.88240    1.000
    O3       O        0.02470    0.47790    0.87880    1.000
    O4       O        0.17640    0.34192    0.22720    1.000
    O5       O        0.15990    0.26920    0.45000    1.000
    O6       O        0.16250    0.26862    0.22800    1.000
    O7       O        0.46970    0.41372    0.11260    1.000
    O8       O        0.68710    0.48700    0.13560    1.000
    O9       O        0.46790    0.48605    0.12980    1.000
    O10      O        0.32790    0.33610    0.81140    1.000
    O11      O        0.40750    0.26033    0.62670    1.000
    O12      O        0.40850    0.26760    0.84730    1.000
    C1       C        0.00460    0.36864    0.89510    1.000
    C2       C        0.03830    0.35118    0.78150    1.000
    C3       C        0.01880    0.31469    0.77210    1.000
    H1       H        0.04120    0.30230    0.69600    1.000
    C4       C        0.96750    0.29637    0.87180    1.000
    H2       H        0.95120    0.27170    0.86240    1.000
    C5       C        0.93970    0.31384    0.98600    1.000
    H3       H        0.90820    0.30080    0.05600    1.000
    C6       C        0.95740    0.35031    0.99950    1.000
    C7       C        0.15780    0.37819    0.23980    1.000
    C8       C        0.03430    0.39202    0.19270    1.000
    C9       C        0.01310    0.42803    0.20830    1.000
    H4       H        0.92970    0.43790    0.17630    1.000
    C10      C        0.11000    0.44954    0.26900    1.000
    H5       H        0.09310    0.47400    0.28070    1.000
    C11      C        0.23340    0.43560    0.31350    1.000
    H6       H        0.30110    0.45080    0.35330    1.000
    C12      C        0.25930    0.39950    0.30050    1.000
    C13      C        0.48960    0.37722    0.13400    1.000
    C14      C        0.45930    0.36311    0.25400    1.000
    C15      C        0.49310    0.32816    0.28360    1.000
    H7       H        0.47460    0.31810    0.36570    1.000
    C16      C        0.55290    0.30795    0.19570    1.000
    H8       H        0.57970    0.28440    0.21860    1.000
    C17      C        0.57390    0.32197    0.07360    1.000
    H9       H        0.61160    0.30740    0.01180    1.000
    C18      C        0.54180    0.35662    0.03820    1.000
    C19      C        0.33340    0.37231    0.78370    1.000
    C20      C        0.45040    0.38989    0.82630    1.000
    C21      C        0.46170    0.42522    0.79160    1.000
    H10      H        0.54150    0.43760    0.81830    1.000
    C22      C        0.35850    0.44240    0.71930    1.000
    H11      H        0.36770    0.46640    0.69420    1.000
    C23      C        0.24180    0.42497    0.68290    1.000
    H12      H        0.17060    0.43750    0.63470    1.000
    C24      C        0.22460    0.38940    0.71460    1.000
    C25      C        0.92700    0.36821    0.12680    1.000
    H13      H        0.90890    0.34970    0.19160    1.000
    H14      H        0.84570    0.38240    0.10600    1.000
    C26      C        0.39460    0.38583    0.35150    1.000
    H15      H        0.45250    0.40630    0.37710    1.000
    H16      H        0.38840    0.37180    0.43350    1.000
    C27      C        0.56440    0.37042    0.90280    1.000
    H17      H        0.64130    0.38650    0.91460    1.000
    H18      H        0.58760    0.35020    0.84780    1.000
    C28      C        0.09460    0.37136    0.67320    1.000
    H19      H        0.10560    0.35480    0.59930    1.000
    H20      H        0.02990    0.38950    0.63760    1.000
    C29      C        0.90000    0.42387    0.86890    1.000
    H21      H        0.86220    0.41770    0.77650    1.000
    H22      H        0.83720    0.41590    0.93000    1.000
    C30      C        0.91560    0.46374    0.87980    1.000
    C31      C        0.15850    0.32384    0.34880    1.000
    H23      H        0.22850    0.33130    0.41990    1.000
    H24      H        0.07290    0.33100    0.37660    1.000
    C32      C        0.16180    0.28365    0.33620    1.000
    C33      C        0.59190    0.43193    0.13910    1.000
    H25      H        0.63450    0.42520    0.22930    1.000
    H26      H        0.65050    0.42440    0.07330    1.000
    C34      C        0.57670    0.47146    0.13260    1.000
    C35      C        0.33940    0.31493    0.69580    1.000
    H27      H        0.25220    0.31340    0.64130    1.000
    H28      H        0.40050    0.32670    0.64090    1.000
    C36      C        0.38860    0.27818    0.72940    1.000
    Pb3      Pb       0.73203    0.71713    0.97575    1.000
    Pb4      Pb       0.24821    0.03078    0.50576    1.000
    O13      O        0.97840    0.90539    0.59900    1.000
    O14      O        0.19360    0.97924    0.61760    1.000
    O15      O        0.97530    0.97790    0.62120    1.000
    O16      O        0.82360    0.84192    0.27280    1.000
    O17      O        0.84010    0.76920    0.05000    1.000
    O18      O        0.83750    0.76862    0.27200    1.000
    O19      O        0.53030    0.91372    0.38740    1.000
    O20      O        0.31290    0.98700    0.36440    1.000
    O21      O        0.53210    0.98605    0.37020    1.000
    O22      O        0.67210    0.83610    0.68860    1.000
    O23      O        0.59250    0.76033    0.87330    1.000
    O24      O        0.59150    0.76760    0.65270    1.000
    C37      C        0.99540    0.86864    0.60490    1.000
    C38      C        0.96170    0.85118    0.71850    1.000
    C39      C        0.98120    0.81469    0.72790    1.000
    H29      H        0.95880    0.80230    0.80400    1.000
    C40      C        0.03250    0.79637    0.62820    1.000
    H30      H        0.04880    0.77170    0.63760    1.000
    C41      C        0.06030    0.81384    0.51400    1.000
    H31      H        0.09180    0.80080    0.44400    1.000
    C42      C        0.04260    0.85031    0.50050    1.000
    C43      C        0.84220    0.87819    0.26020    1.000
    C44      C        0.96570    0.89202    0.30730    1.000
    C45      C        0.98690    0.92803    0.29170    1.000
    H32      H        0.07030    0.93790    0.32370    1.000
    C46      C        0.89000    0.94954    0.23100    1.000
    H33      H        0.90690    0.97400    0.21930    1.000
    C47      C        0.76660    0.93560    0.18650    1.000
    H34      H        0.69890    0.95080    0.14670    1.000
    C48      C        0.74070    0.89950    0.19950    1.000
    C49      C        0.51040    0.87722    0.36600    1.000
    C50      C        0.54070    0.86311    0.24600    1.000
    C51      C        0.50690    0.82816    0.21640    1.000
    H35      H        0.52540    0.81810    0.13430    1.000
    C52      C        0.44710    0.80795    0.30430    1.000
    H36      H        0.42030    0.78440    0.28140    1.000
    C53      C        0.42610    0.82197    0.42640    1.000
    H37      H        0.38840    0.80740    0.48820    1.000
    C54      C        0.45820    0.85662    0.46180    1.000
    C55      C        0.66660    0.87231    0.71630    1.000
    C56      C        0.54960    0.88989    0.67370    1.000
    C57      C        0.53830    0.92522    0.70840    1.000
    H38      H        0.45850    0.93760    0.68170    1.000
    C58      C        0.64150    0.94240    0.78070    1.000
    H39      H        0.63230    0.96640    0.80580    1.000
    C59      C        0.75820    0.92497    0.81710    1.000
    H40      H        0.82940    0.93750    0.86530    1.000
    C60      C        0.77540    0.88940    0.78540    1.000
    C61      C        0.07300    0.86821    0.37320    1.000
    H41      H        0.09110    0.84970    0.30840    1.000
    H42      H        0.15430    0.88240    0.39400    1.000
    C62      C        0.60540    0.88583    0.14850    1.000
    H43      H        0.54750    0.90630    0.12290    1.000
    H44      H        0.61160    0.87180    0.06650    1.000
    C63      C        0.43560    0.87042    0.59720    1.000
    H45      H        0.35870    0.88650    0.58540    1.000
    H46      H        0.41240    0.85020    0.65220    1.000
    C64      C        0.90540    0.87136    0.82680    1.000
    H47      H        0.89440    0.85480    0.90070    1.000
    H48      H        0.97010    0.88950    0.86240    1.000
    C65      C        0.10000    0.92387    0.63110    1.000
    H49      H        0.13780    0.91770    0.72350    1.000
    H50      H        0.16280    0.91590    0.57000    1.000
    C66      C        0.08440    0.96374    0.62020    1.000
    C67      C        0.84150    0.82384    0.15120    1.000
    H51      H        0.77150    0.83130    0.08010    1.000
    H52      H        0.92710    0.83100    0.12340    1.000
    C68      C        0.83820    0.78365    0.16380    1.000
    C69      C        0.40810    0.93193    0.36090    1.000
    H53      H        0.36550    0.92520    0.27070    1.000
    H54      H        0.34950    0.92440    0.42670    1.000
    C70      C        0.42330    0.97146    0.36740    1.000
    C71      C        0.66060    0.81493    0.80420    1.000
    H55      H        0.74780    0.81340    0.85870    1.000
    H56      H        0.59950    0.82670    0.85910    1.000
    C72      C        0.61140    0.77818    0.77060    1.000
    O25      O        0.97840    0.59461    0.09900    1.000
    O26      O        0.19360    0.52076    0.11760    1.000
    O27      O        0.97530    0.52210    0.12120    1.000
    O28      O        0.82360    0.65808    0.77280    1.000
    O29      O        0.84010    0.73080    0.55000    1.000
    O30      O        0.83750    0.73138    0.77200    1.000
    O31      O        0.53030    0.58628    0.88740    1.000
    O32      O        0.31290    0.51300    0.86440    1.000
    O33      O        0.53210    0.51395    0.87020    1.000
    O34      O        0.67210    0.66390    0.18860    1.000
    O35      O        0.59250    0.73967    0.37330    1.000
    O36      O        0.59150    0.73240    0.15270    1.000
    C73      C        0.99540    0.63136    0.10490    1.000
    C74      C        0.96170    0.64882    0.21850    1.000
    C75      C        0.98120    0.68531    0.22790    1.000
    H57      H        0.95880    0.69770    0.30400    1.000
    C76      C        0.03250    0.70363    0.12820    1.000
    H58      H        0.04880    0.72830    0.13760    1.000
    C77      C        0.06030    0.68616    0.01400    1.000
    H59      H        0.09180    0.69920    0.94400    1.000
    C78      C        0.04260    0.64969    0.00050    1.000
    C79      C        0.84220    0.62181    0.76020    1.000
    C80      C        0.96570    0.60798    0.80730    1.000
    C81      C        0.98690    0.57197    0.79170    1.000
    H60      H        0.07030    0.56210    0.82370    1.000
    C82      C        0.89000    0.55046    0.73100    1.000
    H61      H        0.90690    0.52600    0.71930    1.000
    C83      C        0.76660    0.56440    0.68650    1.000
    H62      H        0.69890    0.54920    0.64670    1.000
    C84      C        0.74070    0.60050    0.69950    1.000
    C85      C        0.51040    0.62278    0.86600    1.000
    C86      C        0.54070    0.63689    0.74600    1.000
    C87      C        0.50690    0.67184    0.71640    1.000
    H63      H        0.52540    0.68190    0.63430    1.000
    C88      C        0.44710    0.69205    0.80430    1.000
    H64      H        0.42030    0.71560    0.78140    1.000
    C89      C        0.42610    0.67803    0.92640    1.000
    H65      H        0.38840    0.69260    0.98820    1.000
    C90      C        0.45820    0.64338    0.96180    1.000
    C91      C        0.66660    0.62769    0.21630    1.000
    C92      C        0.54960    0.61011    0.17370    1.000
    C93      C        0.53830    0.57478    0.20840    1.000
    H66      H        0.45850    0.56240    0.18170    1.000
    C94      C        0.64150    0.55760    0.28070    1.000
    H67      H        0.63230    0.53360    0.30580    1.000
    C95      C        0.75820    0.57503    0.31710    1.000
    H68      H        0.82940    0.56250    0.36530    1.000
    C96      C        0.77540    0.61060    0.28540    1.000
    C97      C        0.07300    0.63179    0.87320    1.000
    H69      H        0.09110    0.65030    0.80840    1.000
    H70      H        0.15430    0.61760    0.89400    1.000
    C98      C        0.60540    0.61417    0.64850    1.000
    H71      H        0.54750    0.59370    0.62290    1.000
    H72      H        0.61160    0.62820    0.56650    1.000
    C99      C        0.43560    0.62958    0.09720    1.000
    H73      H        0.35870    0.61350    0.08540    1.000
    H74      H        0.41240    0.64980    0.15220    1.000
    C100     C        0.90540    0.62864    0.32680    1.000
    H75      H        0.89440    0.64520    0.40070    1.000
    H76      H        0.97010    0.61050    0.36240    1.000
    C101     C        0.10000    0.57613    0.13110    1.000
    H77      H        0.13780    0.58230    0.22350    1.000
    H78      H        0.16280    0.58410    0.07000    1.000
    C102     C        0.08440    0.53626    0.12020    1.000
    C103     C        0.84150    0.67616    0.65120    1.000
    H79      H        0.77150    0.66870    0.58010    1.000
    H80      H        0.92710    0.66900    0.62340    1.000
    C104     C        0.83820    0.71635    0.66380    1.000
    C105     C        0.40810    0.56807    0.86090    1.000
    H81      H        0.36550    0.57480    0.77070    1.000
    H82      H        0.34950    0.57560    0.92670    1.000
    C106     C        0.42330    0.52854    0.86740    1.000
    C107     C        0.66060    0.68507    0.30420    1.000
    H83      H        0.74780    0.68660    0.35870    1.000
    H84      H        0.59950    0.67330    0.35910    1.000
    C108     C        0.61140    0.72182    0.27060    1.000
    Pb5      Pb       0.24821    0.46922    0.00577    1.000
    Pb6      Pb       0.73203    0.78287    0.47575    1.000
    O37      O        0.02160    0.09461    0.40100    1.000
    O38      O        0.80640    0.02076    0.38240    1.000
    O39      O        0.02470    0.02210    0.37880    1.000
    O40      O        0.17640    0.15808    0.72720    1.000
    O41      O        0.15990    0.23080    0.95000    1.000
    O42      O        0.16250    0.23138    0.72800    1.000
    O43      O        0.46970    0.08628    0.61260    1.000
    O44      O        0.68710    0.01300    0.63560    1.000
    O45      O        0.46790    0.01395    0.62980    1.000
    O46      O        0.32790    0.16390    0.31140    1.000
    O47      O        0.40750    0.23967    0.12670    1.000
    O48      O        0.40850    0.23240    0.34730    1.000
    C109     C        0.00460    0.13136    0.39510    1.000
    C110     C        0.03830    0.14882    0.28150    1.000
    C111     C        0.01880    0.18531    0.27210    1.000
    H85      H        0.04120    0.19770    0.19600    1.000
    C112     C        0.96750    0.20363    0.37180    1.000
    H86      H        0.95120    0.22830    0.36240    1.000
    C113     C        0.93970    0.18616    0.48600    1.000
    H87      H        0.90820    0.19920    0.55600    1.000
    C114     C        0.95740    0.14969    0.49950    1.000
    C115     C        0.15780    0.12181    0.73980    1.000
    C116     C        0.03430    0.10798    0.69270    1.000
    C117     C        0.01310    0.07197    0.70830    1.000
    H88      H        0.92970    0.06210    0.67630    1.000
    C118     C        0.11000    0.05046    0.76900    1.000
    H89      H        0.09310    0.02600    0.78070    1.000
    C119     C        0.23340    0.06440    0.81350    1.000
    H90      H        0.30110    0.04920    0.85330    1.000
    C120     C        0.25930    0.10050    0.80050    1.000
    C121     C        0.48960    0.12278    0.63400    1.000
    C122     C        0.45930    0.13689    0.75400    1.000
    C123     C        0.49310    0.17184    0.78360    1.000
    H91      H        0.47460    0.18190    0.86570    1.000
    C124     C        0.55290    0.19205    0.69570    1.000
    H92      H        0.57970    0.21560    0.71860    1.000
    C125     C        0.57390    0.17803    0.57360    1.000
    H93      H        0.61160    0.19260    0.51180    1.000
    C126     C        0.54180    0.14338    0.53820    1.000
    C127     C        0.33340    0.12769    0.28370    1.000
    C128     C        0.45040    0.11011    0.32630    1.000
    C129     C        0.46170    0.07478    0.29160    1.000
    H94      H        0.54150    0.06240    0.31830    1.000
    C130     C        0.35850    0.05760    0.21930    1.000
    H95      H        0.36770    0.03360    0.19420    1.000
    C131     C        0.24180    0.07503    0.18290    1.000
    H96      H        0.17060    0.06250    0.13470    1.000
    C132     C        0.22460    0.11060    0.21460    1.000
    C133     C        0.92700    0.13179    0.62680    1.000
    H97      H        0.90890    0.15030    0.69160    1.000
    H98      H        0.84570    0.11760    0.60600    1.000
    C134     C        0.39460    0.11417    0.85150    1.000
    H99      H        0.45250    0.09370    0.87710    1.000
    H100     H        0.38840    0.12820    0.93350    1.000
    C135     C        0.56440    0.12958    0.40280    1.000
    H101     H        0.64130    0.11350    0.41460    1.000
    H102     H        0.58760    0.14980    0.34780    1.000
    C136     C        0.09460    0.12864    0.17320    1.000
    H103     H        0.10560    0.14520    0.09930    1.000
    H104     H        0.02990    0.11050    0.13760    1.000
    C137     C        0.90000    0.07613    0.36890    1.000
    H105     H        0.86220    0.08230    0.27650    1.000
    H106     H        0.83720    0.08410    0.43000    1.000
    C138     C        0.91560    0.03626    0.37980    1.000
    C139     C        0.15850    0.17616    0.84880    1.000
    H107     H        0.22850    0.16870    0.91990    1.000
    H108     H        0.07290    0.16900    0.87660    1.000
    C140     C        0.16180    0.21635    0.83620    1.000
    C141     C        0.59190    0.06807    0.63910    1.000
    H109     H        0.63450    0.07480    0.72930    1.000
    H110     H        0.65050    0.07560    0.57330    1.000
    C142     C        0.57670    0.02854    0.63260    1.000
    C143     C        0.33940    0.18507    0.19580    1.000
    H111     H        0.25220    0.18660    0.14130    1.000
    H112     H        0.40050    0.17330    0.14090    1.000
    C144     C        0.38860    0.22182    0.22940    1.000
    Pb7      Pb       0.26797    0.28287    0.02425    1.000
    Pb8      Pb       0.75179    0.96922    0.49424    1.000
