data_functionalizedCrystal
_audit_creation_method	'EQeq! by Chris Wilmer'
_symmetry_space_group_name_H-M	'P1'
_symmetry_Int_Tables_number	1
_symmetry_cell_setting	triclinic
loop_
_symmetry_equiv_pos_as_xyz
  x,y,z
_cell_length_a	16.001
_cell_length_b	16.3796
_cell_length_c	16.3796
_cell_angle_alpha	76.1974
_cell_angle_beta	60.7617
_cell_angle_gamma	60.7617
loop_
_atom_site_label
_atom_site_type_symbol
_atom_site_fract_x
_atom_site_fract_y
_atom_site_fract_z
_atom_site_charge
Mof_Dy	Dy	0.41765	0.37961	0.96619	1.732
Mof_Dy	Dy	0.87537	0.11309	0.97501	1.815
Mof_Dy	Dy	0.26345	0.12039	0.53381	1.738
Mof_Dy	Dy	0.46347	0.38691	0.52499	1.886
Mof_Dy	Dy	0.38384	0.03381	0.87961	1.721
Mof_Dy	Dy	0.85038	0.02499	0.61309	1.85
Mof_Dy	Dy	0.79726	0.46619	0.62039	1.735
Mof_Dy	Dy	0.98846	0.47501	0.88691	1.845
Mof_Dy	Dy	0.58235	0.62039	0.03381	1.733
Mof_Dy	Dy	0.12463	0.88691	0.02499	1.816
Mof_Dy	Dy	0.73655	0.87961	0.46619	1.738
Mof_Dy	Dy	0.53653	0.61309	0.47501	1.886
Mof_Dy	Dy	0.61616	0.96619	0.12039	1.721
Mof_Dy	Dy	0.14962	0.97501	0.38691	1.85
Mof_Dy	Dy	0.20274	0.53381	0.37961	1.735
Mof_Dy	Dy	0.01154	0.52499	0.11309	1.845
Mof_H 	H 	0.9462	0.2486	0.7452	-0.058
Mof_H 	H 	0.5194	0.4004	0.7166	-0.066
Mof_H 	H 	0.44	0.2514	0.7548	-0.053
Mof_H 	H 	0.1364	0.0996	0.7834	-0.064
Mof_H 	H 	0.6914	0.2548	0.7486	-0.052
Mof_H 	H 	0.236	0.2834	0.9004	-0.065
Mof_H 	H 	0.1948	0.2452	0.7514	-0.052
Mof_H 	H 	0.9198	0.2166	0.5996	-0.069
Mof_H 	H 	0.0538	0.7514	0.2548	-0.058
Mof_H 	H 	0.4806	0.5996	0.2834	-0.066
Mof_H 	H 	0.56	0.7486	0.2452	-0.053
Mof_H 	H 	0.8636	0.9004	0.2166	-0.064
Mof_H 	H 	0.3086	0.7452	0.2514	-0.052
Mof_H 	H 	0.764	0.7166	0.0996	-0.065
Mof_H 	H 	0.8052	0.7548	0.2486	-0.052
Mof_H 	H 	0.0802	0.7834	0.4004	-0.069
Mof_C 	C 	0.8728	0.2753	0.7819	0.152
Mof_C 	C 	0.7197	0.2958	0.8938	-0.062
Mof_C 	C 	0.7075	0.3671	0.8281	-0.094
Mof_C 	C 	0.6459	0.2748	0.985	0.381
Mof_C 	C 	0.6156	0.4474	0.82	0.4
Mof_C 	C 	0.4477	0.4151	0.7401	0.163
Mof_C 	C 	0.2861	0.4444	0.837	-0.052
Mof_C 	C 	0.298	0.4526	0.7454	-0.081
Mof_C 	C 	0.1973	0.4547	0.9311	0.369
Mof_C 	C 	0.2253	0.4687	0.7063	0.413
Mof_C 	C 	0.43	0.2247	0.7181	0.152
Mof_C 	C 	0.4093	0.2042	0.6062	-0.071
Mof_C 	C 	0.4027	0.1329	0.6719	-0.09
Mof_C 	C 	0.4057	0.2252	0.515	0.409
Mof_C 	C 	0.383	0.0526	0.68	0.394
Mof_C 	C 	0.1029	0.0849	0.7599	0.164
Mof_C 	C 	0.0675	0.0556	0.663	-0.022
Mof_C 	C 	0.996	0.0474	0.7546	-0.123
Mof_C 	C 	0.0831	0.0453	0.5689	0.362
Mof_C 	C 	0.9003	0.0313	0.7937	0.425
Mof_C 	C 	0.6547	0.2181	0.7753	0.152
Mof_C 	C 	0.6135	0.1062	0.7958	-0.063
Mof_C 	C 	0.5356	0.1719	0.8671	-0.094
Mof_C 	C 	0.6309	0.015	0.7748	0.378
Mof_C 	C 	0.4356	0.18	0.9474	0.394
Mof_C 	C 	0.1878	0.2599	0.9151	0.162
Mof_C 	C 	0.1231	0.163	0.9444	-0.056
Mof_C 	C 	0.0434	0.2546	0.9526	-0.058
Mof_C 	C 	0.1284	0.0689	0.9547	0.372
Mof_C 	C 	0.9316	0.2937	0.9687	0.389
Mof_C 	C 	0.1481	0.2819	0.7247	0.154
Mof_C 	C 	0.0155	0.3938	0.7042	-0.058
Mof_C 	C 	0.0746	0.3281	0.6329	-0.094
Mof_C 	C 	0.9207	0.485	0.7252	0.398
Mof_C 	C 	0.063	0.32	0.5526	0.408
Mof_C 	C 	0.8628	0.2401	0.5849	0.162
Mof_C 	C 	0.7305	0.337	0.5556	-0.054
Mof_C 	C 	0.7506	0.2454	0.5474	-0.082
Mof_C 	C 	0.652	0.4311	0.5453	0.371
Mof_C 	C 	0.694	0.2063	0.5313	0.416
Mof_C 	C 	0.1272	0.7247	0.2181	0.152
Mof_C 	C 	0.2803	0.7042	0.1062	-0.062
Mof_C 	C 	0.2925	0.6329	0.1719	-0.094
Mof_C 	C 	0.3541	0.7252	0.015	0.381
Mof_C 	C 	0.3844	0.5526	0.18	0.4
Mof_C 	C 	0.5523	0.5849	0.2599	0.163
Mof_C 	C 	0.7139	0.5556	0.163	-0.052
Mof_C 	C 	0.702	0.5474	0.2546	-0.081
Mof_C 	C 	0.8027	0.5453	0.0689	0.369
Mof_C 	C 	0.7747	0.5313	0.2937	0.413
Mof_C 	C 	0.57	0.7753	0.2819	0.152
Mof_C 	C 	0.5907	0.7958	0.3938	-0.071
Mof_C 	C 	0.5973	0.8671	0.3281	-0.09
Mof_C 	C 	0.5943	0.7748	0.485	0.409
Mof_C 	C 	0.617	0.9474	0.32	0.394
Mof_C 	C 	0.8971	0.9151	0.2401	0.164
Mof_C 	C 	0.9325	0.9444	0.337	-0.022
Mof_C 	C 	0.004	0.9526	0.2454	-0.123
Mof_C 	C 	0.9169	0.9547	0.4311	0.362
Mof_C 	C 	0.0997	0.9687	0.2063	0.425
Mof_C 	C 	0.3453	0.7819	0.2247	0.152
Mof_C 	C 	0.3865	0.8938	0.2042	-0.063
Mof_C 	C 	0.4644	0.8281	0.1329	-0.094
Mof_C 	C 	0.3691	0.985	0.2252	0.378
Mof_C 	C 	0.5644	0.82	0.0526	0.394
Mof_C 	C 	0.8122	0.7401	0.0849	0.162
Mof_C 	C 	0.8769	0.837	0.0556	-0.056
Mof_C 	C 	0.9566	0.7454	0.0474	-0.058
Mof_C 	C 	0.8716	0.9311	0.0453	0.372
Mof_C 	C 	0.0684	0.7063	0.0313	0.389
Mof_C 	C 	0.8519	0.7181	0.2753	0.154
Mof_C 	C 	0.9845	0.6062	0.2958	-0.058
Mof_C 	C 	0.9254	0.6719	0.3671	-0.094
Mof_C 	C 	0.0793	0.515	0.2748	0.398
Mof_C 	C 	0.937	0.68	0.4474	0.408
Mof_C 	C 	0.1372	0.7599	0.4151	0.162
Mof_C 	C 	0.2695	0.663	0.4444	-0.054
Mof_C 	C 	0.2494	0.7546	0.4526	-0.082
Mof_C 	C 	0.348	0.5689	0.4547	0.371
Mof_C 	C 	0.306	0.7937	0.4687	0.416
Mof_N 	N 	0.8064	0.3532	0.7572	-0.228
Mof_N 	N 	0.8258	0.2378	0.864	-0.234
Mof_N 	N 	0.4019	0.433	0.6856	-0.256
Mof_N 	N 	0.3838	0.4196	0.8318	-0.263
Mof_N 	N 	0.4168	0.1468	0.7428	-0.228
Mof_N 	N 	0.4276	0.2622	0.636	-0.234
Mof_N 	N 	0.0205	0.067	0.8144	-0.233
Mof_N 	N 	0.1352	0.0804	0.6682	-0.267
Mof_N 	N 	0.5636	0.2428	0.8532	-0.228
Mof_N 	N 	0.6898	0.136	0.7378	-0.234
Mof_N 	N 	0.0875	0.3144	0.933	-0.253
Mof_N 	N 	0.2156	0.1682	0.9196	-0.261
Mof_N 	N 	0.1596	0.2572	0.6468	-0.227
Mof_N 	N 	0.0636	0.364	0.7622	-0.23
Mof_N 	N 	0.8349	0.1856	0.567	-0.256
Mof_N 	N 	0.8034	0.3318	0.5804	-0.263
Mof_N 	N 	0.1936	0.6468	0.2428	-0.228
Mof_N 	N 	0.1742	0.7622	0.136	-0.234
Mof_N 	N 	0.5981	0.567	0.3144	-0.256
Mof_N 	N 	0.6162	0.5804	0.1682	-0.263
Mof_N 	N 	0.5832	0.8532	0.2572	-0.228
Mof_N 	N 	0.5724	0.7378	0.364	-0.234
Mof_N 	N 	0.9795	0.933	0.1856	-0.233
Mof_N 	N 	0.8648	0.9196	0.3318	-0.267
Mof_N 	N 	0.4364	0.7572	0.1468	-0.228
Mof_N 	N 	0.3102	0.864	0.2622	-0.234
Mof_N 	N 	0.9125	0.6856	0.067	-0.253
Mof_N 	N 	0.7844	0.8318	0.0804	-0.261
Mof_N 	N 	0.8404	0.7428	0.3532	-0.227
Mof_N 	N 	0.9364	0.636	0.2378	-0.23
Mof_N 	N 	0.1651	0.8144	0.433	-0.256
Mof_N 	N 	0.1966	0.6682	0.4196	-0.263
Mof_O 	O 	0.5468	0.3202	0.0174	-0.505
Mof_O 	O 	0.6903	0.2059	0.0287	-0.471
Mof_O 	O 	0.6342	0.5076	0.757	-0.486
Mof_O 	O 	0.5233	0.4557	0.8719	-0.509
Mof_O 	O 	0.2216	0.4321	0.9987	-0.507
Mof_O 	O 	0.1012	0.4869	0.9457	-0.588
Mof_O 	O 	0.2706	0.4563	0.6183	-0.471
Mof_O 	O 	0.1283	0.494	0.7566	-0.517
Mof_O 	O 	0.3844	0.1798	0.4826	-0.52
Mof_O 	O 	0.4249	0.2941	0.4713	-0.499
Mof_O 	O 	0.3988	0.9924	0.743	-0.482
Mof_O 	O 	0.3509	0.0443	0.6281	-0.509
Mof_O 	O 	0.1524	0.0679	0.5013	-0.508
Mof_O 	O 	0.0338	0.0131	0.5543	-0.583
Mof_O 	O 	0.8452	0.0437	0.8817	-0.478
Mof_O 	O 	0.8789	0.006	0.7434	-0.532
Mof_O 	O 	0.5642	0.9826	0.8202	-0.501
Mof_O 	O 	0.719	0.9713	0.7059	-0.477
Mof_O 	O 	0.3912	0.243	0.0076	-0.481
Mof_O 	O 	0.3952	0.1281	0.9557	-0.508
Mof_O 	O 	0.2203	0.0013	0.9321	-0.508
Mof_O 	O 	0.0469	0.0543	0.9869	-0.579
Mof_O 	O 	0.8889	0.3817	0.9563	-0.467
Mof_O 	O 	0.8849	0.2434	0.994	-0.52
Mof_O 	O 	0.867	0.5174	0.6798	-0.517
Mof_O 	O 	0.8962	0.5287	0.7941	-0.494
Mof_O 	O 	0.1418	0.257	0.4924	-0.488
Mof_O 	O 	0.979	0.3719	0.5443	-0.516
Mof_O 	O 	0.6537	0.4987	0.5679	-0.515
Mof_O 	O 	0.5881	0.4457	0.5131	-0.602
Mof_O 	O 	0.7269	0.1183	0.5437	-0.472
Mof_O 	O 	0.6223	0.2566	0.506	-0.525
Mof_O 	O 	0.4532	0.6798	0.9826	-0.505
Mof_O 	O 	0.3097	0.7941	0.9713	-0.471
Mof_O 	O 	0.3658	0.4924	0.243	-0.486
Mof_O 	O 	0.4767	0.5443	0.1281	-0.509
Mof_O 	O 	0.7784	0.5679	0.0013	-0.507
Mof_O 	O 	0.8988	0.5131	0.0543	-0.588
Mof_O 	O 	0.7294	0.5437	0.3817	-0.471
Mof_O 	O 	0.8717	0.506	0.2434	-0.517
Mof_O 	O 	0.6156	0.8202	0.5174	-0.52
Mof_O 	O 	0.5751	0.7059	0.5287	-0.499
Mof_O 	O 	0.6012	0.0076	0.257	-0.482
Mof_O 	O 	0.6491	0.9557	0.3719	-0.509
Mof_O 	O 	0.8476	0.9321	0.4987	-0.508
Mof_O 	O 	0.9662	0.9869	0.4457	-0.583
Mof_O 	O 	0.1548	0.9563	0.1183	-0.478
Mof_O 	O 	0.1211	0.994	0.2566	-0.532
Mof_O 	O 	0.4358	0.0174	0.1798	-0.501
Mof_O 	O 	0.281	0.0287	0.2941	-0.477
Mof_O 	O 	0.6088	0.757	0.9924	-0.481
Mof_O 	O 	0.6048	0.8719	0.0443	-0.508
Mof_O 	O 	0.7797	0.9987	0.0679	-0.508
Mof_O 	O 	0.9531	0.9457	0.0131	-0.579
Mof_O 	O 	0.1111	0.6183	0.0437	-0.467
Mof_O 	O 	0.1151	0.7566	0.006	-0.52
Mof_O 	O 	0.133	0.4826	0.3202	-0.517
Mof_O 	O 	0.1038	0.4713	0.2059	-0.494
Mof_O 	O 	0.8582	0.743	0.5076	-0.488
Mof_O 	O 	0.021	0.6281	0.4557	-0.516
Mof_O 	O 	0.3463	0.5013	0.4321	-0.515
Mof_O 	O 	0.4119	0.5543	0.4869	-0.602
Mof_O 	O 	0.2731	0.8817	0.4563	-0.472
Mof_O 	O 	0.3777	0.7434	0.494	-0.525
_end
