data_functionalizedCrystal
_audit_creation_method	'EQeq! by Chris Wilmer'
_symmetry_space_group_name_H-M	'P1'
_symmetry_Int_Tables_number	1
_symmetry_cell_setting	triclinic
loop_
_symmetry_equiv_pos_as_xyz
  x,y,z
_cell_length_a	10.5081
_cell_length_b	12.296
_cell_length_c	16.6714
_cell_angle_alpha	90
_cell_angle_beta	90
_cell_angle_gamma	90
loop_
_atom_site_label
_atom_site_type_symbol
_atom_site_fract_x
_atom_site_fract_y
_atom_site_fract_z
_atom_site_charge
Mof_Zn	Zn	0.40095	0.25	0.75	1.213
Mof_Zn	Zn	0.59905	0.75	0.25	1.213
Mof_H 	H 	0.5678	0.9729	0.6325	0.156
Mof_H 	H 	0.4322	0.4729	0.1325	0.157
Mof_H 	H 	0.0959	0.5543	0.455	0.093
Mof_H 	H 	0.1264	0.9411	0.837	0.11
Mof_H 	H 	0.3901	0.9436	0.5194	0.026
Mof_H 	H 	0.0771	0.2108	0.9664	0.12
Mof_H 	H 	0.04	0.4403	0.4314	0.091
Mof_H 	H 	0.3166	0.5431	0.1049	0.152
Mof_H 	H 	0.761	0.7101	0.1045	-0.038
Mof_H 	H 	0.5678	0.5271	0.8675	0.157
Mof_H 	H 	0.6099	0.0564	0.4806	0.026
Mof_H 	H 	0.0959	0.9457	0.045	0.093
Mof_H 	H 	0.239	0.2899	0.8955	-0.038
Mof_H 	H 	0.9041	0.0543	0.955	0.093
Mof_H 	H 	0.2808	0.4697	0.7349	-0.026
Mof_H 	H 	0.761	0.7899	0.3955	-0.038
Mof_H 	H 	0.6834	0.4569	0.8951	0.152
Mof_H 	H 	0.7192	0.9697	0.2349	-0.026
Mof_H 	H 	0.6834	0.0431	0.6049	0.152
Mof_H 	H 	0.4322	0.0271	0.3675	0.156
Mof_H 	H 	0.7192	0.5303	0.2651	-0.026
Mof_H 	H 	0.04	0.0597	0.0686	0.089
Mof_H 	H 	0.239	0.2101	0.6045	-0.038
Mof_H 	H 	0.6065	0.9339	0.5048	0.02
Mof_H 	H 	0.6065	0.5661	0.9952	0.02
Mof_H 	H 	0.96	0.5597	0.5686	0.091
Mof_H 	H 	0.3901	0.5564	0.9806	0.026
Mof_H 	H 	0.8736	0.0589	0.163	0.11
Mof_H 	H 	0.2808	0.0303	0.7651	-0.026
Mof_H 	H 	0.6099	0.4436	0.0194	0.026
Mof_H 	H 	0.9041	0.4457	0.545	0.093
Mof_H 	H 	0.3935	0.4339	0.0048	0.02
Mof_H 	H 	0.96	0.9403	0.9314	0.089
Mof_H 	H 	0.0771	0.2892	0.5336	0.12
Mof_H 	H 	0.9229	0.7892	0.0336	0.12
Mof_H 	H 	0.8736	0.4411	0.337	0.11
Mof_H 	H 	0.3166	0.9569	0.3951	0.152
Mof_H 	H 	0.1264	0.5589	0.663	0.11
Mof_H 	H 	0.9229	0.7108	0.4664	0.12
Mof_H 	H 	0.3935	0.0661	0.4952	0.02
Mof_C 	C 	0.0199	0.5096	0.4562	-0.188
Mof_C 	C 	0.7859	0.7195	0.3826	0.127
Mof_C 	C 	0.2141	0.2195	0.8826	0.126
Mof_C 	C 	0.9801	0.4904	0.5438	-0.188
Mof_C 	C 	0.1183	0.328	0.5739	-0.226
Mof_C 	C 	0.5922	0.0341	0.5992	-0.41
Mof_C 	C 	0.7602	0.5669	0.3065	0.121
Mof_C 	C 	0.8817	0.828	0.0739	-0.225
Mof_C 	C 	0.2398	0.4331	0.6935	0.121
Mof_C 	C 	0.9801	0.0096	0.9562	-0.185
Mof_C 	C 	0.1183	0.172	0.9261	-0.225
Mof_C 	C 	0.7602	0.9331	0.1935	0.121
Mof_C 	C 	0.47	0.6331	0.1329	0.45
Mof_C 	C 	0.1461	0.4871	0.6506	-0.225
Mof_C 	C 	0.2398	0.0669	0.8065	0.121
Mof_C 	C 	0.8817	0.672	0.4261	-0.226
Mof_C 	C 	0.5665	0.4962	0.9857	0.019
Mof_C 	C 	0.4078	0.5341	0.0992	-0.41
Mof_C 	C 	0.53	0.3669	0.8671	0.45
Mof_C 	C 	0.2141	0.2805	0.6174	0.127
Mof_C 	C 	0.0831	0.0643	0.9094	0.175
Mof_C 	C 	0.8539	0.5129	0.3494	-0.225
Mof_C 	C 	0.5665	0.0038	0.5143	0.019
Mof_C 	C 	0.4078	0.9659	0.4008	-0.41
Mof_C 	C 	0.9169	0.9357	0.0906	0.175
Mof_C 	C 	0.1461	0.0129	0.8494	-0.226
Mof_C 	C 	0.8539	0.9871	0.1506	-0.226
Mof_C 	C 	0.9169	0.5643	0.4094	0.178
Mof_C 	C 	0.5922	0.4659	0.9008	-0.41
Mof_C 	C 	0.0199	0.9904	0.0438	-0.185
Mof_C 	C 	0.7859	0.7805	0.1174	0.126
Mof_C 	C 	0.0831	0.4357	0.5906	0.178
Mof_C 	C 	0.4335	0.9962	0.4857	0.019
Mof_C 	C 	0.4335	0.5038	0.0143	0.019
Mof_C 	C 	0.47	0.8669	0.3671	0.45
Mof_C 	C 	0.53	0.1331	0.6329	0.45
Mof_N 	N 	0.7268	0.8313	0.17779	-0.283
Mof_N 	N 	0.2732	0.3313	0.67779	-0.283
Mof_N 	N 	0.2732	0.1687	0.82221	-0.283
Mof_N 	N 	0.7268	0.6687	0.32221	-0.283
Mof_O 	O 	0.4561	0.7782	0.4028	-0.348
Mof_O 	O 	0.5233	0.8729	0.30045	-0.525
Mof_O 	O 	0.5439	0.2782	0.9028	-0.348
Mof_O 	O 	0.4767	0.3729	0.80045	-0.525
Mof_O 	O 	0.4767	0.1271	0.69955	-0.525
Mof_O 	O 	0.4561	0.7218	0.0972	-0.348
Mof_O 	O 	0.5439	0.2218	0.5972	-0.348
Mof_O 	O 	0.5233	0.6271	0.19955	-0.525
Mof_Zn	Zn	0.90095	0.75	0.75	1.213
Mof_Zn	Zn	0.09905	0.25	0.25	1.213
Mof_H 	H 	0.261	0.2899	0.1045	-0.038
Mof_H 	H 	0.7808	0.5303	0.7349	-0.026
Mof_H 	H 	0.5771	0.7108	0.5336	0.121
Mof_H 	H 	0.9322	0.9729	0.3675	0.155
Mof_H 	H 	0.9322	0.5271	0.1325	0.156
Mof_H 	H 	0.8935	0.9339	0.4952	0.019
Mof_H 	H 	0.4041	0.9457	0.955	0.093
Mof_H 	H 	0.0678	0.4729	0.8675	0.156
Mof_H 	H 	0.3736	0.9411	0.163	0.11
Mof_H 	H 	0.4229	0.2892	0.4664	0.121
Mof_H 	H 	0.739	0.7101	0.8955	-0.038
Mof_H 	H 	0.1099	0.5564	0.0194	0.028
Mof_H 	H 	0.0678	0.0271	0.6325	0.155
Mof_H 	H 	0.8935	0.5661	0.0048	0.02
Mof_H 	H 	0.1099	0.9436	0.4806	0.026
Mof_H 	H 	0.46	0.4403	0.5686	0.091
Mof_H 	H 	0.261	0.2101	0.3955	-0.038
Mof_H 	H 	0.7808	0.9697	0.7651	-0.026
Mof_H 	H 	0.5959	0.4457	0.455	0.093
Mof_H 	H 	0.1065	0.0661	0.5048	0.019
Mof_H 	H 	0.8901	0.4436	0.9806	0.028
Mof_H 	H 	0.6264	0.4411	0.663	0.11
Mof_H 	H 	0.54	0.9403	0.0686	0.091
Mof_H 	H 	0.2192	0.0303	0.2349	-0.026
Mof_H 	H 	0.1065	0.4339	0.9952	0.02
Mof_H 	H 	0.3736	0.5589	0.337	0.11
Mof_H 	H 	0.8166	0.0431	0.3951	0.152
Mof_H 	H 	0.4229	0.2108	0.0336	0.121
Mof_H 	H 	0.6264	0.0589	0.837	0.11
Mof_H 	H 	0.2192	0.4697	0.2651	-0.026
Mof_H 	H 	0.5959	0.0543	0.045	0.093
Mof_H 	H 	0.46	0.0597	0.9314	0.091
Mof_H 	H 	0.4041	0.5543	0.545	0.093
Mof_H 	H 	0.8166	0.4569	0.1049	0.152
Mof_H 	H 	0.54	0.5597	0.4314	0.091
Mof_H 	H 	0.1834	0.9569	0.6049	0.152
Mof_H 	H 	0.739	0.7899	0.6045	-0.038
Mof_H 	H 	0.1834	0.5431	0.8951	0.152
Mof_H 	H 	0.8901	0.0564	0.5194	0.026
Mof_H 	H 	0.5771	0.7892	0.9664	0.121
Mof_C 	C 	0.7398	0.5669	0.6935	0.121
Mof_C 	C 	0.0665	0.9962	0.5143	0.02
Mof_C 	C 	0.6461	0.5129	0.6506	-0.225
Mof_C 	C 	0.0665	0.5038	0.9857	0.017
Mof_C 	C 	0.3817	0.172	0.0739	-0.227
Mof_C 	C 	0.0922	0.5341	0.9008	-0.408
Mof_C 	C 	0.2859	0.2805	0.3826	0.127
Mof_C 	C 	0.4169	0.0643	0.0906	0.178
Mof_C 	C 	0.9078	0.0341	0.4008	-0.408
Mof_C 	C 	0.03	0.6331	0.8671	0.448
Mof_C 	C 	0.6183	0.828	0.9261	-0.227
Mof_C 	C 	0.6183	0.672	0.5739	-0.226
Mof_C 	C 	0.3817	0.328	0.4261	-0.226
Mof_C 	C 	0.7141	0.7805	0.8826	0.127
Mof_C 	C 	0.6461	0.9871	0.8494	-0.226
Mof_C 	C 	0.97	0.3669	0.1329	0.448
Mof_C 	C 	0.3539	0.0129	0.1506	-0.226
Mof_C 	C 	0.4801	0.9904	0.9562	-0.189
Mof_C 	C 	0.5831	0.5643	0.5906	0.178
Mof_C 	C 	0.5199	0.4904	0.4562	-0.189
Mof_C 	C 	0.0922	0.9659	0.5992	-0.408
Mof_C 	C 	0.4169	0.4357	0.4094	0.178
Mof_C 	C 	0.9335	0.4962	0.0143	0.017
Mof_C 	C 	0.5199	0.0096	0.0438	-0.189
Mof_C 	C 	0.7141	0.7195	0.6174	0.127
Mof_C 	C 	0.3539	0.4871	0.3494	-0.225
Mof_C 	C 	0.4801	0.5096	0.5438	-0.189
Mof_C 	C 	0.2859	0.2195	0.1174	0.127
Mof_C 	C 	0.9078	0.4659	0.0992	-0.408
Mof_C 	C 	0.5831	0.9357	0.9094	0.178
Mof_C 	C 	0.7398	0.9331	0.8065	0.121
Mof_C 	C 	0.9335	0.0038	0.4857	0.02
Mof_C 	C 	0.03	0.8669	0.6329	0.45
Mof_C 	C 	0.97	0.1331	0.3671	0.45
Mof_C 	C 	0.2602	0.0669	0.1935	0.121
Mof_C 	C 	0.2602	0.4331	0.3065	0.121
Mof_N 	N 	0.7732	0.8313	0.82221	-0.283
Mof_N 	N 	0.2268	0.3313	0.32221	-0.283
Mof_N 	N 	0.2268	0.1687	0.17779	-0.283
Mof_N 	N 	0.7732	0.6687	0.67779	-0.283
Mof_O 	O 	0.9767	0.8729	0.69955	-0.525
Mof_O 	O 	0.9767	0.6271	0.80045	-0.524
Mof_O 	O 	0.0233	0.3729	0.19955	-0.524
Mof_O 	O 	0.0439	0.7782	0.5972	-0.348
Mof_O 	O 	0.9561	0.2782	0.0972	-0.348
Mof_O 	O 	0.0439	0.7218	0.9028	-0.348
Mof_O 	O 	0.9561	0.2218	0.4028	-0.348
Mof_O 	O 	0.0233	0.1271	0.30045	-0.525
_end
