# CIF file generated by openbabel 3.1.0, see https://openbabel.org
data_I
_chemical_name_common 'image0'
_cell_length_a 15.5354
_cell_length_b 15.8981
_cell_length_c 13.3111
_cell_angle_alpha 90
_cell_angle_beta 112.592
_cell_angle_gamma 90
_space_group_name_H-M_alt 'P 1'
_space_group_name_Hall 'P 1'
loop_
    _symmetry_equiv_pos_as_xyz
    x,y,z
loop_
    _atom_site_label
    _atom_site_type_symbol
    _atom_site_fract_x
    _atom_site_fract_y
    _atom_site_fract_z
    _atom_site_occupancy
    C1       C        0.10500    0.04470    0.72500    1.000
    C2       C        0.19680    0.02910    0.78520    1.000
    H1       H        0.21630    0.02420    0.86030    1.000
    C3       C        0.23070    0.02520    0.62100    1.000
    C4       C        0.13730    0.04440    0.56290    1.000
    H2       H        0.11660    0.05150    0.48790    1.000
    C5       C        0.07520    0.05330    0.61130    1.000
    H3       H        0.01300    0.06500    0.56940    1.000
    C6       C        0.44860    0.25340    0.56760    1.000
    C7       C        0.26360    0.02010    0.73720    1.000
    C8       C        0.46870    0.40080    0.54060    1.000
    C9       C        0.48230    0.31920    0.52220    1.000
    H4       H        0.51480    0.30630    0.47840    1.000
    C10      C        0.35940    0.00390    0.80630    1.000
    C11      C        0.46650    0.16210    0.54280    1.000
    C12      C        0.41710    0.41820    0.60200    1.000
    H5       H        0.40490    0.47410    0.61250    1.000
    C13      C        0.38300    0.35660    0.64840    1.000
    H6       H        0.34810    0.37020    0.68930    1.000
    C14      C        0.40190    0.27330    0.63290    1.000
    C15      C        0.59500    0.66000    0.77300    1.000
    N1       N        0.50870    0.46320    0.49240    1.000
    N2       N        0.04250    0.04480    0.78110    1.000
    O1       O        0.44520    0.10870    0.59500    1.000
    O2       O        0.36860    0.21380    0.67860    1.000
    O3       O        0.38700    0.01050    0.90910    1.000
    O4       O        0.49980    0.15050    0.47150    1.000
    O5       O        0.41830    0.98460    0.76590    1.000
    O6       O        0.28500    0.01270    0.56840    1.000
    Sm1      Sm       0.42709    0.95720    0.59258    1.000
    C16      C        0.89500    0.04470    0.77500    1.000
    C17      C        0.80320    0.02910    0.71480    1.000
    H7       H        0.78370    0.02420    0.63970    1.000
    C18      C        0.76930    0.02520    0.87900    1.000
    C19      C        0.86270    0.04440    0.93710    1.000
    H8       H        0.88340    0.05150    0.01210    1.000
    C20      C        0.92480    0.05330    0.88870    1.000
    H9       H        0.98700    0.06500    0.93060    1.000
    C21      C        0.55140    0.25340    0.93240    1.000
    C22      C        0.73640    0.02010    0.76280    1.000
    C23      C        0.53130    0.40080    0.95940    1.000
    C24      C        0.51770    0.31920    0.97780    1.000
    H10      H        0.48520    0.30630    0.02160    1.000
    C25      C        0.64060    0.00390    0.69370    1.000
    C26      C        0.53350    0.16210    0.95720    1.000
    C27      C        0.58290    0.41820    0.89800    1.000
    H11      H        0.59510    0.47410    0.88750    1.000
    C28      C        0.61700    0.35660    0.85160    1.000
    H12      H        0.65190    0.37020    0.81070    1.000
    C29      C        0.59810    0.27330    0.86710    1.000
    C30      C        0.40500    0.66000    0.72700    1.000
    N3       N        0.49130    0.46320    0.00760    1.000
    N4       N        0.95750    0.04480    0.71890    1.000
    O7       O        0.55480    0.10870    0.90500    1.000
    O8       O        0.63140    0.21380    0.82140    1.000
    O9       O        0.61300    0.01050    0.59090    1.000
    O10      O        0.50020    0.15050    0.02850    1.000
    O11      O        0.58170    0.98460    0.73410    1.000
    O12      O        0.71500    0.01270    0.93160    1.000
    Sm2      Sm       0.57291    0.95720    0.90742    1.000
    C31      C        0.89500    0.95530    0.27500    1.000
    C32      C        0.80320    0.97090    0.21480    1.000
    H13      H        0.78370    0.97580    0.13970    1.000
    C33      C        0.76930    0.97480    0.37900    1.000
    C34      C        0.86270    0.95560    0.43710    1.000
    H14      H        0.88340    0.94850    0.51210    1.000
    C35      C        0.92480    0.94670    0.38870    1.000
    H15      H        0.98700    0.93500    0.43060    1.000
    C36      C        0.55140    0.74660    0.43240    1.000
    C37      C        0.73640    0.97990    0.26280    1.000
    C38      C        0.53130    0.59920    0.45940    1.000
    C39      C        0.51770    0.68080    0.47780    1.000
    H16      H        0.48520    0.69370    0.52160    1.000
    C40      C        0.64060    0.99610    0.19370    1.000
    C41      C        0.53350    0.83790    0.45720    1.000
    C42      C        0.58290    0.58180    0.39800    1.000
    H17      H        0.59510    0.52590    0.38750    1.000
    C43      C        0.61700    0.64340    0.35160    1.000
    H18      H        0.65190    0.62980    0.31070    1.000
    C44      C        0.59810    0.72670    0.36710    1.000
    C45      C        0.40500    0.34000    0.22700    1.000
    N5       N        0.49130    0.53680    0.50760    1.000
    N6       N        0.95750    0.95520    0.21890    1.000
    O13      O        0.55480    0.89130    0.40500    1.000
    O14      O        0.63140    0.78620    0.32140    1.000
    O15      O        0.61300    0.98950    0.09090    1.000
    O16      O        0.50020    0.84950    0.52850    1.000
    O17      O        0.58170    0.01540    0.23410    1.000
    O18      O        0.71500    0.98730    0.43160    1.000
    Sm3      Sm       0.57291    0.04280    0.40742    1.000
    C46      C        0.10500    0.95530    0.22500    1.000
    C47      C        0.19680    0.97090    0.28520    1.000
    H19      H        0.21630    0.97580    0.36030    1.000
    C48      C        0.23070    0.97480    0.12100    1.000
    C49      C        0.13730    0.95560    0.06290    1.000
    H20      H        0.11660    0.94850    0.98790    1.000
    C50      C        0.07520    0.94670    0.11130    1.000
    H21      H        0.01300    0.93500    0.06940    1.000
    C51      C        0.44860    0.74660    0.06760    1.000
    C52      C        0.26360    0.97990    0.23720    1.000
    C53      C        0.46870    0.59920    0.04060    1.000
    C54      C        0.48230    0.68080    0.02220    1.000
    H22      H        0.51480    0.69370    0.97840    1.000
    C55      C        0.35940    0.99610    0.30630    1.000
    C56      C        0.46650    0.83790    0.04280    1.000
    C57      C        0.41710    0.58180    0.10200    1.000
    H23      H        0.40490    0.52590    0.11250    1.000
    C58      C        0.38300    0.64340    0.14840    1.000
    H24      H        0.34810    0.62980    0.18930    1.000
    C59      C        0.40190    0.72670    0.13290    1.000
    C60      C        0.59500    0.34000    0.27300    1.000
    N7       N        0.50870    0.53680    0.99240    1.000
    N8       N        0.04250    0.95520    0.28110    1.000
    O19      O        0.44520    0.89130    0.09500    1.000
    O20      O        0.36860    0.78620    0.17860    1.000
    O21      O        0.38700    0.98950    0.40910    1.000
    O22      O        0.49980    0.84950    0.97150    1.000
    O23      O        0.41830    0.01540    0.26590    1.000
    O24      O        0.28500    0.98730    0.06840    1.000
    Sm4      Sm       0.42709    0.04280    0.09258    1.000
    C61      C        0.50000    0.78400    0.75000    1.000
    N9       N        0.50000    0.69200    0.75000    1.000
    O25      O        0.50000    0.84420    0.75000    1.000
    C62      C        0.50000    0.21600    0.25000    1.000
    N10      N        0.50000    0.30800    0.25000    1.000
    O26      O        0.50000    0.15580    0.25000    1.000
