# CIF file generated by openbabel 3.1.0, see https://openbabel.org
data_I
_chemical_name_common 'HUXWAY_clean'
_cell_length_a 14.693
_cell_length_b 14.693
_cell_length_c 15.125
_cell_angle_alpha 90
_cell_angle_beta 90
_cell_angle_gamma 120
_space_group_name_H-M_alt 'P 1'
_space_group_name_Hall 'P 1'
loop_
    _symmetry_equiv_pos_as_xyz
    x,y,z
loop_
    _atom_site_label
    _atom_site_type_symbol
    _atom_site_fract_x
    _atom_site_fract_y
    _atom_site_fract_z
    _atom_site_occupancy
    Tb1      Tb       0.33333    0.66666    0.75000    1.000
    Tb2      Tb       0.66667    0.33334    0.75000    1.000
    Tb3      Tb       0.66667    0.33334    0.25000    1.000
    Tb4      Tb       0.33333    0.66666    0.25000    1.000
    Cu1      Cu       0.00000    0.50000    0.50000    1.000
    Cu2      Cu       0.50000    0.00000    0.50000    1.000
    Cu3      Cu       0.50000    0.50000    0.50000    1.000
    Cu4      Cu       0.50000    0.50000    0.00000    1.000
    Cu5      Cu       0.50000    0.00000    0.00000    1.000
    Cu6      Cu       0.00000    0.50000    0.00000    1.000
    H1       H        0.16040    0.79470    0.65980    1.000
    H2       H        0.08720    0.71600    0.73300    1.000
    H3       H        0.63430    0.83960    0.65980    1.000
    H4       H        0.62880    0.91280    0.73300    1.000
    H5       H        0.20530    0.36570    0.65980    1.000
    H6       H        0.28400    0.37120    0.73300    1.000
    H7       H        0.83960    0.20530    0.65980    1.000
    H8       H        0.91280    0.28400    0.73300    1.000
    H9       H        0.36570    0.16040    0.65980    1.000
    H10      H        0.37120    0.08720    0.73300    1.000
    H11      H        0.79470    0.63430    0.65980    1.000
    H12      H        0.71600    0.62880    0.73300    1.000
    H13      H        0.36570    0.20530    0.84020    1.000
    H14      H        0.37120    0.28400    0.76700    1.000
    H15      H        0.79470    0.16040    0.84020    1.000
    H16      H        0.71600    0.08720    0.76700    1.000
    H17      H        0.83960    0.63430    0.84020    1.000
    H18      H        0.91280    0.62880    0.76700    1.000
    H19      H        0.63430    0.79470    0.84020    1.000
    H20      H        0.62880    0.71600    0.76700    1.000
    H21      H        0.20530    0.83960    0.84020    1.000
    H22      H        0.28400    0.91280    0.76700    1.000
    H23      H        0.16040    0.36570    0.84020    1.000
    H24      H        0.08720    0.37120    0.76700    1.000
    H25      H        0.83960    0.20530    0.34020    1.000
    H26      H        0.91280    0.28400    0.26700    1.000
    H27      H        0.36570    0.16040    0.34020    1.000
    H28      H        0.37120    0.08720    0.26700    1.000
    H29      H        0.79470    0.63430    0.34020    1.000
    H30      H        0.71600    0.62880    0.26700    1.000
    H31      H        0.16040    0.79470    0.34020    1.000
    H32      H        0.08720    0.71600    0.26700    1.000
    H33      H        0.63430    0.83960    0.34020    1.000
    H34      H        0.62880    0.91280    0.26700    1.000
    H35      H        0.20530    0.36570    0.34020    1.000
    H36      H        0.28400    0.37120    0.26700    1.000
    H37      H        0.63430    0.79470    0.15980    1.000
    H38      H        0.62880    0.71600    0.23300    1.000
    H39      H        0.20530    0.83960    0.15980    1.000
    H40      H        0.28400    0.91280    0.23300    1.000
    H41      H        0.16040    0.36570    0.15980    1.000
    H42      H        0.08720    0.37120    0.23300    1.000
    H43      H        0.36570    0.20530    0.15980    1.000
    H44      H        0.37120    0.28400    0.23300    1.000
    H45      H        0.79470    0.16040    0.15980    1.000
    H46      H        0.71600    0.08720    0.23300    1.000
    H47      H        0.83960    0.63430    0.15980    1.000
    H48      H        0.91280    0.62880    0.23300    1.000
    C1       C        0.13060    0.64460    0.63926    1.000
    C2       C        0.14860    0.73560    0.69650    1.000
    C3       C        0.51400    0.86940    0.63926    1.000
    C4       C        0.58700    0.85140    0.69650    1.000
    C5       C        0.35540    0.48600    0.63926    1.000
    C6       C        0.26440    0.41300    0.69650    1.000
    C7       C        0.86940    0.35540    0.63926    1.000
    C8       C        0.85140    0.26440    0.69650    1.000
    C9       C        0.48600    0.13060    0.63926    1.000
    C10      C        0.41300    0.14860    0.69650    1.000
    C11      C        0.64460    0.51400    0.63926    1.000
    C12      C        0.73560    0.58700    0.69650    1.000
    C13      C        0.48600    0.35540    0.86074    1.000
    C14      C        0.41300    0.26440    0.80350    1.000
    C15      C        0.64460    0.13060    0.86074    1.000
    C16      C        0.73560    0.14860    0.80350    1.000
    C17      C        0.86940    0.51400    0.86074    1.000
    C18      C        0.85140    0.58700    0.80350    1.000
    C19      C        0.51400    0.64460    0.86074    1.000
    C20      C        0.58700    0.73560    0.80350    1.000
    C21      C        0.35540    0.86940    0.86074    1.000
    C22      C        0.26440    0.85140    0.80350    1.000
    C23      C        0.13060    0.48600    0.86074    1.000
    C24      C        0.14860    0.41300    0.80350    1.000
    C25      C        0.86940    0.35540    0.36074    1.000
    C26      C        0.85140    0.26440    0.30350    1.000
    C27      C        0.48600    0.13060    0.36074    1.000
    C28      C        0.41300    0.14860    0.30350    1.000
    C29      C        0.64460    0.51400    0.36074    1.000
    C30      C        0.73560    0.58700    0.30350    1.000
    C31      C        0.13060    0.64460    0.36074    1.000
    C32      C        0.14860    0.73560    0.30350    1.000
    C33      C        0.51400    0.86940    0.36074    1.000
    C34      C        0.58700    0.85140    0.30350    1.000
    C35      C        0.35540    0.48600    0.36074    1.000
    C36      C        0.26440    0.41300    0.30350    1.000
    C37      C        0.51400    0.64460    0.13926    1.000
    C38      C        0.58700    0.73560    0.19650    1.000
    C39      C        0.35540    0.86940    0.13926    1.000
    C40      C        0.26440    0.85140    0.19650    1.000
    C41      C        0.13060    0.48600    0.13926    1.000
    C42      C        0.14860    0.41300    0.19650    1.000
    C43      C        0.48600    0.35540    0.13926    1.000
    C44      C        0.41300    0.26440    0.19650    1.000
    C45      C        0.64460    0.13060    0.13926    1.000
    C46      C        0.73560    0.14860    0.19650    1.000
    C47      C        0.86940    0.51400    0.13926    1.000
    C48      C        0.85140    0.58700    0.19650    1.000
    O1       O        0.19495    0.61268    0.64393    1.000
    O2       O        0.05216    0.60970    0.59006    1.000
    O3       O        0.41773    0.80505    0.64393    1.000
    O4       O        0.55754    0.94784    0.59006    1.000
    O5       O        0.38732    0.58227    0.64393    1.000
    O6       O        0.39030    0.44246    0.59006    1.000
    O7       O        0.80505    0.38732    0.64393    1.000
    O8       O        0.94784    0.39030    0.59006    1.000
    O9       O        0.58227    0.19495    0.64393    1.000
    O10      O        0.44246    0.05216    0.59006    1.000
    O11      O        0.61268    0.41773    0.64393    1.000
    O12      O        0.60970    0.55754    0.59006    1.000
    O13      O        0.58227    0.38732    0.85607    1.000
    O14      O        0.44246    0.39030    0.90994    1.000
    O15      O        0.61268    0.19495    0.85607    1.000
    O16      O        0.60970    0.05216    0.90994    1.000
    O17      O        0.80505    0.41773    0.85607    1.000
    O18      O        0.94784    0.55754    0.90994    1.000
    O19      O        0.41773    0.61268    0.85607    1.000
    O20      O        0.55754    0.60970    0.90994    1.000
    O21      O        0.38732    0.80505    0.85607    1.000
    O22      O        0.39030    0.94784    0.90994    1.000
    O23      O        0.19495    0.58227    0.85607    1.000
    O24      O        0.05216    0.44246    0.90994    1.000
    O25      O        0.80505    0.38732    0.35607    1.000
    O26      O        0.94784    0.39030    0.40994    1.000
    O27      O        0.58227    0.19495    0.35607    1.000
    O28      O        0.44246    0.05216    0.40994    1.000
    O29      O        0.61268    0.41773    0.35607    1.000
    O30      O        0.60970    0.55754    0.40994    1.000
    O31      O        0.19495    0.61268    0.35607    1.000
    O32      O        0.05216    0.60970    0.40994    1.000
    O33      O        0.41773    0.80505    0.35607    1.000
    O34      O        0.55754    0.94784    0.40994    1.000
    O35      O        0.38732    0.58227    0.35607    1.000
    O36      O        0.39030    0.44246    0.40994    1.000
    O37      O        0.41773    0.61268    0.14393    1.000
    O38      O        0.55754    0.60970    0.09006    1.000
    O39      O        0.38732    0.80505    0.14393    1.000
    O40      O        0.39030    0.94784    0.09006    1.000
    O41      O        0.19495    0.58227    0.14393    1.000
    O42      O        0.05216    0.44246    0.09006    1.000
    O43      O        0.58227    0.38732    0.14393    1.000
    O44      O        0.44246    0.39030    0.09006    1.000
    O45      O        0.61268    0.19495    0.14393    1.000
    O46      O        0.60970    0.05216    0.09006    1.000
    O47      O        0.80505    0.41773    0.14393    1.000
    O48      O        0.94784    0.55754    0.09006    1.000
    O49      O        0.23625    0.76375    0.75000    1.000
    O50      O        0.52750    0.76375    0.75000    1.000
    O51      O        0.23625    0.47250    0.75000    1.000
    O52      O        0.76375    0.23625    0.75000    1.000
    O53      O        0.47250    0.23625    0.75000    1.000
    O54      O        0.76375    0.52750    0.75000    1.000
    O55      O        0.76375    0.23625    0.25000    1.000
    O56      O        0.47250    0.23625    0.25000    1.000
    O57      O        0.76375    0.52750    0.25000    1.000
    O58      O        0.23625    0.76375    0.25000    1.000
    O59      O        0.52750    0.76375    0.25000    1.000
    O60      O        0.23625    0.47250    0.25000    1.000
