data_functionalizedCrystal
_audit_creation_method	'EQeq! by Chris Wilmer'
_symmetry_space_group_name_H-M	'P1'
_symmetry_Int_Tables_number	1
_symmetry_cell_setting	triclinic
loop_
_symmetry_equiv_pos_as_xyz
  x,y,z
_cell_length_a	21.8518
_cell_length_b	14.161
_cell_length_c	17.9185
_cell_angle_alpha	90
_cell_angle_beta	108.165
_cell_angle_gamma	90
loop_
_atom_site_label
_atom_site_type_symbol
_atom_site_fract_x
_atom_site_fract_y
_atom_site_fract_z
_atom_site_charge
Mof_F 	F 	0.91719	0.45798	0.72994	-0.364
Mof_Cu	Cu	0.81063	0.38194	0.47626	0.88
Mof_Cu	Cu	0.75179	0.89546	0.58471	0.899
Mof_F 	F 	0.02449	0.45921	0.84971	-0.361
Mof_F 	F 	0.93462	0.78807	0.70343	-0.373
Mof_F 	F 	0.04117	0.7888	0.82299	-0.372
Mof_F 	F 	0.59428	0.4358	0.3587	-0.383
Mof_F 	F 	0.58148	0.4531	0.09173	-0.362
Mof_N 	N 	0.3131	0.3917	0.0199	-0.229
Mof_N 	N 	0.74352	0.3975	0.378	-0.253
Mof_F 	F 	0.46817	0.4215	0.31862	-0.372
Mof_N 	N 	0.14484	0.7659	0.9899	-0.244
Mof_C 	C 	0.4949	0.4289	0.2607	0.246
Mof_F 	F 	0.45596	0.4438	0.05153	-0.351
Mof_C 	C 	0.00387	0.5417	0.8132	0.242
Mof_C 	C 	0.34747	0.4059	0.0815	0.186
Mof_C 	C 	0.86121	0.6225	0.6448	-0.035
Mof_N 	N 	0.78824	0.7684	0.6172	-0.228
Mof_N 	N 	0.71827	0.5427	0.1633	-0.227
Mof_C 	C 	0.10036	0.6226	0.904	-0.031
Mof_N 	N 	0.17673	0.4818	0.9202	-0.221
Mof_C 	C 	0.92075	0.6226	0.7098	-0.07
Mof_C 	C 	0.12433	0.7017	0.9509	0.176
Mof_C 	C 	0.95558	0.7052	0.7385	0.235
Mof_C 	C 	0.1419	0.5445	0.9138	0.173
Mof_C 	C 	0.66458	0.4523	0.2488	-0.036
Mof_C 	C 	0.03934	0.6239	0.8409	-0.074
Mof_C 	C 	0.70658	0.4213	0.321	0.176
Mof_C 	C 	0.5547	0.4463	0.1501	0.245
Mof_C 	C 	0.5609	0.4362	0.281	0.236
Mof_C 	C 	0.45501	0.431	0.183	-0.07
Mof_C 	C 	0.01158	0.7053	0.801	0.238
Mof_C 	C 	0.48864	0.4408	0.1291	0.243
Mof_C 	C 	0.94828	0.5414	0.751	0.23
Mof_C 	C 	0.84479	0.5477	0.592	0.178
Mof_C 	C 	0.82011	0.702	0.629	0.173
Mof_N 	N 	0.83158	0.4871	0.5465	-0.245
Mof_C 	C 	0.69391	0.501	0.2015	0.173
Mof_C 	C 	0.38505	0.422	0.1591	-0.019
Mof_C 	C 	0.5941	0.4447	0.2274	-0.072
Mof_C 	C 	0.35	0.4275	0.2127	0.157
Mof_N 	N 	0.3171	0.4296	0.2521	-0.089
Mof_F 	F 	0.08281	0.95798	0.77006	-0.361
Mof_Cu	Cu	0.18937	0.88194	0.02374	0.879
Mof_Cu	Cu	0.24821	0.39546	0.91529	0.899
Mof_F 	F 	0.97551	0.95921	0.65029	-0.36
Mof_F 	F 	0.06538	0.28807	0.79657	-0.374
Mof_F 	F 	0.95883	0.2888	0.67701	-0.372
Mof_F 	F 	0.40572	0.9358	0.1413	-0.384
Mof_F 	F 	0.41852	0.9531	0.40827	-0.362
Mof_N 	N 	0.6869	0.8917	0.4801	-0.229
Mof_N 	N 	0.25648	0.8975	0.122	-0.254
Mof_F 	F 	0.53183	0.9215	0.18138	-0.372
Mof_N 	N 	0.85516	0.2659	0.5101	-0.246
Mof_C 	C 	0.5051	0.9289	0.2393	0.246
Mof_F 	F 	0.54404	0.9438	0.44847	-0.351
Mof_C 	C 	0.99613	0.0417	0.6868	0.239
Mof_C 	C 	0.65253	0.9059	0.4185	0.186
Mof_C 	C 	0.13879	0.1225	0.8552	-0.033
Mof_N 	N 	0.21176	0.2684	0.8828	-0.228
Mof_N 	N 	0.28173	0.0427	0.3367	-0.228
Mof_C 	C 	0.89964	0.1226	0.596	-0.031
Mof_N 	N 	0.82327	0.9818	0.5798	-0.221
Mof_C 	C 	0.07925	0.1226	0.7902	-0.072
Mof_C 	C 	0.87567	0.2017	0.5491	0.176
Mof_C 	C 	0.04442	0.2052	0.7615	0.237
Mof_C 	C 	0.8581	0.0445	0.5862	0.172
Mof_C 	C 	0.33542	0.9523	0.2512	-0.039
Mof_C 	C 	0.96066	0.1239	0.6591	-0.073
Mof_C 	C 	0.29342	0.9213	0.179	0.175
Mof_C 	C 	0.4453	0.9463	0.3499	0.245
Mof_C 	C 	0.4391	0.9362	0.219	0.235
Mof_C 	C 	0.54499	0.931	0.317	-0.07
Mof_C 	C 	0.98842	0.2053	0.699	0.235
Mof_C 	C 	0.51136	0.9408	0.3709	0.243
Mof_C 	C 	0.05172	0.0414	0.749	0.231
Mof_C 	C 	0.15521	0.0477	0.908	0.172
Mof_C 	C 	0.17989	0.202	0.871	0.172
Mof_N 	N 	0.16842	0.9871	0.9535	-0.24
Mof_C 	C 	0.30609	0.001	0.2985	0.176
Mof_C 	C 	0.61495	0.922	0.3409	-0.02
Mof_C 	C 	0.4059	0.9447	0.2726	-0.072
Mof_C 	C 	0.65	0.9275	0.2873	0.157
Mof_N 	N 	0.6829	0.9296	0.2479	-0.089
Mof_F 	F 	0.08281	0.54202	0.27006	-0.363
Mof_Cu	Cu	0.18937	0.61806	0.52374	0.881
Mof_Cu	Cu	0.24821	0.10454	0.41529	0.899
Mof_F 	F 	0.97551	0.54079	0.15029	-0.361
Mof_F 	F 	0.06538	0.21193	0.29657	-0.373
Mof_F 	F 	0.95883	0.2112	0.17701	-0.372
Mof_F 	F 	0.40572	0.5642	0.6413	-0.383
Mof_F 	F 	0.41852	0.5469	0.90827	-0.362
Mof_N 	N 	0.6869	0.6083	0.9801	-0.229
Mof_N 	N 	0.25648	0.6025	0.622	-0.253
Mof_F 	F 	0.53183	0.5785	0.68138	-0.372
Mof_N 	N 	0.85516	0.2341	0.0101	-0.244
Mof_C 	C 	0.5051	0.5711	0.7393	0.246
Mof_F 	F 	0.54404	0.5562	0.94847	-0.351
Mof_C 	C 	0.99613	0.4583	0.1868	0.242
Mof_C 	C 	0.65253	0.5941	0.9185	0.186
Mof_C 	C 	0.13879	0.3775	0.3552	-0.035
Mof_N 	N 	0.21176	0.2316	0.3828	-0.228
Mof_N 	N 	0.28173	0.4573	0.8367	-0.227
Mof_C 	C 	0.89964	0.3774	0.096	-0.031
Mof_N 	N 	0.82327	0.5182	0.0798	-0.221
Mof_C 	C 	0.07925	0.3774	0.2902	-0.07
Mof_C 	C 	0.87567	0.2983	0.0491	0.176
Mof_C 	C 	0.04442	0.2948	0.2615	0.235
Mof_C 	C 	0.8581	0.4555	0.0862	0.173
Mof_C 	C 	0.33542	0.5477	0.7512	-0.036
Mof_C 	C 	0.96066	0.3761	0.1591	-0.074
Mof_C 	C 	0.29342	0.5787	0.679	0.176
Mof_C 	C 	0.4453	0.5537	0.8499	0.245
Mof_C 	C 	0.4391	0.5638	0.719	0.236
Mof_C 	C 	0.54499	0.569	0.817	-0.07
Mof_C 	C 	0.98842	0.2947	0.199	0.238
Mof_C 	C 	0.51136	0.5592	0.8709	0.243
Mof_C 	C 	0.05172	0.4586	0.249	0.23
Mof_C 	C 	0.15521	0.4523	0.408	0.178
Mof_C 	C 	0.17989	0.298	0.371	0.173
Mof_N 	N 	0.16842	0.5129	0.4535	-0.245
Mof_C 	C 	0.30609	0.499	0.7985	0.173
Mof_C 	C 	0.61495	0.578	0.8409	-0.019
Mof_C 	C 	0.4059	0.5553	0.7726	-0.072
Mof_C 	C 	0.65	0.5725	0.7873	0.157
Mof_N 	N 	0.6829	0.5704	0.7479	-0.089
Mof_F 	F 	0.91719	0.04202	0.22994	-0.361
Mof_Cu	Cu	0.81063	0.11806	0.97626	0.879
Mof_Cu	Cu	0.75179	0.60454	0.08471	0.899
Mof_F 	F 	0.02449	0.04079	0.34971	-0.36
Mof_F 	F 	0.93462	0.71193	0.20343	-0.374
Mof_F 	F 	0.04117	0.7112	0.32299	-0.372
Mof_F 	F 	0.59428	0.0642	0.8587	-0.384
Mof_F 	F 	0.58148	0.0469	0.59173	-0.362
Mof_N 	N 	0.3131	0.1083	0.5199	-0.229
Mof_N 	N 	0.74352	0.1025	0.878	-0.254
Mof_F 	F 	0.46817	0.0785	0.81862	-0.372
Mof_N 	N 	0.14484	0.7341	0.4899	-0.246
Mof_C 	C 	0.4949	0.0711	0.7607	0.246
Mof_F 	F 	0.45596	0.0562	0.55153	-0.351
Mof_C 	C 	0.00387	0.9583	0.3132	0.239
Mof_C 	C 	0.34747	0.0941	0.5815	0.186
Mof_C 	C 	0.86121	0.8775	0.1448	-0.033
Mof_N 	N 	0.78824	0.7316	0.1172	-0.228
Mof_N 	N 	0.71827	0.9573	0.6633	-0.228
Mof_C 	C 	0.10036	0.8774	0.404	-0.031
Mof_N 	N 	0.17673	0.0182	0.4202	-0.221
Mof_C 	C 	0.92075	0.8774	0.2098	-0.072
Mof_C 	C 	0.12433	0.7983	0.4509	0.176
Mof_C 	C 	0.95558	0.7948	0.2385	0.237
Mof_C 	C 	0.1419	0.9555	0.4138	0.172
Mof_C 	C 	0.66458	0.0477	0.7488	-0.039
Mof_C 	C 	0.03934	0.8761	0.3409	-0.073
Mof_C 	C 	0.70658	0.0787	0.821	0.175
Mof_C 	C 	0.5547	0.0537	0.6501	0.245
Mof_C 	C 	0.5609	0.0638	0.781	0.235
Mof_C 	C 	0.45501	0.069	0.683	-0.07
Mof_C 	C 	0.01158	0.7947	0.301	0.235
Mof_C 	C 	0.48864	0.0592	0.6291	0.243
Mof_C 	C 	0.94828	0.9586	0.251	0.231
Mof_C 	C 	0.84479	0.9523	0.092	0.172
Mof_C 	C 	0.82011	0.798	0.129	0.172
Mof_N 	N 	0.83158	0.0129	0.0465	-0.24
Mof_C 	C 	0.69391	0.999	0.7015	0.176
Mof_C 	C 	0.38505	0.078	0.6591	-0.02
Mof_C 	C 	0.5941	0.0553	0.7274	-0.072
Mof_C 	C 	0.35	0.0725	0.7127	0.157
Mof_N 	N 	0.3171	0.0704	0.7521	-0.089
_end
