# CIF file generated by openbabel 3.1.0, see https://openbabel.org
data_I
_chemical_name_common 'image0'
_cell_length_a 8.589
_cell_length_b 14.02
_cell_length_c 16.606
_cell_angle_alpha 90
_cell_angle_beta 97.19
_cell_angle_gamma 90
_space_group_name_H-M_alt 'P 1'
_space_group_name_Hall 'P 1'
loop_
    _symmetry_equiv_pos_as_xyz
    x,y,z
loop_
    _atom_site_label
    _atom_site_type_symbol
    _atom_site_fract_x
    _atom_site_fract_y
    _atom_site_fract_z
    _atom_site_occupancy
    Zn1      Zn       0.17309    0.22906    0.65468    1.000
    Zn2      Zn       0.66617    0.40087    0.48445    1.000
    Zn3      Zn       0.53676    0.13505    0.44625    1.000
    P1       P        0.83720    0.22568    0.55754    1.000
    H1       H        0.76200    0.21740    0.62500    1.000
    P2       P        0.32810    0.37392    0.54406    1.000
    H2       H        0.27400    0.30800    0.49100    1.000
    P3       P        0.52700    0.29592    0.31777    1.000
    H3       H        0.41200    0.34900    0.26700    1.000
    P4       P        0.66160    0.93750    0.41230    1.000
    O1       O        0.74600    0.16760    0.49110    1.000
    O2       O        0.84360    0.33080    0.53780    1.000
    O3       O        0.00090    0.18520    0.57930    1.000
    O4       O        0.26960    0.34800    0.62380    1.000
    O5       O        0.26150    0.46830    0.51210    1.000
    O6       O        0.50440    0.36940    0.55050    1.000
    O7       O        0.62880    0.36810    0.36930    1.000
    O8       O        0.62100    0.24000    0.26160    1.000
    O9       O        0.43790    0.22990    0.36970    1.000
    O10      O        0.54920    0.01820    0.38470    1.000
    O11      O        0.61640    0.87730    0.47950    1.000
    O12      O        0.67970    0.87580    0.33610    1.000
    P5       P        0.56530    0.91670    0.39170    1.000
    Zn4      Zn       0.32691    0.72906    0.84532    1.000
    Zn5      Zn       0.83383    0.90087    0.01555    1.000
    Zn6      Zn       0.96324    0.63505    0.05375    1.000
    P6       P        0.66280    0.72568    0.94246    1.000
    H4       H        0.73800    0.71740    0.87500    1.000
    P7       P        0.17190    0.87392    0.95594    1.000
    H5       H        0.22600    0.80800    0.00900    1.000
    P8       P        0.97300    0.79592    0.18223    1.000
    H6       H        0.08800    0.84900    0.23300    1.000
    P9       P        0.83840    0.43750    0.08770    1.000
    O13      O        0.75400    0.66760    0.00890    1.000
    O14      O        0.65640    0.83080    0.96220    1.000
    O15      O        0.49910    0.68520    0.92070    1.000
    O16      O        0.23040    0.84800    0.87620    1.000
    O17      O        0.23850    0.96830    0.98790    1.000
    O18      O        0.99560    0.86940    0.94950    1.000
    O19      O        0.87120    0.86810    0.13070    1.000
    O20      O        0.87900    0.74000    0.23840    1.000
    O21      O        0.06210    0.72990    0.13030    1.000
    O22      O        0.95080    0.51820    0.11530    1.000
    O23      O        0.88360    0.37730    0.02050    1.000
    O24      O        0.82030    0.37580    0.16390    1.000
    P10      P        0.93470    0.41670    0.10830    1.000
    Zn7      Zn       0.82691    0.77094    0.34532    1.000
    Zn8      Zn       0.33383    0.59913    0.51555    1.000
    Zn9      Zn       0.46324    0.86495    0.55375    1.000
    P11      P        0.16280    0.77432    0.44246    1.000
    H7       H        0.23800    0.78260    0.37500    1.000
    P12      P        0.67190    0.62608    0.45594    1.000
    H8       H        0.72600    0.69200    0.50900    1.000
    P13      P        0.47300    0.70408    0.68223    1.000
    H9       H        0.58800    0.65100    0.73300    1.000
    P14      P        0.33840    0.06250    0.58770    1.000
    O25      O        0.25400    0.83240    0.50890    1.000
    O26      O        0.15640    0.66920    0.46220    1.000
    O27      O        0.99910    0.81480    0.42070    1.000
    O28      O        0.73040    0.65200    0.37620    1.000
    O29      O        0.73850    0.53170    0.48790    1.000
    O30      O        0.49560    0.63060    0.44950    1.000
    O31      O        0.37120    0.63190    0.63070    1.000
    O32      O        0.37900    0.76000    0.73840    1.000
    O33      O        0.56210    0.77010    0.63030    1.000
    O34      O        0.45080    0.98180    0.61530    1.000
    O35      O        0.38360    0.12270    0.52050    1.000
    O36      O        0.32030    0.12420    0.66390    1.000
    P15      P        0.43470    0.08330    0.60830    1.000
    Zn10     Zn       0.67309    0.27094    0.15468    1.000
    Zn11     Zn       0.16617    0.09913    0.98445    1.000
    Zn12     Zn       0.03676    0.36495    0.94625    1.000
    P16      P        0.33720    0.27432    0.05754    1.000
    H10      H        0.26200    0.28260    0.12500    1.000
    P17      P        0.82810    0.12608    0.04406    1.000
    H11      H        0.77400    0.19200    0.99100    1.000
    P18      P        0.02700    0.20408    0.81777    1.000
    H12      H        0.91200    0.15100    0.76700    1.000
    P19      P        0.16160    0.56250    0.91230    1.000
    O37      O        0.24600    0.33240    0.99110    1.000
    O38      O        0.34360    0.16920    0.03780    1.000
    O39      O        0.50090    0.31480    0.07930    1.000
    O40      O        0.76960    0.15200    0.12380    1.000
    O41      O        0.76150    0.03170    0.01210    1.000
    O42      O        0.00440    0.13060    0.05050    1.000
    O43      O        0.12880    0.13190    0.86930    1.000
    O44      O        0.12100    0.26000    0.76160    1.000
    O45      O        0.93790    0.27010    0.86970    1.000
    O46      O        0.04920    0.48180    0.88470    1.000
    O47      O        0.11640    0.62270    0.97950    1.000
    O48      O        0.17970    0.62420    0.83610    1.000
    P20      P        0.06530    0.58330    0.89170    1.000
