data_functionalizedCrystal
_audit_creation_method	'EQeq! by Chris Wilmer'
_symmetry_space_group_name_H-M	'P1'
_symmetry_Int_Tables_number	1
_symmetry_cell_setting	triclinic
loop_
_symmetry_equiv_pos_as_xyz
  x,y,z
_cell_length_a	13.217
_cell_length_b	22.0432
_cell_length_c	22.0432
_cell_angle_alpha	71.0797
_cell_angle_beta	72.5547
_cell_angle_gamma	72.5545
loop_
_atom_site_label
_atom_site_type_symbol
_atom_site_fract_x
_atom_site_fract_y
_atom_site_fract_z
_atom_site_charge
Mof_Al	Al	0.25322	0.25145	0.00027	5.261
Mof_Al	Al	0.00378	0.25094	3e-05	2.99
Mof_C 	C 	0.07535	0.03414	0.00276	-1.609
Mof_C 	C 	0.17982	0.24703	0.21771	-0.231
Mof_C 	C 	0.14468	0.25136	0.28333	0.401
Mof_C 	C 	0.11105	0.46926	0.49625	0.592
Mof_C 	C 	0.42895	0.46914	0.49632	0.206
Mof_C 	C 	0.32696	0.25148	0.28334	0.429
Mof_C 	C 	0.36201	0.24691	0.21777	-0.213
Mof_C 	C 	0.39317	0.03422	0.00264	-0.903
Mof_C 	C 	0.46594	0.06789	0.00578	0.15
Mof_C 	C 	0.43017	0.13877	0.00768	0.83
Mof_C 	C 	0.28901	0.24509	0.18362	-0.192
Mof_C 	C 	0.32477	0.2449	0.11226	0.976
Mof_C 	C 	0.21784	0.25334	0.31743	-1.129
Mof_C 	C 	0.18174	0.25495	0.38843	3.291
Mof_C 	C 	0.03872	0.43535	0.49311	-1.629
Mof_C 	C 	0.07594	0.36404	0.49194	3.368
Mof_O 	O 	0.3298	0.16825	0.00764	-1.53
Mof_O 	O 	0.4252	0.24529	0.08281	-1.616
Mof_O 	O 	0.2527	0.25543	0.41765	-5.064
Mof_O 	O 	0.00484	0.33434	0.49239	-4.867
Mof_O 	O 	0.17642	0.33491	0.49289	-5.07
Mof_O 	O 	0.08135	0.25454	0.41757	-4.777
Mof_O 	O 	0.25293	0.24589	0.08303	-1.566
Mof_O 	O 	0.00232	0.16795	0.00653	-1.43
Mof_O 	O 	0.37785	0.28006	0.47279	-9.949
Mof_O 	O 	0.12679	0.22507	0.02958	-2.389
Mof_H 	H 	0.13389	0.05786	0.00544	0.243
Mof_H 	H 	0.12093	0.24605	0.19334	-0.063
Mof_H 	H 	0.0597	0.25368	0.307	-0.259
Mof_H 	H 	0.19545	0.44514	0.4948	-0.207
Mof_H 	H 	0.36993	0.44501	0.49508	-0.102
Mof_H 	H 	0.38539	0.25409	0.30715	-0.148
Mof_H 	H 	0.44627	0.24578	0.19336	0.023
Mof_H 	H 	0.30834	0.0582	0.00512	0.098
Mof_H 	H 	0.3766	0.31503	0.44061	2.832
Mof_H 	H 	0.12403	0.19444	0.06579	0.706
Mof_Al	Al	0.75322	0.25145	0.00027	5.434
Mof_Al	Al	0.50378	0.25094	3e-05	5.75
Mof_C 	C 	0.57535	0.03414	0.00276	-0.893
Mof_C 	C 	0.67982	0.24703	0.21771	-0.259
Mof_C 	C 	0.64468	0.25136	0.28333	0.495
Mof_C 	C 	0.61105	0.46926	0.49625	0.211
Mof_C 	C 	0.92895	0.46914	0.49632	0.938
Mof_C 	C 	0.82696	0.25148	0.28334	0.517
Mof_C 	C 	0.86201	0.24691	0.21777	-0.244
Mof_C 	C 	0.89317	0.03422	0.00264	-1.244
Mof_C 	C 	0.96594	0.06789	0.00578	0.798
Mof_C 	C 	0.93017	0.13877	0.00768	0.932
Mof_C 	C 	0.78901	0.24509	0.18362	-0.042
Mof_C 	C 	0.82477	0.2449	0.11226	0.754
Mof_C 	C 	0.71784	0.25334	0.31743	-1.165
Mof_C 	C 	0.68174	0.25495	0.38843	3.514
Mof_C 	C 	0.53872	0.43535	0.49311	-0.967
Mof_C 	C 	0.57594	0.36404	0.49194	3.404
Mof_O 	O 	0.8298	0.16825	0.00764	-1.517
Mof_O 	O 	0.9252	0.24529	0.08281	-0.827
Mof_O 	O 	0.7527	0.25543	0.41765	-5.124
Mof_O 	O 	0.50484	0.33434	0.49239	-5.187
Mof_O 	O 	0.67642	0.33491	0.49289	-5.086
Mof_O 	O 	0.58135	0.25454	0.41757	-5.256
Mof_O 	O 	0.75293	0.24589	0.08303	-1.471
Mof_O 	O 	0.50232	0.16795	0.00653	-1.601
Mof_O 	O 	0.87785	0.28006	0.47279	-9.217
Mof_O 	O 	0.62679	0.22507	0.02958	-3.008
Mof_H 	H 	0.63389	0.05786	0.00544	0.12
Mof_H 	H 	0.62093	0.24605	0.19334	0.044
Mof_H 	H 	0.5597	0.25368	0.307	-0.158
Mof_H 	H 	0.69545	0.44514	0.4948	-0.064
Mof_H 	H 	0.86993	0.44501	0.49508	-0.197
Mof_H 	H 	0.88539	0.25409	0.30715	-0.062
Mof_H 	H 	0.94627	0.24578	0.19336	0.168
Mof_H 	H 	0.80834	0.0582	0.00512	0.219
Mof_H 	H 	0.8766	0.31503	0.44061	2.738
Mof_H 	H 	0.62403	0.19444	0.06579	0.949
Mof_Al	Al	0.25322	0.75145	0.00027	5.084
Mof_Al	Al	0.00378	0.75094	3e-05	2.813
Mof_C 	C 	0.07535	0.53414	0.00276	-1.877
Mof_C 	C 	0.17982	0.74703	0.21771	-0.24
Mof_C 	C 	0.14468	0.75136	0.28333	0.393
Mof_C 	C 	0.11105	0.96926	0.49625	0.347
Mof_C 	C 	0.42895	0.96914	0.49632	-0.035
Mof_C 	C 	0.32696	0.75148	0.28334	0.421
Mof_C 	C 	0.36201	0.74691	0.21777	-0.222
Mof_C 	C 	0.39317	0.53422	0.00264	-1.158
Mof_C 	C 	0.46594	0.56789	0.00578	0.289
Mof_C 	C 	0.43017	0.63877	0.00768	0.752
Mof_C 	C 	0.28901	0.74509	0.18362	-0.191
Mof_C 	C 	0.32477	0.7449	0.11226	0.947
Mof_C 	C 	0.21784	0.75334	0.31743	-1.13
Mof_C 	C 	0.18174	0.75495	0.38843	3.266
Mof_C 	C 	0.03872	0.93535	0.49311	-1.49
Mof_C 	C 	0.07594	0.86404	0.49194	3.296
Mof_O 	O 	0.3298	0.66825	0.00764	-1.485
Mof_O 	O 	0.4252	0.74529	0.08281	-1.584
Mof_O 	O 	0.2527	0.75543	0.41765	-5.037
Mof_O 	O 	0.00484	0.83434	0.49239	-4.828
Mof_O 	O 	0.17642	0.83491	0.49289	-5.032
Mof_O 	O 	0.08135	0.75454	0.41757	-4.751
Mof_O 	O 	0.25293	0.74589	0.08303	-1.531
Mof_O 	O 	0.00232	0.66795	0.00653	-1.387
Mof_O 	O 	0.37785	0.78006	0.47279	-9.886
Mof_O 	O 	0.12679	0.72507	0.02958	-2.313
Mof_H 	H 	0.13389	0.55786	0.00544	0.283
Mof_H 	H 	0.12093	0.74605	0.19334	-0.067
Mof_H 	H 	0.0597	0.75368	0.307	-0.263
Mof_H 	H 	0.19545	0.94514	0.4948	-0.171
Mof_H 	H 	0.36993	0.94501	0.49508	-0.067
Mof_H 	H 	0.38539	0.75409	0.30715	-0.153
Mof_H 	H 	0.44627	0.74578	0.19336	0.019
Mof_H 	H 	0.30834	0.5582	0.00512	0.135
Mof_H 	H 	0.3766	0.81503	0.44061	2.806
Mof_H 	H 	0.12403	0.69444	0.06579	0.677
Mof_Al	Al	0.75322	0.75145	0.00027	5.284
Mof_Al	Al	0.50378	0.75094	3e-05	5.586
Mof_C 	C 	0.57535	0.53414	0.00276	-1.149
Mof_C 	C 	0.67982	0.74703	0.21771	-0.268
Mof_C 	C 	0.64468	0.75136	0.28333	0.487
Mof_C 	C 	0.61105	0.96926	0.49625	-0.032
Mof_C 	C 	0.92895	0.96914	0.49632	0.687
Mof_C 	C 	0.82696	0.75148	0.28334	0.509
Mof_C 	C 	0.86201	0.74691	0.21777	-0.253
Mof_C 	C 	0.89317	0.53422	0.00264	-1.504
Mof_C 	C 	0.96594	0.56789	0.00578	0.948
Mof_C 	C 	0.93017	0.63877	0.00768	0.856
Mof_C 	C 	0.78901	0.74509	0.18362	-0.041
Mof_C 	C 	0.82477	0.7449	0.11226	0.726
Mof_C 	C 	0.71784	0.75334	0.31743	-1.166
Mof_C 	C 	0.68174	0.75495	0.38843	3.489
Mof_C 	C 	0.53872	0.93535	0.49311	-0.838
Mof_C 	C 	0.57594	0.86404	0.49194	3.333
Mof_O 	O 	0.8298	0.66825	0.00764	-1.476
Mof_O 	O 	0.9252	0.74529	0.08281	-0.792
Mof_O 	O 	0.7527	0.75543	0.41765	-5.097
Mof_O 	O 	0.50484	0.83434	0.49239	-5.148
Mof_O 	O 	0.67642	0.83491	0.49289	-5.048
Mof_O 	O 	0.58135	0.75454	0.41757	-5.229
Mof_O 	O 	0.75293	0.74589	0.08303	-1.441
Mof_O 	O 	0.50232	0.66795	0.00653	-1.557
Mof_O 	O 	0.87785	0.78006	0.47279	-9.156
Mof_O 	O 	0.62679	0.72507	0.02958	-2.94
Mof_H 	H 	0.63389	0.55786	0.00544	0.157
Mof_H 	H 	0.62093	0.74605	0.19334	0.04
Mof_H 	H 	0.5597	0.75368	0.307	-0.162
Mof_H 	H 	0.69545	0.94514	0.4948	-0.03
Mof_H 	H 	0.86993	0.94501	0.49508	-0.161
Mof_H 	H 	0.88539	0.75409	0.30715	-0.067
Mof_H 	H 	0.94627	0.74578	0.19336	0.164
Mof_H 	H 	0.80834	0.5582	0.00512	0.258
Mof_H 	H 	0.8766	0.81503	0.44061	2.712
Mof_H 	H 	0.62403	0.69444	0.06579	0.923
Mof_Al	Al	0.25322	0.25145	0.50027	22.231
Mof_Al	Al	0.00378	0.25094	0.50003	19.945
Mof_C 	C 	0.07535	0.03414	0.50276	-0.245
Mof_C 	C 	0.17982	0.24703	0.71771	0.498
Mof_C 	C 	0.14468	0.25136	0.78333	-0.277
Mof_C 	C 	0.11105	0.46926	0.99625	1.594
Mof_C 	C 	0.42895	0.46914	0.99632	1.21
Mof_C 	C 	0.32696	0.25148	0.78334	-0.247
Mof_C 	C 	0.36201	0.24691	0.71777	0.517
Mof_C 	C 	0.39317	0.03422	0.50264	0.467
Mof_C 	C 	0.46594	0.06789	0.50578	-1.125
Mof_C 	C 	0.43017	0.13877	0.50768	3.5
Mof_C 	C 	0.28901	0.24509	0.68362	-1.196
Mof_C 	C 	0.32477	0.2449	0.61226	3.524
Mof_C 	C 	0.21784	0.25334	0.81743	-0.017
Mof_C 	C 	0.18174	0.25495	0.88843	0.766
Mof_C 	C 	0.03872	0.43535	0.99311	-1.496
Mof_C 	C 	0.07594	0.36404	0.99194	1.238
Mof_O 	O 	0.3298	0.16825	0.50764	-5.144
Mof_O 	O 	0.4252	0.24529	0.58281	-5.219
Mof_O 	O 	0.2527	0.25543	0.91765	-1.063
Mof_O 	O 	0.00484	0.33434	0.99239	-0.963
Mof_O 	O 	0.17642	0.33491	0.99289	-1.17
Mof_O 	O 	0.08135	0.25454	0.91757	-0.758
Mof_O 	O 	0.25293	0.24589	0.58303	-5.174
Mof_O 	O 	0.00232	0.16795	0.50653	-5.021
Mof_O 	O 	0.37785	0.28006	0.97279	-2.187
Mof_O 	O 	0.12679	0.22507	0.52958	-9.419
Mof_H 	H 	0.13389	0.05786	0.50544	0.003
Mof_H 	H 	0.12093	0.24605	0.69334	-0.238
Mof_H 	H 	0.0597	0.25368	0.807	-0.009
Mof_H 	H 	0.19545	0.44514	0.9948	-0.242
Mof_H 	H 	0.36993	0.44501	0.99508	-0.133
Mof_H 	H 	0.38539	0.25409	0.80715	0.106
Mof_H 	H 	0.44627	0.24578	0.69336	-0.153
Mof_H 	H 	0.30834	0.0582	0.50512	-0.144
Mof_H 	H 	0.3766	0.31503	0.94061	0.753
Mof_H 	H 	0.12403	0.19444	0.56579	2.643
Mof_Al	Al	0.75322	0.25145	0.50027	22.374
Mof_Al	Al	0.50378	0.25094	0.50003	22.806
Mof_C 	C 	0.57535	0.03414	0.50276	0.483
Mof_C 	C 	0.67982	0.24703	0.71771	0.471
Mof_C 	C 	0.64468	0.25136	0.78333	-0.183
Mof_C 	C 	0.61105	0.46926	0.99625	1.222
Mof_C 	C 	0.92895	0.46914	0.99632	1.927
Mof_C 	C 	0.82696	0.25148	0.78334	-0.159
Mof_C 	C 	0.86201	0.24691	0.71777	0.484
Mof_C 	C 	0.89317	0.03422	0.50264	0.108
Mof_C 	C 	0.96594	0.06789	0.50578	-0.472
Mof_C 	C 	0.93017	0.13877	0.50768	3.587
Mof_C 	C 	0.78901	0.24509	0.68362	-1.044
Mof_C 	C 	0.82477	0.2449	0.61226	3.293
Mof_C 	C 	0.71784	0.25334	0.81743	-0.051
Mof_C 	C 	0.68174	0.25495	0.88843	0.983
Mof_C 	C 	0.53872	0.43535	0.99311	-0.836
Mof_C 	C 	0.57594	0.36404	0.99194	1.27
Mof_O 	O 	0.8298	0.16825	0.50764	-5.123
Mof_O 	O 	0.9252	0.24529	0.58281	-4.414
Mof_O 	O 	0.7527	0.25543	0.91765	-1.126
Mof_O 	O 	0.50484	0.33434	0.99239	-1.258
Mof_O 	O 	0.67642	0.33491	0.99289	-1.189
Mof_O 	O 	0.58135	0.25454	0.91757	-1.214
Mof_O 	O 	0.75293	0.24589	0.58303	-5.071
Mof_O 	O 	0.50232	0.16795	0.50653	-5.211
Mof_O 	O 	0.87785	0.28006	0.97279	-1.488
Mof_O 	O 	0.62679	0.22507	0.52958	-10.051
Mof_H 	H 	0.63389	0.05786	0.50544	-0.124
Mof_H 	H 	0.62093	0.24605	0.69334	-0.13
Mof_H 	H 	0.5597	0.25368	0.807	0.094
Mof_H 	H 	0.69545	0.44514	0.9948	-0.102
Mof_H 	H 	0.86993	0.44501	0.99508	-0.225
Mof_H 	H 	0.88539	0.25409	0.80715	0.191
Mof_H 	H 	0.94627	0.24578	0.69336	-0.011
Mof_H 	H 	0.80834	0.0582	0.50512	-0.019
Mof_H 	H 	0.8766	0.31503	0.94061	0.668
Mof_H 	H 	0.62403	0.19444	0.56579	2.891
Mof_Al	Al	0.25322	0.75145	0.50027	22.085
Mof_Al	Al	0.00378	0.75094	0.50003	19.807
Mof_C 	C 	0.07535	0.53414	0.50276	-0.493
Mof_C 	C 	0.17982	0.74703	0.71771	0.491
Mof_C 	C 	0.14468	0.75136	0.78333	-0.286
Mof_C 	C 	0.11105	0.96926	0.99625	1.331
Mof_C 	C 	0.42895	0.96914	0.99632	0.954
Mof_C 	C 	0.32696	0.75148	0.78334	-0.256
Mof_C 	C 	0.36201	0.74691	0.71777	0.509
Mof_C 	C 	0.39317	0.53422	0.50264	0.227
Mof_C 	C 	0.46594	0.56789	0.50578	-0.995
Mof_C 	C 	0.43017	0.63877	0.50768	3.428
Mof_C 	C 	0.28901	0.74509	0.68362	-1.196
Mof_C 	C 	0.32477	0.7449	0.61226	3.498
Mof_C 	C 	0.21784	0.75334	0.81743	-0.015
Mof_C 	C 	0.18174	0.75495	0.88843	0.736
Mof_C 	C 	0.03872	0.93535	0.99311	-1.344
Mof_C 	C 	0.07594	0.86404	0.99194	1.156
Mof_O 	O 	0.3298	0.66825	0.50764	-5.105
Mof_O 	O 	0.4252	0.74529	0.58281	-5.191
Mof_O 	O 	0.2527	0.75543	0.91765	-1.026
Mof_O 	O 	0.00484	0.83434	0.99239	-0.912
Mof_O 	O 	0.17642	0.83491	0.99289	-1.121
Mof_O 	O 	0.08135	0.75454	0.91757	-0.72
Mof_O 	O 	0.25293	0.74589	0.58303	-5.146
Mof_O 	O 	0.00232	0.66795	0.50653	-4.984
Mof_O 	O 	0.37785	0.78006	0.97279	-2.11
Mof_O 	O 	0.12679	0.72507	0.52958	-9.358
Mof_H 	H 	0.13389	0.55786	0.50544	0.039
Mof_H 	H 	0.12093	0.74605	0.69334	-0.242
Mof_H 	H 	0.0597	0.75368	0.807	-0.012
Mof_H 	H 	0.19545	0.94514	0.9948	-0.203
Mof_H 	H 	0.36993	0.94501	0.99508	-0.097
Mof_H 	H 	0.38539	0.75409	0.80715	0.102
Mof_H 	H 	0.44627	0.74578	0.69336	-0.157
Mof_H 	H 	0.30834	0.5582	0.50512	-0.109
Mof_H 	H 	0.3766	0.81503	0.94061	0.724
Mof_H 	H 	0.12403	0.69444	0.56579	2.62
Mof_Al	Al	0.75322	0.75145	0.50027	22.229
Mof_Al	Al	0.50378	0.75094	0.50003	22.658
Mof_C 	C 	0.57535	0.53414	0.50276	0.242
Mof_C 	C 	0.67982	0.74703	0.71771	0.463
Mof_C 	C 	0.64468	0.75136	0.78333	-0.192
Mof_C 	C 	0.61105	0.96926	0.99625	0.964
Mof_C 	C 	0.92895	0.96914	0.99632	1.657
Mof_C 	C 	0.82696	0.75148	0.78334	-0.168
Mof_C 	C 	0.86201	0.74691	0.71777	0.476
Mof_C 	C 	0.89317	0.53422	0.50264	-0.135
Mof_C 	C 	0.96594	0.56789	0.50578	-0.333
Mof_C 	C 	0.93017	0.63877	0.50768	3.516
Mof_C 	C 	0.78901	0.74509	0.68362	-1.044
Mof_C 	C 	0.82477	0.7449	0.61226	3.268
Mof_C 	C 	0.71784	0.75334	0.81743	-0.05
Mof_C 	C 	0.68174	0.75495	0.88843	0.957
Mof_C 	C 	0.53872	0.93535	0.99311	-0.699
Mof_C 	C 	0.57594	0.86404	0.99194	1.195
Mof_O 	O 	0.8298	0.66825	0.50764	-5.084
Mof_O 	O 	0.9252	0.74529	0.58281	-4.388
Mof_O 	O 	0.7527	0.75543	0.91765	-1.097
Mof_O 	O 	0.50484	0.83434	0.99239	-1.214
Mof_O 	O 	0.67642	0.83491	0.99289	-1.148
Mof_O 	O 	0.58135	0.75454	0.91757	-1.181
Mof_O 	O 	0.75293	0.74589	0.58303	-5.044
Mof_O 	O 	0.50232	0.66795	0.50653	-5.172
Mof_O 	O 	0.87785	0.78006	0.97279	-1.415
Mof_O 	O 	0.62679	0.72507	0.52958	-9.988
Mof_H 	H 	0.63389	0.55786	0.50544	-0.088
Mof_H 	H 	0.62093	0.74605	0.69334	-0.134
Mof_H 	H 	0.5597	0.75368	0.807	0.09
Mof_H 	H 	0.69545	0.94514	0.9948	-0.066
Mof_H 	H 	0.86993	0.94501	0.99508	-0.187
Mof_H 	H 	0.88539	0.75409	0.80715	0.187
Mof_H 	H 	0.94627	0.74578	0.69336	-0.015
Mof_H 	H 	0.80834	0.5582	0.50512	0.017
Mof_H 	H 	0.8766	0.81503	0.94061	0.638
Mof_H 	H 	0.62403	0.69444	0.56579	2.867
_end
