# CIF file generated by openbabel 3.1.0, see https://openbabel.org
data_I
_chemical_name_common 'image0'
_cell_length_a 13.4519
_cell_length_b 13.4519
_cell_length_c 17.265
_cell_angle_alpha 90
_cell_angle_beta 90
_cell_angle_gamma 90
_space_group_name_H-M_alt 'P 1'
_space_group_name_Hall 'P 1'
loop_
    _symmetry_equiv_pos_as_xyz
    x,y,z
loop_
    _atom_site_label
    _atom_site_type_symbol
    _atom_site_fract_x
    _atom_site_fract_y
    _atom_site_fract_z
    _atom_site_occupancy
    P1       P        0.42530    0.65700    0.06958    1.000
    P2       P        0.39500    0.63686    0.23990    1.000
    P3       P        0.38310    0.62890    0.57985    1.000
    P4       P        0.41410    0.65170    0.74750    1.000
    O1       O        0.32530    0.66110    0.02410    1.000
    O2       O        0.48580    0.74230    0.04100    1.000
    O3       O        0.39360    0.69070    0.15620    1.000
    O4       O        0.28790    0.62000    0.26280    1.000
    O5       O        0.43460    0.72660    0.29220    1.000
    O6       O        0.27990    0.60050    0.55540    1.000
    O7       O        0.41580    0.71920    0.52730    1.000
    O8       O        0.37130    0.68030    0.66360    1.000
    O9       O        0.31570    0.64450    0.79620    1.000
    O10      O        0.47340    0.73990    0.77580    1.000
    K1       K        0.21544    0.76821    0.90782    1.000
    P5       P        0.57470    0.34300    0.06958    1.000
    P6       P        0.60500    0.36314    0.23990    1.000
    P7       P        0.61690    0.37110    0.57985    1.000
    P8       P        0.58590    0.34830    0.74750    1.000
    O11      O        0.67470    0.33890    0.02410    1.000
    O12      O        0.51420    0.25770    0.04100    1.000
    O13      O        0.60640    0.30930    0.15620    1.000
    O14      O        0.71210    0.38000    0.26280    1.000
    O15      O        0.56540    0.27340    0.29220    1.000
    O16      O        0.72010    0.39950    0.55540    1.000
    O17      O        0.58420    0.28080    0.52730    1.000
    O18      O        0.62870    0.31970    0.66360    1.000
    O19      O        0.68430    0.35550    0.79620    1.000
    O20      O        0.52660    0.26010    0.77580    1.000
    K2       K        0.78456    0.23179    0.90782    1.000
    P9       P        0.34300    0.42530    0.06958    1.000
    P10      P        0.36314    0.39500    0.23990    1.000
    P11      P        0.37110    0.38310    0.57985    1.000
    P12      P        0.34830    0.41410    0.74750    1.000
    O21      O        0.33890    0.32530    0.02410    1.000
    O22      O        0.25770    0.48580    0.04100    1.000
    O23      O        0.30930    0.39360    0.15620    1.000
    O24      O        0.38000    0.28790    0.26280    1.000
    O25      O        0.27340    0.43460    0.29220    1.000
    O26      O        0.39950    0.27990    0.55540    1.000
    O27      O        0.28080    0.41580    0.52730    1.000
    O28      O        0.31970    0.37130    0.66360    1.000
    O29      O        0.35550    0.31570    0.79620    1.000
    O30      O        0.26010    0.47340    0.77580    1.000
    K3       K        0.23179    0.21544    0.90782    1.000
    P13      P        0.65700    0.57470    0.06958    1.000
    P14      P        0.63686    0.60500    0.23990    1.000
    P15      P        0.62890    0.61690    0.57985    1.000
    P16      P        0.65170    0.58590    0.74750    1.000
    O31      O        0.66110    0.67470    0.02410    1.000
    O32      O        0.74230    0.51420    0.04100    1.000
    O33      O        0.69070    0.60640    0.15620    1.000
    O34      O        0.62000    0.71210    0.26280    1.000
    O35      O        0.72660    0.56540    0.29220    1.000
    O36      O        0.60050    0.72010    0.55540    1.000
    O37      O        0.71920    0.58420    0.52730    1.000
    O38      O        0.68030    0.62870    0.66360    1.000
    O39      O        0.64450    0.68430    0.79620    1.000
    O40      O        0.73990    0.52660    0.77580    1.000
    K4       K        0.76821    0.78456    0.90782    1.000
    P17      P        0.92530    0.84300    0.56958    1.000
    P18      P        0.89500    0.86314    0.73990    1.000
    P19      P        0.88310    0.87110    0.07985    1.000
    P20      P        0.91410    0.84830    0.24750    1.000
    O41      O        0.82530    0.83890    0.52410    1.000
    O42      O        0.98580    0.75770    0.54100    1.000
    O43      O        0.89360    0.80930    0.65620    1.000
    O44      O        0.78790    0.88000    0.76280    1.000
    O45      O        0.93460    0.77340    0.79220    1.000
    O46      O        0.77990    0.89950    0.05540    1.000
    O47      O        0.91580    0.78080    0.02730    1.000
    O48      O        0.87130    0.81970    0.16360    1.000
    O49      O        0.81570    0.85550    0.29620    1.000
    O50      O        0.97340    0.76010    0.27580    1.000
    K5       K        0.71544    0.73179    0.40782    1.000
    P21      P        0.07470    0.15700    0.56958    1.000
    P22      P        0.10500    0.13686    0.73990    1.000
    P23      P        0.11690    0.12890    0.07985    1.000
    P24      P        0.08590    0.15170    0.24750    1.000
    O51      O        0.17470    0.16110    0.52410    1.000
    O52      O        0.01420    0.24230    0.54100    1.000
    O53      O        0.10640    0.19070    0.65620    1.000
    O54      O        0.21210    0.12000    0.76280    1.000
    O55      O        0.06540    0.22660    0.79220    1.000
    O56      O        0.22010    0.10050    0.05540    1.000
    O57      O        0.08420    0.21920    0.02730    1.000
    O58      O        0.12870    0.18030    0.16360    1.000
    O59      O        0.18430    0.14450    0.29620    1.000
    O60      O        0.02660    0.23990    0.27580    1.000
    K6       K        0.28456    0.26821    0.40782    1.000
    P25      P        0.84300    0.07470    0.56958    1.000
    P26      P        0.86314    0.10500    0.73990    1.000
    P27      P        0.87110    0.11690    0.07985    1.000
    P28      P        0.84830    0.08590    0.24750    1.000
    O61      O        0.83890    0.17470    0.52410    1.000
    O62      O        0.75770    0.01420    0.54100    1.000
    O63      O        0.80930    0.10640    0.65620    1.000
    O64      O        0.88000    0.21210    0.76280    1.000
    O65      O        0.77340    0.06540    0.79220    1.000
    O66      O        0.89950    0.22010    0.05540    1.000
    O67      O        0.78080    0.08420    0.02730    1.000
    O68      O        0.81970    0.12870    0.16360    1.000
    O69      O        0.85550    0.18430    0.29620    1.000
    O70      O        0.76010    0.02660    0.27580    1.000
    K7       K        0.73179    0.28456    0.40782    1.000
    P29      P        0.15700    0.92530    0.56958    1.000
    P30      P        0.13686    0.89500    0.73990    1.000
    P31      P        0.12890    0.88310    0.07985    1.000
    P32      P        0.15170    0.91410    0.24750    1.000
    O71      O        0.16110    0.82530    0.52410    1.000
    O72      O        0.24230    0.98580    0.54100    1.000
    O73      O        0.19070    0.89360    0.65620    1.000
    O74      O        0.12000    0.78790    0.76280    1.000
    O75      O        0.22660    0.93460    0.79220    1.000
    O76      O        0.10050    0.77990    0.05540    1.000
    O77      O        0.21920    0.91580    0.02730    1.000
    O78      O        0.18030    0.87130    0.16360    1.000
    O79      O        0.14450    0.81570    0.29620    1.000
    O80      O        0.23990    0.97340    0.27580    1.000
    K8       K        0.26821    0.71544    0.40782    1.000
    Pt1      Pt       0.50000    0.50000    0.07308    1.000
    Pt2      Pt       0.50000    0.50000    0.23887    1.000
    Pt3      Pt       0.50000    0.50000    0.58293    1.000
    Pt4      Pt       0.50000    0.50000    0.74258    1.000
    I1       I        0.50000    0.50000    0.90216    1.000
    I2       I        0.50000    0.50000    0.42027    1.000
    Pt5      Pt       0.00000    0.00000    0.57308    1.000
    Pt6      Pt       0.00000    0.00000    0.73887    1.000
    Pt7      Pt       0.00000    0.00000    0.08293    1.000
    Pt8      Pt       0.00000    0.00000    0.24258    1.000
    I3       I        0.00000    0.00000    0.40216    1.000
    I4       I        0.00000    0.00000    0.92027    1.000
