# CIF file generated by openbabel 3.1.0, see https://openbabel.org
data_I
_chemical_name_common 'image0'
_cell_length_a 10.602
_cell_length_b 11.33
_cell_length_c 12.446
_cell_angle_alpha 86.27
_cell_angle_beta 82.02
_cell_angle_gamma 89.22
_space_group_name_H-M_alt 'P 1'
_space_group_name_Hall 'P 1'
loop_
    _symmetry_equiv_pos_as_xyz
    x,y,z
loop_
    _atom_site_label
    _atom_site_type_symbol
    _atom_site_fract_x
    _atom_site_fract_y
    _atom_site_fract_z
    _atom_site_occupancy
    Gd1      Gd       0.42748    0.98598    0.26144    1.000
    Zn1      Zn       0.63184    0.33770    0.29809    1.000
    O1       O        0.53420    0.08880    0.09370    1.000
    O2       O        0.55300    0.18390    0.24000    1.000
    O3       O        0.19730    0.99880    0.33540    1.000
    O4       O        0.27590    0.14200    0.21750    1.000
    O5       O        0.41740    0.74910    0.54270    1.000
    O6       O        0.70050    0.50260    0.32490    1.000
    O7       O        0.69400    0.11340    0.86120    1.000
    O8       O        0.39200    0.82020    0.37690    1.000
    O9       O        0.49800    0.17890    0.85840    1.000
    O10      O        0.64160    0.68250    0.37660    1.000
    N1       N        0.45970    0.43460    0.33540    1.000
    N2       N        0.81300    0.25700    0.29450    1.000
    N3       N        0.64770    0.37540    0.12270    1.000
    C1       C        0.47890    0.54290    0.36820    1.000
    C2       C        0.56630    0.17770    0.13700    1.000
    C3       C        0.39990    0.73700    0.44640    1.000
    C4       C        0.61860    0.58040    0.35610    1.000
    C5       C        0.37890    0.61470    0.41140    1.000
    C6       C        0.61870    0.28380    0.06740    1.000
    C7       C        0.18250    0.09340    0.27930    1.000
    C8       C        0.34000    0.39440    0.34290    1.000
    H1       H        0.32640    0.32000    0.31930    1.000
    C9       C        0.60460    0.18490    0.88950    1.000
    C10      C        0.25600    0.57110    0.41910    1.000
    H2       H        0.18700    0.61650    0.44750    1.000
    C11      C        0.05330    0.15050    0.28420    1.000
    C12      C        0.23650    0.46070    0.38490    1.000
    H3       H        0.15450    0.43090    0.39000    1.000
    C13      C        0.63240    0.28750    0.95440    1.000
    C14      C        0.03510    0.25680    0.22640    1.000
    H4       H        0.10310    0.29430    0.18270    1.000
    C15      C        0.94860    0.10020    0.34820    1.000
    H5       H        0.95720    0.02990    0.38950    1.000
    C16      C        0.83120    0.15430    0.35080    1.000
    H6       H        0.76150    0.11820    0.39330    1.000
    C17      C        0.91510    0.30610    0.23450    1.000
    H7       H        0.90460    0.37780    0.19590    1.000
    C18      C        0.68640    0.47630    0.06670    1.000
    H8       H        0.70520    0.54050    0.10450    1.000
    C19      C        0.67370    0.39210    0.89870    1.000
    H9       H        0.68440    0.39790    0.82310    1.000
    C20      C        0.69930    0.48820    0.95450    1.000
    H10      H        0.72470    0.55970    0.91740    1.000
    Gd2      Gd       0.57252    0.01402    0.73856    1.000
    Zn2      Zn       0.36816    0.66230    0.70191    1.000
    O11      O        0.46580    0.91120    0.90630    1.000
    O12      O        0.44700    0.81610    0.76000    1.000
    O13      O        0.80270    0.00120    0.66460    1.000
    O14      O        0.72410    0.85800    0.78250    1.000
    O15      O        0.58260    0.25090    0.45730    1.000
    O16      O        0.29950    0.49740    0.67510    1.000
    O17      O        0.30600    0.88660    0.13880    1.000
    O18      O        0.60800    0.17980    0.62310    1.000
    O19      O        0.50200    0.82110    0.14160    1.000
    O20      O        0.35840    0.31750    0.62340    1.000
    N4       N        0.54030    0.56540    0.66460    1.000
    N5       N        0.18700    0.74300    0.70550    1.000
    N6       N        0.35230    0.62460    0.87730    1.000
    C21      C        0.52110    0.45710    0.63180    1.000
    C22      C        0.43370    0.82230    0.86300    1.000
    C23      C        0.60010    0.26300    0.55360    1.000
    C24      C        0.38140    0.41960    0.64390    1.000
    C25      C        0.62110    0.38530    0.58860    1.000
    C26      C        0.38130    0.71620    0.93260    1.000
    C27      C        0.81750    0.90660    0.72070    1.000
    C28      C        0.66000    0.60560    0.65710    1.000
    H11      H        0.67360    0.68000    0.68070    1.000
    C29      C        0.39540    0.81510    0.11050    1.000
    C30      C        0.74400    0.42890    0.58090    1.000
    H12      H        0.81300    0.38350    0.55250    1.000
    C31      C        0.94670    0.84950    0.71580    1.000
    C32      C        0.76350    0.53930    0.61510    1.000
    H13      H        0.84550    0.56910    0.61000    1.000
    C33      C        0.36760    0.71250    0.04560    1.000
    C34      C        0.96490    0.74320    0.77360    1.000
    H14      H        0.89690    0.70570    0.81730    1.000
    C35      C        0.05140    0.89980    0.65180    1.000
    H15      H        0.04280    0.97010    0.61050    1.000
    C36      C        0.16880    0.84570    0.64920    1.000
    H16      H        0.23850    0.88180    0.60670    1.000
    C37      C        0.08490    0.69390    0.76550    1.000
    H17      H        0.09540    0.62220    0.80410    1.000
    C38      C        0.31360    0.52370    0.93330    1.000
    H18      H        0.29480    0.45950    0.89550    1.000
    C39      C        0.32630    0.60790    0.10130    1.000
    H19      H        0.31560    0.60210    0.17690    1.000
    C40      C        0.30070    0.51180    0.04550    1.000
    H20      H        0.27530    0.44030    0.08260    1.000
