# CIF file generated by openbabel 3.1.0, see https://openbabel.org
data_I
_chemical_name_common 'XIPTIA_clean'
_cell_length_a 7.6216
_cell_length_b 9.833
_cell_length_c 14.762
_cell_angle_alpha 90
_cell_angle_beta 98.191
_cell_angle_gamma 90
_space_group_name_H-M_alt 'P 1'
_space_group_name_Hall 'P 1'
loop_
    _symmetry_equiv_pos_as_xyz
    x,y,z
loop_
    _atom_site_label
    _atom_site_type_symbol
    _atom_site_fract_x
    _atom_site_fract_y
    _atom_site_fract_z
    _atom_site_occupancy
    Dy1      Dy       0.64943    0.54507    0.36089    1.000
    Dy2      Dy       0.85057    0.04507    0.13911    1.000
    Dy3      Dy       0.35057    0.45493    0.63911    1.000
    Dy4      Dy       0.14943    0.95493    0.86089    1.000
    H1       H        0.79940    0.61030    0.86220    1.000
    H2       H        0.82710    0.61410    0.13570    1.000
    H3       H        0.61660    0.30110    0.98450    1.000
    H4       H        0.70060    0.11030    0.63780    1.000
    H5       H        0.67290    0.11410    0.36430    1.000
    H6       H        0.88340    0.80110    0.51550    1.000
    H7       H        0.20060    0.38970    0.13780    1.000
    H8       H        0.17290    0.38590    0.86430    1.000
    H9       H        0.38340    0.69890    0.01550    1.000
    H10      H        0.29940    0.88970    0.36220    1.000
    H11      H        0.32710    0.88590    0.63570    1.000
    H12      H        0.11660    0.19890    0.48450    1.000
    C1       C        0.77540    0.56910    0.91580    1.000
    C2       C        0.82710    0.63560    0.99930    1.000
    C3       C        0.79700    0.57150    0.07940    1.000
    C4       C        0.72040    0.44150    0.07410    1.000
    C5       C        0.66980    0.38640    0.98830    1.000
    C6       C        0.91230    0.77310    0.00070    1.000
    C7       C        0.69320    0.36240    0.15760    1.000
    C8       C        0.45720    0.96920    0.03900    1.000
    C9       C        0.72460    0.06910    0.58420    1.000
    C10      C        0.67290    0.13560    0.50070    1.000
    C11      C        0.70300    0.07150    0.42060    1.000
    C12      C        0.77960    0.94150    0.42590    1.000
    C13      C        0.83020    0.88640    0.51170    1.000
    C14      C        0.58770    0.27310    0.49930    1.000
    C15      C        0.80680    0.86240    0.34240    1.000
    C16      C        0.04280    0.46920    0.46100    1.000
    C17      C        0.22460    0.43090    0.08420    1.000
    C18      C        0.17290    0.36440    0.00070    1.000
    C19      C        0.20300    0.42850    0.92060    1.000
    C20      C        0.27960    0.55850    0.92590    1.000
    C21      C        0.33020    0.61360    0.01170    1.000
    C22      C        0.08770    0.22690    0.99930    1.000
    C23      C        0.30680    0.63760    0.84240    1.000
    C24      C        0.54280    0.03080    0.96100    1.000
    C25      C        0.27540    0.93090    0.41580    1.000
    C26      C        0.32710    0.86440    0.49930    1.000
    C27      C        0.29700    0.92850    0.57940    1.000
    C28      C        0.22040    0.05850    0.57410    1.000
    C29      C        0.16980    0.11360    0.48830    1.000
    C30      C        0.41230    0.72690    0.50070    1.000
    C31      C        0.19320    0.13760    0.65760    1.000
    C32      C        0.95720    0.53080    0.53900    1.000
    N1       N        0.69310    0.44890    0.91040    1.000
    N2       N        0.80690    0.94890    0.58960    1.000
    N3       N        0.30690    0.55110    0.08960    1.000
    N4       N        0.19310    0.05110    0.41040    1.000
    O1       O        0.98050    0.80830    0.93220    1.000
    O2       O        0.90660    0.84380    0.07070    1.000
    O3       O        0.69580    0.42190    0.23190    1.000
    O4       O        0.66680    0.23530    0.14730    1.000
    O5       O        0.55310    0.95290    0.11500    1.000
    O6       O        0.29570    0.93720    0.02040    1.000
    O7       O        0.51950    0.30830    0.56780    1.000
    O8       O        0.59340    0.34380    0.42930    1.000
    O9       O        0.80420    0.92190    0.26810    1.000
    O10      O        0.83320    0.73530    0.35270    1.000
    O11      O        0.94690    0.45290    0.38500    1.000
    O12      O        0.20430    0.43720    0.47960    1.000
    O13      O        0.01950    0.19170    0.06780    1.000
    O14      O        0.09340    0.15620    0.92930    1.000
    O15      O        0.30420    0.57810    0.76810    1.000
    O16      O        0.33320    0.76470    0.85270    1.000
    O17      O        0.44690    0.04710    0.88500    1.000
    O18      O        0.70430    0.06280    0.97960    1.000
    O19      O        0.48050    0.69170    0.43220    1.000
    O20      O        0.40660    0.65620    0.57070    1.000
    O21      O        0.19580    0.07810    0.73190    1.000
    O22      O        0.16680    0.26470    0.64730    1.000
    O23      O        0.05310    0.54710    0.61500    1.000
    O24      O        0.79570    0.56280    0.52040    1.000
