# CIF file generated by openbabel 3.1.0, see https://openbabel.org
data_I
_chemical_name_common 'LUSHIR_clean'
_cell_length_a 12.6992
_cell_length_b 12.6992
_cell_length_c 13.3781
_cell_angle_alpha 63.5325
_cell_angle_beta 63.5325
_cell_angle_gamma 88.3975
_space_group_name_H-M_alt 'P 1'
_space_group_name_Hall 'P 1'
loop_
    _symmetry_equiv_pos_as_xyz
    x,y,z
loop_
    _atom_site_label
    _atom_site_type_symbol
    _atom_site_fract_x
    _atom_site_fract_y
    _atom_site_fract_z
    _atom_site_occupancy
    Mn1      Mn       0.50000    0.00000    0.00000    1.000
    Mn2      Mn       0.00000    0.50000    0.50000    1.000
    Mn3      Mn       0.30516    0.69484    0.25000    1.000
    Mn4      Mn       0.69484    0.30516    0.75000    1.000
    H1       H        0.74850    0.83650    0.77030    1.000
    H2       H        0.85610    0.72830    0.67460    1.000
    H3       H        0.65130    0.42130    0.99310    1.000
    H4       H        0.54640    0.52960    0.09070    1.000
    H5       H        0.23770    0.80470    0.00630    1.000
    H6       H        0.08750    0.85930    0.95470    1.000
    H7       H        0.04650    0.09010    0.09120    1.000
    H8       H        0.20110    0.03530    0.13450    1.000
    H9       H        0.16350    0.25150    0.72970    1.000
    H10      H        0.27170    0.14390    0.82540    1.000
    H11      H        0.57870    0.34870    0.50690    1.000
    H12      H        0.47040    0.45360    0.40930    1.000
    H13      H        0.19530    0.76230    0.49370    1.000
    H14      H        0.14070    0.91250    0.54530    1.000
    H15      H        0.90990    0.95350    0.40880    1.000
    H16      H        0.96470    0.79890    0.36550    1.000
    H17      H        0.25150    0.16350    0.22970    1.000
    H18      H        0.14390    0.27170    0.32540    1.000
    H19      H        0.34870    0.57870    0.00690    1.000
    H20      H        0.45360    0.47040    0.90930    1.000
    H21      H        0.76230    0.19530    0.99370    1.000
    H22      H        0.91250    0.14070    0.04530    1.000
    H23      H        0.95350    0.90990    0.90880    1.000
    H24      H        0.79890    0.96470    0.86550    1.000
    H25      H        0.83650    0.74850    0.27030    1.000
    H26      H        0.72830    0.85610    0.17460    1.000
    H27      H        0.42130    0.65130    0.49310    1.000
    H28      H        0.52960    0.54640    0.59070    1.000
    H29      H        0.80470    0.23770    0.50630    1.000
    H30      H        0.85930    0.08750    0.45470    1.000
    H31      H        0.09010    0.04650    0.59120    1.000
    H32      H        0.03530    0.20110    0.63450    1.000
    C1       C        0.55947    0.76433    0.00110    1.000
    C2       C        0.63465    0.69495    0.93950    1.000
    C3       C        0.72840    0.75280    0.81550    1.000
    C4       C        0.79280    0.68800    0.75780    1.000
    C5       C        0.76351    0.56309    0.82310    1.000
    C6       C        0.67100    0.50500    0.94790    1.000
    C7       C        0.60753    0.56987    0.00630    1.000
    C8       C        0.82628    0.49312    0.75610    1.000
    C9       C        0.19840    0.86240    0.02330    1.000
    C10      C        0.10850    0.89530    0.99240    1.000
    C11      C        0.04841    0.98159    0.01670    1.000
    C12      C        0.08460    0.03260    0.07250    1.000
    C13      C        0.17590    0.99850    0.10000    1.000
    C14      C        0.23567    0.44053    0.49890    1.000
    C15      C        0.30505    0.36535    0.56050    1.000
    C16      C        0.24720    0.27160    0.68450    1.000
    C17      C        0.31200    0.20720    0.74220    1.000
    C18      C        0.43691    0.23649    0.67690    1.000
    C19      C        0.49500    0.32900    0.55210    1.000
    C20      C        0.43013    0.39247    0.49370    1.000
    C21      C        0.50688    0.17372    0.74390    1.000
    C22      C        0.13760    0.80160    0.47670    1.000
    C23      C        0.10470    0.89150    0.50760    1.000
    C24      C        0.01841    0.95159    0.48330    1.000
    C25      C        0.96740    0.91540    0.42750    1.000
    C26      C        0.00150    0.82410    0.40000    1.000
    C27      C        0.44053    0.23567    0.99890    1.000
    C28      C        0.36535    0.30505    0.06050    1.000
    C29      C        0.27160    0.24720    0.18450    1.000
    C30      C        0.20720    0.31200    0.24220    1.000
    C31      C        0.23649    0.43691    0.17690    1.000
    C32      C        0.32900    0.49500    0.05210    1.000
    C33      C        0.39247    0.43013    0.99370    1.000
    C34      C        0.17372    0.50688    0.24390    1.000
    C35      C        0.80160    0.13760    0.97670    1.000
    C36      C        0.89150    0.10470    0.00760    1.000
    C37      C        0.95159    0.01841    0.98330    1.000
    C38      C        0.91540    0.96740    0.92750    1.000
    C39      C        0.82410    0.00150    0.90000    1.000
    C40      C        0.76433    0.55947    0.50110    1.000
    C41      C        0.69495    0.63465    0.43950    1.000
    C42      C        0.75280    0.72840    0.31550    1.000
    C43      C        0.68800    0.79280    0.25780    1.000
    C44      C        0.56309    0.76351    0.32310    1.000
    C45      C        0.50500    0.67100    0.44790    1.000
    C46      C        0.56987    0.60753    0.50630    1.000
    C47      C        0.49312    0.82628    0.25610    1.000
    C48      C        0.86240    0.19840    0.52330    1.000
    C49      C        0.89530    0.10850    0.49240    1.000
    C50      C        0.98159    0.04841    0.51670    1.000
    C51      C        0.03260    0.08460    0.57250    1.000
    C52      C        0.99850    0.17590    0.60000    1.000
    N1       N        0.22936    0.91312    0.07780    1.000
    N2       N        0.08688    0.77064    0.42220    1.000
    N3       N        0.77064    0.08688    0.92220    1.000
    N4       N        0.91312    0.22936    0.57780    1.000
    O1       O        0.47979    0.70301    0.11560    1.000
    O2       O        0.58230    0.87634    0.93460    1.000
    O3       O        0.78235    0.38185    0.81380    1.000
    O4       O        0.91663    0.54941    0.64790    1.000
    O5       O        0.31551    0.87947    0.10960    1.000
    O6       O        0.29699    0.52021    0.38440    1.000
    O7       O        0.12366    0.41770    0.56540    1.000
    O8       O        0.61815    0.21765    0.68620    1.000
    O9       O        0.45059    0.08337    0.85210    1.000
    O10      O        0.12053    0.68449    0.39040    1.000
    O11      O        0.52021    0.29699    0.88440    1.000
    O12      O        0.41770    0.12366    0.06540    1.000
    O13      O        0.21765    0.61815    0.18620    1.000
    O14      O        0.08337    0.45059    0.35210    1.000
    O15      O        0.68449    0.12053    0.89040    1.000
    O16      O        0.70301    0.47979    0.61560    1.000
    O17      O        0.87634    0.58230    0.43460    1.000
    O18      O        0.38185    0.78235    0.31380    1.000
    O19      O        0.54941    0.91663    0.14790    1.000
    O20      O        0.87947    0.31551    0.60960    1.000
