data_functionalizedCrystal
_audit_creation_method	'EQeq! by Chris Wilmer'
_symmetry_space_group_name_H-M	'P1'
_symmetry_Int_Tables_number	1
_symmetry_cell_setting	triclinic
loop_
_symmetry_equiv_pos_as_xyz
  x,y,z
_cell_length_a	24.028
_cell_length_b	13.413
_cell_length_c	24.048
_cell_angle_alpha	90
_cell_angle_beta	113.111
_cell_angle_gamma	90
loop_
_atom_site_label
_atom_site_type_symbol
_atom_site_fract_x
_atom_site_fract_y
_atom_site_fract_z
_atom_site_charge
Mof_Co	Co	0.38391	0.85265	0.9503	1.136
Mof_O 	O 	0.44353	0.205	0.19124	-0.433
Mof_O 	O 	0.37535	0.32442	0.17041	-0.312
Mof_O 	O 	0.39594	0.92404	0.03524	-0.386
Mof_O 	O 	0.30841	0.93933	0.95791	-0.379
Mof_O 	O 	0.95958	0.14468	0.00788	-0.301
Mof_O 	O 	0.96503	0.28822	0.96407	-0.431
Mof_N 	N 	0.52707	0.39589	0.2013	-0.247
Mof_N 	N 	0.56548	0.53101	0.1791	-0.157
Mof_N 	N 	0.83595	0.6854	0.35934	-0.241
Mof_N 	N 	0.75982	0.69961	0.27169	-0.159
Mof_N 	N 	0.58659	0.01505	0.07944	-0.221
Mof_N 	N 	0.59042	0.87134	0.12436	-0.16
Mof_C 	C 	0.57798	0.70079	0.1518	-0.285
Mof_H 	H 	0.5373	0.7024	0.1261	0.144
Mof_C 	C 	0.6032	0.61658	0.186	0.233
Mof_C 	C 	0.66348	0.6132	0.2247	-0.29
Mof_H 	H 	0.68	0.5561	0.247	0.139
Mof_C 	C 	0.69865	0.6968	0.22936	0.235
Mof_C 	C 	0.67514	0.78127	0.19526	-0.293
Mof_H 	H 	0.6996	0.8364	0.1982	0.139
Mof_C 	C 	0.6153	0.78259	0.15711	0.238
Mof_C 	C 	0.57002	0.46321	0.22209	0.101
Mof_H 	H 	0.5996	0.464	0.2612	-0.001
Mof_C 	C 	0.49362	0.422	0.1426	0.006
Mof_H 	H 	0.4602	0.3871	0.1164	0.029
Mof_C 	C 	0.51593	0.505	0.12828	0.002
Mof_H 	H 	0.501	0.5383	0.0914	0.05
Mof_C 	C 	0.77949	0.6626	0.32863	0.099
Mof_H 	H 	0.7557	0.6258	0.3438	-0.009
Mof_C 	C 	0.8543	0.7396	0.32141	0.006
Mof_H 	H 	0.8929	0.7655	0.3312	0.023
Mof_C 	C 	0.80746	0.7494	0.26744	0.005
Mof_H 	H 	0.8076	0.7835	0.2338	0.037
Mof_C 	C 	0.62185	0.9418	0.10839	0.105
Mof_H 	H 	0.6631	0.9384	0.1169	-0.011
Mof_C 	C 	0.53003	0.9914	0.07617	0.002
Mof_H 	H 	0.4956	0.0304	0.0577	0.04
Mof_C 	C 	0.53152	0.9038	0.10365	0.012
Mof_H 	H 	0.4991	0.8714	0.1078	0.038
Mof_C 	C 	0.3909	0.2398	0.16204	0.324
Mof_C 	C 	0.34638	0.17235	0.11614	-0.077
Mof_C 	C 	0.36552	0.09227	0.09145	0.011
Mof_H 	H 	0.4065	0.0768	0.1054	0.052
Mof_C 	C 	0.32359	0.03532	0.04592	-0.073
Mof_C 	C 	0.3436	0.96049	0.01162	0.288
Mof_C 	C 	0.26202	0.05455	0.02813	-0.015
Mof_H 	H 	0.234	0.0149	0.9986	0.047
Mof_C 	C 	0.24164	0.1318	0.05372	-0.03
Mof_C 	C 	0.28506	0.1924	0.09632	-0.013
Mof_H 	H 	0.2724	0.2475	0.1117	0.049
Mof_C 	C 	0.17648	0.15082	0.0361	0.096
Mof_C 	C 	0.15272	0.24669	0.02211	-0.156
Mof_H 	H 	0.1785	0.2997	0.0243	0.095
Mof_C 	C 	0.0919	0.26446	0.00506	0.09
Mof_H 	H 	0.077	0.3287	0.9945	0.009
Mof_C 	C 	0.05229	0.18733	0.00334	-0.166
Mof_C 	C 	0.98743	0.20734	0.99042	0.378
Mof_C 	C 	0.07608	0.09123	0.01746	0.077
Mof_H 	H 	0.0506	0.0386	0.0167	0.019
Mof_C 	C 	0.13672	0.07303	0.03253	-0.147
Mof_H 	H 	0.1513	0.0081	0.0404	0.085
Mof_Co	Co	0.88391	0.35265	0.9503	1.136
Mof_O 	O 	0.94353	0.705	0.19124	-0.421
Mof_O 	O 	0.87535	0.82442	0.17041	-0.31
Mof_O 	O 	0.89594	0.42404	0.03524	-0.383
Mof_O 	O 	0.80841	0.43933	0.95791	-0.381
Mof_O 	O 	0.45958	0.64468	0.00788	-0.306
Mof_O 	O 	0.46503	0.78822	0.96407	-0.434
Mof_N 	N 	0.02707	0.89589	0.2013	-0.273
Mof_N 	N 	0.06548	0.03101	0.1791	-0.148
Mof_N 	N 	0.33595	0.1854	0.35934	-0.243
Mof_N 	N 	0.25982	0.19961	0.27169	-0.16
Mof_N 	N 	0.08659	0.51505	0.07944	-0.22
Mof_N 	N 	0.09042	0.37134	0.12436	-0.155
Mof_C 	C 	0.07798	0.20079	0.1518	-0.278
Mof_H 	H 	0.0373	0.2024	0.1261	0.135
Mof_C 	C 	0.1032	0.11658	0.186	0.225
Mof_C 	C 	0.16348	0.1132	0.2247	-0.285
Mof_H 	H 	0.18	0.0561	0.247	0.137
Mof_C 	C 	0.19865	0.1968	0.22936	0.231
Mof_C 	C 	0.17514	0.28127	0.19526	-0.288
Mof_H 	H 	0.1996	0.3364	0.1982	0.137
Mof_C 	C 	0.1153	0.28259	0.15711	0.23
Mof_C 	C 	0.07002	0.96321	0.22209	0.097
Mof_H 	H 	0.0996	0.964	0.2612	-0.002
Mof_C 	C 	0.99362	0.922	0.1426	0.092
Mof_H 	H 	0.9602	0.8871	0.1164	0.005
Mof_C 	C 	0.01593	0.005	0.12828	-0.066
Mof_H 	H 	0.001	0.0383	0.0914	0.065
Mof_C 	C 	0.27949	0.1626	0.32863	0.098
Mof_H 	H 	0.2557	0.1258	0.3438	-0.01
Mof_C 	C 	0.3543	0.2396	0.32141	0.007
Mof_H 	H 	0.3929	0.2655	0.3312	0.019
Mof_C 	C 	0.30746	0.2494	0.26744	0.003
Mof_H 	H 	0.3076	0.2835	0.2338	0.037
Mof_C 	C 	0.12185	0.4418	0.10839	0.105
Mof_H 	H 	0.1631	0.4384	0.1169	-0.011
Mof_C 	C 	0.03003	0.4914	0.07617	-0.027
Mof_H 	H 	0.9956	0.5304	0.0577	0.067
Mof_C 	C 	0.03152	0.4038	0.10365	-0.025
Mof_H 	H 	0.9991	0.3714	0.1078	0.071
Mof_C 	C 	0.8909	0.7398	0.16204	0.321
Mof_C 	C 	0.84638	0.67235	0.11614	-0.072
Mof_C 	C 	0.86552	0.59227	0.09145	0.008
Mof_H 	H 	0.9065	0.5768	0.1054	0.056
Mof_C 	C 	0.82359	0.53532	0.04592	-0.07
Mof_C 	C 	0.8436	0.46049	0.01162	0.29
Mof_C 	C 	0.76202	0.55455	0.02813	-0.019
Mof_H 	H 	0.734	0.5149	0.9986	0.049
Mof_C 	C 	0.74164	0.6318	0.05372	-0.023
Mof_C 	C 	0.78506	0.6924	0.09632	-0.018
Mof_H 	H 	0.7724	0.7475	0.1117	0.051
Mof_C 	C 	0.67648	0.65082	0.0361	0.082
Mof_C 	C 	0.65272	0.74669	0.02211	-0.138
Mof_H 	H 	0.6785	0.7997	0.0243	0.089
Mof_C 	C 	0.5919	0.76446	0.00506	0.067
Mof_H 	H 	0.577	0.8287	0.9945	0.02
Mof_C 	C 	0.55229	0.68733	0.00334	-0.126
Mof_C 	C 	0.48743	0.70734	0.99042	0.348
Mof_C 	C 	0.57608	0.59123	0.01746	0.052
Mof_H 	H 	0.5506	0.5386	0.0167	0.035
Mof_C 	C 	0.63672	0.57303	0.03253	-0.127
Mof_H 	H 	0.6513	0.5081	0.0404	0.08
Mof_Co	Co	0.61609	0.85265	0.5497	1.135
Mof_O 	O 	0.55647	0.205	0.30876	-0.433
Mof_O 	O 	0.62465	0.32442	0.32959	-0.313
Mof_O 	O 	0.60406	0.92404	0.46476	-0.386
Mof_O 	O 	0.69159	0.93933	0.54209	-0.378
Mof_O 	O 	0.04042	0.14468	0.49212	-0.308
Mof_O 	O 	0.03497	0.28822	0.53593	-0.436
Mof_N 	N 	0.47293	0.39589	0.2987	-0.248
Mof_N 	N 	0.43452	0.53101	0.3209	-0.158
Mof_N 	N 	0.16405	0.6854	0.14066	-0.244
Mof_N 	N 	0.24018	0.69961	0.22831	-0.16
Mof_N 	N 	0.41341	0.01505	0.42056	-0.223
Mof_N 	N 	0.40958	0.87134	0.37564	-0.161
Mof_C 	C 	0.42202	0.70079	0.3482	-0.285
Mof_H 	H 	0.4627	0.7024	0.3739	0.144
Mof_C 	C 	0.3968	0.61658	0.314	0.233
Mof_C 	C 	0.33652	0.6132	0.2753	-0.29
Mof_H 	H 	0.32	0.5561	0.253	0.139
Mof_C 	C 	0.30135	0.6968	0.27064	0.235
Mof_C 	C 	0.32486	0.78127	0.30474	-0.293
Mof_H 	H 	0.3004	0.8364	0.3018	0.139
Mof_C 	C 	0.3847	0.78259	0.34289	0.238
Mof_C 	C 	0.42998	0.46321	0.27791	0.101
Mof_H 	H 	0.4004	0.464	0.2388	-0.001
Mof_C 	C 	0.50638	0.422	0.3574	0.006
Mof_H 	H 	0.5398	0.3871	0.3836	0.029
Mof_C 	C 	0.48407	0.505	0.37172	0.002
Mof_H 	H 	0.499	0.5383	0.4086	0.05
Mof_C 	C 	0.22051	0.6626	0.17137	0.098
Mof_H 	H 	0.2443	0.6258	0.1562	-0.009
Mof_C 	C 	0.1457	0.7396	0.17859	0.007
Mof_H 	H 	0.1071	0.7655	0.1688	0.015
Mof_C 	C 	0.19254	0.7494	0.23256	0.002
Mof_H 	H 	0.1924	0.7835	0.2662	0.037
Mof_C 	C 	0.37815	0.9418	0.39161	0.106
Mof_H 	H 	0.3369	0.9384	0.3831	-0.011
Mof_C 	C 	0.46997	0.9914	0.42383	0.005
Mof_H 	H 	0.5044	0.0304	0.4423	0.038
Mof_C 	C 	0.46848	0.9038	0.39635	0.011
Mof_H 	H 	0.5009	0.8714	0.3922	0.039
Mof_C 	C 	0.6091	0.2398	0.33796	0.322
Mof_C 	C 	0.65362	0.17235	0.38386	-0.071
Mof_C 	C 	0.63448	0.09227	0.40855	0.005
Mof_H 	H 	0.5935	0.0768	0.3946	0.054
Mof_C 	C 	0.67641	0.03532	0.45408	-0.067
Mof_C 	C 	0.6564	0.96049	0.48838	0.285
Mof_C 	C 	0.73798	0.05455	0.47187	-0.03
Mof_H 	H 	0.766	0.0149	0.5014	0.055
Mof_C 	C 	0.75836	0.1318	0.44628	-0.013
Mof_C 	C 	0.71494	0.1924	0.40368	-0.024
Mof_H 	H 	0.7276	0.2475	0.3883	0.053
Mof_C 	C 	0.82352	0.15082	0.4639	0.064
Mof_C 	C 	0.84728	0.24669	0.47789	-0.115
Mof_H 	H 	0.8215	0.2997	0.4757	0.08
Mof_C 	C 	0.9081	0.26446	0.49494	0.036
Mof_H 	H 	0.923	0.3287	0.5055	0.035
Mof_C 	C 	0.94771	0.18733	0.49666	-0.083
Mof_C 	C 	0.01257	0.20734	0.50958	0.315
Mof_C 	C 	0.92392	0.09123	0.48254	0.024
Mof_H 	H 	0.9494	0.0386	0.4833	0.051
Mof_C 	C 	0.86328	0.07303	0.46747	-0.104
Mof_H 	H 	0.8487	0.0081	0.4596	0.072
Mof_Co	Co	0.11609	0.35265	0.5497	1.134
Mof_O 	O 	0.05647	0.705	0.30876	-0.441
Mof_O 	O 	0.12465	0.82442	0.32959	-0.315
Mof_O 	O 	0.10406	0.42404	0.46476	-0.39
Mof_O 	O 	0.19159	0.43933	0.54209	-0.379
Mof_O 	O 	0.54042	0.64468	0.49212	-0.307
Mof_O 	O 	0.53497	0.78822	0.53593	-0.434
Mof_N 	N 	0.97293	0.89589	0.2987	-0.22
Mof_N 	N 	0.93452	0.03101	0.3209	-0.167
Mof_N 	N 	0.66405	0.1854	0.14066	-0.243
Mof_N 	N 	0.74018	0.19961	0.22831	-0.161
Mof_N 	N 	0.91341	0.51505	0.42056	-0.227
Mof_N 	N 	0.90958	0.37134	0.37564	-0.167
Mof_C 	C 	0.92202	0.20079	0.3482	-0.291
Mof_H 	H 	0.9627	0.2024	0.3739	0.154
Mof_C 	C 	0.8968	0.11658	0.314	0.24
Mof_C 	C 	0.83652	0.1132	0.2753	-0.294
Mof_H 	H 	0.82	0.0561	0.253	0.141
Mof_C 	C 	0.80135	0.1968	0.27064	0.239
Mof_C 	C 	0.82486	0.28127	0.30474	-0.298
Mof_H 	H 	0.8004	0.3364	0.3018	0.142
Mof_C 	C 	0.8847	0.28259	0.34289	0.246
Mof_C 	C 	0.92998	0.96321	0.27791	0.105
Mof_H 	H 	0.9004	0.964	0.2388	-0.001
Mof_C 	C 	0.00638	0.922	0.3574	-0.081
Mof_H 	H 	0.0398	0.8871	0.3836	0.053
Mof_C 	C 	0.98407	0.005	0.37172	0.07
Mof_H 	H 	0.999	0.0383	0.4086	0.035
Mof_C 	C 	0.72051	0.1626	0.17137	0.099
Mof_H 	H 	0.7443	0.1258	0.1562	-0.009
Mof_C 	C 	0.6457	0.2396	0.17859	0.007
Mof_H 	H 	0.6071	0.2655	0.1688	0.019
Mof_C 	C 	0.69254	0.2494	0.23256	0.004
Mof_H 	H 	0.6924	0.2835	0.2662	0.037
Mof_C 	C 	0.87815	0.4418	0.39161	0.107
Mof_H 	H 	0.8369	0.4384	0.3831	-0.011
Mof_C 	C 	0.96997	0.4914	0.42383	0.036
Mof_H 	H 	0.0044	0.5304	0.4423	0.01
Mof_C 	C 	0.96848	0.4038	0.39635	0.046
Mof_H 	H 	0.0009	0.3714	0.3922	0.008
Mof_C 	C 	0.1091	0.7398	0.33796	0.325
Mof_C 	C 	0.15362	0.67235	0.38386	-0.077
Mof_C 	C 	0.13448	0.59227	0.40855	0.01
Mof_H 	H 	0.0935	0.5768	0.3946	0.049
Mof_C 	C 	0.17641	0.53532	0.45408	-0.072
Mof_C 	C 	0.1564	0.46049	0.48838	0.287
Mof_C 	C 	0.23798	0.55455	0.47187	-0.024
Mof_H 	H 	0.266	0.5149	0.5014	0.052
Mof_C 	C 	0.25836	0.6318	0.44628	-0.022
Mof_C 	C 	0.21494	0.6924	0.40368	-0.017
Mof_H 	H 	0.2276	0.7475	0.3883	0.051
Mof_C 	C 	0.32352	0.65082	0.4639	0.081
Mof_C 	C 	0.34728	0.74669	0.47789	-0.136
Mof_H 	H 	0.3215	0.7997	0.4757	0.088
Mof_C 	C 	0.4081	0.76446	0.49494	0.063
Mof_H 	H 	0.423	0.8287	0.5055	0.022
Mof_C 	C 	0.44771	0.68733	0.49666	-0.127
Mof_C 	C 	0.51257	0.70734	0.50958	0.351
Mof_C 	C 	0.42392	0.59123	0.48254	0.052
Mof_H 	H 	0.4494	0.5386	0.4833	0.034
Mof_C 	C 	0.36328	0.57303	0.46747	-0.126
Mof_H 	H 	0.3487	0.5081	0.4596	0.079
Mof_Co	Co	0.61609	0.14735	0.0497	1.136
Mof_O 	O 	0.55647	0.795	0.80876	-0.433
Mof_O 	O 	0.62465	0.67558	0.82959	-0.313
Mof_O 	O 	0.60406	0.07596	0.96476	-0.386
Mof_O 	O 	0.69159	0.06067	0.04209	-0.375
Mof_O 	O 	0.04042	0.85532	0.99212	-0.307
Mof_O 	O 	0.03497	0.71178	0.03593	-0.436
Mof_N 	N 	0.47293	0.60411	0.7987	-0.248
Mof_N 	N 	0.43452	0.46899	0.8209	-0.158
Mof_N 	N 	0.16405	0.3146	0.64066	-0.244
Mof_N 	N 	0.24018	0.30039	0.72831	-0.16
Mof_N 	N 	0.41341	0.98495	0.92056	-0.222
Mof_N 	N 	0.40958	0.12866	0.87564	-0.161
Mof_C 	C 	0.42202	0.29921	0.8482	-0.284
Mof_H 	H 	0.4627	0.2976	0.8739	0.144
Mof_C 	C 	0.3968	0.38342	0.814	0.232
Mof_C 	C 	0.33652	0.3868	0.7753	-0.29
Mof_H 	H 	0.32	0.4439	0.753	0.139
Mof_C 	C 	0.30135	0.3032	0.77064	0.235
Mof_C 	C 	0.32486	0.21873	0.80474	-0.292
Mof_H 	H 	0.3004	0.1636	0.8018	0.139
Mof_C 	C 	0.3847	0.21741	0.84289	0.238
Mof_C 	C 	0.42998	0.53679	0.77791	0.101
Mof_H 	H 	0.4004	0.536	0.7388	-0.001
Mof_C 	C 	0.50638	0.578	0.8574	0.006
Mof_H 	H 	0.5398	0.6129	0.8836	0.028
Mof_C 	C 	0.48407	0.495	0.87172	0.002
Mof_H 	H 	0.499	0.4617	0.9086	0.05
Mof_C 	C 	0.22051	0.3374	0.67137	0.098
Mof_H 	H 	0.2443	0.3742	0.6562	-0.009
Mof_C 	C 	0.1457	0.2604	0.67859	0.007
Mof_H 	H 	0.1071	0.2345	0.6688	0.015
Mof_C 	C 	0.19254	0.2506	0.73256	0.002
Mof_H 	H 	0.1924	0.2165	0.7662	0.037
Mof_C 	C 	0.37815	0.0582	0.89161	0.105
Mof_H 	H 	0.3369	0.0616	0.8831	-0.011
Mof_C 	C 	0.46997	0.0086	0.92383	0.002
Mof_H 	H 	0.5044	0.9696	0.9423	0.039
Mof_C 	C 	0.46848	0.0962	0.89635	0.012
Mof_H 	H 	0.5009	0.1286	0.8922	0.038
Mof_C 	C 	0.6091	0.7602	0.83796	0.321
Mof_C 	C 	0.65362	0.82765	0.88386	-0.069
Mof_C 	C 	0.63448	0.90773	0.90855	0.001
Mof_H 	H 	0.5935	0.9232	0.8946	0.055
Mof_C 	C 	0.67641	0.96468	0.95408	-0.062
Mof_C 	C 	0.6564	0.03951	0.98838	0.279
Mof_C 	C 	0.73798	0.94545	0.97187	-0.037
Mof_H 	H 	0.766	0.9851	0.0014	0.059
Mof_C 	C 	0.75836	0.8682	0.94628	-0.009
Mof_C 	C 	0.71494	0.8076	0.90368	-0.027
Mof_H 	H 	0.7276	0.7525	0.8883	0.054
Mof_C 	C 	0.82352	0.84918	0.9639	0.06
Mof_C 	C 	0.84728	0.75331	0.97789	-0.109
Mof_H 	H 	0.8215	0.7003	0.9757	0.078
Mof_C 	C 	0.9081	0.73554	0.99494	0.028
Mof_H 	H 	0.923	0.6713	0.0055	0.04
Mof_C 	C 	0.94771	0.81267	0.99666	-0.081
Mof_C 	C 	0.01257	0.79266	0.00958	0.316
Mof_C 	C 	0.92392	0.90877	0.98254	0.022
Mof_H 	H 	0.9494	0.9614	0.9833	0.051
Mof_C 	C 	0.86328	0.92697	0.96747	-0.101
Mof_H 	H 	0.8487	0.9919	0.9596	0.07
Mof_Co	Co	0.11609	0.64735	0.0497	1.134
Mof_O 	O 	0.05647	0.295	0.80876	-0.441
Mof_O 	O 	0.12465	0.17558	0.82959	-0.315
Mof_O 	O 	0.10406	0.57596	0.96476	-0.39
Mof_O 	O 	0.19159	0.56067	0.04209	-0.378
Mof_O 	O 	0.54042	0.35532	0.99212	-0.31
Mof_O 	O 	0.53497	0.21178	0.03593	-0.435
Mof_N 	N 	0.97293	0.10411	0.7987	-0.221
Mof_N 	N 	0.93452	0.96899	0.8209	-0.167
Mof_N 	N 	0.66405	0.8146	0.64066	-0.243
Mof_N 	N 	0.74018	0.80039	0.72831	-0.161
Mof_N 	N 	0.91341	0.48495	0.92056	-0.227
Mof_N 	N 	0.90958	0.62866	0.87564	-0.166
Mof_C 	C 	0.92202	0.79921	0.8482	-0.291
Mof_H 	H 	0.9627	0.7976	0.8739	0.153
Mof_C 	C 	0.8968	0.88342	0.814	0.24
Mof_C 	C 	0.83652	0.8868	0.7753	-0.294
Mof_H 	H 	0.82	0.9439	0.753	0.14
Mof_C 	C 	0.80135	0.8032	0.77064	0.239
Mof_C 	C 	0.82486	0.71873	0.80474	-0.297
Mof_H 	H 	0.8004	0.6636	0.8018	0.141
Mof_C 	C 	0.8847	0.71741	0.84289	0.246
Mof_C 	C 	0.92998	0.03679	0.77791	0.104
Mof_H 	H 	0.9004	0.036	0.7388	-0.001
Mof_C 	C 	0.00638	0.078	0.8574	-0.077
Mof_H 	H 	0.0398	0.1129	0.8836	0.052
Mof_C 	C 	0.98407	0.995	0.87172	0.067
Mof_H 	H 	0.999	0.9617	0.9086	0.035
Mof_C 	C 	0.72051	0.8374	0.67137	0.099
Mof_H 	H 	0.7443	0.8742	0.6562	-0.009
Mof_C 	C 	0.6457	0.7604	0.67859	0.007
Mof_H 	H 	0.6071	0.7345	0.6688	0.019
Mof_C 	C 	0.69254	0.7506	0.73256	0.004
Mof_H 	H 	0.6924	0.7165	0.7662	0.037
Mof_C 	C 	0.87815	0.5582	0.89161	0.106
Mof_H 	H 	0.8369	0.5616	0.8831	-0.011
Mof_C 	C 	0.96997	0.5086	0.92383	0.034
Mof_H 	H 	0.0044	0.4696	0.9423	0.012
Mof_C 	C 	0.96848	0.5962	0.89635	0.044
Mof_H 	H 	0.0009	0.6286	0.8922	0.01
Mof_C 	C 	0.1091	0.2602	0.83796	0.324
Mof_C 	C 	0.15362	0.32765	0.88386	-0.076
Mof_C 	C 	0.13448	0.40773	0.90855	0.008
Mof_H 	H 	0.0935	0.4232	0.8946	0.05
Mof_C 	C 	0.17641	0.46468	0.95408	-0.07
Mof_C 	C 	0.1564	0.53951	0.98838	0.286
Mof_C 	C 	0.23798	0.44545	0.97187	-0.028
Mof_H 	H 	0.266	0.4851	0.0014	0.054
Mof_C 	C 	0.25836	0.3682	0.94628	-0.02
Mof_C 	C 	0.21494	0.3076	0.90368	-0.019
Mof_H 	H 	0.2276	0.2525	0.8883	0.051
Mof_C 	C 	0.32352	0.34918	0.9639	0.078
Mof_C 	C 	0.34728	0.25331	0.97789	-0.133
Mof_H 	H 	0.3215	0.2003	0.9757	0.086
Mof_C 	C 	0.4081	0.23554	0.99494	0.058
Mof_H 	H 	0.423	0.1713	0.0055	0.025
Mof_C 	C 	0.44771	0.31267	0.99666	-0.128
Mof_C 	C 	0.51257	0.29266	0.00958	0.355
Mof_C 	C 	0.42392	0.40877	0.98254	0.052
Mof_H 	H 	0.4494	0.4614	0.9833	0.034
Mof_C 	C 	0.36328	0.42697	0.96747	-0.126
Mof_H 	H 	0.3487	0.4919	0.9596	0.078
Mof_Co	Co	0.38391	0.14735	0.4503	1.135
Mof_O 	O 	0.44353	0.795	0.69124	-0.434
Mof_O 	O 	0.37535	0.67558	0.67041	-0.313
Mof_O 	O 	0.39594	0.07596	0.53524	-0.387
Mof_O 	O 	0.30841	0.06067	0.45791	-0.379
Mof_O 	O 	0.95958	0.85532	0.50788	-0.307
Mof_O 	O 	0.96503	0.71178	0.46407	-0.432
Mof_N 	N 	0.52707	0.60411	0.7013	-0.248
Mof_N 	N 	0.56548	0.46899	0.6791	-0.158
Mof_N 	N 	0.83595	0.3146	0.85934	-0.242
Mof_N 	N 	0.75982	0.30039	0.77169	-0.16
Mof_N 	N 	0.58659	0.98495	0.57944	-0.223
Mof_N 	N 	0.59042	0.12866	0.62436	-0.161
Mof_C 	C 	0.57798	0.29921	0.6518	-0.285
Mof_H 	H 	0.5373	0.2976	0.6261	0.144
Mof_C 	C 	0.6032	0.38342	0.686	0.233
Mof_C 	C 	0.66348	0.3868	0.7247	-0.29
Mof_H 	H 	0.68	0.4439	0.747	0.139
Mof_C 	C 	0.69865	0.3032	0.72936	0.235
Mof_C 	C 	0.67514	0.21873	0.69526	-0.293
Mof_H 	H 	0.6996	0.1636	0.6982	0.139
Mof_C 	C 	0.6153	0.21741	0.65711	0.238
Mof_C 	C 	0.57002	0.53679	0.72209	0.101
Mof_H 	H 	0.5996	0.536	0.7612	-0.001
Mof_C 	C 	0.49362	0.578	0.6426	0.006
Mof_H 	H 	0.4602	0.6129	0.6164	0.029
Mof_C 	C 	0.51593	0.495	0.62828	0.002
Mof_H 	H 	0.501	0.4617	0.5914	0.05
Mof_C 	C 	0.77949	0.3374	0.82863	0.099
Mof_H 	H 	0.7557	0.3742	0.8438	-0.009
Mof_C 	C 	0.8543	0.2604	0.82141	0.006
Mof_H 	H 	0.8929	0.2345	0.8312	0.022
Mof_C 	C 	0.80746	0.2506	0.76744	0.005
Mof_H 	H 	0.8076	0.2165	0.7338	0.037
Mof_C 	C 	0.62185	0.0582	0.60839	0.106
Mof_H 	H 	0.6631	0.0616	0.6169	-0.011
Mof_C 	C 	0.53003	0.0086	0.57617	0.004
Mof_H 	H 	0.4956	0.9696	0.5577	0.038
Mof_C 	C 	0.53152	0.0962	0.60365	0.011
Mof_H 	H 	0.4991	0.1286	0.6078	0.039
Mof_C 	C 	0.3909	0.7602	0.66204	0.324
Mof_C 	C 	0.34638	0.82765	0.61614	-0.076
Mof_C 	C 	0.36552	0.90773	0.59145	0.01
Mof_H 	H 	0.4065	0.9232	0.6054	0.052
Mof_C 	C 	0.32359	0.96468	0.54592	-0.072
Mof_C 	C 	0.3436	0.03951	0.51162	0.287
Mof_C 	C 	0.26202	0.94545	0.52813	-0.02
Mof_H 	H 	0.234	0.9851	0.4986	0.05
Mof_C 	C 	0.24164	0.8682	0.55372	-0.029
Mof_C 	C 	0.28506	0.8076	0.59632	-0.014
Mof_H 	H 	0.2724	0.7525	0.6117	0.05
Mof_C 	C 	0.17648	0.84918	0.5361	0.096
Mof_C 	C 	0.15272	0.75331	0.52211	-0.157
Mof_H 	H 	0.1785	0.7003	0.5243	0.095
Mof_C 	C 	0.0919	0.73554	0.50506	0.09
Mof_H 	H 	0.077	0.6713	0.4945	0.01
Mof_C 	C 	0.05229	0.81267	0.50334	-0.17
Mof_C 	C 	0.98743	0.79266	0.49042	0.387
Mof_C 	C 	0.07608	0.90877	0.51746	0.079
Mof_H 	H 	0.0506	0.9614	0.5167	0.018
Mof_C 	C 	0.13672	0.92697	0.53253	-0.148
Mof_H 	H 	0.1513	0.9919	0.5404	0.085
Mof_Co	Co	0.88391	0.64735	0.4503	1.136
Mof_O 	O 	0.94353	0.295	0.69124	-0.421
Mof_O 	O 	0.87535	0.17558	0.67041	-0.31
Mof_O 	O 	0.89594	0.57596	0.53524	-0.383
Mof_O 	O 	0.80841	0.56067	0.45791	-0.378
Mof_O 	O 	0.45958	0.35532	0.50788	-0.307
Mof_O 	O 	0.46503	0.21178	0.46407	-0.434
Mof_N 	N 	0.02707	0.10411	0.7013	-0.272
Mof_N 	N 	0.06548	0.96899	0.6791	-0.149
Mof_N 	N 	0.33595	0.8146	0.85934	-0.243
Mof_N 	N 	0.25982	0.80039	0.77169	-0.16
Mof_N 	N 	0.08659	0.48495	0.57944	-0.22
Mof_N 	N 	0.09042	0.62866	0.62436	-0.155
Mof_C 	C 	0.07798	0.79921	0.6518	-0.278
Mof_H 	H 	0.0373	0.7976	0.6261	0.135
Mof_C 	C 	0.1032	0.88342	0.686	0.225
Mof_C 	C 	0.16348	0.8868	0.7247	-0.286
Mof_H 	H 	0.18	0.9439	0.747	0.137
Mof_C 	C 	0.19865	0.8032	0.72936	0.231
Mof_C 	C 	0.17514	0.71873	0.69526	-0.288
Mof_H 	H 	0.1996	0.6636	0.6982	0.138
Mof_C 	C 	0.1153	0.71741	0.65711	0.23
Mof_C 	C 	0.07002	0.03679	0.72209	0.097
Mof_H 	H 	0.0996	0.036	0.7612	-0.002
Mof_C 	C 	0.99362	0.078	0.6426	0.089
Mof_H 	H 	0.9602	0.1129	0.6164	0.005
Mof_C 	C 	0.01593	0.995	0.62828	-0.064
Mof_H 	H 	0.001	0.9617	0.5914	0.064
Mof_C 	C 	0.27949	0.8374	0.82863	0.098
Mof_H 	H 	0.2557	0.8742	0.8438	-0.01
Mof_C 	C 	0.3543	0.7604	0.82141	0.007
Mof_H 	H 	0.3929	0.7345	0.8312	0.019
Mof_C 	C 	0.30746	0.7506	0.76744	0.003
Mof_H 	H 	0.3076	0.7165	0.7338	0.037
Mof_C 	C 	0.12185	0.5582	0.60839	0.105
Mof_H 	H 	0.1631	0.5616	0.6169	-0.011
Mof_C 	C 	0.03003	0.5086	0.57617	-0.026
Mof_H 	H 	0.9956	0.4696	0.5577	0.065
Mof_C 	C 	0.03152	0.5962	0.60365	-0.024
Mof_H 	H 	0.9991	0.6286	0.6078	0.069
Mof_C 	C 	0.8909	0.2602	0.66204	0.321
Mof_C 	C 	0.84638	0.32765	0.61614	-0.07
Mof_C 	C 	0.86552	0.40773	0.59145	0.005
Mof_H 	H 	0.9065	0.4232	0.6054	0.057
Mof_C 	C 	0.82359	0.46468	0.54592	-0.067
Mof_C 	C 	0.8436	0.53951	0.51162	0.285
Mof_C 	C 	0.76202	0.44545	0.52813	-0.027
Mof_H 	H 	0.734	0.4851	0.4986	0.053
Mof_C 	C 	0.74164	0.3682	0.55372	-0.019
Mof_C 	C 	0.78506	0.3076	0.59632	-0.021
Mof_H 	H 	0.7724	0.2525	0.6117	0.052
Mof_C 	C 	0.67648	0.34918	0.5361	0.079
Mof_C 	C 	0.65272	0.25331	0.52211	-0.135
Mof_H 	H 	0.6785	0.2003	0.5243	0.088
Mof_C 	C 	0.5919	0.23554	0.50506	0.063
Mof_H 	H 	0.577	0.1713	0.4945	0.023
Mof_C 	C 	0.55229	0.31267	0.50334	-0.126
Mof_C 	C 	0.48743	0.29266	0.49042	0.351
Mof_C 	C 	0.57608	0.40877	0.51746	0.051
Mof_H 	H 	0.5506	0.4614	0.5167	0.034
Mof_C 	C 	0.63672	0.42697	0.53253	-0.126
Mof_H 	H 	0.6513	0.4919	0.5404	0.079
Mof_Co	Co	0.5	0.29648	0.25	1.151
Mof_Co	Co	-1.59485e-17	0.79648	0.25	1.139
Mof_Co	Co	0.5	0.70352	0.75	1.151
Mof_Co	Co	3.91908e-33	0.20352	0.75	1.139
_end
