data_functionalizedCrystal
_audit_creation_method	'EQeq! by Chris Wilmer'
_symmetry_space_group_name_H-M	'P1'
_symmetry_Int_Tables_number	1
_symmetry_cell_setting	triclinic
loop_
_symmetry_equiv_pos_as_xyz
  x,y,z
_cell_length_a	14.1613
_cell_length_b	15.6764
_cell_length_c	16.1345
_cell_angle_alpha	90
_cell_angle_beta	90
_cell_angle_gamma	90
loop_
_atom_site_label
_atom_site_type_symbol
_atom_site_fract_x
_atom_site_fract_y
_atom_site_fract_z
_atom_site_charge
Mof_Zn	Zn	0.62042	0.51481	0.31229	1.187
Mof_Zn	Zn	0.64597	0.56939	0.72183	1.186
Mof_Zn	Zn	0.87958	0.48519	0.81229	1.195
Mof_Zn	Zn	0.85403	0.43061	0.22183	1.189
Mof_Zn	Zn	0.37958	0.01481	0.18771	1.169
Mof_Zn	Zn	0.35403	0.06939	0.77817	1.181
Mof_Zn	Zn	0.12042	0.98519	0.68771	1.193
Mof_Zn	Zn	0.14597	0.93061	0.27817	1.185
Mof_Zn	Zn	0.37958	0.48519	0.68771	1.186
Mof_Zn	Zn	0.35403	0.43061	0.27817	1.184
Mof_Zn	Zn	0.12042	0.51481	0.18771	1.177
Mof_Zn	Zn	0.14597	0.56939	0.77817	1.18
Mof_Zn	Zn	0.62042	0.98519	0.81229	1.201
Mof_Zn	Zn	0.64597	0.93061	0.22183	1.189
Mof_Zn	Zn	0.87958	0.01481	0.31229	1.176
Mof_Zn	Zn	0.85403	0.06939	0.72183	1.185
Mof_Zn	Zn	-1.90071e-32	0.5	0.5	1.157
Mof_Zn	Zn	0.5	0.5	-0	1.153
Mof_Zn	Zn	-0	0	-0	1.12
Mof_Zn	Zn	0.5	0	0.5	1.164
Mof_H 	H 	0.7153	0.7301	0.2991	0.001
Mof_H 	H 	0.553	0.5737	0.5192	-0.031
Mof_H 	H 	0.3447	0.8213	0.1338	0.254
Mof_H 	H 	0.7847	0.2699	0.7991	0.003
Mof_H 	H 	0.947	0.4263	0.0192	-0.004
Mof_H 	H 	0.1553	0.1787	0.6338	0.252
Mof_H 	H 	0.2847	0.2301	0.2009	-0.009
Mof_H 	H 	0.447	0.0737	0.9808	-0.045
Mof_H 	H 	0.6553	0.3213	0.3662	0.26
Mof_H 	H 	0.2153	0.7699	0.7009	-0
Mof_H 	H 	0.053	0.9263	0.4808	-0.047
Mof_H 	H 	0.8447	0.6787	0.8662	0.273
Mof_H 	H 	0.2847	0.2699	0.7009	-0.004
Mof_H 	H 	0.447	0.4263	0.4808	-0.032
Mof_H 	H 	0.6553	0.1787	0.8662	0.266
Mof_H 	H 	0.2153	0.7301	0.2009	-0.006
Mof_H 	H 	0.053	0.5737	0.9808	-0.059
Mof_H 	H 	0.8447	0.8213	0.3662	0.268
Mof_H 	H 	0.7153	0.7699	0.7991	0.006
Mof_H 	H 	0.553	0.9263	0.0192	-0.02
Mof_H 	H 	0.3447	0.6787	0.6338	0.259
Mof_H 	H 	0.7847	0.2301	0.2991	-0.003
Mof_H 	H 	0.947	0.0737	0.5192	-0.017
Mof_H 	H 	0.1553	0.3213	0.1338	0.246
Mof_C 	C 	0.5248	0.7622	0.2195	-0.06
Mof_C 	C 	0.5213	0.6765	0.241	-0.022
Mof_C 	C 	0.6545	0.7267	0.2775	0.102
Mof_C 	C 	0.4536	0.8185	0.1819	0.384
Mof_C 	C 	0.4444	0.6129	0.2336	0.315
Mof_C 	C 	0.7425	0.4979	0.4731	-0.065
Mof_C 	C 	0.7509	0.5118	0.5577	-0.055
Mof_C 	C 	0.6141	0.5519	0.518	0.104
Mof_C 	C 	0.8071	0.4626	0.4077	0.357
Mof_C 	C 	0.8269	0.4962	0.6213	0.344
Mof_C 	C 	0.9752	0.2378	0.7195	-0.009
Mof_C 	C 	0.9787	0.3235	0.741	0.035
Mof_C 	C 	0.8455	0.2733	0.7775	0.109
Mof_C 	C 	0.0464	0.1815	0.6819	0.332
Mof_C 	C 	0.0556	0.3871	0.7336	0.255
Mof_C 	C 	0.7575	0.5021	0.9731	0.034
Mof_C 	C 	0.7491	0.4882	0.0577	-0.155
Mof_C 	C 	0.8859	0.4481	0.018	0.017
Mof_C 	C 	0.6929	0.5374	0.9077	0.335
Mof_C 	C 	0.6731	0.5038	0.1213	0.37
Mof_C 	C 	0.4752	0.2622	0.2805	-0.063
Mof_C 	C 	0.4787	0.1765	0.259	-0.028
Mof_C 	C 	0.3455	0.2267	0.2225	0.096
Mof_C 	C 	0.5464	0.3185	0.3181	0.388
Mof_C 	C 	0.5556	0.1129	0.2664	0.315
Mof_C 	C 	0.2575	0.9979	0.0269	-0.058
Mof_C 	C 	0.2491	0.0118	0.9423	-0.077
Mof_C 	C 	0.3859	0.0519	0.982	0.193
Mof_C 	C 	0.1929	0.9626	0.0923	0.356
Mof_C 	C 	0.1731	0.9962	0.8787	0.431
Mof_C 	C 	0.0248	0.7378	0.7805	-0.112
Mof_C 	C 	0.0213	0.8235	0.759	-0.065
Mof_C 	C 	0.1545	0.7733	0.7225	0.105
Mof_C 	C 	0.9536	0.6815	0.8181	0.458
Mof_C 	C 	0.9444	0.8871	0.7664	0.374
Mof_C 	C 	0.2425	0.0021	0.5269	-0.179
Mof_C 	C 	0.2509	0.9882	0.4423	0.063
Mof_C 	C 	0.1141	0.9481	0.482	0.107
Mof_C 	C 	0.3071	0.0374	0.5923	0.39
Mof_C 	C 	0.3269	0.0038	0.3787	0.22
Mof_C 	C 	0.4752	0.2378	0.7805	-0.06
Mof_C 	C 	0.4787	0.3235	0.759	-0.017
Mof_C 	C 	0.3455	0.2733	0.7225	0.105
Mof_C 	C 	0.5464	0.1815	0.8181	0.396
Mof_C 	C 	0.5556	0.3871	0.7664	0.314
Mof_C 	C 	0.2575	0.5021	0.5269	-0.072
Mof_C 	C 	0.2491	0.4882	0.4423	-0.063
Mof_C 	C 	0.3859	0.4481	0.482	0.102
Mof_C 	C 	0.1929	0.5374	0.5923	0.362
Mof_C 	C 	0.1731	0.5038	0.3787	0.347
Mof_C 	C 	0.0248	0.7622	0.2805	-0.115
Mof_C 	C 	0.0213	0.6765	0.259	-0.076
Mof_C 	C 	0.1545	0.7267	0.2225	0.098
Mof_C 	C 	0.9536	0.8185	0.3181	0.452
Mof_C 	C 	0.9444	0.6129	0.2664	0.376
Mof_C 	C 	0.2425	0.4979	0.0269	-0.173
Mof_C 	C 	0.2509	0.5118	0.9423	0.039
Mof_C 	C 	0.1141	0.5519	0.982	0.192
Mof_C 	C 	0.3071	0.4626	0.0923	0.384
Mof_C 	C 	0.3269	0.4962	0.8787	0.32
Mof_C 	C 	0.5248	0.7378	0.7195	-0.059
Mof_C 	C 	0.5213	0.8235	0.741	-0.012
Mof_C 	C 	0.6545	0.7733	0.7775	0.109
Mof_C 	C 	0.4536	0.6815	0.6819	0.392
Mof_C 	C 	0.4444	0.8871	0.7336	0.313
Mof_C 	C 	0.7425	0.0021	0.9731	-0.073
Mof_C 	C 	0.7509	0.9882	0.0577	-0.017
Mof_C 	C 	0.6141	0.9481	0.018	0.03
Mof_C 	C 	0.8071	0.0374	0.9077	0.362
Mof_C 	C 	0.8269	0.0038	0.1213	0.23
Mof_C 	C 	0.9752	0.2622	0.2195	-0.009
Mof_C 	C 	0.9787	0.1765	0.241	0.024
Mof_C 	C 	0.8455	0.2267	0.2775	0.1
Mof_C 	C 	0.0464	0.3185	0.1819	0.322
Mof_C 	C 	0.0556	0.1129	0.2336	0.256
Mof_C 	C 	0.7575	0.9979	0.4731	0.048
Mof_C 	C 	0.7491	0.0118	0.5577	-0.182
Mof_C 	C 	0.8859	0.0519	0.518	0.099
Mof_C 	C 	0.6929	0.9626	0.4077	0.329
Mof_C 	C 	0.6731	0.9962	0.6213	0.469
Mof_N 	N 	0.6108	0.7928	0.2433	-0.223
Mof_N 	N 	0.6044	0.6555	0.2784	-0.218
Mof_N 	N 	0.6545	0.5243	0.4493	-0.221
Mof_N 	N 	0.6682	0.5461	0.5856	-0.22
Mof_N 	N 	0.8892	0.2072	0.7433	-0.223
Mof_N 	N 	0.8956	0.3445	0.7784	-0.216
Mof_N 	N 	0.8455	0.4757	0.9493	-0.182
Mof_N 	N 	0.8318	0.4539	0.0856	-0.195
Mof_N 	N 	0.3892	0.2928	0.2567	-0.225
Mof_N 	N 	0.3956	0.1555	0.2216	-0.227
Mof_N 	N 	0.3455	0.0243	0.0507	-0.299
Mof_N 	N 	0.3318	0.0461	0.9144	-0.231
Mof_N 	N 	0.1108	0.7072	0.7567	-0.221
Mof_N 	N 	0.1044	0.8445	0.7216	-0.216
Mof_N 	N 	0.1545	0.9757	0.5507	-0.189
Mof_N 	N 	0.1682	0.9539	0.4144	-0.238
Mof_N 	N 	0.3892	0.2072	0.7567	-0.223
Mof_N 	N 	0.3956	0.3445	0.7216	-0.22
Mof_N 	N 	0.3455	0.4757	0.5507	-0.221
Mof_N 	N 	0.3318	0.4539	0.4144	-0.221
Mof_N 	N 	0.1108	0.7928	0.2567	-0.222
Mof_N 	N 	0.1044	0.6555	0.2216	-0.222
Mof_N 	N 	0.1545	0.5243	0.0507	-0.26
Mof_N 	N 	0.1682	0.5461	0.9144	-0.247
Mof_N 	N 	0.6108	0.7072	0.7433	-0.221
Mof_N 	N 	0.6044	0.8445	0.7784	-0.212
Mof_N 	N 	0.6545	0.9757	0.9493	-0.156
Mof_N 	N 	0.6682	0.9539	0.0856	-0.214
Mof_N 	N 	0.8892	0.2928	0.2433	-0.225
Mof_N 	N 	0.8956	0.1555	0.2784	-0.223
Mof_N 	N 	0.8455	0.0243	0.4493	-0.255
Mof_N 	N 	0.8318	0.0461	0.5856	-0.203
Mof_O 	O 	0.4739	0.8951	0.1739	-0.495
Mof_O 	O 	0.3753	0.786	0.16	-0.499
Mof_O 	O 	0.3681	0.6345	0.1981	-0.279
Mof_O 	O 	0.4576	0.5419	0.265	-0.496
Mof_O 	O 	0.7689	0.4537	0.3375	-0.519
Mof_O 	O 	0.8902	0.4418	0.4207	-0.441
Mof_O 	O 	0.9027	0.4613	0.6037	-0.416
Mof_O 	O 	0.8061	0.5212	0.693	-0.501
Mof_O 	O 	0.0261	0.1049	0.6739	-0.539
Mof_O 	O 	0.1247	0.214	0.66	-0.491
Mof_O 	O 	0.1319	0.3655	0.6981	-0.27
Mof_O 	O 	0.0424	0.4581	0.765	-0.508
Mof_O 	O 	0.7311	0.5463	0.8375	-0.512
Mof_O 	O 	0.6098	0.5582	0.9207	-0.427
Mof_O 	O 	0.5973	0.5387	0.1037	-0.467
Mof_O 	O 	0.6939	0.4788	0.193	-0.517
Mof_O 	O 	0.5261	0.3951	0.3261	-0.508
Mof_O 	O 	0.6247	0.286	0.34	-0.499
Mof_O 	O 	0.6319	0.1345	0.3019	-0.288
Mof_O 	O 	0.5424	0.0419	0.235	-0.526
Mof_O 	O 	0.2311	0.9537	0.1625	-0.512
Mof_O 	O 	0.1098	0.9418	0.0793	-0.482
Mof_O 	O 	0.0973	0.9613	0.8963	-0.443
Mof_O 	O 	0.1939	0.0212	0.807	-0.561
Mof_O 	O 	0.9739	0.6049	0.8261	-0.485
Mof_O 	O 	0.8753	0.714	0.84	-0.498
Mof_O 	O 	0.8681	0.8655	0.8019	-0.256
Mof_O 	O 	0.9576	0.9581	0.735	-0.454
Mof_O 	O 	0.2689	0.0463	0.6625	-0.543
Mof_O 	O 	0.3902	0.0582	0.5793	-0.486
Mof_O 	O 	0.4027	0.0387	0.3963	-0.422
Mof_O 	O 	0.3061	0.9788	0.307	-0.441
Mof_O 	O 	0.5261	0.1049	0.8261	-0.517
Mof_O 	O 	0.6247	0.214	0.84	-0.494
Mof_O 	O 	0.6319	0.3655	0.8019	-0.266
Mof_O 	O 	0.5424	0.4581	0.735	-0.494
Mof_O 	O 	0.2311	0.5463	0.6625	-0.525
Mof_O 	O 	0.1098	0.5582	0.5793	-0.481
Mof_O 	O 	0.0973	0.5387	0.3963	-0.462
Mof_O 	O 	0.1939	0.4788	0.307	-0.515
Mof_O 	O 	0.9739	0.8951	0.3261	-0.472
Mof_O 	O 	0.8753	0.786	0.34	-0.503
Mof_O 	O 	0.8681	0.6345	0.3019	-0.276
Mof_O 	O 	0.9576	0.5419	0.235	-0.482
Mof_O 	O 	0.2689	0.4537	0.1625	-0.533
Mof_O 	O 	0.3902	0.4418	0.0793	-0.495
Mof_O 	O 	0.4027	0.4613	0.8963	-0.408
Mof_O 	O 	0.3061	0.5212	0.807	-0.499
Mof_O 	O 	0.4739	0.6049	0.6739	-0.507
Mof_O 	O 	0.3753	0.714	0.66	-0.495
Mof_O 	O 	0.3681	0.8655	0.6981	-0.26
Mof_O 	O 	0.4576	0.9581	0.765	-0.469
Mof_O 	O 	0.7689	0.0463	0.8375	-0.529
Mof_O 	O 	0.8902	0.0582	0.9207	-0.425
Mof_O 	O 	0.9027	0.0387	0.1037	-0.42
Mof_O 	O 	0.8061	0.9788	0.193	-0.437
Mof_O 	O 	0.0261	0.3951	0.1739	-0.531
Mof_O 	O 	0.1247	0.286	0.16	-0.495
Mof_O 	O 	0.1319	0.1345	0.1981	-0.29
Mof_O 	O 	0.0424	0.0419	0.265	-0.537
Mof_O 	O 	0.7311	0.9537	0.3375	-0.499
Mof_O 	O 	0.6098	0.9418	0.4207	-0.437
Mof_O 	O 	0.5973	0.9613	0.6037	-0.457
Mof_O 	O 	0.6939	0.0212	0.693	-0.571
_end
