# CIF file generated by openbabel 3.1.0, see https://openbabel.org
data_I
_chemical_name_common 'image0'
_cell_length_a 13.016
_cell_length_b 11.291
_cell_length_c 15.7543
_cell_angle_alpha 90
_cell_angle_beta 105.039
_cell_angle_gamma 90
_space_group_name_H-M_alt 'P 1'
_space_group_name_Hall 'P 1'
loop_
    _symmetry_equiv_pos_as_xyz
    x,y,z
loop_
    _atom_site_label
    _atom_site_type_symbol
    _atom_site_fract_x
    _atom_site_fract_y
    _atom_site_fract_z
    _atom_site_occupancy
    Cd1      Cd       0.69790    0.17712    0.67436    1.000
    O1       O        0.63720    0.15110    0.79960    1.000
    O2       O        0.64080    0.37560    0.67060    1.000
    O3       O        0.83670    0.47340    0.85390    1.000
    O4       O        0.63290    0.18850    0.51640    1.000
    O5       O        0.83580    0.23500    0.60470    1.000
    O6       O        0.81990    0.29890    0.78590    1.000
    O7       O        0.65450    0.54840    0.74160    1.000
    O8       O        0.49850    0.14970    0.63840    1.000
    C1       C        0.53980    0.15140    0.79670    1.000
    C2       C        0.68560    0.44630    0.72970    1.000
    C3       C        0.79090    0.40210    0.79560    1.000
    C4       C        0.69130    0.23660    0.47420    1.000
    Cd2      Cd       0.19790    0.67712    0.67436    1.000
    O9       O        0.13720    0.65110    0.79960    1.000
    O10      O        0.14080    0.87560    0.67060    1.000
    O11      O        0.33670    0.97340    0.85390    1.000
    O12      O        0.13290    0.68850    0.51640    1.000
    O13      O        0.33580    0.73500    0.60470    1.000
    O14      O        0.31990    0.79890    0.78590    1.000
    O15      O        0.15450    0.04840    0.74160    1.000
    O16      O        0.99850    0.64970    0.63840    1.000
    C5       C        0.03980    0.65140    0.79670    1.000
    C6       C        0.18560    0.94630    0.72970    1.000
    C7       C        0.29090    0.90210    0.79560    1.000
    C8       C        0.19130    0.73660    0.47420    1.000
    Cd3      Cd       0.30210    0.17712    0.82564    1.000
    O17      O        0.36280    0.15110    0.70040    1.000
    O18      O        0.35920    0.37560    0.82940    1.000
    O19      O        0.16330    0.47340    0.64610    1.000
    O20      O        0.36710    0.18850    0.98360    1.000
    O21      O        0.16420    0.23500    0.89530    1.000
    O22      O        0.18010    0.29890    0.71410    1.000
    O23      O        0.34550    0.54840    0.75840    1.000
    O24      O        0.50150    0.14970    0.86160    1.000
    C9       C        0.46020    0.15140    0.70330    1.000
    C10      C        0.31440    0.44630    0.77030    1.000
    C11      C        0.20910    0.40210    0.70440    1.000
    C12      C        0.30870    0.23660    0.02580    1.000
    Cd4      Cd       0.80210    0.67712    0.82564    1.000
    O25      O        0.86280    0.65110    0.70040    1.000
    O26      O        0.85920    0.87560    0.82940    1.000
    O27      O        0.66330    0.97340    0.64610    1.000
    O28      O        0.86710    0.68850    0.98360    1.000
    O29      O        0.66420    0.73500    0.89530    1.000
    O30      O        0.68010    0.79890    0.71410    1.000
    O31      O        0.84550    0.04840    0.75840    1.000
    O32      O        0.00150    0.64970    0.86160    1.000
    C13      C        0.96020    0.65140    0.70330    1.000
    C14      C        0.81440    0.94630    0.77030    1.000
    C15      C        0.70910    0.90210    0.70440    1.000
    C16      C        0.80870    0.73660    0.02580    1.000
    Cd5      Cd       0.30210    0.82288    0.32564    1.000
    O33      O        0.36280    0.84890    0.20040    1.000
    O34      O        0.35920    0.62440    0.32940    1.000
    O35      O        0.16330    0.52660    0.14610    1.000
    O36      O        0.36710    0.81150    0.48360    1.000
    O37      O        0.16420    0.76500    0.39530    1.000
    O38      O        0.18010    0.70110    0.21410    1.000
    O39      O        0.34550    0.45160    0.25840    1.000
    O40      O        0.50150    0.85030    0.36160    1.000
    C17      C        0.46020    0.84860    0.20330    1.000
    C18      C        0.31440    0.55370    0.27030    1.000
    C19      C        0.20910    0.59790    0.20440    1.000
    C20      C        0.30870    0.76340    0.52580    1.000
    Cd6      Cd       0.80210    0.32288    0.32564    1.000
    O41      O        0.86280    0.34890    0.20040    1.000
    O42      O        0.85920    0.12440    0.32940    1.000
    O43      O        0.66330    0.02660    0.14610    1.000
    O44      O        0.86710    0.31150    0.48360    1.000
    O45      O        0.66420    0.26500    0.39530    1.000
    O46      O        0.68010    0.20110    0.21410    1.000
    O47      O        0.84550    0.95160    0.25840    1.000
    O48      O        0.00150    0.35030    0.36160    1.000
    C21      C        0.96020    0.34860    0.20330    1.000
    C22      C        0.81440    0.05370    0.27030    1.000
    C23      C        0.70910    0.09790    0.20440    1.000
    C24      C        0.80870    0.26340    0.52580    1.000
    Cd7      Cd       0.69790    0.82288    0.17436    1.000
    O49      O        0.63720    0.84890    0.29960    1.000
    O50      O        0.64080    0.62440    0.17060    1.000
    O51      O        0.83670    0.52660    0.35390    1.000
    O52      O        0.63290    0.81150    0.01640    1.000
    O53      O        0.83580    0.76500    0.10470    1.000
    O54      O        0.81990    0.70110    0.28590    1.000
    O55      O        0.65450    0.45160    0.24160    1.000
    O56      O        0.49850    0.85030    0.13840    1.000
    C25      C        0.53980    0.84860    0.29670    1.000
    C26      C        0.68560    0.55370    0.22970    1.000
    C27      C        0.79090    0.59790    0.29560    1.000
    C28      C        0.69130    0.76340    0.97420    1.000
    Cd8      Cd       0.19790    0.32288    0.17436    1.000
    O57      O        0.13720    0.34890    0.29960    1.000
    O58      O        0.14080    0.12440    0.17060    1.000
    O59      O        0.33670    0.02660    0.35390    1.000
    O60      O        0.13290    0.31150    0.01640    1.000
    O61      O        0.33580    0.26500    0.10470    1.000
    O62      O        0.31990    0.20110    0.28590    1.000
    O63      O        0.15450    0.95160    0.24160    1.000
    O64      O        0.99850    0.35030    0.13840    1.000
    C29      C        0.03980    0.34860    0.29670    1.000
    C30      C        0.18560    0.05370    0.22970    1.000
    C31      C        0.29090    0.09790    0.29560    1.000
    C32      C        0.19130    0.26340    0.97420    1.000
    K1       K        0.50000    0.00000    0.50000    1.000
    K2       K        0.00000    0.50000    0.50000    1.000
    K3       K        0.50000    0.00000    0.00000    1.000
    K4       K        0.00000    0.50000    0.00000    1.000
    K5       K        0.00000    0.21197    0.75000    1.000
    K6       K        0.50000    0.71197    0.75000    1.000
    K7       K        0.00000    0.78803    0.25000    1.000
    K8       K        0.50000    0.28803    0.25000    1.000
