# CIF file generated by openbabel 3.1.0, see https://openbabel.org
data_I
_chemical_name_common 'QUQPOI_clean'
_cell_length_a 12.6331
_cell_length_b 7.3937
_cell_length_c 10.9623
_cell_angle_alpha 90
_cell_angle_beta 109.51
_cell_angle_gamma 90
_space_group_name_H-M_alt 'P 1'
_space_group_name_Hall 'P 1'
loop_
    _symmetry_equiv_pos_as_xyz
    x,y,z
loop_
    _atom_site_label
    _atom_site_type_symbol
    _atom_site_fract_x
    _atom_site_fract_y
    _atom_site_fract_z
    _atom_site_occupancy
    H1       H        0.01950    0.22970    0.61020    1.000
    C2       C        0.05430    0.34050    0.84531    1.000
    C3       C        0.01190    0.33920    0.56640    1.000
    N4       N        0.06020    0.20580    0.90083    1.000
    H5       H        0.98050    0.22970    0.38980    1.000
    C6       C        0.94570    0.34050    0.15469    1.000
    C7       C        0.98810    0.33920    0.43360    1.000
    N8       N        0.93980    0.20580    0.09917    1.000
    H9       H        0.98050    0.77030    0.38980    1.000
    C10      C        0.94570    0.65950    0.15469    1.000
    C11      C        0.98810    0.66080    0.43360    1.000
    N12      N        0.93980    0.79420    0.09917    1.000
    H13      H        0.01950    0.77030    0.61020    1.000
    C14      C        0.05430    0.65950    0.84531    1.000
    C15      C        0.01190    0.66080    0.56640    1.000
    N16      N        0.06020    0.79420    0.90083    1.000
    Zn17     Zn       0.00000    0.00000    0.00000    1.000
    H18      H        0.75000    0.00000    0.96260    1.000
    H19      H        0.57590    0.00000    0.81010    1.000
    H20      H        0.72200    0.00000    0.53800    1.000
    H21      H        0.89620    0.00000    0.70060    1.000
    C22      C        0.74450    0.00000    0.87580    1.000
    C23      C        0.63910    0.00000    0.78450    1.000
    C24      C        0.62690    0.00000    0.65460    1.000
    C25      C        0.51080    0.00000    0.56200    1.000
    C26      C        0.72590    0.00000    0.62420    1.000
    C27      C        0.83120    0.00000    0.72250    1.000
    N28      N        0.83930    0.00000    0.84800    1.000
    H29      H        0.25000    0.00000    0.03740    1.000
    H30      H        0.42410    0.00000    0.18990    1.000
    H31      H        0.27800    0.00000    0.46200    1.000
    H32      H        0.10380    0.00000    0.29940    1.000
    C33      C        0.25550    0.00000    0.12420    1.000
    C34      C        0.36090    0.00000    0.21550    1.000
    C35      C        0.37310    0.00000    0.34540    1.000
    C36      C        0.48920    0.00000    0.43800    1.000
    C37      C        0.27410    0.00000    0.37580    1.000
    C38      C        0.16880    0.00000    0.27750    1.000
    N39      N        0.16070    0.00000    0.15200    1.000
    C40      C        0.04740    0.50000    0.77720    1.000
    C41      C        0.02470    0.50000    0.63560    1.000
    C42      C        0.95260    0.50000    0.22280    1.000
    C43      C        0.97530    0.50000    0.36440    1.000
    H44      H        0.43661    0.00000    0.59917    1.000
    H45      H        0.56339    0.00000    0.40083    1.000
