# CIF file generated by openbabel 3.1.0, see https://openbabel.org
data_I
_chemical_name_common 'image0'
_cell_length_a 9.1004
_cell_length_b 9.3972
_cell_length_c 14.9287
_cell_angle_alpha 82.088
_cell_angle_beta 85.458
_cell_angle_gamma 65.335
_space_group_name_H-M_alt 'P 1'
_space_group_name_Hall 'P 1'
loop_
    _symmetry_equiv_pos_as_xyz
    x,y,z
loop_
    _atom_site_label
    _atom_site_type_symbol
    _atom_site_fract_x
    _atom_site_fract_y
    _atom_site_fract_z
    _atom_site_occupancy
    C1       C        0.61480    0.84430    0.19650    1.000
    C2       C        0.64150    0.65700    0.05434    1.000
    C3       C        0.28450    0.84850    0.02449    1.000
    C4       C        0.06580    0.87870    0.17975    1.000
    C5       C        0.24290    0.77530    0.19123    1.000
    H1       H        0.25060    0.68110    0.23170    1.000
    C6       C        0.33910    0.84730    0.23366    1.000
    H2       H        0.32000    0.84380    0.29860    1.000
    H3       H        0.30940    0.95600    0.20820    1.000
    C7       C        0.51850    0.74470    0.21089    1.000
    H4       H        0.56310    0.66510    0.26280    1.000
    C8       C        0.51550    0.65690    0.12898    1.000
    H5       H        0.54770    0.54620    0.15360    1.000
    C9       C        0.33550    0.71770    0.10195    1.000
    H6       H        0.31470    0.62940    0.08720    1.000
    C10      C        0.44530    0.26930    0.23244    1.000
    H7       H        0.38600    0.25780    0.18820    1.000
    C11      C        0.38270    0.36280    0.29895    1.000
    H8       H        0.27410    0.42590    0.30930    1.000
    C12      C        0.64570    0.24320    0.30987    1.000
    H9       H        0.75000    0.21130    0.33010    1.000
    C13      C        0.50550    0.42510    0.42570    1.000
    C14      C        0.64040    0.42750    0.45470    1.000
    H10      H        0.73840    0.37910    0.42410    1.000
    C15      C        0.36510    0.49820    0.46980    1.000
    H11      H        0.27040    0.49930    0.44980    1.000
    Co1      Co       0.76592    0.02557    0.16199    1.000
    N1       N        0.61080    0.19330    0.24016    1.000
    N2       N        0.51170    0.34650    0.34889    1.000
    O1       O        0.58338    0.95454    0.13101    1.000
    O2       O        0.72148    0.82570    0.24974    1.000
    O3       O        0.77931    0.54800    0.06780    1.000
    O4       O        0.60703    0.76076    0.98805    1.000
    O5       O        0.24120    0.82410    0.95238    1.000
    O6       O        0.28554    0.97934    0.03652    1.000
    O7       O        0.98650    0.84020    0.12934    1.000
    O8       O        0.99360    0.99920    0.21963    1.000
    C16      C        0.38520    0.15570    0.80350    1.000
    C17      C        0.35850    0.34300    0.94566    1.000
    C18      C        0.71550    0.15150    0.97551    1.000
    C19      C        0.93420    0.12130    0.82025    1.000
    C20      C        0.75710    0.22470    0.80877    1.000
    H12      H        0.74940    0.31890    0.76830    1.000
    C21      C        0.66090    0.15270    0.76634    1.000
    H13      H        0.68000    0.15620    0.70140    1.000
    H14      H        0.69060    0.04400    0.79180    1.000
    C22      C        0.48150    0.25530    0.78911    1.000
    H15      H        0.43690    0.33490    0.73720    1.000
    C23      C        0.48450    0.34310    0.87102    1.000
    H16      H        0.45230    0.45380    0.84640    1.000
    C24      C        0.66450    0.28230    0.89805    1.000
    H17      H        0.68530    0.37060    0.91280    1.000
    C25      C        0.55470    0.73070    0.76756    1.000
    H18      H        0.61400    0.74220    0.81180    1.000
    C26      C        0.61730    0.63720    0.70105    1.000
    H19      H        0.72590    0.57410    0.69070    1.000
    C27      C        0.35430    0.75680    0.69013    1.000
    H20      H        0.25000    0.78870    0.66990    1.000
    C28      C        0.49450    0.57490    0.57430    1.000
    C29      C        0.35960    0.57250    0.54530    1.000
    H21      H        0.26160    0.62090    0.57590    1.000
    C30      C        0.63490    0.50180    0.53020    1.000
    H22      H        0.72960    0.50070    0.55020    1.000
    Co2      Co       0.23408    0.97443    0.83801    1.000
    N3       N        0.38920    0.80670    0.75984    1.000
    N4       N        0.48830    0.65350    0.65111    1.000
    O9       O        0.41662    0.04546    0.86899    1.000
    O10      O        0.27852    0.17430    0.75026    1.000
    O11      O        0.22069    0.45200    0.93220    1.000
    O12      O        0.39297    0.23924    0.01195    1.000
    O13      O        0.75880    0.17590    0.04762    1.000
    O14      O        0.71446    0.02066    0.96348    1.000
    O15      O        0.01350    0.15980    0.87066    1.000
    O16      O        0.00640    0.00080    0.78037    1.000
    Co3      Co       0.50000    0.00000    0.00000    1.000
    Co4      Co       0.00000    0.50000    0.00000    1.000
