data_functionalizedCrystal
_audit_creation_method	'EQeq! by Chris Wilmer'
_symmetry_space_group_name_H-M	'P1'
_symmetry_Int_Tables_number	1
_symmetry_cell_setting	triclinic
loop_
_symmetry_equiv_pos_as_xyz
  x,y,z
_cell_length_a	22.176
_cell_length_b	9.636
_cell_length_c	11.2931
_cell_angle_alpha	90
_cell_angle_beta	90
_cell_angle_gamma	90
loop_
_atom_site_label
_atom_site_type_symbol
_atom_site_fract_x
_atom_site_fract_y
_atom_site_fract_z
_atom_site_charge
Mof_F 	F 	0.56251	0.3539	0.56017	-0.372
Mof_F 	F 	0.44515	0.36117	0.56326	-0.366
Mof_N 	N 	0.70031	0.118	0.9002	-0.241
Mof_N 	N 	0.30517	0.1098	0.8902	-0.247
Mof_C 	C 	0.53495	0.3022	0.6567	0.242
Mof_C 	C 	0.47272	0.3043	0.6578	0.238
Mof_C 	C 	0.33719	0.1716	0.8291	0.159
Mof_C 	C 	0.66994	0.1775	0.8343	0.158
Mof_F 	F 	0.93749	0.6461	0.56017	-0.361
Mof_F 	F 	0.05485	0.63883	0.56326	-0.356
Mof_N 	N 	0.79969	0.882	0.9002	-0.196
Mof_N 	N 	0.19483	0.8902	0.8902	-0.2
Mof_C 	C 	0.96505	0.6978	0.6567	0.25
Mof_C 	C 	0.02728	0.6957	0.6578	0.244
Mof_C 	C 	0.16281	0.8284	0.8291	0.192
Mof_C 	C 	0.83006	0.8225	0.8343	0.19
Mof_F 	F 	0.93749	0.8539	0.93983	-0.344
Mof_F 	F 	0.05485	0.86117	0.93674	-0.339
Mof_N 	N 	0.79969	0.618	0.5998	-0.222
Mof_N 	N 	0.19483	0.6098	0.6098	-0.227
Mof_C 	C 	0.96505	0.8022	0.8433	0.254
Mof_C 	C 	0.02728	0.8043	0.8422	0.247
Mof_C 	C 	0.16281	0.6716	0.6709	0.184
Mof_C 	C 	0.83006	0.6775	0.6657	0.183
Mof_F 	F 	0.56251	0.1461	0.93983	-0.386
Mof_F 	F 	0.44515	0.13883	0.93674	-0.382
Mof_N 	N 	0.70031	0.382	0.5998	-0.228
Mof_N 	N 	0.30517	0.3902	0.6098	-0.232
Mof_C 	C 	0.53495	0.1978	0.8433	0.239
Mof_C 	C 	0.47272	0.1957	0.8422	0.235
Mof_C 	C 	0.33719	0.3284	0.6709	0.169
Mof_C 	C 	0.66994	0.3225	0.6657	0.166
Mof_F 	F 	0.43749	0.6461	0.43983	-0.36
Mof_F 	F 	0.55485	0.63883	0.43674	-0.356
Mof_N 	N 	0.29969	0.882	0.0998	-0.196
Mof_N 	N 	0.69483	0.8902	0.1098	-0.2
Mof_C 	C 	0.46505	0.6978	0.3433	0.249
Mof_C 	C 	0.52728	0.6957	0.3422	0.245
Mof_C 	C 	0.66281	0.8284	0.1709	0.192
Mof_C 	C 	0.33006	0.8225	0.1657	0.19
Mof_F 	F 	0.06251	0.3539	0.43983	-0.372
Mof_F 	F 	0.94515	0.36117	0.43674	-0.366
Mof_N 	N 	0.20031	0.118	0.0998	-0.241
Mof_N 	N 	0.80517	0.1098	0.1098	-0.247
Mof_C 	C 	0.03495	0.3022	0.3433	0.243
Mof_C 	C 	0.97272	0.3043	0.3422	0.238
Mof_C 	C 	0.83719	0.1716	0.1709	0.159
Mof_C 	C 	0.16994	0.1775	0.1657	0.158
Mof_F 	F 	0.06251	0.1461	0.06017	-0.386
Mof_F 	F 	0.94515	0.13883	0.06326	-0.383
Mof_N 	N 	0.20031	0.382	0.4002	-0.228
Mof_N 	N 	0.80517	0.3902	0.3902	-0.232
Mof_C 	C 	0.03495	0.1978	0.1567	0.24
Mof_C 	C 	0.97272	0.1957	0.1578	0.234
Mof_C 	C 	0.83719	0.3284	0.3291	0.169
Mof_C 	C 	0.16994	0.3225	0.3343	0.166
Mof_F 	F 	0.43749	0.8539	0.06017	-0.344
Mof_F 	F 	0.55485	0.86117	0.06326	-0.339
Mof_N 	N 	0.29969	0.618	0.4002	-0.222
Mof_N 	N 	0.69483	0.6098	0.3902	-0.227
Mof_C 	C 	0.46505	0.8022	0.1567	0.252
Mof_C 	C 	0.52728	0.8043	0.1578	0.248
Mof_C 	C 	0.66281	0.6716	0.3291	0.184
Mof_C 	C 	0.33006	0.6775	0.3343	0.183
Mof_Cu	Cu	0.25	-2.09212e-32	0.9914	0.857
Mof_Cu	Cu	0.25	0.5	0.5086	0.895
Mof_Cu	Cu	0.75	-8.17236e-35	0.0086	0.857
Mof_Cu	Cu	0.75	0.5	0.4914	0.895
Mof_C 	C 	0.63583	0.25	0.75	-0.037
Mof_C 	C 	0.43775	0.25	0.75	-0.07
Mof_C 	C 	0.3719	0.25	0.75	-0.039
Mof_C 	C 	0.56982	0.25	0.75	-0.074
Mof_C 	C 	0.86417	0.75	0.75	-0.031
Mof_C 	C 	0.06225	0.75	0.75	-0.056
Mof_C 	C 	0.1281	0.75	0.75	-0.033
Mof_C 	C 	0.93018	0.75	0.75	-0.063
Mof_C 	C 	0.36417	0.75	0.25	-0.031
Mof_C 	C 	0.56225	0.75	0.25	-0.057
Mof_C 	C 	0.6281	0.75	0.25	-0.033
Mof_C 	C 	0.43018	0.75	0.25	-0.062
Mof_C 	C 	0.13583	0.25	0.25	-0.037
Mof_C 	C 	0.93775	0.25	0.25	-0.069
Mof_C 	C 	0.8719	0.25	0.25	-0.039
Mof_C 	C 	0.06982	0.25	0.25	-0.075
_end
