# CIF file generated by openbabel 3.1.0, see https://openbabel.org
data_I
_chemical_name_common 'IPICUG_charged'
_cell_length_a 14.803
_cell_length_b 14.803
_cell_length_c 19.901
_cell_angle_alpha 90
_cell_angle_beta 90
_cell_angle_gamma 90
_space_group_name_H-M_alt 'P 1'
_space_group_name_Hall 'P 1'
loop_
    _symmetry_equiv_pos_as_xyz
    x,y,z
loop_
    _atom_site_label
    _atom_site_type_symbol
    _atom_site_fract_x
    _atom_site_fract_y
    _atom_site_fract_z
    _atom_site_occupancy
    Cu1      Cu       0.50000    0.50000    0.00000    1.000
    Cu2      Cu       0.00000    0.00000    0.00000    1.000
    Cu3      Cu       0.00000    0.50000    0.50000    1.000
    Cu4      Cu       0.50000    0.00000    0.50000    1.000
    Cu5      Cu       0.25000    0.75000    0.75000    1.000
    Cu6      Cu       0.75000    0.25000    0.25000    1.000
    Cu7      Cu       0.75000    0.25000    0.75000    1.000
    Cu8      Cu       0.25000    0.75000    0.25000    1.000
    H1       H        0.43980    0.79620    0.79430    1.000
    H2       H        0.54980    0.75010    0.86950    1.000
    H3       H        0.31090    0.43060    0.96510    1.000
    H4       H        0.19570    0.46730    0.88970    1.000
    H5       H        0.21030    0.59270    0.82000    1.000
    H6       H        0.06020    0.70380    0.79430    1.000
    H7       H        0.95020    0.74990    0.86950    1.000
    H8       H        0.18910    0.06940    0.96510    1.000
    H9       H        0.30430    0.03270    0.88970    1.000
    H10      H        0.28970    0.90730    0.82000    1.000
    H11      H        0.70380    0.43980    0.29430    1.000
    H12      H        0.74990    0.54980    0.36950    1.000
    H13      H        0.06940    0.31090    0.46510    1.000
    H14      H        0.03270    0.19570    0.38970    1.000
    H15      H        0.90730    0.21030    0.32000    1.000
    H16      H        0.79620    0.06020    0.29430    1.000
    H17      H        0.75010    0.95020    0.36950    1.000
    H18      H        0.43060    0.18910    0.46510    1.000
    H19      H        0.46730    0.30430    0.38970    1.000
    H20      H        0.59270    0.28970    0.32000    1.000
    H21      H        0.56020    0.29620    0.70570    1.000
    H22      H        0.45020    0.25010    0.63050    1.000
    H23      H        0.68910    0.93060    0.53490    1.000
    H24      H        0.80430    0.96730    0.61030    1.000
    H25      H        0.78970    0.09270    0.68000    1.000
    H26      H        0.93980    0.20380    0.70570    1.000
    H27      H        0.04980    0.24990    0.63050    1.000
    H28      H        0.81090    0.56940    0.53490    1.000
    H29      H        0.69570    0.53270    0.61030    1.000
    H30      H        0.71030    0.40730    0.68000    1.000
    H31      H        0.29620    0.93980    0.20570    1.000
    H32      H        0.25010    0.04980    0.13050    1.000
    H33      H        0.93060    0.81090    0.03490    1.000
    H34      H        0.96730    0.69570    0.11030    1.000
    H35      H        0.09270    0.71030    0.18000    1.000
    H36      H        0.20380    0.56020    0.20570    1.000
    H37      H        0.24990    0.45020    0.13050    1.000
    H38      H        0.56940    0.68910    0.03490    1.000
    H39      H        0.53270    0.80430    0.11030    1.000
    H40      H        0.40730    0.78970    0.18000    1.000
    H41      H        0.56020    0.20380    0.20570    1.000
    H42      H        0.45020    0.24990    0.13050    1.000
    H43      H        0.68910    0.56940    0.03490    1.000
    H44      H        0.80430    0.53270    0.11030    1.000
    H45      H        0.78970    0.40730    0.18000    1.000
    H46      H        0.93980    0.29620    0.20570    1.000
    H47      H        0.04980    0.25010    0.13050    1.000
    H48      H        0.81090    0.93060    0.03490    1.000
    H49      H        0.69570    0.96730    0.11030    1.000
    H50      H        0.71030    0.09270    0.18000    1.000
    H51      H        0.29620    0.56020    0.70570    1.000
    H52      H        0.25010    0.45020    0.63050    1.000
    H53      H        0.93060    0.68910    0.53490    1.000
    H54      H        0.96730    0.80430    0.61030    1.000
    H55      H        0.09270    0.78970    0.68000    1.000
    H56      H        0.20380    0.93980    0.70570    1.000
    H57      H        0.24990    0.04980    0.63050    1.000
    H58      H        0.56940    0.81090    0.53490    1.000
    H59      H        0.53270    0.69570    0.61030    1.000
    H60      H        0.40730    0.71030    0.68000    1.000
    H61      H        0.43980    0.70380    0.29430    1.000
    H62      H        0.54980    0.74990    0.36950    1.000
    H63      H        0.31090    0.06940    0.46510    1.000
    H64      H        0.19570    0.03270    0.38970    1.000
    H65      H        0.21030    0.90730    0.32000    1.000
    H66      H        0.06020    0.79620    0.29430    1.000
    H67      H        0.95020    0.75010    0.36950    1.000
    H68      H        0.18910    0.43060    0.46510    1.000
    H69      H        0.30430    0.46730    0.38970    1.000
    H70      H        0.28970    0.59270    0.32000    1.000
    H71      H        0.70380    0.06020    0.79430    1.000
    H72      H        0.74990    0.95020    0.86950    1.000
    H73      H        0.06940    0.18910    0.96510    1.000
    H74      H        0.03270    0.30430    0.88970    1.000
    H75      H        0.90730    0.28970    0.82000    1.000
    H76      H        0.79620    0.43980    0.79430    1.000
    H77      H        0.75010    0.54980    0.86950    1.000
    H78      H        0.43060    0.31090    0.96510    1.000
    H79      H        0.46730    0.19570    0.88970    1.000
    H80      H        0.59270    0.21030    0.82000    1.000
    C1       C        0.42840    0.74460    0.82140    1.000
    C2       C        0.49520    0.71660    0.86670    1.000
    C3       C        0.31840    0.48120    0.93630    1.000
    C4       C        0.24880    0.50330    0.89150    1.000
    C5       C        0.25730    0.57680    0.85030    1.000
    C6       C        0.33740    0.62870    0.85370    1.000
    C7       C        0.40450    0.60130    0.89920    1.000
    C8       C        0.07160    0.75540    0.82140    1.000
    C9       C        0.00480    0.78340    0.86670    1.000
    C10      C        0.18160    0.01880    0.93630    1.000
    C11      C        0.25120    0.99670    0.89150    1.000
    C12      C        0.24270    0.92320    0.85030    1.000
    C13      C        0.16260    0.87130    0.85370    1.000
    C14      C        0.09550    0.89870    0.89920    1.000
    C15      C        0.75540    0.42840    0.32140    1.000
    C16      C        0.78340    0.49520    0.36670    1.000
    C17      C        0.01880    0.31840    0.43630    1.000
    C18      C        0.99670    0.24880    0.39150    1.000
    C19      C        0.92320    0.25730    0.35030    1.000
    C20      C        0.87130    0.33740    0.35370    1.000
    C21      C        0.89870    0.40450    0.39920    1.000
    C22      C        0.74460    0.07160    0.32140    1.000
    C23      C        0.71660    0.00480    0.36670    1.000
    C24      C        0.48120    0.18160    0.43630    1.000
    C25      C        0.50330    0.25120    0.39150    1.000
    C26      C        0.57680    0.24270    0.35030    1.000
    C27      C        0.62870    0.16260    0.35370    1.000
    C28      C        0.60130    0.09550    0.39920    1.000
    C29      C        0.57160    0.24460    0.67860    1.000
    C30      C        0.50480    0.21660    0.63330    1.000
    C31      C        0.68160    0.98120    0.56370    1.000
    C32      C        0.75120    0.00330    0.60850    1.000
    C33      C        0.74270    0.07680    0.64970    1.000
    C34      C        0.66260    0.12870    0.64630    1.000
    C35      C        0.59550    0.10130    0.60080    1.000
    C36      C        0.92840    0.25540    0.67860    1.000
    C37      C        0.99520    0.28340    0.63330    1.000
    C38      C        0.81840    0.51880    0.56370    1.000
    C39      C        0.74880    0.49670    0.60850    1.000
    C40      C        0.75730    0.42320    0.64970    1.000
    C41      C        0.83740    0.37130    0.64630    1.000
    C42      C        0.90450    0.39870    0.60080    1.000
    C43      C        0.24460    0.92840    0.17860    1.000
    C44      C        0.21660    0.99520    0.13330    1.000
    C45      C        0.98120    0.81840    0.06370    1.000
    C46      C        0.00330    0.74880    0.10850    1.000
    C47      C        0.07680    0.75730    0.14970    1.000
    C48      C        0.12870    0.83740    0.14630    1.000
    C49      C        0.10130    0.90450    0.10080    1.000
    C50      C        0.25540    0.57160    0.17860    1.000
    C51      C        0.28340    0.50480    0.13330    1.000
    C52      C        0.51880    0.68160    0.06370    1.000
    C53      C        0.49670    0.75120    0.10850    1.000
    C54      C        0.42320    0.74270    0.14970    1.000
    C55      C        0.37130    0.66260    0.14630    1.000
    C56      C        0.39870    0.59550    0.10080    1.000
    C57      C        0.57160    0.25540    0.17860    1.000
    C58      C        0.50480    0.28340    0.13330    1.000
    C59      C        0.68160    0.51880    0.06370    1.000
    C60      C        0.75120    0.49670    0.10850    1.000
    C61      C        0.74270    0.42320    0.14970    1.000
    C62      C        0.66260    0.37130    0.14630    1.000
    C63      C        0.59550    0.39870    0.10080    1.000
    C64      C        0.92840    0.24460    0.17860    1.000
    C65      C        0.99520    0.21660    0.13330    1.000
    C66      C        0.81840    0.98120    0.06370    1.000
    C67      C        0.74880    0.00330    0.10850    1.000
    C68      C        0.75730    0.07680    0.14970    1.000
    C69      C        0.83740    0.12870    0.14630    1.000
    C70      C        0.90450    0.10130    0.10080    1.000
    C71      C        0.24460    0.57160    0.67860    1.000
    C72      C        0.21660    0.50480    0.63330    1.000
    C73      C        0.98120    0.68160    0.56370    1.000
    C74      C        0.00330    0.75120    0.60850    1.000
    C75      C        0.07680    0.74270    0.64970    1.000
    C76      C        0.12870    0.66260    0.64630    1.000
    C77      C        0.10130    0.59550    0.60080    1.000
    C78      C        0.25540    0.92840    0.67860    1.000
    C79      C        0.28340    0.99520    0.63330    1.000
    C80      C        0.51880    0.81840    0.56370    1.000
    C81      C        0.49670    0.74880    0.60850    1.000
    C82      C        0.42320    0.75730    0.64970    1.000
    C83      C        0.37130    0.83740    0.64630    1.000
    C84      C        0.39870    0.90450    0.60080    1.000
    C85      C        0.42840    0.75540    0.32140    1.000
    C86      C        0.49520    0.78340    0.36670    1.000
    C87      C        0.31840    0.01880    0.43630    1.000
    C88      C        0.24880    0.99670    0.39150    1.000
    C89      C        0.25730    0.92320    0.35030    1.000
    C90      C        0.33740    0.87130    0.35370    1.000
    C91      C        0.40450    0.89870    0.39920    1.000
    C92      C        0.07160    0.74460    0.32140    1.000
    C93      C        0.00480    0.71660    0.36670    1.000
    C94      C        0.18160    0.48120    0.43630    1.000
    C95      C        0.25120    0.50330    0.39150    1.000
    C96      C        0.24270    0.57680    0.35030    1.000
    C97      C        0.16260    0.62870    0.35370    1.000
    C98      C        0.09550    0.60130    0.39920    1.000
    C99      C        0.75540    0.07160    0.82140    1.000
    C100     C        0.78340    0.00480    0.86670    1.000
    C101     C        0.01880    0.18160    0.93630    1.000
    C102     C        0.99670    0.25120    0.89150    1.000
    C103     C        0.92320    0.24270    0.85030    1.000
    C104     C        0.87130    0.16260    0.85370    1.000
    C105     C        0.89870    0.09550    0.89920    1.000
    C106     C        0.74460    0.42840    0.82140    1.000
    C107     C        0.71660    0.49520    0.86670    1.000
    C108     C        0.48120    0.31840    0.93630    1.000
    C109     C        0.50330    0.24880    0.89150    1.000
    C110     C        0.57680    0.25730    0.85030    1.000
    C111     C        0.62870    0.33740    0.85370    1.000
    C112     C        0.60130    0.40450    0.89920    1.000
    N1       N        0.34960    0.70230    0.81440    1.000
    N2       N        0.48450    0.64460    0.90600    1.000
    N3       N        0.39410    0.52840    0.93970    1.000
    N4       N        0.15040    0.79770    0.81440    1.000
    N5       N        0.01550    0.85540    0.90600    1.000
    N6       N        0.10590    0.97160    0.93970    1.000
    N7       N        0.79770    0.34960    0.31440    1.000
    N8       N        0.85540    0.48450    0.40600    1.000
    N9       N        0.97160    0.39410    0.43970    1.000
    N10      N        0.70230    0.15040    0.31440    1.000
    N11      N        0.64460    0.01550    0.40600    1.000
    N12      N        0.52840    0.10590    0.43970    1.000
    N13      N        0.65040    0.20230    0.68560    1.000
    N14      N        0.51550    0.14460    0.59400    1.000
    N15      N        0.60590    0.02840    0.56030    1.000
    N16      N        0.84960    0.29770    0.68560    1.000
    N17      N        0.98450    0.35540    0.59400    1.000
    N18      N        0.89410    0.47160    0.56030    1.000
    N19      N        0.20230    0.84960    0.18560    1.000
    N20      N        0.14460    0.98450    0.09400    1.000
    N21      N        0.02840    0.89410    0.06030    1.000
    N22      N        0.29770    0.65040    0.18560    1.000
    N23      N        0.35540    0.51550    0.09400    1.000
    N24      N        0.47160    0.60590    0.06030    1.000
    N25      N        0.65040    0.29770    0.18560    1.000
    N26      N        0.51550    0.35540    0.09400    1.000
    N27      N        0.60590    0.47160    0.06030    1.000
    N28      N        0.84960    0.20230    0.18560    1.000
    N29      N        0.98450    0.14460    0.09400    1.000
    N30      N        0.89410    0.02840    0.06030    1.000
    N31      N        0.20230    0.65040    0.68560    1.000
    N32      N        0.14460    0.51550    0.59400    1.000
    N33      N        0.02840    0.60590    0.56030    1.000
    N34      N        0.29770    0.84960    0.68560    1.000
    N35      N        0.35540    0.98450    0.59400    1.000
    N36      N        0.47160    0.89410    0.56030    1.000
    N37      N        0.34960    0.79770    0.31440    1.000
    N38      N        0.48450    0.85540    0.40600    1.000
    N39      N        0.39410    0.97160    0.43970    1.000
    N40      N        0.15040    0.70230    0.31440    1.000
    N41      N        0.01550    0.64460    0.40600    1.000
    N42      N        0.10590    0.52840    0.43970    1.000
    N43      N        0.79770    0.15040    0.81440    1.000
    N44      N        0.85540    0.01550    0.90600    1.000
    N45      N        0.97160    0.10590    0.93970    1.000
    N46      N        0.70230    0.34960    0.81440    1.000
    N47      N        0.64460    0.48450    0.90600    1.000
    N48      N        0.52840    0.39410    0.93970    1.000
    Cl1      Cl       0.75000    0.75000    0.98000    1.000
    O1       O        0.80180    0.69820    0.03060    1.000
    O2       O        0.69820    0.80180    0.03060    1.000
    O3       O        0.80860    0.80860    0.94900    1.000
    O4       O        0.69140    0.69140    0.94900    1.000
    Cl2      Cl       0.75000    0.75000    0.48000    1.000
    O5       O        0.80180    0.80180    0.53060    1.000
    O6       O        0.69820    0.69820    0.53060    1.000
    O7       O        0.69140    0.80860    0.44900    1.000
    O8       O        0.80860    0.69140    0.44900    1.000
    Cl3      Cl       0.25000    0.25000    0.52000    1.000
    O9       O        0.19820    0.19820    0.46940    1.000
    O10      O        0.30180    0.30180    0.46940    1.000
    O11      O        0.19140    0.30860    0.55100    1.000
    O12      O        0.30860    0.19140    0.55100    1.000
    Cl4      Cl       0.25000    0.25000    0.02000    1.000
    O13      O        0.19820    0.30180    0.96940    1.000
    O14      O        0.30180    0.19820    0.96940    1.000
    O15      O        0.30860    0.30860    0.05100    1.000
    O16      O        0.19140    0.19140    0.05100    1.000
    Cl5      Cl       0.48602    0.48602    0.72802    1.000
    O17      O        0.46230    0.57430    0.72940    1.000
    O18      O        0.57430    0.46230    0.72940    1.000
    O19      O        0.45280    0.45280    0.79230    1.000
    O20      O        0.43400    0.43400    0.67880    1.000
    Cl6      Cl       0.01398    0.01398    0.72802    1.000
    O21      O        0.03770    0.92570    0.72940    1.000
    O22      O        0.92570    0.03770    0.72940    1.000
    O23      O        0.04720    0.04720    0.79230    1.000
    O24      O        0.06600    0.06600    0.67880    1.000
    Cl7      Cl       0.01398    0.48602    0.22802    1.000
    O25      O        0.92570    0.46230    0.22940    1.000
    O26      O        0.03770    0.57430    0.22940    1.000
    O27      O        0.04720    0.45280    0.29230    1.000
    O28      O        0.06600    0.43400    0.17880    1.000
    Cl8      Cl       0.48602    0.01398    0.22802    1.000
    O29      O        0.57430    0.03770    0.22940    1.000
    O30      O        0.46230    0.92570    0.22940    1.000
    O31      O        0.45280    0.04720    0.29230    1.000
    O32      O        0.43400    0.06600    0.17880    1.000
    Cl9      Cl       0.51398    0.98602    0.77198    1.000
    O33      O        0.53770    0.07430    0.77060    1.000
    O34      O        0.42570    0.96230    0.77060    1.000
    O35      O        0.54720    0.95280    0.70770    1.000
    O36      O        0.56600    0.93400    0.82120    1.000
    Cl10     Cl       0.98602    0.51398    0.77198    1.000
    O37      O        0.96230    0.42570    0.77060    1.000
    O38      O        0.07430    0.53770    0.77060    1.000
    O39      O        0.95280    0.54720    0.70770    1.000
    O40      O        0.93400    0.56600    0.82120    1.000
    Cl11     Cl       0.98602    0.98602    0.27198    1.000
    O41      O        0.07430    0.96230    0.27060    1.000
    O42      O        0.96230    0.07430    0.27060    1.000
    O43      O        0.95280    0.95280    0.20770    1.000
    O44      O        0.93400    0.93400    0.32120    1.000
    Cl12     Cl       0.51398    0.51398    0.27198    1.000
    O45      O        0.42570    0.53770    0.27060    1.000
    O46      O        0.53770    0.42570    0.27060    1.000
    O47      O        0.54720    0.54720    0.20770    1.000
    O48      O        0.56600    0.56600    0.32120    1.000
