# CIF file generated by openbabel 3.1.0, see https://openbabel.org
data_I
_chemical_name_common 'image0'
_cell_length_a 17.755
_cell_length_b 19.838
_cell_length_c 13.311
_cell_angle_alpha 90
_cell_angle_beta 131.834
_cell_angle_gamma 90
_space_group_name_H-M_alt 'P 1'
_space_group_name_Hall 'P 1'
loop_
    _symmetry_equiv_pos_as_xyz
    x,y,z
loop_
    _atom_site_label
    _atom_site_type_symbol
    _atom_site_fract_x
    _atom_site_fract_y
    _atom_site_fract_z
    _atom_site_occupancy
    La1      La       0.89195    0.26696    0.28394    1.000
    La2      La       0.60805    0.51695    0.21615    1.000
    O1       O        0.58400    0.38880    0.14430    1.000
    H1       H        0.55780    0.38610    0.18030    1.000
    H2       H        0.61030    0.35000    0.14690    1.000
    O2       O        0.43880    0.71250    0.16530    1.000
    O3       O        0.52760    0.61620    0.24000    1.000
    O4       O        0.55620    0.54250    0.82500    1.000
    O5       O        0.60040    0.50535    0.01740    1.000
    O6       O        0.78850    0.36660    0.26030    1.000
    O7       O        0.77280    0.46240    0.33450    1.000
    O8       O        0.08370    0.25510    0.48280    1.000
    O9       O        0.23160    0.29210    0.67510    1.000
    N1       N        0.51420    0.61120    0.02780    1.000
    N2       N        0.98560    0.36110    0.47130    1.000
    C1       C        0.47940    0.66380    0.15650    1.000
    C2       C        0.46950    0.66300    0.03470    1.000
    C3       C        0.41670    0.71300    0.93540    1.000
    H3       H        0.38390    0.74750    0.94040    1.000
    C4       C        0.41450    0.70960    0.82940    1.000
    H4       H        0.38090    0.74250    0.76250    1.000
    C5       C        0.46280    0.65690    0.82390    1.000
    H5       H        0.46380    0.65440    0.75510    1.000
    C6       C        0.50960    0.60780    0.92350    1.000
    C7       C        0.55960    0.54680    0.92160    1.000
    C8       C        0.82320    0.41400    0.34370    1.000
    C9       C        0.93480    0.41290    0.46560    1.000
    C10      C        0.98120    0.46310    0.56390    1.000
    H6       H        0.94320    0.49760    0.55860    1.000
    C11      C        0.08470    0.46060    0.66940    1.000
    H7       H        0.11780    0.49400    0.73510    1.000
    C12      C        0.13900    0.40700    0.67580    1.000
    H8       H        0.20880    0.40430    0.74530    1.000
    C13      C        0.08630    0.35790    0.57600    1.000
    C14      C        0.13780    0.29680    0.57800    1.000
    La3      La       0.39195    0.76696    0.28394    1.000
    La4      La       0.10805    0.01695    0.21615    1.000
    O10      O        0.08400    0.88880    0.14430    1.000
    H9       H        0.05780    0.88610    0.18030    1.000
    H10      H        0.11030    0.85000    0.14690    1.000
    O11      O        0.93880    0.21250    0.16530    1.000
    O12      O        0.02760    0.11620    0.24000    1.000
    O13      O        0.05620    0.04250    0.82500    1.000
    O14      O        0.10040    0.00535    0.01740    1.000
    O15      O        0.28850    0.86660    0.26030    1.000
    O16      O        0.27280    0.96240    0.33450    1.000
    O17      O        0.58370    0.75510    0.48280    1.000
    O18      O        0.73160    0.79210    0.67510    1.000
    N3       N        0.01420    0.11120    0.02780    1.000
    N4       N        0.48560    0.86110    0.47130    1.000
    C15      C        0.97940    0.16380    0.15650    1.000
    C16      C        0.96950    0.16300    0.03470    1.000
    C17      C        0.91670    0.21300    0.93540    1.000
    H11      H        0.88390    0.24750    0.94040    1.000
    C18      C        0.91450    0.20960    0.82940    1.000
    H12      H        0.88090    0.24250    0.76250    1.000
    C19      C        0.96280    0.15690    0.82390    1.000
    H13      H        0.96380    0.15440    0.75510    1.000
    C20      C        0.00960    0.10780    0.92350    1.000
    C21      C        0.05960    0.04680    0.92160    1.000
    C22      C        0.32320    0.91400    0.34370    1.000
    C23      C        0.43480    0.91290    0.46560    1.000
    C24      C        0.48120    0.96310    0.56390    1.000
    H14      H        0.44320    0.99760    0.55860    1.000
    C25      C        0.58470    0.96060    0.66940    1.000
    H15      H        0.61780    0.99400    0.73510    1.000
    C26      C        0.63900    0.90700    0.67580    1.000
    H16      H        0.70880    0.90430    0.74530    1.000
    C27      C        0.58630    0.85790    0.57600    1.000
    C28      C        0.63780    0.79680    0.57800    1.000
    La5      La       0.89195    0.73304    0.78394    1.000
    La6      La       0.60805    0.48305    0.71615    1.000
    O19      O        0.58400    0.61120    0.64430    1.000
    H17      H        0.55780    0.61390    0.68030    1.000
    H18      H        0.61030    0.65000    0.64690    1.000
    O20      O        0.43880    0.28750    0.66530    1.000
    O21      O        0.52760    0.38380    0.74000    1.000
    O22      O        0.55620    0.45750    0.32500    1.000
    O23      O        0.60040    0.49465    0.51740    1.000
    O24      O        0.78850    0.63340    0.76030    1.000
    O25      O        0.77280    0.53760    0.83450    1.000
    O26      O        0.08370    0.74490    0.98280    1.000
    O27      O        0.23160    0.70790    0.17510    1.000
    N5       N        0.51420    0.38880    0.52780    1.000
    N6       N        0.98560    0.63890    0.97130    1.000
    C29      C        0.47940    0.33620    0.65650    1.000
    C30      C        0.46950    0.33700    0.53470    1.000
    C31      C        0.41670    0.28700    0.43540    1.000
    H19      H        0.38390    0.25250    0.44040    1.000
    C32      C        0.41450    0.29040    0.32940    1.000
    H20      H        0.38090    0.25750    0.26250    1.000
    C33      C        0.46280    0.34310    0.32390    1.000
    H21      H        0.46380    0.34560    0.25510    1.000
    C34      C        0.50960    0.39220    0.42350    1.000
    C35      C        0.55960    0.45320    0.42160    1.000
    C36      C        0.82320    0.58600    0.84370    1.000
    C37      C        0.93480    0.58710    0.96560    1.000
    C38      C        0.98120    0.53690    0.06390    1.000
    H22      H        0.94320    0.50240    0.05860    1.000
    C39      C        0.08470    0.53940    0.16940    1.000
    H23      H        0.11780    0.50600    0.23510    1.000
    C40      C        0.13900    0.59300    0.17580    1.000
    H24      H        0.20880    0.59570    0.24530    1.000
    C41      C        0.08630    0.64210    0.07600    1.000
    C42      C        0.13780    0.70320    0.07800    1.000
    La7      La       0.39195    0.23304    0.78394    1.000
    La8      La       0.10805    0.98305    0.71615    1.000
    O28      O        0.08400    0.11120    0.64430    1.000
    H25      H        0.05780    0.11390    0.68030    1.000
    H26      H        0.11030    0.15000    0.64690    1.000
    O29      O        0.93880    0.78750    0.66530    1.000
    O30      O        0.02760    0.88380    0.74000    1.000
    O31      O        0.05620    0.95750    0.32500    1.000
    O32      O        0.10040    0.99465    0.51740    1.000
    O33      O        0.28850    0.13340    0.76030    1.000
    O34      O        0.27280    0.03760    0.83450    1.000
    O35      O        0.58370    0.24490    0.98280    1.000
    O36      O        0.73160    0.20790    0.17510    1.000
    N7       N        0.01420    0.88880    0.52780    1.000
    N8       N        0.48560    0.13890    0.97130    1.000
    C43      C        0.97940    0.83620    0.65650    1.000
    C44      C        0.96950    0.83700    0.53470    1.000
    C45      C        0.91670    0.78700    0.43540    1.000
    H27      H        0.88390    0.75250    0.44040    1.000
    C46      C        0.91450    0.79040    0.32940    1.000
    H28      H        0.88090    0.75750    0.26250    1.000
    C47      C        0.96280    0.84310    0.32390    1.000
    H29      H        0.96380    0.84560    0.25510    1.000
    C48      C        0.00960    0.89220    0.42350    1.000
    C49      C        0.05960    0.95320    0.42160    1.000
    C50      C        0.32320    0.08600    0.84370    1.000
    C51      C        0.43480    0.08710    0.96560    1.000
    C52      C        0.48120    0.03690    0.06390    1.000
    H30      H        0.44320    0.00240    0.05860    1.000
    C53      C        0.58470    0.03940    0.16940    1.000
    H31      H        0.61780    0.00600    0.23510    1.000
    C54      C        0.63900    0.09300    0.17580    1.000
    H32      H        0.70880    0.09570    0.24530    1.000
    C55      C        0.58630    0.14210    0.07600    1.000
    C56      C        0.63780    0.20320    0.07800    1.000
