data_functionalizedCrystal
_audit_creation_method	'EQeq! by Chris Wilmer'
_symmetry_space_group_name_H-M	'P1'
_symmetry_Int_Tables_number	1
_symmetry_cell_setting	triclinic
loop_
_symmetry_equiv_pos_as_xyz
  x,y,z
_cell_length_a	11.6671
_cell_length_b	11.6671
_cell_length_c	20.9869
_cell_angle_alpha	95.8566
_cell_angle_beta	95.8566
_cell_angle_gamma	104.276
loop_
_atom_site_label
_atom_site_type_symbol
_atom_site_fract_x
_atom_site_fract_y
_atom_site_fract_z
_atom_site_charge
Mof_Mn	Mn	0.52093	0.03203	0.81289	0.795
Mof_Mn	Mn	0.96797	0.47907	0.68711	0.795
Mof_Mn	Mn	0.47907	0.96797	0.18711	0.794
Mof_Mn	Mn	0.03203	0.52093	0.31289	0.794
Mof_Mn	Mn	0.75207	0.24793	0.75	1.011
Mof_Mn	Mn	0.24793	0.75207	0.25	1.011
Mof_H 	H 	0.6477	0.0373	0.6083	0.06
Mof_H 	H 	0.3036	0.0362	0.6063	0.04
Mof_H 	H 	0.2754	0.0062	0.496	0.068
Mof_H 	H 	0.7367	0.5015	0.9157	0.041
Mof_H 	H 	0.7201	0.6305	0.002	0.063
Mof_H 	H 	0.403	0.306	0.9172	0.051
Mof_H 	H 	0.9998	0.2244	0.5285	0.048
Mof_H 	H 	0.8886	0.9802	0.6442	0.035
Mof_H 	H 	0.9295	0.8367	0.575	0.059
Mof_H 	H 	0.9627	0.3523	0.8917	0.06
Mof_H 	H 	0.9638	0.6964	0.8937	0.041
Mof_H 	H 	0.9938	0.7246	0.004	0.066
Mof_H 	H 	0.4985	0.2633	0.5843	0.04
Mof_H 	H 	0.3695	0.2799	0.498	0.063
Mof_H 	H 	0.694	0.597	0.5828	0.051
Mof_H 	H 	0.7756	0.0002	0.9715	0.048
Mof_H 	H 	0.0198	0.1114	0.8558	0.034
Mof_H 	H 	0.1633	0.0705	0.925	0.059
Mof_H 	H 	0.3523	0.9627	0.3917	0.06
Mof_H 	H 	0.6964	0.9638	0.3937	0.04
Mof_H 	H 	0.7246	0.9938	0.504	0.068
Mof_H 	H 	0.2633	0.4985	0.0843	0.041
Mof_H 	H 	0.2799	0.3695	0.998	0.063
Mof_H 	H 	0.597	0.694	0.0828	0.051
Mof_H 	H 	0.0002	0.7756	0.4715	0.048
Mof_H 	H 	0.1114	0.0198	0.3558	0.035
Mof_H 	H 	0.0705	0.1633	0.425	0.059
Mof_H 	H 	0.0373	0.6477	0.1083	0.06
Mof_H 	H 	0.0362	0.3036	0.1063	0.041
Mof_H 	H 	0.0062	0.2754	0.996	0.066
Mof_H 	H 	0.5015	0.7367	0.4157	0.04
Mof_H 	H 	0.6305	0.7201	0.502	0.063
Mof_H 	H 	0.306	0.403	0.4172	0.051
Mof_H 	H 	0.2244	0.9998	0.0285	0.048
Mof_H 	H 	0.9802	0.8886	0.1442	0.034
Mof_H 	H 	0.8367	0.9295	0.075	0.059
Mof_C 	C 	0.49538	0.0517	0.69048	0.331
Mof_C 	C 	0.48072	0.03866	0.61818	-0.077
Mof_C 	C 	0.57278	0.02848	0.58549	-0.044
Mof_C 	C 	0.55719	0.00475	0.51726	0.027
Mof_C 	C 	0.36679	0.02921	0.58386	0.007
Mof_C 	C 	0.3498	0.00984	0.51806	-0.094
Mof_C 	C 	0.5854	0.30146	0.85438	0.384
Mof_C 	C 	0.57048	0.38942	0.90863	-0.093
Mof_C 	C 	0.66599	0.48861	0.93399	0.016
Mof_C 	C 	0.65582	0.56618	0.9852	-0.092
Mof_C 	C 	0.46598	0.3713	0.93438	-0.034
Mof_C 	C 	0.45179	0.45053	0.98704	0.022
Mof_C 	C 	0.91032	0.21166	0.63845	0.387
Mof_C 	C 	0.94063	0.11827	0.59277	-0.098
Mof_C 	C 	0.98536	0.14606	0.53741	-0.032
Mof_C 	C 	0.0105	0.05882	0.49292	0.02
Mof_C 	C 	0.91941	5e-05	0.60645	0.018
Mof_C 	C 	0.94353	0.91435	0.56502	-0.096
Mof_C 	C 	0.9483	0.50462	0.80952	0.331
Mof_C 	C 	0.96134	0.51928	0.88182	-0.076
Mof_C 	C 	0.97152	0.42722	0.91451	-0.044
Mof_C 	C 	0.99525	0.44281	0.98274	0.027
Mof_C 	C 	0.97079	0.63321	0.91614	0.006
Mof_C 	C 	0.99016	0.6502	0.98194	-0.091
Mof_C 	C 	0.69854	0.4146	0.64562	0.384
Mof_C 	C 	0.61058	0.42952	0.59137	-0.093
Mof_C 	C 	0.51139	0.33401	0.56601	0.017
Mof_C 	C 	0.43382	0.34418	0.5148	-0.093
Mof_C 	C 	0.6287	0.53402	0.56562	-0.034
Mof_C 	C 	0.54947	0.54821	0.51296	0.022
Mof_C 	C 	0.78834	0.08968	0.86155	0.387
Mof_C 	C 	0.88173	0.05937	0.90723	-0.1
Mof_C 	C 	0.85394	0.01464	0.96259	-0.03
Mof_C 	C 	0.94118	0.9895	0.00708	0.02
Mof_C 	C 	0.99995	0.08059	0.89355	0.021
Mof_C 	C 	0.08565	0.05647	0.93498	-0.098
Mof_C 	C 	0.50462	0.9483	0.30952	0.331
Mof_C 	C 	0.51928	0.96134	0.38182	-0.077
Mof_C 	C 	0.42722	0.97152	0.41451	-0.044
Mof_C 	C 	0.44281	0.99525	0.48274	0.027
Mof_C 	C 	0.63321	0.97079	0.41614	0.007
Mof_C 	C 	0.6502	0.99016	0.48194	-0.094
Mof_C 	C 	0.4146	0.69854	0.14562	0.384
Mof_C 	C 	0.42952	0.61058	0.09137	-0.093
Mof_C 	C 	0.33401	0.51139	0.06601	0.016
Mof_C 	C 	0.34418	0.43382	0.0148	-0.092
Mof_C 	C 	0.53402	0.6287	0.06562	-0.034
Mof_C 	C 	0.54821	0.54947	0.01296	0.022
Mof_C 	C 	0.08968	0.78834	0.36155	0.387
Mof_C 	C 	0.05937	0.88173	0.40723	-0.098
Mof_C 	C 	0.01464	0.85394	0.46259	-0.032
Mof_C 	C 	0.9895	0.94118	0.50708	0.02
Mof_C 	C 	0.08059	0.99995	0.39355	0.018
Mof_C 	C 	0.05647	0.08565	0.43498	-0.096
Mof_C 	C 	0.0517	0.49538	0.19048	0.331
Mof_C 	C 	0.03866	0.48072	0.11818	-0.076
Mof_C 	C 	0.02848	0.57278	0.08549	-0.044
Mof_C 	C 	0.00475	0.55719	0.01726	0.027
Mof_C 	C 	0.02921	0.36679	0.08386	0.006
Mof_C 	C 	0.00984	0.3498	0.01806	-0.091
Mof_C 	C 	0.30146	0.5854	0.35438	0.384
Mof_C 	C 	0.38942	0.57048	0.40863	-0.093
Mof_C 	C 	0.48861	0.66599	0.43399	0.017
Mof_C 	C 	0.56618	0.65582	0.4852	-0.093
Mof_C 	C 	0.3713	0.46598	0.43438	-0.034
Mof_C 	C 	0.45053	0.45179	0.48704	0.022
Mof_C 	C 	0.21166	0.91032	0.13845	0.387
Mof_C 	C 	0.11827	0.94063	0.09277	-0.1
Mof_C 	C 	0.14606	0.98536	0.03741	-0.03
Mof_C 	C 	0.05882	0.0105	0.99292	0.02
Mof_C 	C 	5e-05	0.91941	0.10645	0.021
Mof_C 	C 	0.91435	0.94353	0.06502	-0.098
Mof_O 	O 	0.60035	0.08687	0.72176	-0.411
Mof_O 	O 	0.40607	0.02089	0.71835	-0.351
Mof_O 	O 	0.67237	0.33121	0.82439	-0.382
Mof_O 	O 	0.5076	0.2034	0.84405	-0.388
Mof_O 	O 	0.85093	0.17607	0.68158	-0.383
Mof_O 	O 	0.94784	0.31786	0.62836	-0.403
Mof_O 	O 	0.91313	0.39965	0.77824	-0.41
Mof_O 	O 	0.97911	0.59393	0.78165	-0.351
Mof_O 	O 	0.66879	0.32763	0.67561	-0.382
Mof_O 	O 	0.7966	0.4924	0.65595	-0.388
Mof_O 	O 	0.82393	0.14907	0.81842	-0.383
Mof_O 	O 	0.68214	0.05216	0.87164	-0.403
Mof_O 	O 	0.39965	0.91313	0.27824	-0.411
Mof_O 	O 	0.59393	0.97911	0.28165	-0.351
Mof_O 	O 	0.32763	0.66879	0.17561	-0.382
Mof_O 	O 	0.4924	0.7966	0.15595	-0.388
Mof_O 	O 	0.14907	0.82393	0.31842	-0.383
Mof_O 	O 	0.05216	0.68214	0.37164	-0.403
Mof_O 	O 	0.08687	0.60035	0.22176	-0.41
Mof_O 	O 	0.02089	0.40607	0.21835	-0.351
Mof_O 	O 	0.33121	0.67237	0.32439	-0.382
Mof_O 	O 	0.2034	0.5076	0.34405	-0.388
Mof_O 	O 	0.17607	0.85093	0.18158	-0.383
Mof_O 	O 	0.31786	0.94784	0.12836	-0.403
_end
