# CIF file generated by openbabel 3.1.0, see https://openbabel.org
data_I
_chemical_name_common 'image0'
_cell_length_a 11.804
_cell_length_b 24.81
_cell_length_c 15.672
_cell_angle_alpha 90
_cell_angle_beta 96.269
_cell_angle_gamma 90
_space_group_name_H-M_alt 'P 1'
_space_group_name_Hall 'P 1'
loop_
    _symmetry_equiv_pos_as_xyz
    x,y,z
loop_
    _atom_site_label
    _atom_site_type_symbol
    _atom_site_fract_x
    _atom_site_fract_y
    _atom_site_fract_z
    _atom_site_occupancy
    Zn1      Zn       0.08714    0.33314    0.99298    1.000
    C1       C        0.98780    0.37429    0.82790    1.000
    C2       C        0.02350    0.37345    0.73940    1.000
    H1       H        0.07290    0.40420    0.73350    1.000
    H2       H        0.06860    0.34120    0.73360    1.000
    C3       C        0.87970    0.60919    0.84890    1.000
    C4       C        0.89900    0.55866    0.79970    1.000
    H3       H        0.98020    0.55290    0.79930    1.000
    H4       H        0.86810    0.52810    0.82810    1.000
    C5       C        0.85050    0.51629    0.66600    1.000
    C6       C        0.89660    0.46827    0.69680    1.000
    H5       H        0.93000    0.46580    0.75320    1.000
    C7       C        0.89320    0.42370    0.64350    1.000
    C8       C        0.84350    0.42611    0.55966    1.000
    C9       C        0.79860    0.47568    0.53058    1.000
    H6       H        0.76530    0.47830    0.47420    1.000
    C10      C        0.80160    0.52123    0.58222    1.000
    C11      C        0.75430    0.57505    0.55034    1.000
    H7       H        0.70710    0.58810    0.59370    1.000
    C12      C        0.67750    0.57317    0.46630    1.000
    C13      C        0.56360    0.56049    0.46610    1.000
    H8       H        0.53580    0.55140    0.51750    1.000
    C14      C        0.49000    0.56094    0.39140    1.000
    H9       H        0.41380    0.55220    0.39350    1.000
    C15      C        0.52720    0.57401    0.31400    1.000
    C16      C        0.64060    0.58560    0.31460    1.000
    H10      H        0.66870    0.59380    0.26300    1.000
    C17      C        0.71410    0.58547    0.38870    1.000
    H11      H        0.79050    0.59390    0.38620    1.000
    C18      C        0.44660    0.57540    0.23220    1.000
    H12      H        0.37130    0.56590    0.24460    1.000
    H13      H        0.47180    0.55030    0.19180    1.000
    H14      H        0.44550    0.61110    0.20830    1.000
    C19      C        0.57330    0.75322    0.53420    1.000
    C20      C        0.18160    0.81815    0.52210    1.000
    C21      C        0.65470    0.71331    0.50260    1.000
    H15      H        0.61240    0.68690    0.46630    1.000
    H16      H        0.70620    0.73180    0.46830    1.000
    C22      C        0.07740    0.78472    0.53130    1.000
    H17      H        0.05130    0.79140    0.58690    1.000
    H18      H        0.01680    0.79490    0.48740    1.000
    C23      C        0.01530    0.69415    0.52990    1.000
    C24      C        0.90800    0.70946    0.54720    1.000
    H19      H        0.89090    0.74570    0.55400    1.000
    C25      C        0.82560    0.67038    0.55430    1.000
    C26      C        0.84860    0.61647    0.54604    1.000
    C27      C        0.95730    0.60258    0.52761    1.000
    H20      H        0.97380    0.56630    0.52080    1.000
    C28      C        0.04190    0.63978    0.51888    1.000
    C29      C        0.16010    0.62490    0.49580    1.000
    C30      C        0.24740    0.62009    0.57330    1.000
    C31      C        0.22800    0.59217    0.64650    1.000
    H21      H        0.15520    0.57960    0.65270    1.000
    C32      C        0.31500    0.58280    0.71000    1.000
    H22      H        0.30010    0.56330    0.75820    1.000
    C33      C        0.42290    0.60130    0.70460    1.000
    C34      C        0.44170    0.63088    0.63440    1.000
    H23      H        0.51380    0.64510    0.63010    1.000
    C35      C        0.35510    0.64014    0.56930    1.000
    H24      H        0.37010    0.66040    0.52180    1.000
    C36      C        0.51940    0.58820    0.77400    1.000
    H25      H        0.58860    0.60460    0.75980    1.000
    H26      H        0.52930    0.54990    0.77780    1.000
    H27      H        0.50120    0.60190    0.82810    1.000
    O1       O        0.07350    0.37196    0.88474    1.000
    O2       O        0.88850    0.37849    0.83993    1.000
    O3       O        0.91610    0.60504    0.92876    1.000
    O4       O        0.83520    0.64879    0.81599    1.000
    O5       O        0.93630    0.37461    0.67107    1.000
    O6       O        0.84780    0.56167    0.71588    1.000
    O7       O        0.56210    0.75837    0.61028    1.000
    O8       O        0.51830    0.77991    0.47364    1.000
    O9       O        0.16850    0.86733    0.52790    1.000
    O10      O        0.26990    0.79485    0.50847    1.000
    O11      O        0.71841    0.68679    0.57216    1.000
    O12      O        0.10216    0.72972    0.52334    1.000
    Zn2      Zn       0.41286    0.83314    0.50702    1.000
    C37      C        0.51220    0.87429    0.67210    1.000
    C38      C        0.47650    0.87345    0.76060    1.000
    H28      H        0.42710    0.90420    0.76650    1.000
    H29      H        0.43140    0.84120    0.76640    1.000
    C39      C        0.62030    0.10919    0.65110    1.000
    C40      C        0.60100    0.05866    0.70030    1.000
    H30      H        0.51980    0.05290    0.70070    1.000
    H31      H        0.63190    0.02810    0.67190    1.000
    C41      C        0.64950    0.01629    0.83400    1.000
    C42      C        0.60340    0.96827    0.80320    1.000
    H32      H        0.57000    0.96580    0.74680    1.000
    C43      C        0.60680    0.92370    0.85650    1.000
    C44      C        0.65650    0.92611    0.94034    1.000
    C45      C        0.70140    0.97568    0.96942    1.000
    H33      H        0.73470    0.97830    0.02580    1.000
    C46      C        0.69840    0.02123    0.91778    1.000
    C47      C        0.74570    0.07505    0.94966    1.000
    H34      H        0.79290    0.08810    0.90630    1.000
    C48      C        0.82250    0.07317    0.03370    1.000
    C49      C        0.93640    0.06049    0.03390    1.000
    H35      H        0.96420    0.05140    0.98250    1.000
    C50      C        0.01000    0.06094    0.10860    1.000
    H36      H        0.08620    0.05220    0.10650    1.000
    C51      C        0.97280    0.07401    0.18600    1.000
    C52      C        0.85940    0.08560    0.18540    1.000
    H37      H        0.83130    0.09380    0.23700    1.000
    C53      C        0.78590    0.08547    0.11130    1.000
    H38      H        0.70950    0.09390    0.11380    1.000
    C54      C        0.05340    0.07540    0.26780    1.000
    H39      H        0.12870    0.06590    0.25540    1.000
    H40      H        0.02820    0.05030    0.30820    1.000
    H41      H        0.05450    0.11110    0.29170    1.000
    C55      C        0.92670    0.25322    0.96580    1.000
    C56      C        0.31840    0.31815    0.97790    1.000
    C57      C        0.84530    0.21331    0.99740    1.000
    H42      H        0.88760    0.18690    0.03370    1.000
    H43      H        0.79380    0.23180    0.03170    1.000
    C58      C        0.42260    0.28472    0.96870    1.000
    H44      H        0.44870    0.29140    0.91310    1.000
    H45      H        0.48320    0.29490    0.01260    1.000
    C59      C        0.48470    0.19415    0.97010    1.000
    C60      C        0.59200    0.20946    0.95280    1.000
    H46      H        0.60910    0.24570    0.94600    1.000
    C61      C        0.67440    0.17038    0.94570    1.000
    C62      C        0.65140    0.11647    0.95396    1.000
    C63      C        0.54270    0.10258    0.97239    1.000
    H47      H        0.52620    0.06630    0.97920    1.000
    C64      C        0.45810    0.13978    0.98112    1.000
    C65      C        0.33990    0.12490    0.00420    1.000
    C66      C        0.25260    0.12009    0.92670    1.000
    C67      C        0.27200    0.09217    0.85350    1.000
    H48      H        0.34480    0.07960    0.84730    1.000
    C68      C        0.18500    0.08280    0.79000    1.000
    H49      H        0.19990    0.06330    0.74180    1.000
    C69      C        0.07710    0.10130    0.79540    1.000
    C70      C        0.05830    0.13088    0.86560    1.000
    H50      H        0.98620    0.14510    0.86990    1.000
    C71      C        0.14490    0.14014    0.93070    1.000
    H51      H        0.12990    0.16040    0.97820    1.000
    C72      C        0.98060    0.08820    0.72600    1.000
    H52      H        0.91140    0.10460    0.74020    1.000
    H53      H        0.97070    0.04990    0.72220    1.000
    H54      H        0.99880    0.10190    0.67190    1.000
    O13      O        0.42650    0.87196    0.61526    1.000
    O14      O        0.61150    0.87849    0.66007    1.000
    O15      O        0.58390    0.10504    0.57124    1.000
    O16      O        0.66480    0.14879    0.68401    1.000
    O17      O        0.56370    0.87461    0.82893    1.000
    O18      O        0.65220    0.06167    0.78412    1.000
    O19      O        0.93790    0.25837    0.88972    1.000
    O20      O        0.98170    0.27991    0.02636    1.000
    O21      O        0.33150    0.36733    0.97210    1.000
    O22      O        0.23010    0.29485    0.99153    1.000
    O23      O        0.78159    0.18679    0.92784    1.000
    O24      O        0.39784    0.22972    0.97666    1.000
    Zn3      Zn       0.91286    0.66686    0.00702    1.000
    C73      C        0.01220    0.62571    0.17210    1.000
    C74      C        0.97650    0.62655    0.26060    1.000
    H55      H        0.92710    0.59580    0.26650    1.000
    H56      H        0.93140    0.65880    0.26640    1.000
    C75      C        0.12030    0.39081    0.15110    1.000
    C76      C        0.10100    0.44134    0.20030    1.000
    H57      H        0.01980    0.44710    0.20070    1.000
    H58      H        0.13190    0.47190    0.17190    1.000
    C77      C        0.14950    0.48371    0.33400    1.000
    C78      C        0.10340    0.53173    0.30320    1.000
    H59      H        0.07000    0.53420    0.24680    1.000
    C79      C        0.10680    0.57630    0.35650    1.000
    C80      C        0.15650    0.57389    0.44034    1.000
    C81      C        0.20140    0.52432    0.46942    1.000
    H60      H        0.23470    0.52170    0.52580    1.000
    C82      C        0.19840    0.47877    0.41778    1.000
    C83      C        0.24570    0.42495    0.44966    1.000
    H61      H        0.29290    0.41190    0.40630    1.000
    C84      C        0.32250    0.42683    0.53370    1.000
    C85      C        0.43640    0.43951    0.53390    1.000
    H62      H        0.46420    0.44860    0.48250    1.000
    C86      C        0.51000    0.43906    0.60860    1.000
    H63      H        0.58620    0.44780    0.60650    1.000
    C87      C        0.47280    0.42599    0.68600    1.000
    C88      C        0.35940    0.41440    0.68540    1.000
    H64      H        0.33130    0.40620    0.73700    1.000
    C89      C        0.28590    0.41453    0.61130    1.000
    H65      H        0.20950    0.40610    0.61380    1.000
    C90      C        0.55340    0.42460    0.76780    1.000
    H66      H        0.62870    0.43410    0.75540    1.000
    H67      H        0.52820    0.44970    0.80820    1.000
    H68      H        0.55450    0.38890    0.79170    1.000
    C91      C        0.42670    0.24678    0.46580    1.000
    C92      C        0.81840    0.18185    0.47790    1.000
    C93      C        0.34530    0.28669    0.49740    1.000
    H69      H        0.38760    0.31310    0.53370    1.000
    H70      H        0.29380    0.26820    0.53170    1.000
    C94      C        0.92260    0.21528    0.46870    1.000
    H71      H        0.94870    0.20860    0.41310    1.000
    H72      H        0.98320    0.20510    0.51260    1.000
    C95      C        0.98470    0.30585    0.47010    1.000
    C96      C        0.09200    0.29054    0.45280    1.000
    H73      H        0.10910    0.25430    0.44600    1.000
    C97      C        0.17440    0.32962    0.44570    1.000
    C98      C        0.15140    0.38353    0.45396    1.000
    C99      C        0.04270    0.39742    0.47239    1.000
    H74      H        0.02620    0.43370    0.47920    1.000
    C100     C        0.95810    0.36022    0.48112    1.000
    C101     C        0.83990    0.37510    0.50420    1.000
    C102     C        0.75260    0.37991    0.42670    1.000
    C103     C        0.77200    0.40783    0.35350    1.000
    H75      H        0.84480    0.42040    0.34730    1.000
    C104     C        0.68500    0.41720    0.29000    1.000
    H76      H        0.69990    0.43670    0.24180    1.000
    C105     C        0.57710    0.39870    0.29540    1.000
    C106     C        0.55830    0.36912    0.36560    1.000
    H77      H        0.48620    0.35490    0.36990    1.000
    C107     C        0.64490    0.35986    0.43070    1.000
    H78      H        0.62990    0.33960    0.47820    1.000
    C108     C        0.48060    0.41180    0.22600    1.000
    H79      H        0.41140    0.39540    0.24020    1.000
    H80      H        0.47070    0.45010    0.22220    1.000
    H81      H        0.49880    0.39810    0.17190    1.000
    O25      O        0.92650    0.62804    0.11526    1.000
    O26      O        0.11150    0.62151    0.16007    1.000
    O27      O        0.08390    0.39496    0.07124    1.000
    O28      O        0.16480    0.35121    0.18401    1.000
    O29      O        0.06370    0.62539    0.32893    1.000
    O30      O        0.15220    0.43833    0.28412    1.000
    O31      O        0.43790    0.24163    0.38972    1.000
    O32      O        0.48170    0.22009    0.52636    1.000
    O33      O        0.83150    0.13267    0.47210    1.000
    O34      O        0.73010    0.20515    0.49153    1.000
    O35      O        0.28159    0.31321    0.42784    1.000
    O36      O        0.89784    0.27028    0.47666    1.000
    Zn4      Zn       0.58714    0.16686    0.49298    1.000
    C109     C        0.48780    0.12571    0.32790    1.000
    C110     C        0.52350    0.12655    0.23940    1.000
    H82      H        0.57290    0.09580    0.23350    1.000
    H83      H        0.56860    0.15880    0.23360    1.000
    C111     C        0.37970    0.89081    0.34890    1.000
    C112     C        0.39900    0.94134    0.29970    1.000
    H84      H        0.48020    0.94710    0.29930    1.000
    H85      H        0.36810    0.97190    0.32810    1.000
    C113     C        0.35050    0.98371    0.16600    1.000
    C114     C        0.39660    0.03173    0.19680    1.000
    H86      H        0.43000    0.03420    0.25320    1.000
    C115     C        0.39320    0.07630    0.14350    1.000
    C116     C        0.34350    0.07389    0.05966    1.000
    C117     C        0.29860    0.02432    0.03058    1.000
    H87      H        0.26530    0.02170    0.97420    1.000
    C118     C        0.30160    0.97877    0.08222    1.000
    C119     C        0.25430    0.92495    0.05034    1.000
    H88      H        0.20710    0.91190    0.09370    1.000
    C120     C        0.17750    0.92683    0.96630    1.000
    C121     C        0.06360    0.93951    0.96610    1.000
    H89      H        0.03580    0.94860    0.01750    1.000
    C122     C        0.99000    0.93906    0.89140    1.000
    H90      H        0.91380    0.94780    0.89350    1.000
    C123     C        0.02720    0.92599    0.81400    1.000
    C124     C        0.14060    0.91440    0.81460    1.000
    H91      H        0.16870    0.90620    0.76300    1.000
    C125     C        0.21410    0.91453    0.88870    1.000
    H92      H        0.29050    0.90610    0.88620    1.000
    C126     C        0.94660    0.92460    0.73220    1.000
    H93      H        0.87130    0.93410    0.74460    1.000
    H94      H        0.97180    0.94970    0.69180    1.000
    H95      H        0.94550    0.88890    0.70830    1.000
    C127     C        0.07330    0.74678    0.03420    1.000
    C128     C        0.68160    0.68185    0.02210    1.000
    C129     C        0.15470    0.78669    0.00260    1.000
    H96      H        0.11240    0.81310    0.96630    1.000
    H97      H        0.20620    0.76820    0.96830    1.000
    C130     C        0.57740    0.71528    0.03130    1.000
    H98      H        0.55130    0.70860    0.08690    1.000
    H99      H        0.51680    0.70510    0.98740    1.000
    C131     C        0.51530    0.80585    0.02990    1.000
    C132     C        0.40800    0.79054    0.04720    1.000
    H100     H        0.39090    0.75430    0.05400    1.000
    C133     C        0.32560    0.82962    0.05430    1.000
    C134     C        0.34860    0.88353    0.04604    1.000
    C135     C        0.45730    0.89742    0.02761    1.000
    H101     H        0.47380    0.93370    0.02080    1.000
    C136     C        0.54190    0.86022    0.01888    1.000
    C137     C        0.66010    0.87510    0.99580    1.000
    C138     C        0.74740    0.87991    0.07330    1.000
    C139     C        0.72800    0.90783    0.14650    1.000
    H102     H        0.65520    0.92040    0.15270    1.000
    C140     C        0.81500    0.91720    0.21000    1.000
    H103     H        0.80010    0.93670    0.25820    1.000
    C141     C        0.92290    0.89870    0.20460    1.000
    C142     C        0.94170    0.86912    0.13440    1.000
    H104     H        0.01380    0.85490    0.13010    1.000
    C143     C        0.85510    0.85986    0.06930    1.000
    H105     H        0.87010    0.83960    0.02180    1.000
    C144     C        0.01940    0.91180    0.27400    1.000
    H106     H        0.08860    0.89540    0.25980    1.000
    H107     H        0.02930    0.95010    0.27780    1.000
    H108     H        0.00120    0.89810    0.32810    1.000
    O37      O        0.57350    0.12804    0.38474    1.000
    O38      O        0.38850    0.12151    0.33993    1.000
    O39      O        0.41610    0.89496    0.42876    1.000
    O40      O        0.33520    0.85121    0.31599    1.000
    O41      O        0.43630    0.12539    0.17107    1.000
    O42      O        0.34780    0.93833    0.21588    1.000
    O43      O        0.06210    0.74163    0.11028    1.000
    O44      O        0.01830    0.72009    0.97364    1.000
    O45      O        0.66850    0.63267    0.02790    1.000
    O46      O        0.76990    0.70515    0.00847    1.000
    O47      O        0.21841    0.81321    0.07216    1.000
    O48      O        0.60216    0.77028    0.02334    1.000
