# CIF file generated by openbabel 3.1.0, see https://openbabel.org
data_I
_chemical_name_common 'ERUFUS_clean'
_cell_length_a 7.358
_cell_length_b 9.997
_cell_length_c 15.0578
_cell_angle_alpha 109.387
_cell_angle_beta 98.498
_cell_angle_gamma 90
_space_group_name_H-M_alt 'P 1'
_space_group_name_Hall 'P 1'
loop_
    _symmetry_equiv_pos_as_xyz
    x,y,z
loop_
    _atom_site_label
    _atom_site_type_symbol
    _atom_site_fract_x
    _atom_site_fract_y
    _atom_site_fract_z
    _atom_site_occupancy
    Cd1      Cd       0.00000    0.50000    0.50000    1.000
    Cd2      Cd       0.50000    0.00000    0.50000    1.000
    H1       H        0.82380    0.47440    0.67640    1.000
    H2       H        0.75970    0.59490    0.82540    1.000
    H3       H        0.87620    0.95820    0.78400    1.000
    H4       H        0.94380    0.82690    0.63700    1.000
    H5       H        0.67620    0.79800    0.32360    1.000
    H6       H        0.74030    0.76950    0.17460    1.000
    H7       H        0.62380    0.17420    0.21600    1.000
    H8       H        0.55620    0.18990    0.36300    1.000
    H9       H        0.17620    0.52560    0.32360    1.000
    H10      H        0.24030    0.40510    0.17460    1.000
    H11      H        0.12380    0.04180    0.21600    1.000
    H12      H        0.05620    0.17310    0.36300    1.000
    H13      H        0.32380    0.20200    0.67640    1.000
    H14      H        0.25970    0.23050    0.82540    1.000
    H15      H        0.37620    0.82580    0.78400    1.000
    H16      H        0.44380    0.81010    0.63700    1.000
    C1       C        0.83900    0.57299    0.69918    1.000
    C2       C        0.79860    0.64464    0.78868    1.000
    C3       C        0.81670    0.79181    0.82342    1.000
    C4       C        0.86820    0.85958    0.76456    1.000
    C5       C        0.90840    0.77942    0.67584    1.000
    C6       C        0.77990    0.87035    0.92050    1.000
    C7       C        0.60650    0.65007    0.44314    1.000
    C8       C        0.66100    0.87381    0.30082    1.000
    C9       C        0.70140    0.85596    0.21132    1.000
    C10      C        0.68330    0.96839    0.17658    1.000
    C11      C        0.63180    0.09502    0.23544    1.000
    C12      C        0.59160    0.10358    0.32416    1.000
    C13      C        0.72010    0.94985    0.07950    1.000
    C14      C        0.89350    0.20693    0.55686    1.000
    C15      C        0.16100    0.42701    0.30082    1.000
    C16      C        0.20140    0.35536    0.21132    1.000
    C17      C        0.18330    0.20819    0.17658    1.000
    C18      C        0.13180    0.14042    0.23544    1.000
    C19      C        0.09160    0.22058    0.32416    1.000
    C20      C        0.22010    0.12965    0.07950    1.000
    C21      C        0.39350    0.34993    0.55686    1.000
    C22      C        0.33900    0.12619    0.69918    1.000
    C23      C        0.29860    0.14404    0.78868    1.000
    C24      C        0.31670    0.03161    0.82342    1.000
    C25      C        0.36820    0.90498    0.76456    1.000
    C26      C        0.40840    0.89642    0.67584    1.000
    C27      C        0.27990    0.05015    0.92050    1.000
    C28      C        0.10650    0.79307    0.44314    1.000
    S1       S        0.65913    0.48379    0.39684    1.000
    S2       S        0.84087    0.08695    0.60316    1.000
    S3       S        0.34087    0.51621    0.60316    1.000
    S4       S        0.15913    0.91305    0.39684    1.000
    S5       S        0.75000    0.78587    0.00000    1.000
    S6       S        0.25000    0.21413    0.00000    1.000
    N1       N        0.89870    0.63745    0.64330    1.000
    N2       N        0.76710    0.00685    0.95370    1.000
    N3       N        0.57040    0.76649    0.47518    1.000
    N4       N        0.60130    0.99415    0.35670    1.000
    N5       N        0.73290    0.05315    0.04630    1.000
    N6       N        0.92960    0.29131    0.52482    1.000
    N7       N        0.10130    0.36255    0.35670    1.000
    N8       N        0.23290    0.99315    0.04630    1.000
    N9       N        0.42960    0.23351    0.52482    1.000
    N10      N        0.39870    0.00585    0.64330    1.000
    N11      N        0.26710    0.94685    0.95370    1.000
    N12      N        0.07040    0.70869    0.47518    1.000
