# CIF file generated by openbabel 3.1.0, see https://openbabel.org
data_I
_chemical_name_common 'image0'
_cell_length_a 14.329
_cell_length_b 14.329
_cell_length_c 44.554
_cell_angle_alpha 90
_cell_angle_beta 90
_cell_angle_gamma 90
_space_group_name_H-M_alt 'P 1'
_space_group_name_Hall 'P 1'
loop_
    _symmetry_equiv_pos_as_xyz
    x,y,z
loop_
    _atom_site_label
    _atom_site_type_symbol
    _atom_site_fract_x
    _atom_site_fract_y
    _atom_site_fract_z
    _atom_site_occupancy
    N1       N        0.43093    0.32087    0.55079    1.000
    N2       N        0.38603    0.44426    0.52370    1.000
    N3       N        0.35463    0.36349    0.51098    1.000
    N4       N        0.14068    0.37139    0.40482    1.000
    N5       N        0.11380    0.45179    0.39113    1.000
    N6       N        0.06473    0.32718    0.36528    1.000
    C1       C        0.43070    0.41489    0.54756    1.000
    H1       H        0.46030    0.45590    0.56140    1.000
    C2       C        0.38188    0.29107    0.52731    1.000
    H2       H        0.36840    0.22760    0.52290    1.000
    C3       C        0.29987    0.36550    0.48377    1.000
    C4       C        0.34715    0.36739    0.45646    1.000
    C5       C        0.44595    0.36514    0.45384    1.000
    H3       H        0.48320    0.36100    0.47140    1.000
    C6       C        0.48805    0.36886    0.42635    1.000
    H4       H        0.55410    0.36560    0.42490    1.000
    C7       C        0.43370    0.37753    0.40009    1.000
    H5       H        0.46390    0.38300    0.38120    1.000
    C8       C        0.33947    0.37815    0.40127    1.000
    H6       H        0.30450    0.38270    0.38320    1.000
    C9       C        0.29165    0.37209    0.42949    1.000
    C10      C        0.19494    0.37160    0.43212    1.000
    C11      C        0.14802    0.37083    0.45951    1.000
    C12      C        0.04860    0.37500    0.46197    1.000
    H7       H        0.01130    0.37590    0.44430    1.000
    C13      C        0.00740    0.37740    0.48925    1.000
    H8       H        0.94130    0.38000    0.49060    1.000
    C14      C        0.06160    0.37630    0.51590    1.000
    H9       H        0.03120    0.37900    0.53480    1.000
    C15      C        0.15590    0.37140    0.51485    1.000
    H10      H        0.19090    0.36990    0.53290    1.000
    C16      C        0.20302    0.36856    0.48647    1.000
    C17      C        0.11075    0.29821    0.38925    1.000
    H11      H        0.12090    0.23480    0.39450    1.000
    C18      C        0.06890    0.42144    0.36740    1.000
    H12      H        0.04160    0.46200    0.35300    1.000
    N7       N        0.93093    0.82087    0.05079    1.000
    N8       N        0.88603    0.94426    0.02370    1.000
    N9       N        0.85463    0.86349    0.01098    1.000
    N10      N        0.64068    0.87139    0.90482    1.000
    N11      N        0.61380    0.95179    0.89113    1.000
    N12      N        0.56473    0.82718    0.86528    1.000
    C19      C        0.93070    0.91489    0.04756    1.000
    H13      H        0.96030    0.95590    0.06140    1.000
    C20      C        0.88188    0.79107    0.02731    1.000
    H14      H        0.86840    0.72760    0.02290    1.000
    C21      C        0.79987    0.86550    0.98377    1.000
    C22      C        0.84715    0.86739    0.95646    1.000
    C23      C        0.94595    0.86514    0.95384    1.000
    H15      H        0.98320    0.86100    0.97140    1.000
    C24      C        0.98805    0.86886    0.92635    1.000
    H16      H        0.05410    0.86560    0.92490    1.000
    C25      C        0.93370    0.87753    0.90009    1.000
    H17      H        0.96390    0.88300    0.88120    1.000
    C26      C        0.83947    0.87815    0.90127    1.000
    H18      H        0.80450    0.88270    0.88320    1.000
    C27      C        0.79165    0.87209    0.92949    1.000
    C28      C        0.69494    0.87160    0.93212    1.000
    C29      C        0.64802    0.87083    0.95951    1.000
    C30      C        0.54860    0.87500    0.96197    1.000
    H19      H        0.51130    0.87590    0.94430    1.000
    C31      C        0.50740    0.87740    0.98925    1.000
    H20      H        0.44130    0.88000    0.99060    1.000
    C32      C        0.56160    0.87630    0.01590    1.000
    H21      H        0.53120    0.87900    0.03480    1.000
    C33      C        0.65590    0.87140    0.01485    1.000
    H22      H        0.69090    0.86990    0.03290    1.000
    C34      C        0.70302    0.86856    0.98647    1.000
    C35      C        0.61075    0.79821    0.88925    1.000
    H23      H        0.62090    0.73480    0.89450    1.000
    C36      C        0.56890    0.92144    0.86740    1.000
    H24      H        0.54160    0.96200    0.85300    1.000
    N13      N        0.06907    0.67913    0.05079    1.000
    N14      N        0.11397    0.55574    0.02370    1.000
    N15      N        0.14537    0.63651    0.01098    1.000
    N16      N        0.35932    0.62861    0.90482    1.000
    N17      N        0.38620    0.54821    0.89113    1.000
    N18      N        0.43527    0.67282    0.86528    1.000
    C37      C        0.06930    0.58511    0.04756    1.000
    H25      H        0.03970    0.54410    0.06140    1.000
    C38      C        0.11812    0.70893    0.02731    1.000
    H26      H        0.13160    0.77240    0.02290    1.000
    C39      C        0.20013    0.63450    0.98377    1.000
    C40      C        0.15285    0.63261    0.95646    1.000
    C41      C        0.05405    0.63486    0.95384    1.000
    H27      H        0.01680    0.63900    0.97140    1.000
    C42      C        0.01195    0.63114    0.92635    1.000
    H28      H        0.94590    0.63440    0.92490    1.000
    C43      C        0.06630    0.62247    0.90009    1.000
    H29      H        0.03610    0.61700    0.88120    1.000
    C44      C        0.16053    0.62185    0.90127    1.000
    H30      H        0.19550    0.61730    0.88320    1.000
    C45      C        0.20835    0.62791    0.92949    1.000
    C46      C        0.30506    0.62840    0.93212    1.000
    C47      C        0.35198    0.62917    0.95951    1.000
    C48      C        0.45140    0.62500    0.96197    1.000
    H31      H        0.48870    0.62410    0.94430    1.000
    C49      C        0.49260    0.62260    0.98925    1.000
    H32      H        0.55870    0.62000    0.99060    1.000
    C50      C        0.43840    0.62370    0.01590    1.000
    H33      H        0.46880    0.62100    0.03480    1.000
    C51      C        0.34410    0.62860    0.01485    1.000
    H34      H        0.30910    0.63010    0.03290    1.000
    C52      C        0.29698    0.63144    0.98647    1.000
    C53      C        0.38925    0.70179    0.88925    1.000
    H35      H        0.37910    0.76520    0.89450    1.000
    C54      C        0.43110    0.57856    0.86740    1.000
    H36      H        0.45840    0.53800    0.85300    1.000
    N19      N        0.56907    0.17913    0.55079    1.000
    N20      N        0.61397    0.05574    0.52370    1.000
    N21      N        0.64537    0.13651    0.51098    1.000
    N22      N        0.85932    0.12861    0.40482    1.000
    N23      N        0.88620    0.04821    0.39113    1.000
    N24      N        0.93527    0.17282    0.36528    1.000
    C55      C        0.56930    0.08511    0.54756    1.000
    H37      H        0.53970    0.04410    0.56140    1.000
    C56      C        0.61812    0.20893    0.52731    1.000
    H38      H        0.63160    0.27240    0.52290    1.000
    C57      C        0.70013    0.13450    0.48377    1.000
    C58      C        0.65285    0.13261    0.45646    1.000
    C59      C        0.55405    0.13486    0.45384    1.000
    H39      H        0.51680    0.13900    0.47140    1.000
    C60      C        0.51195    0.13114    0.42635    1.000
    H40      H        0.44590    0.13440    0.42490    1.000
    C61      C        0.56630    0.12247    0.40009    1.000
    H41      H        0.53610    0.11700    0.38120    1.000
    C62      C        0.66053    0.12185    0.40127    1.000
    H42      H        0.69550    0.11730    0.38320    1.000
    C63      C        0.70835    0.12791    0.42949    1.000
    C64      C        0.80506    0.12840    0.43212    1.000
    C65      C        0.85198    0.12917    0.45951    1.000
    C66      C        0.95140    0.12500    0.46197    1.000
    H43      H        0.98870    0.12410    0.44430    1.000
    C67      C        0.99260    0.12260    0.48925    1.000
    H44      H        0.05870    0.12000    0.49060    1.000
    C68      C        0.93840    0.12370    0.51590    1.000
    H45      H        0.96880    0.12100    0.53480    1.000
    C69      C        0.84410    0.12860    0.51485    1.000
    H46      H        0.80910    0.13010    0.53290    1.000
    C70      C        0.79698    0.13144    0.48647    1.000
    C71      C        0.88925    0.20179    0.38925    1.000
    H47      H        0.87910    0.26520    0.39450    1.000
    C72      C        0.93110    0.07856    0.36740    1.000
    H48      H        0.95840    0.03800    0.35300    1.000
    N25      N        0.42913    0.68093    0.80079    1.000
    N26      N        0.30574    0.63603    0.77370    1.000
    N27      N        0.38651    0.60463    0.76098    1.000
    N28      N        0.37861    0.39068    0.65482    1.000
    N29      N        0.29821    0.36380    0.64113    1.000
    N30      N        0.42282    0.31473    0.61528    1.000
    C73      C        0.33511    0.68070    0.79756    1.000
    H49      H        0.29410    0.71030    0.81140    1.000
    C74      C        0.45893    0.63188    0.77731    1.000
    H50      H        0.52240    0.61840    0.77290    1.000
    C75      C        0.38450    0.54987    0.73377    1.000
    C76      C        0.38261    0.59715    0.70646    1.000
    C77      C        0.38486    0.69595    0.70384    1.000
    H51      H        0.38900    0.73320    0.72140    1.000
    C78      C        0.38114    0.73805    0.67635    1.000
    H52      H        0.38440    0.80410    0.67490    1.000
    C79      C        0.37247    0.68370    0.65009    1.000
    H53      H        0.36700    0.71390    0.63120    1.000
    C80      C        0.37185    0.58947    0.65127    1.000
    H54      H        0.36730    0.55450    0.63320    1.000
    C81      C        0.37791    0.54165    0.67949    1.000
    C82      C        0.37840    0.44494    0.68212    1.000
    C83      C        0.37917    0.39802    0.70951    1.000
    C84      C        0.37500    0.29860    0.71197    1.000
    H55      H        0.37410    0.26130    0.69430    1.000
    C85      C        0.37260    0.25740    0.73925    1.000
    H56      H        0.37000    0.19130    0.74060    1.000
    C86      C        0.37370    0.31160    0.76590    1.000
    H57      H        0.37100    0.28120    0.78480    1.000
    C87      C        0.37860    0.40590    0.76485    1.000
    H58      H        0.38010    0.44090    0.78290    1.000
    C88      C        0.38144    0.45302    0.73647    1.000
    C89      C        0.45179    0.36075    0.63925    1.000
    H59      H        0.51520    0.37090    0.64450    1.000
    C90      C        0.32856    0.31890    0.61740    1.000
    H60      H        0.28800    0.29160    0.60300    1.000
    N31      N        0.92913    0.18093    0.30079    1.000
    N32      N        0.80574    0.13603    0.27370    1.000
    N33      N        0.88651    0.10463    0.26098    1.000
    N34      N        0.87861    0.89068    0.15482    1.000
    N35      N        0.79821    0.86380    0.14113    1.000
    N36      N        0.92282    0.81473    0.11528    1.000
    C91      C        0.83511    0.18070    0.29756    1.000
    H61      H        0.79410    0.21030    0.31140    1.000
    C92      C        0.95893    0.13188    0.27731    1.000
    H62      H        0.02240    0.11840    0.27290    1.000
    C93      C        0.88450    0.04987    0.23377    1.000
    C94      C        0.88261    0.09715    0.20646    1.000
    C95      C        0.88486    0.19595    0.20384    1.000
    H63      H        0.88900    0.23320    0.22140    1.000
    C96      C        0.88114    0.23805    0.17635    1.000
    H64      H        0.88440    0.30410    0.17490    1.000
    C97      C        0.87247    0.18370    0.15009    1.000
    H65      H        0.86700    0.21390    0.13120    1.000
    C98      C        0.87185    0.08947    0.15127    1.000
    H66      H        0.86730    0.05450    0.13320    1.000
    C99      C        0.87791    0.04165    0.17949    1.000
    C100     C        0.87840    0.94494    0.18212    1.000
    C101     C        0.87917    0.89802    0.20951    1.000
    C102     C        0.87500    0.79860    0.21197    1.000
    H67      H        0.87410    0.76130    0.19430    1.000
    C103     C        0.87260    0.75740    0.23925    1.000
    H68      H        0.87000    0.69130    0.24060    1.000
    C104     C        0.87370    0.81160    0.26590    1.000
    H69      H        0.87100    0.78120    0.28480    1.000
    C105     C        0.87860    0.90590    0.26485    1.000
    H70      H        0.88010    0.94090    0.28290    1.000
    C106     C        0.88144    0.95302    0.23647    1.000
    C107     C        0.95179    0.86075    0.13925    1.000
    H71      H        0.01520    0.87090    0.14450    1.000
    C108     C        0.82856    0.81890    0.11740    1.000
    H72      H        0.78800    0.79160    0.10300    1.000
    N37      N        0.07087    0.31907    0.30079    1.000
    N38      N        0.19426    0.36397    0.27370    1.000
    N39      N        0.11349    0.39537    0.26098    1.000
    N40      N        0.12139    0.60932    0.15482    1.000
    N41      N        0.20179    0.63620    0.14113    1.000
    N42      N        0.07718    0.68527    0.11528    1.000
    C109     C        0.16489    0.31930    0.29756    1.000
    H73      H        0.20590    0.28970    0.31140    1.000
    C110     C        0.04107    0.36812    0.27731    1.000
    H74      H        0.97760    0.38160    0.27290    1.000
    C111     C        0.11550    0.45013    0.23377    1.000
    C112     C        0.11739    0.40285    0.20646    1.000
    C113     C        0.11514    0.30405    0.20384    1.000
    H75      H        0.11100    0.26680    0.22140    1.000
    C114     C        0.11886    0.26195    0.17635    1.000
    H76      H        0.11560    0.19590    0.17490    1.000
    C115     C        0.12753    0.31630    0.15009    1.000
    H77      H        0.13300    0.28610    0.13120    1.000
    C116     C        0.12815    0.41053    0.15127    1.000
    H78      H        0.13270    0.44550    0.13320    1.000
    C117     C        0.12209    0.45835    0.17949    1.000
    C118     C        0.12160    0.55506    0.18212    1.000
    C119     C        0.12083    0.60198    0.20951    1.000
    C120     C        0.12500    0.70140    0.21197    1.000
    H79      H        0.12590    0.73870    0.19430    1.000
    C121     C        0.12740    0.74260    0.23925    1.000
    H80      H        0.13000    0.80870    0.24060    1.000
    C122     C        0.12630    0.68840    0.26590    1.000
    H81      H        0.12900    0.71880    0.28480    1.000
    C123     C        0.12140    0.59410    0.26485    1.000
    H82      H        0.11990    0.55910    0.28290    1.000
    C124     C        0.11856    0.54698    0.23647    1.000
    C125     C        0.04821    0.63925    0.13925    1.000
    H83      H        0.98480    0.62910    0.14450    1.000
    C126     C        0.17144    0.68110    0.11740    1.000
    H84      H        0.21200    0.70840    0.10300    1.000
    N43      N        0.57087    0.81907    0.80079    1.000
    N44      N        0.69426    0.86397    0.77370    1.000
    N45      N        0.61349    0.89537    0.76098    1.000
    N46      N        0.62139    0.10932    0.65482    1.000
    N47      N        0.70179    0.13620    0.64113    1.000
    N48      N        0.57718    0.18527    0.61528    1.000
    C127     C        0.66489    0.81930    0.79756    1.000
    H85      H        0.70590    0.78970    0.81140    1.000
    C128     C        0.54107    0.86812    0.77731    1.000
    H86      H        0.47760    0.88160    0.77290    1.000
    C129     C        0.61550    0.95013    0.73377    1.000
    C130     C        0.61739    0.90285    0.70646    1.000
    C131     C        0.61514    0.80405    0.70384    1.000
    H87      H        0.61100    0.76680    0.72140    1.000
    C132     C        0.61886    0.76195    0.67635    1.000
    H88      H        0.61560    0.69590    0.67490    1.000
    C133     C        0.62753    0.81630    0.65009    1.000
    H89      H        0.63300    0.78610    0.63120    1.000
    C134     C        0.62815    0.91053    0.65127    1.000
    H90      H        0.63270    0.94550    0.63320    1.000
    C135     C        0.62209    0.95835    0.67949    1.000
    C136     C        0.62160    0.05506    0.68212    1.000
    C137     C        0.62083    0.10198    0.70951    1.000
    C138     C        0.62500    0.20140    0.71197    1.000
    H91      H        0.62590    0.23870    0.69430    1.000
    C139     C        0.62740    0.24260    0.73925    1.000
    H92      H        0.63000    0.30870    0.74060    1.000
    C140     C        0.62630    0.18840    0.76590    1.000
    H93      H        0.62900    0.21880    0.78480    1.000
    C141     C        0.62140    0.09410    0.76485    1.000
    H94      H        0.61990    0.05910    0.78290    1.000
    C142     C        0.61856    0.04698    0.73647    1.000
    C143     C        0.54821    0.13925    0.63925    1.000
    H95      H        0.48480    0.12910    0.64450    1.000
    C144     C        0.67144    0.18110    0.61740    1.000
    H96      H        0.71200    0.20840    0.60300    1.000
    Cu1      Cu       0.50000    0.25000    0.58329    1.000
    Cu2      Cu       0.00000    0.75000    0.08329    1.000
    Cu3      Cu       0.50000    0.75000    0.83329    1.000
    Cu4      Cu       0.00000    0.25000    0.33329    1.000
    N49      N        0.56907    0.67913    0.44921    1.000
    N50      N        0.61397    0.55574    0.47630    1.000
    N51      N        0.64537    0.63651    0.48902    1.000
    N52      N        0.85932    0.62861    0.59518    1.000
    N53      N        0.88620    0.54821    0.60887    1.000
    N54      N        0.93527    0.67282    0.63472    1.000
    C145     C        0.56930    0.58511    0.45244    1.000
    H97      H        0.53970    0.54410    0.43860    1.000
    C146     C        0.61812    0.70893    0.47269    1.000
    H98      H        0.63160    0.77240    0.47710    1.000
    C147     C        0.70013    0.63450    0.51623    1.000
    C148     C        0.65285    0.63261    0.54354    1.000
    C149     C        0.55405    0.63486    0.54616    1.000
    H99      H        0.51680    0.63900    0.52860    1.000
    C150     C        0.51195    0.63114    0.57365    1.000
    H100     H        0.44590    0.63440    0.57510    1.000
    C151     C        0.56630    0.62247    0.59991    1.000
    H101     H        0.53610    0.61700    0.61880    1.000
    C152     C        0.66053    0.62185    0.59873    1.000
    H102     H        0.69550    0.61730    0.61680    1.000
    C153     C        0.70835    0.62791    0.57051    1.000
    C154     C        0.80506    0.62840    0.56788    1.000
    C155     C        0.85198    0.62917    0.54049    1.000
    C156     C        0.95140    0.62500    0.53803    1.000
    H103     H        0.98870    0.62410    0.55570    1.000
    C157     C        0.99260    0.62260    0.51075    1.000
    H104     H        0.05870    0.62000    0.50940    1.000
    C158     C        0.93840    0.62370    0.48410    1.000
    H105     H        0.96880    0.62100    0.46520    1.000
    C159     C        0.84410    0.62860    0.48515    1.000
    H106     H        0.80910    0.63010    0.46710    1.000
    C160     C        0.79698    0.63144    0.51353    1.000
    C161     C        0.88925    0.70179    0.61075    1.000
    H107     H        0.87910    0.76520    0.60550    1.000
    C162     C        0.93110    0.57856    0.63260    1.000
    H108     H        0.95840    0.53800    0.64700    1.000
    N55      N        0.06907    0.17913    0.94921    1.000
    N56      N        0.11397    0.05574    0.97630    1.000
    N57      N        0.14537    0.13651    0.98902    1.000
    N58      N        0.35932    0.12861    0.09518    1.000
    N59      N        0.38620    0.04821    0.10887    1.000
    N60      N        0.43527    0.17282    0.13472    1.000
    C163     C        0.06930    0.08511    0.95244    1.000
    H109     H        0.03970    0.04410    0.93860    1.000
    C164     C        0.11812    0.20893    0.97269    1.000
    H110     H        0.13160    0.27240    0.97710    1.000
    C165     C        0.20013    0.13450    0.01623    1.000
    C166     C        0.15285    0.13261    0.04354    1.000
    C167     C        0.05405    0.13486    0.04616    1.000
    H111     H        0.01680    0.13900    0.02860    1.000
    C168     C        0.01195    0.13114    0.07365    1.000
    H112     H        0.94590    0.13440    0.07510    1.000
    C169     C        0.06630    0.12247    0.09991    1.000
    H113     H        0.03610    0.11700    0.11880    1.000
    C170     C        0.16053    0.12185    0.09873    1.000
    H114     H        0.19550    0.11730    0.11680    1.000
    C171     C        0.20835    0.12791    0.07051    1.000
    C172     C        0.30506    0.12840    0.06788    1.000
    C173     C        0.35198    0.12917    0.04049    1.000
    C174     C        0.45140    0.12500    0.03803    1.000
    H115     H        0.48870    0.12410    0.05570    1.000
    C175     C        0.49260    0.12260    0.01075    1.000
    H116     H        0.55870    0.12000    0.00940    1.000
    C176     C        0.43840    0.12370    0.98410    1.000
    H117     H        0.46880    0.12100    0.96520    1.000
    C177     C        0.34410    0.12860    0.98515    1.000
    H118     H        0.30910    0.13010    0.96710    1.000
    C178     C        0.29698    0.13144    0.01353    1.000
    C179     C        0.38925    0.20179    0.11075    1.000
    H119     H        0.37910    0.26520    0.10550    1.000
    C180     C        0.43110    0.07856    0.13260    1.000
    H120     H        0.45840    0.03800    0.14700    1.000
    N61      N        0.93093    0.32087    0.94921    1.000
    N62      N        0.88603    0.44426    0.97630    1.000
    N63      N        0.85463    0.36349    0.98902    1.000
    N64      N        0.64068    0.37139    0.09518    1.000
    N65      N        0.61380    0.45179    0.10887    1.000
    N66      N        0.56473    0.32718    0.13472    1.000
    C181     C        0.93070    0.41489    0.95244    1.000
    H121     H        0.96030    0.45590    0.93860    1.000
    C182     C        0.88188    0.29107    0.97269    1.000
    H122     H        0.86840    0.22760    0.97710    1.000
    C183     C        0.79987    0.36550    0.01623    1.000
    C184     C        0.84715    0.36739    0.04354    1.000
    C185     C        0.94595    0.36514    0.04616    1.000
    H123     H        0.98320    0.36100    0.02860    1.000
    C186     C        0.98805    0.36886    0.07365    1.000
    H124     H        0.05410    0.36560    0.07510    1.000
    C187     C        0.93370    0.37753    0.09991    1.000
    H125     H        0.96390    0.38300    0.11880    1.000
    C188     C        0.83947    0.37815    0.09873    1.000
    H126     H        0.80450    0.38270    0.11680    1.000
    C189     C        0.79165    0.37209    0.07051    1.000
    C190     C        0.69494    0.37160    0.06788    1.000
    C191     C        0.64802    0.37083    0.04049    1.000
    C192     C        0.54860    0.37500    0.03803    1.000
    H127     H        0.51130    0.37590    0.05570    1.000
    C193     C        0.50740    0.37740    0.01075    1.000
    H128     H        0.44130    0.38000    0.00940    1.000
    C194     C        0.56160    0.37630    0.98410    1.000
    H129     H        0.53120    0.37900    0.96520    1.000
    C195     C        0.65590    0.37140    0.98515    1.000
    H130     H        0.69090    0.36990    0.96710    1.000
    C196     C        0.70302    0.36856    0.01353    1.000
    C197     C        0.61075    0.29821    0.11075    1.000
    H131     H        0.62090    0.23480    0.10550    1.000
    C198     C        0.56890    0.42144    0.13260    1.000
    H132     H        0.54160    0.46200    0.14700    1.000
    N67      N        0.43093    0.82087    0.44921    1.000
    N68      N        0.38603    0.94426    0.47630    1.000
    N69      N        0.35463    0.86349    0.48902    1.000
    N70      N        0.14068    0.87139    0.59518    1.000
    N71      N        0.11380    0.95179    0.60887    1.000
    N72      N        0.06473    0.82718    0.63472    1.000
    C199     C        0.43070    0.91489    0.45244    1.000
    H133     H        0.46030    0.95590    0.43860    1.000
    C200     C        0.38188    0.79107    0.47269    1.000
    H134     H        0.36840    0.72760    0.47710    1.000
    C201     C        0.29987    0.86550    0.51623    1.000
    C202     C        0.34715    0.86739    0.54354    1.000
    C203     C        0.44595    0.86514    0.54616    1.000
    H135     H        0.48320    0.86100    0.52860    1.000
    C204     C        0.48805    0.86886    0.57365    1.000
    H136     H        0.55410    0.86560    0.57510    1.000
    C205     C        0.43370    0.87753    0.59991    1.000
    H137     H        0.46390    0.88300    0.61880    1.000
    C206     C        0.33947    0.87815    0.59873    1.000
    H138     H        0.30450    0.88270    0.61680    1.000
    C207     C        0.29165    0.87209    0.57051    1.000
    C208     C        0.19494    0.87160    0.56788    1.000
    C209     C        0.14802    0.87083    0.54049    1.000
    C210     C        0.04860    0.87500    0.53803    1.000
    H139     H        0.01130    0.87590    0.55570    1.000
    C211     C        0.00740    0.87740    0.51075    1.000
    H140     H        0.94130    0.88000    0.50940    1.000
    C212     C        0.06160    0.87630    0.48410    1.000
    H141     H        0.03120    0.87900    0.46520    1.000
    C213     C        0.15590    0.87140    0.48515    1.000
    H142     H        0.19090    0.86990    0.46710    1.000
    C214     C        0.20302    0.86856    0.51353    1.000
    C215     C        0.11075    0.79821    0.61075    1.000
    H143     H        0.12090    0.73480    0.60550    1.000
    C216     C        0.06890    0.92144    0.63260    1.000
    H144     H        0.04160    0.96200    0.64700    1.000
    N73      N        0.57087    0.31907    0.19921    1.000
    N74      N        0.69426    0.36397    0.22630    1.000
    N75      N        0.61349    0.39537    0.23902    1.000
    N76      N        0.62139    0.60932    0.34518    1.000
    N77      N        0.70179    0.63620    0.35887    1.000
    N78      N        0.57718    0.68527    0.38472    1.000
    C217     C        0.66489    0.31930    0.20244    1.000
    H145     H        0.70590    0.28970    0.18860    1.000
    C218     C        0.54107    0.36812    0.22269    1.000
    H146     H        0.47760    0.38160    0.22710    1.000
    C219     C        0.61550    0.45013    0.26623    1.000
    C220     C        0.61739    0.40285    0.29354    1.000
    C221     C        0.61514    0.30405    0.29616    1.000
    H147     H        0.61100    0.26680    0.27860    1.000
    C222     C        0.61886    0.26195    0.32365    1.000
    H148     H        0.61560    0.19590    0.32510    1.000
    C223     C        0.62753    0.31630    0.34991    1.000
    H149     H        0.63300    0.28610    0.36880    1.000
    C224     C        0.62815    0.41053    0.34873    1.000
    H150     H        0.63270    0.44550    0.36680    1.000
    C225     C        0.62209    0.45835    0.32051    1.000
    C226     C        0.62160    0.55506    0.31788    1.000
    C227     C        0.62083    0.60198    0.29049    1.000
    C228     C        0.62500    0.70140    0.28803    1.000
    H151     H        0.62590    0.73870    0.30570    1.000
    C229     C        0.62740    0.74260    0.26075    1.000
    H152     H        0.63000    0.80870    0.25940    1.000
    C230     C        0.62630    0.68840    0.23410    1.000
    H153     H        0.62900    0.71880    0.21520    1.000
    C231     C        0.62140    0.59410    0.23515    1.000
    H154     H        0.61990    0.55910    0.21710    1.000
    C232     C        0.61856    0.54698    0.26353    1.000
    C233     C        0.54821    0.63925    0.36075    1.000
    H155     H        0.48480    0.62910    0.35550    1.000
    C234     C        0.67144    0.68110    0.38260    1.000
    H156     H        0.71200    0.70840    0.39700    1.000
    N79      N        0.07087    0.81907    0.69921    1.000
    N80      N        0.19426    0.86397    0.72630    1.000
    N81      N        0.11349    0.89537    0.73902    1.000
    N82      N        0.12139    0.10932    0.84518    1.000
    N83      N        0.20179    0.13620    0.85887    1.000
    N84      N        0.07718    0.18527    0.88472    1.000
    C235     C        0.16489    0.81930    0.70244    1.000
    H157     H        0.20590    0.78970    0.68860    1.000
    C236     C        0.04107    0.86812    0.72269    1.000
    H158     H        0.97760    0.88160    0.72710    1.000
    C237     C        0.11550    0.95013    0.76623    1.000
    C238     C        0.11739    0.90285    0.79354    1.000
    C239     C        0.11514    0.80405    0.79616    1.000
    H159     H        0.11100    0.76680    0.77860    1.000
    C240     C        0.11886    0.76195    0.82365    1.000
    H160     H        0.11560    0.69590    0.82510    1.000
    C241     C        0.12753    0.81630    0.84991    1.000
    H161     H        0.13300    0.78610    0.86880    1.000
    C242     C        0.12815    0.91053    0.84873    1.000
    H162     H        0.13270    0.94550    0.86680    1.000
    C243     C        0.12209    0.95835    0.82051    1.000
    C244     C        0.12160    0.05506    0.81788    1.000
    C245     C        0.12083    0.10198    0.79049    1.000
    C246     C        0.12500    0.20140    0.78803    1.000
    H163     H        0.12590    0.23870    0.80570    1.000
    C247     C        0.12740    0.24260    0.76075    1.000
    H164     H        0.13000    0.30870    0.75940    1.000
    C248     C        0.12630    0.18840    0.73410    1.000
    H165     H        0.12900    0.21880    0.71520    1.000
    C249     C        0.12140    0.09410    0.73515    1.000
    H166     H        0.11990    0.05910    0.71710    1.000
    C250     C        0.11856    0.04698    0.76353    1.000
    C251     C        0.04821    0.13925    0.86075    1.000
    H167     H        0.98480    0.12910    0.85550    1.000
    C252     C        0.17144    0.18110    0.88260    1.000
    H168     H        0.21200    0.20840    0.89700    1.000
    N85      N        0.92913    0.68093    0.69921    1.000
    N86      N        0.80574    0.63603    0.72630    1.000
    N87      N        0.88651    0.60463    0.73902    1.000
    N88      N        0.87861    0.39068    0.84518    1.000
    N89      N        0.79821    0.36380    0.85887    1.000
    N90      N        0.92282    0.31473    0.88472    1.000
    C253     C        0.83511    0.68070    0.70244    1.000
    H169     H        0.79410    0.71030    0.68860    1.000
    C254     C        0.95893    0.63188    0.72269    1.000
    H170     H        0.02240    0.61840    0.72710    1.000
    C255     C        0.88450    0.54987    0.76623    1.000
    C256     C        0.88261    0.59715    0.79354    1.000
    C257     C        0.88486    0.69595    0.79616    1.000
    H171     H        0.88900    0.73320    0.77860    1.000
    C258     C        0.88114    0.73805    0.82365    1.000
    H172     H        0.88440    0.80410    0.82510    1.000
    C259     C        0.87247    0.68370    0.84991    1.000
    H173     H        0.86700    0.71390    0.86880    1.000
    C260     C        0.87185    0.58947    0.84873    1.000
    H174     H        0.86730    0.55450    0.86680    1.000
    C261     C        0.87791    0.54165    0.82051    1.000
    C262     C        0.87840    0.44494    0.81788    1.000
    C263     C        0.87917    0.39802    0.79049    1.000
    C264     C        0.87500    0.29860    0.78803    1.000
    H175     H        0.87410    0.26130    0.80570    1.000
    C265     C        0.87260    0.25740    0.76075    1.000
    H176     H        0.87000    0.19130    0.75940    1.000
    C266     C        0.87370    0.31160    0.73410    1.000
    H177     H        0.87100    0.28120    0.71520    1.000
    C267     C        0.87860    0.40590    0.73515    1.000
    H178     H        0.88010    0.44090    0.71710    1.000
    C268     C        0.88144    0.45302    0.76353    1.000
    C269     C        0.95179    0.36075    0.86075    1.000
    H179     H        0.01520    0.37090    0.85550    1.000
    C270     C        0.82856    0.31890    0.88260    1.000
    H180     H        0.78800    0.29160    0.89700    1.000
    N91      N        0.42913    0.18093    0.19921    1.000
    N92      N        0.30574    0.13603    0.22630    1.000
    N93      N        0.38651    0.10463    0.23902    1.000
    N94      N        0.37861    0.89068    0.34518    1.000
    N95      N        0.29821    0.86380    0.35887    1.000
    N96      N        0.42282    0.81473    0.38472    1.000
    C271     C        0.33511    0.18070    0.20244    1.000
    H181     H        0.29410    0.21030    0.18860    1.000
    C272     C        0.45893    0.13188    0.22269    1.000
    H182     H        0.52240    0.11840    0.22710    1.000
    C273     C        0.38450    0.04987    0.26623    1.000
    C274     C        0.38261    0.09715    0.29354    1.000
    C275     C        0.38486    0.19595    0.29616    1.000
    H183     H        0.38900    0.23320    0.27860    1.000
    C276     C        0.38114    0.23805    0.32365    1.000
    H184     H        0.38440    0.30410    0.32510    1.000
    C277     C        0.37247    0.18370    0.34991    1.000
    H185     H        0.36700    0.21390    0.36880    1.000
    C278     C        0.37185    0.08947    0.34873    1.000
    H186     H        0.36730    0.05450    0.36680    1.000
    C279     C        0.37791    0.04165    0.32051    1.000
    C280     C        0.37840    0.94494    0.31788    1.000
    C281     C        0.37917    0.89802    0.29049    1.000
    C282     C        0.37500    0.79860    0.28803    1.000
    H187     H        0.37410    0.76130    0.30570    1.000
    C283     C        0.37260    0.75740    0.26075    1.000
    H188     H        0.37000    0.69130    0.25940    1.000
    C284     C        0.37370    0.81160    0.23410    1.000
    H189     H        0.37100    0.78120    0.21520    1.000
    C285     C        0.37860    0.90590    0.23515    1.000
    H190     H        0.38010    0.94090    0.21710    1.000
    C286     C        0.38144    0.95302    0.26353    1.000
    C287     C        0.45179    0.86075    0.36075    1.000
    H191     H        0.51520    0.87090    0.35550    1.000
    C288     C        0.32856    0.81890    0.38260    1.000
    H192     H        0.28800    0.79160    0.39700    1.000
    Cu5      Cu       0.50000    0.75000    0.41671    1.000
    Cu6      Cu       0.00000    0.25000    0.91671    1.000
    Cu7      Cu       0.50000    0.25000    0.16671    1.000
    Cu8      Cu       0.00000    0.75000    0.66671    1.000
