data_functionalizedCrystal
_audit_creation_method	'EQeq! by Chris Wilmer'
_symmetry_space_group_name_H-M	'P1'
_symmetry_Int_Tables_number	1
_symmetry_cell_setting	triclinic
loop_
_symmetry_equiv_pos_as_xyz
  x,y,z
_cell_length_a	8.8583
_cell_length_b	11.7008
_cell_length_c	17.9522
_cell_angle_alpha	90
_cell_angle_beta	90
_cell_angle_gamma	100.045
loop_
_atom_site_label
_atom_site_type_symbol
_atom_site_fract_x
_atom_site_fract_y
_atom_site_fract_z
_atom_site_charge
Mof_Mn	Mn	0.4585	0.11836	0.43089	0.841
Mof_Mn	Mn	0.95484	0.11655	0.58934	0.849
Mof_Mn	Mn	0.5415	0.88164	0.93089	0.85
Mof_Mn	Mn	0.04516	0.88345	0.08934	0.844
Mof_H 	H 	0.7135	0.3143	0.006	0.063
Mof_H 	H 	0.1099	0.9176	0.6662	0.017
Mof_H 	H 	0.5427	0.9186	0.1879	0.134
Mof_H 	H 	0.4561	0.8828	0.6426	0.107
Mof_H 	H 	0.1474	0.9118	0.3399	0.168
Mof_H 	H 	0.9838	0.8869	0.3763	0.159
Mof_H 	H 	0.1323	0.3544	0.642	-0.012
Mof_H 	H 	0.3867	0.0773	0.8525	0.011
Mof_H 	H 	0.8677	0.6456	0.142	-0.012
Mof_H 	H 	0.711	0.492	0.0066	0.076
Mof_H 	H 	0.7523	0.5033	0.5296	0.082
Mof_H 	H 	0.1992	0.118	0.0112	-0.001
Mof_H 	H 	0.2909	0.3131	0.5025	-0.012
Mof_H 	H 	0.2865	0.6857	0.506	0.075
Mof_H 	H 	0.1339	0.5488	0.6544	0.083
Mof_H 	H 	0.6255	0.8938	0.6712	0.111
Mof_H 	H 	0.6309	0.5527	0.3646	0.084
Mof_H 	H 	0.0162	0.1131	0.8763	0.161
Mof_H 	H 	0.4573	0.0814	0.6879	0.134
Mof_H 	H 	0.8526	0.0882	0.8399	0.169
Mof_H 	H 	0.634	0.0909	0.7033	0.128
Mof_H 	H 	0.3825	0.6428	0.858	-0.002
Mof_H 	H 	0.6222	0.7279	0.3569	0.083
Mof_H 	H 	0.3691	0.4473	0.8646	0.084
Mof_H 	H 	0.6175	0.3572	0.358	-0.003
Mof_H 	H 	0.8928	0.2773	0.1723	0.092
Mof_H 	H 	0.7091	0.6869	0.0025	-0.025
Mof_H 	H 	0.7047	0.1177	0.0042	-0.007
Mof_H 	H 	0.1993	0.3118	0.0037	0.074
Mof_H 	H 	0.289	0.508	0.5066	0.088
Mof_H 	H 	0.2477	0.4967	0.0296	0.08
Mof_H 	H 	0.8007	0.6882	0.5037	0.077
Mof_H 	H 	0.3778	0.2721	0.8569	0.083
Mof_H 	H 	0.3745	0.1062	0.1712	0.11
Mof_H 	H 	0.1072	0.7227	0.6723	0.092
Mof_H 	H 	0.366	0.9091	0.2033	0.129
Mof_H 	H 	0.2953	0.8823	0.5042	0.006
Mof_H 	H 	0.2313	0.1256	0.3009	0.259
Mof_H 	H 	0.755	0.3091	0.5289	-0.004
Mof_H 	H 	0.0565	0.9332	0.8385	0.032
Mof_H 	H 	0.245	0.6909	0.0289	-0.006
Mof_H 	H 	0.8901	0.0824	0.1662	0.017
Mof_H 	H 	0.6133	0.9227	0.3525	0.011
Mof_H 	H 	0.8661	0.4512	0.1544	0.083
Mof_H 	H 	0.9435	0.0668	0.3385	0.032
Mof_H 	H 	0.7687	0.8744	0.8009	0.259
Mof_H 	H 	0.8008	0.882	0.5112	0.002
Mof_H 	H 	0.5439	0.1172	0.1426	0.105
Mof_C 	C 	0.4503	0.9457	0.1722	-0.283
Mof_C 	C 	0.552	0.7571	0.3868	-0.135
Mof_C 	C 	0.5556	0.505	0.3918	-0.161
Mof_C 	C 	0.9545	0.2475	0.1381	-0.131
Mof_C 	C 	0.6439	0.268	0.9752	-0.119
Mof_C 	C 	0.9556	0.071	0.8368	-0.425
Mof_C 	C 	0.0843	0.09	0.4282	0.292
Mof_C 	C 	0.0248	0.1106	0.7623	0.432
Mof_C 	C 	0.3561	0.732	0.4752	-0.134
Mof_C 	C 	0.3612	0.8506	0.4731	0.075
Mof_C 	C 	0.6388	0.1494	0.9731	0.09
Mof_C 	C 	0.5313	0.1214	0.2578	0.393
Mof_C 	C 	0.9475	0.6152	0.1203	0.098
Mof_C 	C 	0.0496	0.0557	0.3472	0.13
Mof_C 	C 	0.4718	0.0812	0.18	-0.224
Mof_C 	C 	0.9504	0.9443	0.8472	0.131
Mof_C 	C 	0.1677	0.5246	0.053	-0.147
Mof_C 	C 	0.3575	0.4795	0.4753	-0.169
Mof_C 	C 	0.5444	0.4462	0.9312	0.079
Mof_C 	C 	0.4687	0.8786	0.7578	0.394
Mof_C 	C 	0.5832	0.085	0.5917	0.407
Mof_C 	C 	0.9559	0.1306	0.1346	0.09
Mof_C 	C 	0.0588	0.5032	0.6259	-0.152
Mof_C 	C 	0.6425	0.5205	0.9753	-0.154
Mof_C 	C 	0.8323	0.4754	0.553	-0.147
Mof_C 	C 	0.5487	0.8757	0.3851	0.081
Mof_C 	C 	0.0525	0.3848	0.6203	0.1
Mof_C 	C 	0.9157	0.91	0.9282	0.291
Mof_C 	C 	0.0491	0.3216	0.0882	0.05
Mof_C 	C 	0.6391	0.6383	0.973	0.136
Mof_C 	C 	0.9509	0.6784	0.5882	0.051
Mof_C 	C 	0.4555	0.6826	0.4308	0.047
Mof_C 	C 	0.448	0.2429	0.8868	-0.134
Mof_C 	C 	0.0441	0.8694	0.6346	0.091
Mof_C 	C 	0.9412	0.4968	0.1259	-0.153
Mof_C 	C 	0.4513	0.1243	0.8851	0.082
Mof_C 	C 	0.5497	0.0543	0.6722	-0.281
Mof_C 	C 	0.4168	0.915	0.0917	0.408
Mof_C 	C 	0.1347	0.1502	0.0428	0.089
Mof_C 	C 	0.3609	0.3617	0.473	0.121
Mof_C 	C 	0.4444	0.495	0.8918	-0.159
Mof_C 	C 	0.8334	0.3583	0.5531	0.092
Mof_C 	C 	0.4485	0.6126	0.8898	0.092
Mof_C 	C 	0.9477	0.553	0.587	0.064
Mof_C 	C 	0.9752	0.8894	0.2623	0.431
Mof_C 	C 	0.5445	0.3174	0.9308	0.046
Mof_C 	C 	0.0444	0.929	0.3368	-0.424
Mof_C 	C 	0.5282	0.9188	0.68	-0.226
Mof_C 	C 	0.5515	0.3874	0.3898	0.091
Mof_C 	C 	0.0523	0.447	0.087	0.063
Mof_C 	C 	0.862	0.7323	0.539	-0.141
Mof_C 	C 	0.1666	0.6417	0.0531	0.091
Mof_C 	C 	0.138	0.2677	0.039	-0.142
Mof_C 	C 	0.4556	0.5538	0.4312	0.081
Mof_C 	C 	0.0455	0.7525	0.6381	-0.131
Mof_C 	C 	0.8653	0.8498	0.5428	0.09
Mof_N 	N 	0.9459	0.3118	0.5876	-0.194
Mof_N 	N 	0.046	0.0802	0.0884	-0.188
Mof_N 	N 	0.4565	0.9232	0.4286	-0.188
Mof_N 	N 	0.0541	0.6882	0.0876	-0.194
Mof_N 	N 	0.954	0.9198	0.5884	-0.188
Mof_N 	N 	0.4538	0.3143	0.433	-0.198
Mof_N 	N 	0.5435	0.0768	0.9286	-0.189
Mof_N 	N 	0.5462	0.6857	0.933	-0.2
Mof_O 	O 	0.167	0.1367	0.7561	-0.306
Mof_O 	O 	0.1408	0.1309	0.2956	-0.382
Mof_O 	O 	0.8592	0.8691	0.7956	-0.382
Mof_O 	O 	0.9309	0.1127	0.7089	-0.382
Mof_O 	O 	0.7127	0.0832	0.5659	-0.39
Mof_O 	O 	0.4734	0.1112	0.5519	-0.37
Mof_O 	O 	0.023	0.889	0.968	-0.335
Mof_O 	O 	0.4378	0.1126	0.3098	-0.399
Mof_O 	O 	0.977	0.111	0.468	-0.341
Mof_O 	O 	0.0691	0.8873	0.2089	-0.381
Mof_O 	O 	0.2176	0.0915	0.452	-0.358
Mof_O 	O 	0.833	0.8633	0.2561	-0.307
Mof_O 	O 	0.5622	0.8874	0.8098	-0.4
Mof_O 	O 	0.5266	0.8888	0.0519	-0.376
Mof_O 	O 	0.7824	0.9085	0.952	-0.354
Mof_O 	O 	0.3305	0.846	0.763	-0.296
Mof_O 	O 	0.2873	0.9168	0.0659	-0.393
Mof_O 	O 	0.6695	0.154	0.263	-0.296
_end
