# CIF file generated by openbabel 3.1.0, see https://openbabel.org
data_I
_chemical_name_common 'UVINAP_clean'
_cell_length_a 6.2872
_cell_length_b 14.314
_cell_length_c 14.314
_cell_angle_alpha 90
_cell_angle_beta 90
_cell_angle_gamma 90
_space_group_name_H-M_alt 'P 1'
_space_group_name_Hall 'P 1'
loop_
    _symmetry_equiv_pos_as_xyz
    x,y,z
loop_
    _atom_site_label
    _atom_site_type_symbol
    _atom_site_fract_x
    _atom_site_fract_y
    _atom_site_fract_z
    _atom_site_occupancy
    Co1      Co       0.75000    0.75000    0.75000    1.000
    Co2      Co       0.25000    0.25000    0.25000    1.000
    H1       H        0.23570    0.04790    0.88530    1.000
    H2       H        0.04130    0.85270    0.06280    1.000
    H3       H        0.38290    0.90530    0.79820    1.000
    H4       H        0.67570    0.72470    0.96580    1.000
    H5       H        0.41460    0.81040    0.04800    1.000
    H6       H        0.23570    0.45210    0.61470    1.000
    H7       H        0.04130    0.64730    0.43720    1.000
    H8       H        0.38290    0.59470    0.70180    1.000
    H9       H        0.67570    0.77530    0.53420    1.000
    H10      H        0.41460    0.68960    0.45200    1.000
    H11      H        0.73570    0.11470    0.54790    1.000
    H12      H        0.54130    0.93720    0.35270    1.000
    H13      H        0.88290    0.20180    0.40530    1.000
    H14      H        0.17570    0.03420    0.22470    1.000
    H15      H        0.91460    0.95200    0.31040    1.000
    H16      H        0.73570    0.38530    0.95210    1.000
    H17      H        0.54130    0.56280    0.14730    1.000
    H18      H        0.88290    0.29820    0.09470    1.000
    H19      H        0.17570    0.46580    0.27530    1.000
    H20      H        0.91460    0.54800    0.18960    1.000
    H21      H        0.76430    0.95210    0.11470    1.000
    H22      H        0.95870    0.14730    0.93720    1.000
    H23      H        0.61710    0.09470    0.20180    1.000
    H24      H        0.32430    0.27530    0.03420    1.000
    H25      H        0.58540    0.18960    0.95200    1.000
    H26      H        0.76430    0.54790    0.38530    1.000
    H27      H        0.95870    0.35270    0.56280    1.000
    H28      H        0.61710    0.40530    0.29820    1.000
    H29      H        0.32430    0.22470    0.46580    1.000
    H30      H        0.58540    0.31040    0.54800    1.000
    H31      H        0.26430    0.88530    0.45210    1.000
    H32      H        0.45870    0.06280    0.64730    1.000
    H33      H        0.11710    0.79820    0.59470    1.000
    H34      H        0.82430    0.96580    0.77530    1.000
    H35      H        0.08540    0.04800    0.68960    1.000
    H36      H        0.26430    0.61470    0.04790    1.000
    H37      H        0.45870    0.43720    0.85270    1.000
    H38      H        0.11710    0.70180    0.90530    1.000
    H39      H        0.82430    0.53420    0.72470    1.000
    H40      H        0.08540    0.45200    0.81040    1.000
    C1       C        0.16090    0.94220    0.97100    1.000
    C2       C        0.14180    0.02839    0.93149    1.000
    C3       C        0.02560    0.91210    0.03740    1.000
    C4       C        0.42200    0.87180    0.85120    1.000
    C5       C        0.58640    0.77060    0.94180    1.000
    C6       C        0.33720    0.88380    0.93800    1.000
    C7       C        0.16090    0.55780    0.52900    1.000
    C8       C        0.14180    0.47161    0.56851    1.000
    C9       C        0.02560    0.58790    0.46260    1.000
    C10      C        0.42200    0.62820    0.64880    1.000
    C11      C        0.58640    0.72940    0.55820    1.000
    C12      C        0.33720    0.61620    0.56200    1.000
    C13      C        0.66090    0.02900    0.44220    1.000
    C14      C        0.64180    0.06851    0.52839    1.000
    C15      C        0.52560    0.96260    0.41210    1.000
    C16      C        0.92200    0.14880    0.37180    1.000
    C17      C        0.08640    0.05820    0.27060    1.000
    C18      C        0.83720    0.06200    0.38380    1.000
    C19      C        0.66090    0.47100    0.05780    1.000
    C20      C        0.64180    0.43149    0.97161    1.000
    C21      C        0.52560    0.53740    0.08790    1.000
    C22      C        0.92200    0.35120    0.12820    1.000
    C23      C        0.08640    0.44180    0.22940    1.000
    C24      C        0.83720    0.43800    0.11620    1.000
    C25      C        0.83910    0.05780    0.02900    1.000
    C26      C        0.85820    0.97161    0.06851    1.000
    C27      C        0.97440    0.08790    0.96260    1.000
    C28      C        0.57800    0.12820    0.14880    1.000
    C29      C        0.41360    0.22940    0.05820    1.000
    C30      C        0.66280    0.11620    0.06200    1.000
    C31      C        0.83910    0.44220    0.47100    1.000
    C32      C        0.85820    0.52839    0.43149    1.000
    C33      C        0.97440    0.41210    0.53740    1.000
    C34      C        0.57800    0.37180    0.35120    1.000
    C35      C        0.41360    0.27060    0.44180    1.000
    C36      C        0.66280    0.38380    0.43800    1.000
    C37      C        0.33910    0.97100    0.55780    1.000
    C38      C        0.35820    0.93149    0.47161    1.000
    C39      C        0.47440    0.03740    0.58790    1.000
    C40      C        0.07800    0.85120    0.62820    1.000
    C41      C        0.91360    0.94180    0.72940    1.000
    C42      C        0.16280    0.93800    0.61620    1.000
    C43      C        0.33910    0.52900    0.94220    1.000
    C44      C        0.35820    0.56851    0.02839    1.000
    C45      C        0.47440    0.46260    0.91210    1.000
    C46      C        0.07800    0.64880    0.87180    1.000
    C47      C        0.91360    0.55820    0.77060    1.000
    C48      C        0.16280    0.56200    0.88380    1.000
    N1       N        0.58000    0.80007    0.85398    1.000
    N2       N        0.44010    0.81944    0.98971    1.000
    N3       N        0.58000    0.69993    0.64602    1.000
    N4       N        0.44010    0.68056    0.51029    1.000
    N5       N        0.08000    0.14602    0.30007    1.000
    N6       N        0.94010    0.01029    0.31944    1.000
    N7       N        0.08000    0.35398    0.19993    1.000
    N8       N        0.94010    0.48971    0.18056    1.000
    N9       N        0.42000    0.19993    0.14602    1.000
    N10      N        0.55990    0.18056    0.01029    1.000
    N11      N        0.42000    0.30007    0.35398    1.000
    N12      N        0.55990    0.31944    0.48971    1.000
    N13      N        0.92000    0.85398    0.69993    1.000
    N14      N        0.05990    0.98971    0.68056    1.000
    N15      N        0.92000    0.64602    0.80007    1.000
    N16      N        0.05990    0.51029    0.81944    1.000
