data_functionalizedCrystal
_audit_creation_method	'EQeq! by Chris Wilmer'
_symmetry_space_group_name_H-M	'P1'
_symmetry_Int_Tables_number	1
_symmetry_cell_setting	triclinic
loop_
_symmetry_equiv_pos_as_xyz
  x,y,z
_cell_length_a	27.634
_cell_length_b	27.634
_cell_length_c	27.634
_cell_angle_alpha	90
_cell_angle_beta	90
_cell_angle_gamma	90
loop_
_atom_site_label
_atom_site_type_symbol
_atom_site_fract_x
_atom_site_fract_y
_atom_site_fract_z
_atom_site_charge
Mof_Co	Co	0.5	4.78497e-33	0.7015	1.139
Mof_Co	Co	0.5	0	0.2985	1.139
Mof_Co	Co	0.7015	0.5	-0	1.139
Mof_Co	Co	0.2985	0.5	-0	1.139
Mof_Co	Co	1.14446e-32	0.7015	0.5	1.139
Mof_Co	Co	6.65967e-33	0.2985	0.5	1.139
Mof_Co	Co	0.5	9.56994e-33	0.7985	1.139
Mof_Co	Co	0.5	0	0.2015	1.138
Mof_Co	Co	6.65967e-33	0.2015	0.5	1.138
Mof_Co	Co	1.62296e-32	0.7985	0.5	1.139
Mof_Co	Co	0.2015	0.5	-0	1.138
Mof_Co	Co	0.7985	0.5	-0	1.139
Mof_H 	H 	0.3887	0.1105	0.6779	0.023
Mof_H 	H 	0.3297	0.1688	0.678	0.074
Mof_H 	H 	0.6113	0.8895	0.6779	0.032
Mof_H 	H 	0.6703	0.8312	0.678	0.076
Mof_H 	H 	0.6113	0.1105	0.3221	0.024
Mof_H 	H 	0.6703	0.1688	0.322	0.075
Mof_H 	H 	0.3887	0.8895	0.3221	0.032
Mof_H 	H 	0.3297	0.8312	0.322	0.076
Mof_H 	H 	0.6779	0.3887	0.1105	0.024
Mof_H 	H 	0.678	0.3297	0.1688	0.075
Mof_H 	H 	0.6779	0.6113	0.8895	0.033
Mof_H 	H 	0.678	0.6703	0.8312	0.076
Mof_H 	H 	0.3221	0.6113	0.1105	0.024
Mof_H 	H 	0.322	0.6703	0.1688	0.075
Mof_H 	H 	0.3221	0.3887	0.8895	0.032
Mof_H 	H 	0.322	0.3297	0.8312	0.076
Mof_H 	H 	0.1105	0.6779	0.3887	0.024
Mof_H 	H 	0.1688	0.678	0.3297	0.075
Mof_H 	H 	0.8895	0.6779	0.6113	0.033
Mof_H 	H 	0.8312	0.678	0.6703	0.076
Mof_H 	H 	0.1105	0.3221	0.6113	0.024
Mof_H 	H 	0.1688	0.322	0.6703	0.075
Mof_H 	H 	0.8895	0.3221	0.3887	0.032
Mof_H 	H 	0.8312	0.322	0.3297	0.076
Mof_H 	H 	0.6105	0.8887	0.8221	0.033
Mof_H 	H 	0.6688	0.8297	0.822	0.079
Mof_H 	H 	0.3895	0.1113	0.8221	0.026
Mof_H 	H 	0.3312	0.1703	0.822	0.076
Mof_H 	H 	0.6105	0.1113	0.1779	0.022
Mof_H 	H 	0.6688	0.1703	0.178	0.073
Mof_H 	H 	0.3895	0.8887	0.1779	0.028
Mof_H 	H 	0.3312	0.8297	0.178	0.073
Mof_H 	H 	0.8887	0.1779	0.3895	0.028
Mof_H 	H 	0.8297	0.178	0.3312	0.073
Mof_H 	H 	0.1113	0.1779	0.6105	0.022
Mof_H 	H 	0.1703	0.178	0.6688	0.073
Mof_H 	H 	0.1113	0.8221	0.3895	0.026
Mof_H 	H 	0.1703	0.822	0.3312	0.076
Mof_H 	H 	0.8887	0.8221	0.6105	0.033
Mof_H 	H 	0.8297	0.822	0.6688	0.079
Mof_H 	H 	0.1779	0.6105	0.1113	0.022
Mof_H 	H 	0.178	0.6688	0.1703	0.073
Mof_H 	H 	0.1779	0.3895	0.8887	0.028
Mof_H 	H 	0.178	0.3312	0.8297	0.073
Mof_H 	H 	0.8221	0.6105	0.8887	0.033
Mof_H 	H 	0.822	0.6688	0.8297	0.079
Mof_H 	H 	0.8221	0.3895	0.1113	0.026
Mof_H 	H 	0.822	0.3312	0.1703	0.076
Mof_H 	H 	0.6113	0.8895	0.3221	0.033
Mof_H 	H 	0.6703	0.8312	0.322	0.076
Mof_H 	H 	0.3887	0.1105	0.3221	0.024
Mof_H 	H 	0.3297	0.1688	0.322	0.075
Mof_H 	H 	0.3887	0.8895	0.6779	0.033
Mof_H 	H 	0.3297	0.8312	0.678	0.076
Mof_H 	H 	0.6113	0.1105	0.6779	0.025
Mof_H 	H 	0.6703	0.1688	0.678	0.075
Mof_H 	H 	0.3221	0.6113	0.8895	0.033
Mof_H 	H 	0.322	0.6703	0.8312	0.076
Mof_H 	H 	0.3221	0.3887	0.1105	0.024
Mof_H 	H 	0.322	0.3297	0.1688	0.075
Mof_H 	H 	0.6779	0.3887	0.8895	0.033
Mof_H 	H 	0.678	0.3297	0.8312	0.076
Mof_H 	H 	0.6779	0.6113	0.1105	0.025
Mof_H 	H 	0.678	0.6703	0.1688	0.075
Mof_H 	H 	0.8895	0.3221	0.6113	0.033
Mof_H 	H 	0.8312	0.322	0.6703	0.076
Mof_H 	H 	0.1105	0.3221	0.3887	0.024
Mof_H 	H 	0.1688	0.322	0.3297	0.075
Mof_H 	H 	0.8895	0.6779	0.3887	0.033
Mof_H 	H 	0.8312	0.678	0.3297	0.076
Mof_H 	H 	0.1105	0.6779	0.6113	0.025
Mof_H 	H 	0.1688	0.678	0.6703	0.075
Mof_H 	H 	0.3895	0.1113	0.1779	0.021
Mof_H 	H 	0.3312	0.1703	0.178	0.072
Mof_H 	H 	0.6105	0.8887	0.1779	0.029
Mof_H 	H 	0.6688	0.8297	0.178	0.074
Mof_H 	H 	0.3895	0.8887	0.8221	0.033
Mof_H 	H 	0.3312	0.8297	0.822	0.078
Mof_H 	H 	0.6105	0.1113	0.8221	0.026
Mof_H 	H 	0.6688	0.1703	0.822	0.078
Mof_H 	H 	0.1113	0.8221	0.6105	0.026
Mof_H 	H 	0.1703	0.822	0.6688	0.078
Mof_H 	H 	0.8887	0.8221	0.3895	0.033
Mof_H 	H 	0.8297	0.822	0.3312	0.078
Mof_H 	H 	0.8887	0.1779	0.6105	0.029
Mof_H 	H 	0.8297	0.178	0.6688	0.074
Mof_H 	H 	0.1113	0.1779	0.3895	0.021
Mof_H 	H 	0.1703	0.178	0.3312	0.072
Mof_H 	H 	0.8221	0.3895	0.8887	0.033
Mof_H 	H 	0.822	0.3312	0.8297	0.078
Mof_H 	H 	0.8221	0.6105	0.1113	0.026
Mof_H 	H 	0.822	0.6688	0.1703	0.078
Mof_H 	H 	0.1779	0.3895	0.1113	0.021
Mof_H 	H 	0.178	0.3312	0.1703	0.072
Mof_H 	H 	0.1779	0.6105	0.8887	0.029
Mof_H 	H 	0.178	0.6688	0.8297	0.074
Mof_H 	H 	0.25	0.1908	0.6908	0.063
Mof_H 	H 	0.75	0.8092	0.6908	0.069
Mof_H 	H 	0.75	0.1908	0.3092	0.064
Mof_H 	H 	0.25	0.8092	0.3092	0.066
Mof_H 	H 	0.6908	0.25	0.1908	0.063
Mof_H 	H 	0.6908	0.75	0.8092	0.069
Mof_H 	H 	0.3092	0.75	0.1908	0.064
Mof_H 	H 	0.3092	0.25	0.8092	0.066
Mof_H 	H 	0.1908	0.6908	0.25	0.063
Mof_H 	H 	0.8092	0.6908	0.75	0.069
Mof_H 	H 	0.1908	0.3092	0.75	0.064
Mof_H 	H 	0.8092	0.3092	0.25	0.066
Mof_H 	H 	0.75	0.8092	0.3092	0.068
Mof_H 	H 	0.25	0.1908	0.3092	0.062
Mof_H 	H 	0.25	0.8092	0.6908	0.067
Mof_H 	H 	0.75	0.1908	0.6908	0.065
Mof_H 	H 	0.3092	0.75	0.8092	0.068
Mof_H 	H 	0.3092	0.25	0.1908	0.062
Mof_H 	H 	0.6908	0.25	0.8092	0.067
Mof_H 	H 	0.6908	0.75	0.1908	0.065
Mof_H 	H 	0.8092	0.3092	0.75	0.068
Mof_H 	H 	0.1908	0.3092	0.25	0.062
Mof_H 	H 	0.8092	0.6908	0.25	0.067
Mof_H 	H 	0.1908	0.6908	0.75	0.065
Mof_H 	H 	0.4292	0	0.5378	0.089
Mof_H 	H 	0.4325	0	0.6189	-0.024
Mof_H 	H 	0.5708	0	0.5378	0.09
Mof_H 	H 	0.5675	0	0.6189	-0.023
Mof_H 	H 	0.5708	0	0.4622	0.09
Mof_H 	H 	0.5675	0	0.3811	-0.024
Mof_H 	H 	0.4292	0	0.4622	0.089
Mof_H 	H 	0.4325	0	0.3811	-0.024
Mof_H 	H 	0.5378	0.4292	-0	0.089
Mof_H 	H 	0.6189	0.4325	-0	-0.024
Mof_H 	H 	0.5378	0.5708	-0	0.09
Mof_H 	H 	0.6189	0.5675	-0	-0.023
Mof_H 	H 	0.4622	0.5708	-0	0.09
Mof_H 	H 	0.3811	0.5675	-0	-0.024
Mof_H 	H 	0.4622	0.4292	-0	0.089
Mof_H 	H 	0.3811	0.4325	-0	-0.024
Mof_H 	H 	6.39421e-33	0.5378	0.4292	0.089
Mof_H 	H 	-3.16335e-33	0.6189	0.4325	-0.024
Mof_H 	H 	-2.64481e-33	0.5378	0.5708	0.09
Mof_H 	H 	-7.44215e-33	0.6189	0.5675	-0.023
Mof_H 	H 	-2.64481e-33	0.4622	0.5708	0.09
Mof_H 	H 	2.12778e-33	0.3811	0.5675	-0.024
Mof_H 	H 	6.39421e-33	0.4622	0.4292	0.089
Mof_H 	H 	1.62162e-33	0.3811	0.4325	-0.024
Mof_H 	H 	0.5	0.9292	0.9622	0.119
Mof_H 	H 	0.5	0.9325	0.8811	-0.032
Mof_H 	H 	0.5	0.0708	0.9622	0.121
Mof_H 	H 	0.5	0.0675	0.8811	-0.026
Mof_H 	H 	0.5	0.0708	0.0378	0.056
Mof_H 	H 	0.5	0.0675	0.1189	-0.004
Mof_H 	H 	0.5	0.9292	0.0378	0.054
Mof_H 	H 	0.5	0.9325	0.1189	-0.01
Mof_H 	H 	0.9292	0.0378	0.5	0.054
Mof_H 	H 	0.9325	0.1189	0.5	-0.01
Mof_H 	H 	0.0708	0.0378	0.5	0.056
Mof_H 	H 	0.0675	0.1189	0.5	-0.004
Mof_H 	H 	0.0708	0.9622	0.5	0.121
Mof_H 	H 	0.0675	0.8811	0.5	-0.026
Mof_H 	H 	0.9292	0.9622	0.5	0.119
Mof_H 	H 	0.9325	0.8811	0.5	-0.032
Mof_H 	H 	0.0378	0.5	0.0708	0.056
Mof_H 	H 	0.1189	0.5	0.0675	-0.004
Mof_H 	H 	0.0378	0.5	0.9292	0.054
Mof_H 	H 	0.1189	0.5	0.9325	-0.01
Mof_H 	H 	0.9622	0.5	0.9292	0.119
Mof_H 	H 	0.8811	0.5	0.9325	-0.032
Mof_H 	H 	0.9622	0.5	0.0708	0.121
Mof_H 	H 	0.8811	0.5	0.0675	-0.026
Mof_C 	C 	0.37707	0.12235	0.70714	0.059
Mof_C 	C 	0.34174	0.15742	0.70726	-0.128
Mof_C 	C 	0.62293	0.87765	0.70714	0.055
Mof_C 	C 	0.65826	0.84258	0.70726	-0.119
Mof_C 	C 	0.62293	0.12235	0.29286	0.059
Mof_C 	C 	0.65826	0.15742	0.29274	-0.128
Mof_C 	C 	0.37707	0.87765	0.29286	0.055
Mof_C 	C 	0.34174	0.84258	0.29274	-0.121
Mof_C 	C 	0.70714	0.37707	0.12235	0.059
Mof_C 	C 	0.70726	0.34174	0.15742	-0.128
Mof_C 	C 	0.70714	0.62293	0.87765	0.055
Mof_C 	C 	0.70726	0.65826	0.84258	-0.119
Mof_C 	C 	0.29286	0.62293	0.12235	0.059
Mof_C 	C 	0.29274	0.65826	0.15742	-0.128
Mof_C 	C 	0.29286	0.37707	0.87765	0.055
Mof_C 	C 	0.29274	0.34174	0.84258	-0.121
Mof_C 	C 	0.12235	0.70714	0.37707	0.059
Mof_C 	C 	0.15742	0.70726	0.34174	-0.128
Mof_C 	C 	0.87765	0.70714	0.62293	0.055
Mof_C 	C 	0.84258	0.70726	0.65826	-0.119
Mof_C 	C 	0.12235	0.29286	0.62293	0.059
Mof_C 	C 	0.15742	0.29274	0.65826	-0.128
Mof_C 	C 	0.87765	0.29286	0.37707	0.055
Mof_C 	C 	0.84258	0.29274	0.34174	-0.121
Mof_C 	C 	0.62235	0.87707	0.79286	0.056
Mof_C 	C 	0.65742	0.84174	0.79274	-0.119
Mof_C 	C 	0.37765	0.12293	0.79286	0.06
Mof_C 	C 	0.34258	0.15826	0.79274	-0.128
Mof_C 	C 	0.62235	0.12293	0.20714	0.059
Mof_C 	C 	0.65742	0.15826	0.20726	-0.129
Mof_C 	C 	0.37765	0.87707	0.20714	0.055
Mof_C 	C 	0.34258	0.84174	0.20726	-0.122
Mof_C 	C 	0.87707	0.20714	0.37765	0.055
Mof_C 	C 	0.84174	0.20726	0.34258	-0.122
Mof_C 	C 	0.12293	0.20714	0.62235	0.059
Mof_C 	C 	0.15826	0.20726	0.65742	-0.129
Mof_C 	C 	0.12293	0.79286	0.37765	0.06
Mof_C 	C 	0.15826	0.79274	0.34258	-0.128
Mof_C 	C 	0.87707	0.79286	0.62235	0.056
Mof_C 	C 	0.84174	0.79274	0.65742	-0.119
Mof_C 	C 	0.20714	0.62235	0.12293	0.059
Mof_C 	C 	0.20726	0.65742	0.15826	-0.129
Mof_C 	C 	0.20714	0.37765	0.87707	0.055
Mof_C 	C 	0.20726	0.34258	0.84174	-0.122
Mof_C 	C 	0.79286	0.62235	0.87707	0.056
Mof_C 	C 	0.79274	0.65742	0.84174	-0.119
Mof_C 	C 	0.79286	0.37765	0.12293	0.06
Mof_C 	C 	0.79274	0.34258	0.15826	-0.128
Mof_C 	C 	0.62293	0.87765	0.29286	0.055
Mof_C 	C 	0.65826	0.84258	0.29274	-0.12
Mof_C 	C 	0.37707	0.12235	0.29286	0.059
Mof_C 	C 	0.34174	0.15742	0.29274	-0.129
Mof_C 	C 	0.37707	0.87765	0.70714	0.055
Mof_C 	C 	0.34174	0.84258	0.70726	-0.12
Mof_C 	C 	0.62293	0.12235	0.70714	0.059
Mof_C 	C 	0.65826	0.15742	0.70726	-0.127
Mof_C 	C 	0.29286	0.62293	0.87765	0.055
Mof_C 	C 	0.29274	0.65826	0.84258	-0.12
Mof_C 	C 	0.29286	0.37707	0.12235	0.059
Mof_C 	C 	0.29274	0.34174	0.15742	-0.129
Mof_C 	C 	0.70714	0.37707	0.87765	0.055
Mof_C 	C 	0.70726	0.34174	0.84258	-0.12
Mof_C 	C 	0.70714	0.62293	0.12235	0.059
Mof_C 	C 	0.70726	0.65826	0.15742	-0.127
Mof_C 	C 	0.87765	0.29286	0.62293	0.055
Mof_C 	C 	0.84258	0.29274	0.65826	-0.12
Mof_C 	C 	0.12235	0.29286	0.37707	0.059
Mof_C 	C 	0.15742	0.29274	0.34174	-0.129
Mof_C 	C 	0.87765	0.70714	0.37707	0.055
Mof_C 	C 	0.84258	0.70726	0.34174	-0.12
Mof_C 	C 	0.12235	0.70714	0.62293	0.059
Mof_C 	C 	0.15742	0.70726	0.65826	-0.127
Mof_C 	C 	0.37765	0.12293	0.20714	0.059
Mof_C 	C 	0.34258	0.15826	0.20726	-0.129
Mof_C 	C 	0.62235	0.87707	0.20714	0.055
Mof_C 	C 	0.65742	0.84174	0.20726	-0.121
Mof_C 	C 	0.37765	0.87707	0.79286	0.056
Mof_C 	C 	0.34258	0.84174	0.79274	-0.12
Mof_C 	C 	0.62235	0.12293	0.79286	0.06
Mof_C 	C 	0.65742	0.15826	0.79274	-0.127
Mof_C 	C 	0.12293	0.79286	0.62235	0.06
Mof_C 	C 	0.15826	0.79274	0.65742	-0.127
Mof_C 	C 	0.87707	0.79286	0.37765	0.056
Mof_C 	C 	0.84174	0.79274	0.34258	-0.12
Mof_C 	C 	0.87707	0.20714	0.62235	0.055
Mof_C 	C 	0.84174	0.20726	0.65742	-0.121
Mof_C 	C 	0.12293	0.20714	0.37765	0.059
Mof_C 	C 	0.15826	0.20726	0.34258	-0.129
Mof_C 	C 	0.79286	0.37765	0.87707	0.056
Mof_C 	C 	0.79274	0.34258	0.84174	-0.12
Mof_C 	C 	0.79286	0.62235	0.12293	0.06
Mof_C 	C 	0.79274	0.65742	0.15826	-0.127
Mof_C 	C 	0.20714	0.37765	0.12293	0.059
Mof_C 	C 	0.20726	0.34258	0.15826	-0.129
Mof_C 	C 	0.20714	0.62235	0.87707	0.055
Mof_C 	C 	0.20726	0.65742	0.84174	-0.121
Mof_C 	C 	0.5	0	0.52694	0.086
Mof_C 	C 	0.5	0	0.47306	0.086
Mof_C 	C 	0.52694	0.5	-0	0.086
Mof_C 	C 	0.47306	0.5	-0	0.086
Mof_C 	C 	6.65967e-33	0.52694	0.5	0.086
Mof_C 	C 	6.65967e-33	0.47306	0.5	0.086
Mof_C 	C 	0.5	0	0.97306	0.15
Mof_C 	C 	0.5	0	0.02694	-0.038
Mof_C 	C 	6.65967e-33	0.02694	0.5	-0.038
Mof_C 	C 	6.65967e-33	0.97306	0.5	0.15
Mof_C 	C 	0.02694	0.5	-0	-0.038
Mof_C 	C 	0.97306	0.5	-0	0.15
Mof_C 	C 	0.43397	0.06603	0.75	0.392
Mof_C 	C 	0.39549	0.10451	0.75	-0.132
Mof_C 	C 	0.32389	0.17611	0.75	0.06
Mof_C 	C 	0.28595	0.21405	0.75	0.031
Mof_C 	C 	0.56603	0.93397	0.75	0.388
Mof_C 	C 	0.60451	0.89549	0.75	-0.12
Mof_C 	C 	0.67611	0.82389	0.75	0.058
Mof_C 	C 	0.71405	0.78595	0.75	0.038
Mof_C 	C 	0.56603	0.06603	0.25	0.392
Mof_C 	C 	0.60451	0.10451	0.25	-0.134
Mof_C 	C 	0.67611	0.17611	0.25	0.06
Mof_C 	C 	0.71405	0.21405	0.25	0.03
Mof_C 	C 	0.43397	0.93397	0.25	0.388
Mof_C 	C 	0.39549	0.89549	0.25	-0.123
Mof_C 	C 	0.32389	0.82389	0.25	0.057
Mof_C 	C 	0.28595	0.78595	0.25	0.032
Mof_C 	C 	0.75	0.43397	0.06603	0.392
Mof_C 	C 	0.75	0.39549	0.10451	-0.132
Mof_C 	C 	0.75	0.32389	0.17611	0.06
Mof_C 	C 	0.75	0.28595	0.21405	0.031
Mof_C 	C 	0.75	0.56603	0.93397	0.388
Mof_C 	C 	0.75	0.60451	0.89549	-0.12
Mof_C 	C 	0.75	0.67611	0.82389	0.058
Mof_C 	C 	0.75	0.71405	0.78595	0.038
Mof_C 	C 	0.25	0.56603	0.06603	0.392
Mof_C 	C 	0.25	0.60451	0.10451	-0.134
Mof_C 	C 	0.25	0.67611	0.17611	0.06
Mof_C 	C 	0.25	0.71405	0.21405	0.03
Mof_C 	C 	0.25	0.43397	0.93397	0.388
Mof_C 	C 	0.25	0.39549	0.89549	-0.123
Mof_C 	C 	0.25	0.32389	0.82389	0.057
Mof_C 	C 	0.25	0.28595	0.78595	0.032
Mof_C 	C 	0.06603	0.75	0.43397	0.392
Mof_C 	C 	0.10451	0.75	0.39549	-0.132
Mof_C 	C 	0.17611	0.75	0.32389	0.06
Mof_C 	C 	0.21405	0.75	0.28595	0.031
Mof_C 	C 	0.93397	0.75	0.56603	0.388
Mof_C 	C 	0.89549	0.75	0.60451	-0.12
Mof_C 	C 	0.82389	0.75	0.67611	0.058
Mof_C 	C 	0.78595	0.75	0.71405	0.038
Mof_C 	C 	0.06603	0.25	0.56603	0.392
Mof_C 	C 	0.10451	0.25	0.60451	-0.134
Mof_C 	C 	0.17611	0.25	0.67611	0.06
Mof_C 	C 	0.21405	0.25	0.71405	0.03
Mof_C 	C 	0.93397	0.25	0.43397	0.388
Mof_C 	C 	0.89549	0.25	0.39549	-0.123
Mof_C 	C 	0.82389	0.25	0.32389	0.057
Mof_C 	C 	0.78595	0.25	0.28595	0.032
Mof_C 	C 	0.56603	0.93397	0.25	0.388
Mof_C 	C 	0.60451	0.89549	0.25	-0.122
Mof_C 	C 	0.67611	0.82389	0.25	0.057
Mof_C 	C 	0.71405	0.78595	0.25	0.035
Mof_C 	C 	0.43397	0.06603	0.25	0.392
Mof_C 	C 	0.39549	0.10451	0.25	-0.134
Mof_C 	C 	0.32389	0.17611	0.25	0.059
Mof_C 	C 	0.28595	0.21405	0.25	0.028
Mof_C 	C 	0.43397	0.93397	0.75	0.388
Mof_C 	C 	0.39549	0.89549	0.75	-0.121
Mof_C 	C 	0.32389	0.82389	0.75	0.057
Mof_C 	C 	0.28595	0.78595	0.75	0.035
Mof_C 	C 	0.56603	0.06603	0.75	0.392
Mof_C 	C 	0.60451	0.10451	0.75	-0.132
Mof_C 	C 	0.67611	0.17611	0.75	0.06
Mof_C 	C 	0.71405	0.21405	0.75	0.033
Mof_C 	C 	0.25	0.56603	0.93397	0.388
Mof_C 	C 	0.25	0.60451	0.89549	-0.122
Mof_C 	C 	0.25	0.67611	0.82389	0.057
Mof_C 	C 	0.25	0.71405	0.78595	0.035
Mof_C 	C 	0.25	0.43397	0.06603	0.392
Mof_C 	C 	0.25	0.39549	0.10451	-0.134
Mof_C 	C 	0.25	0.32389	0.17611	0.059
Mof_C 	C 	0.25	0.28595	0.21405	0.028
Mof_C 	C 	0.75	0.43397	0.93397	0.388
Mof_C 	C 	0.75	0.39549	0.89549	-0.121
Mof_C 	C 	0.75	0.32389	0.82389	0.057
Mof_C 	C 	0.75	0.28595	0.78595	0.035
Mof_C 	C 	0.75	0.56603	0.06603	0.392
Mof_C 	C 	0.75	0.60451	0.10451	-0.132
Mof_C 	C 	0.75	0.67611	0.17611	0.06
Mof_C 	C 	0.75	0.71405	0.21405	0.033
Mof_C 	C 	0.93397	0.25	0.56603	0.388
Mof_C 	C 	0.89549	0.25	0.60451	-0.122
Mof_C 	C 	0.82389	0.25	0.67611	0.057
Mof_C 	C 	0.78595	0.25	0.71405	0.035
Mof_C 	C 	0.06603	0.25	0.43397	0.392
Mof_C 	C 	0.10451	0.25	0.39549	-0.134
Mof_C 	C 	0.17611	0.25	0.32389	0.059
Mof_C 	C 	0.21405	0.25	0.28595	0.028
Mof_C 	C 	0.93397	0.75	0.43397	0.388
Mof_C 	C 	0.89549	0.75	0.39549	-0.121
Mof_C 	C 	0.82389	0.75	0.32389	0.057
Mof_C 	C 	0.78595	0.75	0.28595	0.035
Mof_C 	C 	0.06603	0.75	0.56603	0.392
Mof_C 	C 	0.10451	0.75	0.60451	-0.132
Mof_C 	C 	0.17611	0.75	0.67611	0.06
Mof_C 	C 	0.21405	0.75	0.71405	0.033
Mof_C 	C 	0.25	0.2146	0.7146	-0.098
Mof_C 	C 	0.75	0.7854	0.7146	-0.101
Mof_C 	C 	0.75	0.2146	0.2854	-0.099
Mof_C 	C 	0.25	0.7854	0.2854	-0.099
Mof_C 	C 	0.7146	0.25	0.2146	-0.098
Mof_C 	C 	0.7146	0.75	0.7854	-0.101
Mof_C 	C 	0.2854	0.75	0.2146	-0.099
Mof_C 	C 	0.2854	0.25	0.7854	-0.099
Mof_C 	C 	0.2146	0.7146	0.25	-0.098
Mof_C 	C 	0.7854	0.7146	0.75	-0.101
Mof_C 	C 	0.2146	0.2854	0.75	-0.099
Mof_C 	C 	0.7854	0.2854	0.25	-0.099
Mof_C 	C 	0.75	0.7854	0.2854	-0.101
Mof_C 	C 	0.25	0.2146	0.2854	-0.098
Mof_C 	C 	0.25	0.7854	0.7146	-0.1
Mof_C 	C 	0.75	0.2146	0.7146	-0.1
Mof_C 	C 	0.2854	0.75	0.7854	-0.101
Mof_C 	C 	0.2854	0.25	0.2146	-0.098
Mof_C 	C 	0.7146	0.25	0.7854	-0.1
Mof_C 	C 	0.7146	0.75	0.2146	-0.1
Mof_C 	C 	0.7854	0.2854	0.75	-0.101
Mof_C 	C 	0.2146	0.2854	0.25	-0.098
Mof_C 	C 	0.7854	0.7146	0.25	-0.1
Mof_C 	C 	0.2146	0.7146	0.75	-0.1
Mof_C 	C 	0.4591	4.78497e-33	0.5531	-0.187
Mof_C 	C 	0.4617	-4.78497e-33	0.60213	0.136
Mof_C 	C 	0.5409	4.78497e-33	0.5531	-0.187
Mof_C 	C 	0.5383	-4.78497e-33	0.60213	0.136
Mof_C 	C 	0.5409	0	0.4469	-0.187
Mof_C 	C 	0.5383	0	0.39787	0.136
Mof_C 	C 	0.4591	0	0.4469	-0.187
Mof_C 	C 	0.4617	0	0.39787	0.136
Mof_C 	C 	0.5531	0.4591	-0	-0.187
Mof_C 	C 	0.60213	0.4617	-0	0.136
Mof_C 	C 	0.5531	0.5409	-0	-0.187
Mof_C 	C 	0.60213	0.5383	-0	0.136
Mof_C 	C 	0.4469	0.5409	-0	-0.187
Mof_C 	C 	0.39787	0.5383	-0	0.136
Mof_C 	C 	0.4469	0.4591	-0	-0.187
Mof_C 	C 	0.39787	0.4617	-0	0.136
Mof_C 	C 	1.12913e-32	0.5531	0.4591	-0.187
Mof_C 	C 	1.1301e-32	0.60213	0.4617	0.136
Mof_C 	C 	2.02805e-33	0.5531	0.5409	-0.187
Mof_C 	C 	2.0183e-33	0.60213	0.5383	0.136
Mof_C 	C 	6.81302e-33	0.4469	0.5409	-0.187
Mof_C 	C 	2.0183e-33	0.39787	0.5383	0.136
Mof_C 	C 	6.50632e-33	0.4469	0.4591	-0.187
Mof_C 	C 	6.51607e-33	0.39787	0.4617	0.136
Mof_C 	C 	0.5	0.9591	0.9469	-0.209
Mof_C 	C 	0.5	0.9617	0.89787	0.2
Mof_C 	C 	0.5	0.0409	0.9469	-0.236
Mof_C 	C 	0.5	0.0383	0.89787	0.165
Mof_C 	C 	0.5	0.0409	0.0531	-0.112
Mof_C 	C 	0.5	0.0383	0.10213	0.086
Mof_C 	C 	0.5	0.9591	0.0531	-0.085
Mof_C 	C 	0.5	0.9617	0.10213	0.121
Mof_C 	C 	0.9591	0.0531	0.5	-0.085
Mof_C 	C 	0.9617	0.10213	0.5	0.121
Mof_C 	C 	0.0409	0.0531	0.5	-0.112
Mof_C 	C 	0.0383	0.10213	0.5	0.086
Mof_C 	C 	0.0409	0.9469	0.5	-0.236
Mof_C 	C 	0.0383	0.89787	0.5	0.165
Mof_C 	C 	0.9591	0.9469	0.5	-0.209
Mof_C 	C 	0.9617	0.89787	0.5	0.2
Mof_C 	C 	0.0531	0.5	0.0409	-0.112
Mof_C 	C 	0.10213	0.5	0.0383	0.086
Mof_C 	C 	0.0531	0.5	0.9591	-0.085
Mof_C 	C 	0.10213	0.5	0.9617	0.121
Mof_C 	C 	0.9469	0.5	0.9591	-0.209
Mof_C 	C 	0.89787	0.5	0.9617	0.2
Mof_C 	C 	0.9469	0.5	0.0409	-0.236
Mof_C 	C 	0.89787	0.5	0.0383	0.165
Mof_N 	N 	0.5	9.56994e-33	0.6273	-0.268
Mof_N 	N 	0.5	0	0.3727	-0.268
Mof_N 	N 	0.6273	0.5	-0	-0.268
Mof_N 	N 	0.3727	0.5	-0	-0.268
Mof_N 	N 	2.10146e-32	0.6273	0.5	-0.268
Mof_N 	N 	6.65967e-33	0.3727	0.5	-0.268
Mof_N 	N 	0.5	0	0.8727	-0.296
Mof_N 	N 	0.5	0	0.1273	-0.265
Mof_N 	N 	-2.91027e-33	0.1273	0.5	-0.265
Mof_N 	N 	6.65967e-33	0.8727	0.5	-0.296
Mof_N 	N 	0.1273	0.5	-0	-0.265
Mof_N 	N 	0.8727	0.5	-0	-0.296
Mof_O 	O 	0.4484	0.05138	0.70986	-0.457
Mof_O 	O 	0.5516	0.94862	0.70986	-0.435
Mof_O 	O 	0.5516	0.05138	0.29014	-0.457
Mof_O 	O 	0.4484	0.94862	0.29014	-0.436
Mof_O 	O 	0.70986	0.4484	0.05138	-0.457
Mof_O 	O 	0.70986	0.5516	0.94862	-0.435
Mof_O 	O 	0.29014	0.5516	0.05138	-0.457
Mof_O 	O 	0.29014	0.4484	0.94862	-0.436
Mof_O 	O 	0.05138	0.70986	0.4484	-0.457
Mof_O 	O 	0.94862	0.70986	0.5516	-0.435
Mof_O 	O 	0.05138	0.29014	0.5516	-0.457
Mof_O 	O 	0.94862	0.29014	0.4484	-0.436
Mof_O 	O 	0.55138	0.9484	0.79014	-0.436
Mof_O 	O 	0.44862	0.0516	0.79014	-0.457
Mof_O 	O 	0.55138	0.0516	0.20986	-0.459
Mof_O 	O 	0.44862	0.9484	0.20986	-0.439
Mof_O 	O 	0.9484	0.20986	0.44862	-0.439
Mof_O 	O 	0.0516	0.20986	0.55138	-0.459
Mof_O 	O 	0.0516	0.79014	0.44862	-0.457
Mof_O 	O 	0.9484	0.79014	0.55138	-0.436
Mof_O 	O 	0.20986	0.55138	0.0516	-0.459
Mof_O 	O 	0.20986	0.44862	0.9484	-0.439
Mof_O 	O 	0.79014	0.55138	0.9484	-0.436
Mof_O 	O 	0.79014	0.44862	0.0516	-0.457
Mof_O 	O 	0.5516	0.94862	0.29014	-0.435
Mof_O 	O 	0.4484	0.05138	0.29014	-0.457
Mof_O 	O 	0.4484	0.94862	0.70986	-0.435
Mof_O 	O 	0.5516	0.05138	0.70986	-0.456
Mof_O 	O 	0.29014	0.5516	0.94862	-0.435
Mof_O 	O 	0.29014	0.4484	0.05138	-0.457
Mof_O 	O 	0.70986	0.4484	0.94862	-0.435
Mof_O 	O 	0.70986	0.5516	0.05138	-0.456
Mof_O 	O 	0.94862	0.29014	0.5516	-0.435
Mof_O 	O 	0.05138	0.29014	0.4484	-0.457
Mof_O 	O 	0.94862	0.70986	0.4484	-0.435
Mof_O 	O 	0.05138	0.70986	0.5516	-0.456
Mof_O 	O 	0.44862	0.0516	0.20986	-0.459
Mof_O 	O 	0.55138	0.9484	0.20986	-0.439
Mof_O 	O 	0.44862	0.9484	0.79014	-0.437
Mof_O 	O 	0.55138	0.0516	0.79014	-0.456
Mof_O 	O 	0.0516	0.79014	0.55138	-0.456
Mof_O 	O 	0.9484	0.79014	0.44862	-0.437
Mof_O 	O 	0.9484	0.20986	0.55138	-0.439
Mof_O 	O 	0.0516	0.20986	0.44862	-0.459
Mof_O 	O 	0.79014	0.44862	0.9484	-0.437
Mof_O 	O 	0.79014	0.55138	0.0516	-0.456
Mof_O 	O 	0.20986	0.44862	0.0516	-0.459
Mof_O 	O 	0.20986	0.55138	0.9484	-0.439
_end
