# CIF file generated by openbabel 3.1.0, see https://openbabel.org
data_I
_chemical_name_common 'MAXFIA_charged'
_cell_length_a 11.396
_cell_length_b 11.396
_cell_length_c 13.913
_cell_angle_alpha 90
_cell_angle_beta 90
_cell_angle_gamma 90
_space_group_name_H-M_alt 'P 1'
_space_group_name_Hall 'P 1'
loop_
    _symmetry_equiv_pos_as_xyz
    x,y,z
loop_
    _atom_site_label
    _atom_site_type_symbol
    _atom_site_fract_x
    _atom_site_fract_y
    _atom_site_fract_z
    _atom_site_occupancy
    Ag1      Ag       0.89081    0.89081    0.00000    1.000
    Ag2      Ag       0.10919    0.10919    0.50000    1.000
    Ag3      Ag       0.60919    0.39081    0.25000    1.000
    Ag4      Ag       0.39081    0.60919    0.75000    1.000
    H1       H        0.58740    0.55370    0.06880    1.000
    H2       H        0.58400    0.80750    0.71450    1.000
    H3       H        0.89990    0.73570    0.20710    1.000
    H4       H        0.41260    0.44630    0.56880    1.000
    H5       H        0.41600    0.19250    0.21450    1.000
    H6       H        0.10010    0.26430    0.70710    1.000
    H7       H        0.94630    0.08740    0.31880    1.000
    H8       H        0.69250    0.08400    0.96450    1.000
    H9       H        0.76430    0.39990    0.45710    1.000
    H10      H        0.05370    0.91260    0.81880    1.000
    H11      H        0.30750    0.91600    0.46450    1.000
    H12      H        0.23570    0.60010    0.95710    1.000
    H13      H        0.91260    0.05370    0.18120    1.000
    H14      H        0.91600    0.30750    0.53550    1.000
    H15      H        0.60010    0.23570    0.04290    1.000
    H16      H        0.08740    0.94630    0.68120    1.000
    H17      H        0.08400    0.69250    0.03550    1.000
    H18      H        0.39990    0.76430    0.54290    1.000
    H19      H        0.55370    0.58740    0.93120    1.000
    H20      H        0.80750    0.58400    0.28550    1.000
    H21      H        0.73570    0.89990    0.79290    1.000
    H22      H        0.44630    0.41260    0.43120    1.000
    H23      H        0.19250    0.41600    0.78550    1.000
    H24      H        0.26430    0.10010    0.29290    1.000
    C1       C        0.67720    0.71210    0.95030    1.000
    C2       C        0.58960    0.65320    0.90140    1.000
    C3       C        0.60770    0.77950    0.77580    1.000
    C4       C        0.83640    0.69660    0.17650    1.000
    C5       C        0.32280    0.28790    0.45030    1.000
    C6       C        0.41040    0.34680    0.40140    1.000
    C7       C        0.39230    0.22050    0.27580    1.000
    C8       C        0.16360    0.30340    0.67650    1.000
    C9       C        0.78790    0.17720    0.20030    1.000
    C10      C        0.84680    0.08960    0.15140    1.000
    C11      C        0.72050    0.10770    0.02580    1.000
    C12      C        0.80340    0.33640    0.42650    1.000
    C13      C        0.21210    0.82280    0.70030    1.000
    C14      C        0.15320    0.91040    0.65140    1.000
    C15      C        0.27950    0.89230    0.52580    1.000
    C16      C        0.19660    0.66360    0.92650    1.000
    C17      C        0.82280    0.21210    0.29970    1.000
    C18      C        0.91040    0.15320    0.34860    1.000
    C19      C        0.89230    0.27950    0.47420    1.000
    C20      C        0.66360    0.19660    0.07350    1.000
    C21      C        0.17720    0.78790    0.79970    1.000
    C22      C        0.08960    0.84680    0.84860    1.000
    C23      C        0.10770    0.72050    0.97420    1.000
    C24      C        0.33640    0.80340    0.57350    1.000
    C25      C        0.71210    0.67720    0.04970    1.000
    C26      C        0.65320    0.58960    0.09860    1.000
    C27      C        0.77950    0.60770    0.22420    1.000
    C28      C        0.69660    0.83640    0.82350    1.000
    C29      C        0.28790    0.32280    0.54970    1.000
    C30      C        0.34680    0.41040    0.59860    1.000
    C31      C        0.22050    0.39230    0.72420    1.000
    C32      C        0.30340    0.16360    0.32350    1.000
    N1       N        0.72910    0.80490    0.91130    1.000
    N2       N        0.55300    0.68520    0.81330    1.000
    N3       N        0.27090    0.19510    0.41130    1.000
    N4       N        0.44700    0.31480    0.31330    1.000
    N5       N        0.69510    0.22910    0.16130    1.000
    N6       N        0.81480    0.05300    0.06330    1.000
    N7       N        0.30490    0.77090    0.66130    1.000
    N8       N        0.18520    0.94700    0.56330    1.000
    N9       N        0.77090    0.30490    0.33870    1.000
    N10      N        0.94700    0.18520    0.43670    1.000
    N11      N        0.22910    0.69510    0.83870    1.000
    N12      N        0.05300    0.81480    0.93670    1.000
    N13      N        0.80490    0.72910    0.08870    1.000
    N14      N        0.68520    0.55300    0.18670    1.000
    N15      N        0.19510    0.27090    0.58870    1.000
    N16      N        0.31480    0.44700    0.68670    1.000
    B1       B        0.87420    0.12580    0.75000    1.000
    F1       F        0.94230    0.09860    0.67370    1.000
    F2       F        0.75860    0.10750    0.73040    1.000
    F3       F        0.90140    0.05770    0.82630    1.000
    F4       F        0.89250    0.24140    0.76960    1.000
    B2       B        0.12580    0.87420    0.25000    1.000
    F5       F        0.05770    0.90140    0.17370    1.000
    F6       F        0.24140    0.89250    0.23040    1.000
    F7       F        0.09860    0.94230    0.32630    1.000
    F8       F        0.10750    0.75860    0.26960    1.000
    B3       B        0.37420    0.37420    0.00000    1.000
    F9       F        0.40140    0.44230    0.92370    1.000
    F10      F        0.39250    0.25860    0.98040    1.000
    F11      F        0.44230    0.40140    0.07630    1.000
    F12      F        0.25860    0.39250    0.01960    1.000
    B4       B        0.62580    0.62580    0.50000    1.000
    F13      F        0.59860    0.55770    0.42370    1.000
    F14      F        0.60750    0.74140    0.48040    1.000
    F15      F        0.55770    0.59860    0.57630    1.000
    F16      F        0.74140    0.60750    0.51960    1.000
