# CIF file generated by openbabel 3.1.0, see https://openbabel.org
data_I
_chemical_name_common 'image0'
_cell_length_a 16.829
_cell_length_b 14.358
_cell_length_c 11.977
_cell_angle_alpha 90
_cell_angle_beta 118.15
_cell_angle_gamma 90
_space_group_name_H-M_alt 'P 1'
_space_group_name_Hall 'P 1'
loop_
    _symmetry_equiv_pos_as_xyz
    x,y,z
loop_
    _atom_site_label
    _atom_site_type_symbol
    _atom_site_fract_x
    _atom_site_fract_y
    _atom_site_fract_z
    _atom_site_occupancy
    Mg1      Mg       0.09742    0.17680    0.90281    1.000
    C1       C        0.41943    0.79240    0.81640    1.000
    C2       C        0.39392    0.86510    0.88550    1.000
    C3       C        0.31118    0.91170    0.83110    1.000
    H1       H        0.26840    0.89910    0.74800    1.000
    C4       C        0.29331    0.97693    0.90180    1.000
    C5       C        0.35764    0.99690    0.02630    1.000
    H2       H        0.34570    0.04120    0.07310    1.000
    C6       C        0.44000    0.94990    0.07990    1.000
    C7       C        0.45685    0.88460    0.00910    1.000
    H3       H        0.51160    0.85320    0.04520    1.000
    C8       C        0.20363    0.02616    0.84920    1.000
    C9       C        0.51430    0.99180    0.20530    1.000
    H4       H        0.57410    0.98100    0.21470    1.000
    H5       H        0.50560    0.05800    0.21120    1.000
    O1       O        0.49527    0.75735    0.87980    1.000
    O2       O        0.36655    0.77172    0.70396    1.000
    O3       O        0.14021    0.00020    0.74690    1.000
    O4       O        0.19804    0.09178    0.91540    1.000
    H6       H        0.03410    0.04930    0.73920    1.000
    O5       O        0.50000    0.94141    0.20721    1.000
    Mg2      Mg       0.59742    0.67680    0.90281    1.000
    C10      C        0.91943    0.29240    0.81640    1.000
    C11      C        0.89392    0.36510    0.88550    1.000
    C12      C        0.81118    0.41170    0.83110    1.000
    H7       H        0.76840    0.39910    0.74800    1.000
    C13      C        0.79331    0.47693    0.90180    1.000
    C14      C        0.85764    0.49690    0.02630    1.000
    H8       H        0.84570    0.54120    0.07310    1.000
    C15      C        0.94000    0.44990    0.07990    1.000
    C16      C        0.95685    0.38460    0.00910    1.000
    H9       H        0.01160    0.35320    0.04520    1.000
    C17      C        0.70363    0.52616    0.84920    1.000
    C18      C        0.01430    0.49180    0.20530    1.000
    H10      H        0.07410    0.48100    0.21470    1.000
    H11      H        0.00560    0.55800    0.21120    1.000
    O6       O        0.99527    0.25735    0.87980    1.000
    O7       O        0.86655    0.27172    0.70396    1.000
    O8       O        0.64021    0.50020    0.74690    1.000
    O9       O        0.69804    0.59178    0.91540    1.000
    H12      H        0.53410    0.54930    0.73920    1.000
    O10      O        0.00000    0.44141    0.20721    1.000
    Mg3      Mg       0.90258    0.17680    0.59719    1.000
    C19      C        0.58057    0.79240    0.68360    1.000
    C20      C        0.60608    0.86510    0.61450    1.000
    C21      C        0.68882    0.91170    0.66890    1.000
    H13      H        0.73160    0.89910    0.75200    1.000
    C22      C        0.70669    0.97693    0.59820    1.000
    C23      C        0.64236    0.99690    0.47370    1.000
    H14      H        0.65430    0.04120    0.42690    1.000
    C24      C        0.56000    0.94990    0.42010    1.000
    C25      C        0.54315    0.88460    0.49090    1.000
    H15      H        0.48840    0.85320    0.45480    1.000
    C26      C        0.79637    0.02616    0.65080    1.000
    C27      C        0.48570    0.99180    0.29470    1.000
    H16      H        0.42590    0.98100    0.28530    1.000
    H17      H        0.49440    0.05800    0.28880    1.000
    O11      O        0.50473    0.75735    0.62020    1.000
    O12      O        0.63345    0.77172    0.79604    1.000
    O13      O        0.85979    0.00020    0.75310    1.000
    O14      O        0.80196    0.09178    0.58460    1.000
    H18      H        0.96590    0.04930    0.76080    1.000
    O15      O        0.50000    0.94141    0.29279    1.000
    Mg4      Mg       0.40258    0.67680    0.59719    1.000
    C28      C        0.08057    0.29240    0.68360    1.000
    C29      C        0.10608    0.36510    0.61450    1.000
    C30      C        0.18882    0.41170    0.66890    1.000
    H19      H        0.23160    0.39910    0.75200    1.000
    C31      C        0.20669    0.47693    0.59820    1.000
    C32      C        0.14236    0.49690    0.47370    1.000
    H20      H        0.15430    0.54120    0.42690    1.000
    C33      C        0.06000    0.44990    0.42010    1.000
    C34      C        0.04315    0.38460    0.49090    1.000
    H21      H        0.98840    0.35320    0.45480    1.000
    C35      C        0.29637    0.52616    0.65080    1.000
    C36      C        0.98570    0.49180    0.29470    1.000
    H22      H        0.92590    0.48100    0.28530    1.000
    H23      H        0.99440    0.55800    0.28880    1.000
    O16      O        0.00473    0.25735    0.62020    1.000
    O17      O        0.13345    0.27172    0.79604    1.000
    O18      O        0.35979    0.50020    0.75310    1.000
    O19      O        0.30196    0.59178    0.58460    1.000
    H24      H        0.46590    0.54930    0.76080    1.000
    O20      O        0.00000    0.44141    0.29279    1.000
    O21      O        0.00000    0.08758    0.75000    1.000
    O22      O        0.50000    0.58758    0.75000    1.000
    Mg5      Mg       0.90258    0.82320    0.09719    1.000
    C37      C        0.58057    0.20760    0.18360    1.000
    C38      C        0.60608    0.13490    0.11450    1.000
    C39      C        0.68882    0.08830    0.16890    1.000
    H25      H        0.73160    0.10090    0.25200    1.000
    C40      C        0.70669    0.02307    0.09820    1.000
    C41      C        0.64236    0.00310    0.97370    1.000
    H26      H        0.65430    0.95880    0.92690    1.000
    C42      C        0.56000    0.05010    0.92010    1.000
    C43      C        0.54315    0.11540    0.99090    1.000
    H27      H        0.48840    0.14680    0.95480    1.000
    C44      C        0.79637    0.97384    0.15080    1.000
    C45      C        0.48570    0.00820    0.79470    1.000
    H28      H        0.42590    0.01900    0.78530    1.000
    H29      H        0.49440    0.94200    0.78880    1.000
    O23      O        0.50473    0.24265    0.12020    1.000
    O24      O        0.63345    0.22828    0.29604    1.000
    O25      O        0.85979    0.99980    0.25310    1.000
    O26      O        0.80196    0.90822    0.08460    1.000
    H30      H        0.96590    0.95070    0.26080    1.000
    O27      O        0.50000    0.05859    0.79279    1.000
    Mg6      Mg       0.40258    0.32320    0.09719    1.000
    C46      C        0.08057    0.70760    0.18360    1.000
    C47      C        0.10608    0.63490    0.11450    1.000
    C48      C        0.18882    0.58830    0.16890    1.000
    H31      H        0.23160    0.60090    0.25200    1.000
    C49      C        0.20669    0.52307    0.09820    1.000
    C50      C        0.14236    0.50310    0.97370    1.000
    H32      H        0.15430    0.45880    0.92690    1.000
    C51      C        0.06000    0.55010    0.92010    1.000
    C52      C        0.04315    0.61540    0.99090    1.000
    H33      H        0.98840    0.64680    0.95480    1.000
    C53      C        0.29637    0.47384    0.15080    1.000
    C54      C        0.98570    0.50820    0.79470    1.000
    H34      H        0.92590    0.51900    0.78530    1.000
    H35      H        0.99440    0.44200    0.78880    1.000
    O28      O        0.00473    0.74265    0.12020    1.000
    O29      O        0.13345    0.72828    0.29604    1.000
    O30      O        0.35979    0.49980    0.25310    1.000
    O31      O        0.30196    0.40822    0.08460    1.000
    H36      H        0.46590    0.45070    0.26080    1.000
    O32      O        0.00000    0.55859    0.79279    1.000
    Mg7      Mg       0.09742    0.82320    0.40281    1.000
    C55      C        0.41943    0.20760    0.31640    1.000
    C56      C        0.39392    0.13490    0.38550    1.000
    C57      C        0.31118    0.08830    0.33110    1.000
    H37      H        0.26840    0.10090    0.24800    1.000
    C58      C        0.29331    0.02307    0.40180    1.000
    C59      C        0.35764    0.00310    0.52630    1.000
    H38      H        0.34570    0.95880    0.57310    1.000
    C60      C        0.44000    0.05010    0.57990    1.000
    C61      C        0.45685    0.11540    0.50910    1.000
    H39      H        0.51160    0.14680    0.54520    1.000
    C62      C        0.20363    0.97384    0.34920    1.000
    C63      C        0.51430    0.00820    0.70530    1.000
    H40      H        0.57410    0.01900    0.71470    1.000
    H41      H        0.50560    0.94200    0.71120    1.000
    O33      O        0.49527    0.24265    0.37980    1.000
    O34      O        0.36655    0.22828    0.20396    1.000
    O35      O        0.14021    0.99980    0.24690    1.000
    O36      O        0.19804    0.90822    0.41540    1.000
    H42      H        0.03410    0.95070    0.23920    1.000
    O37      O        0.50000    0.05859    0.70721    1.000
    Mg8      Mg       0.59742    0.32320    0.40281    1.000
    C64      C        0.91943    0.70760    0.31640    1.000
    C65      C        0.89392    0.63490    0.38550    1.000
    C66      C        0.81118    0.58830    0.33110    1.000
    H43      H        0.76840    0.60090    0.24800    1.000
    C67      C        0.79331    0.52307    0.40180    1.000
    C68      C        0.85764    0.50310    0.52630    1.000
    H44      H        0.84570    0.45880    0.57310    1.000
    C69      C        0.94000    0.55010    0.57990    1.000
    C70      C        0.95685    0.61540    0.50910    1.000
    H45      H        0.01160    0.64680    0.54520    1.000
    C71      C        0.70363    0.47384    0.34920    1.000
    C72      C        0.01430    0.50820    0.70530    1.000
    H46      H        0.07410    0.51900    0.71470    1.000
    H47      H        0.00560    0.44200    0.71120    1.000
    O38      O        0.99527    0.74265    0.37980    1.000
    O39      O        0.86655    0.72828    0.20396    1.000
    O40      O        0.64021    0.49980    0.24690    1.000
    O41      O        0.69804    0.40822    0.41540    1.000
    H48      H        0.53410    0.45070    0.23920    1.000
    O42      O        0.00000    0.55859    0.70721    1.000
    O43      O        0.00000    0.91242    0.25000    1.000
    O44      O        0.50000    0.41242    0.25000    1.000
