data_functionalizedCrystal
_audit_creation_method	'EQeq! by Chris Wilmer'
_symmetry_space_group_name_H-M	'P1'
_symmetry_Int_Tables_number	1
_symmetry_cell_setting	triclinic
loop_
_symmetry_equiv_pos_as_xyz
  x,y,z
_cell_length_a	14.682
_cell_length_b	24.569
_cell_length_c	22.399
_cell_angle_alpha	90
_cell_angle_beta	90
_cell_angle_gamma	90
loop_
_atom_site_label
_atom_site_type_symbol
_atom_site_fract_x
_atom_site_fract_y
_atom_site_fract_z
_atom_site_charge
Mof_Cu	Cu	0.59238	0.59124	0.85203	0.851
Mof_Cu	Cu	0.6052	0.52206	0.98199	0.897
Mof_Cu	Cu	0.593	0.65928	0.9832	0.908
Mof_Cu	Cu	0.40762	0.90876	0.85203	0.85
Mof_Cu	Cu	0.3948	0.97794	0.98199	0.894
Mof_Cu	Cu	0.407	0.84072	0.9832	0.907
Mof_Cu	Cu	0.09238	0.90876	0.64797	0.844
Mof_Cu	Cu	0.1052	0.97794	0.51801	0.891
Mof_Cu	Cu	0.093	0.84072	0.5168	0.902
Mof_Cu	Cu	0.90762	0.59124	0.64797	0.857
Mof_Cu	Cu	0.8948	0.52206	0.51801	0.9
Mof_Cu	Cu	0.907	0.65928	0.5168	0.912
Mof_Cu	Cu	0.40762	0.40876	0.14797	0.85
Mof_Cu	Cu	0.3948	0.47794	0.01801	0.895
Mof_Cu	Cu	0.407	0.34072	0.0168	0.907
Mof_Cu	Cu	0.59238	0.09124	0.14797	0.851
Mof_Cu	Cu	0.6052	0.02206	0.01801	0.895
Mof_Cu	Cu	0.593	0.15928	0.0168	0.907
Mof_Cu	Cu	0.90762	0.09124	0.35203	0.855
Mof_Cu	Cu	0.8948	0.02206	0.48199	0.897
Mof_Cu	Cu	0.907	0.15928	0.4832	0.911
Mof_Cu	Cu	0.09238	0.40876	0.35203	0.844
Mof_Cu	Cu	0.1052	0.47794	0.48199	0.891
Mof_Cu	Cu	0.093	0.34072	0.4832	0.901
Mof_H 	H 	0.6162	0.7797	0.9215	0.025
Mof_H 	H 	0.6167	0.4833	0.7692	-0.028
Mof_H 	H 	0.6146	0.5114	0.1263	0.007
Mof_H 	H 	0.6182	0.6976	0.7711	-0.032
Mof_H 	H 	0.6124	0.67	0.1255	0.009
Mof_H 	H 	0.6185	0.4015	0.9191	0.026
Mof_H 	H 	0.6016	0.3716	0.7637	0.059
Mof_H 	H 	0.6306	0.3422	0.8232	0.082
Mof_H 	H 	0.7825	0.3752	0.8077	0.048
Mof_H 	H 	0.604	0.6221	0.2324	0.069
Mof_H 	H 	0.6002	0.5582	0.2312	0.065
Mof_H 	H 	0.7601	0.585	0.1975	0.032
Mof_H 	H 	0.786	0.8069	0.8059	0.05
Mof_H 	H 	0.602	0.8114	0.7678	0.046
Mof_H 	H 	0.6358	0.8398	0.8266	0.068
Mof_H 	H 	0.3838	0.7203	0.9215	0.024
Mof_H 	H 	0.3833	0.0167	0.7692	-0.029
Mof_H 	H 	0.3854	0.9886	0.1263	0.005
Mof_H 	H 	0.3818	0.8024	0.7711	-0.033
Mof_H 	H 	0.3876	0.83	0.1255	0.006
Mof_H 	H 	0.3815	0.0985	0.9191	0.026
Mof_H 	H 	0.3984	0.1284	0.7637	0.059
Mof_H 	H 	0.3694	0.1578	0.8232	0.082
Mof_H 	H 	0.2175	0.1248	0.8077	0.042
Mof_H 	H 	0.396	0.8779	0.2324	0.04
Mof_H 	H 	0.3998	0.9418	0.2312	0.036
Mof_H 	H 	0.2399	0.915	0.1975	0.076
Mof_H 	H 	0.214	0.6931	0.8059	0.041
Mof_H 	H 	0.398	0.6886	0.7678	0.048
Mof_H 	H 	0.3642	0.6602	0.8266	0.069
Mof_H 	H 	0.1162	0.7203	0.5785	0.023
Mof_H 	H 	0.1167	0.0167	0.7308	-0.031
Mof_H 	H 	0.1146	0.9886	0.3737	0.004
Mof_H 	H 	0.1182	0.8024	0.7289	-0.036
Mof_H 	H 	0.1124	0.83	0.3745	0.006
Mof_H 	H 	0.1185	0.0985	0.5809	0.025
Mof_H 	H 	0.1016	0.1284	0.7363	0.053
Mof_H 	H 	0.1306	0.1578	0.6768	0.078
Mof_H 	H 	0.2825	0.1248	0.6923	0.046
Mof_H 	H 	0.104	0.8779	0.2676	0.062
Mof_H 	H 	0.1002	0.9418	0.2688	0.057
Mof_H 	H 	0.2601	0.915	0.3025	0.03
Mof_H 	H 	0.286	0.6931	0.6941	0.047
Mof_H 	H 	0.102	0.6886	0.7322	0.039
Mof_H 	H 	0.1358	0.6602	0.6734	0.064
Mof_H 	H 	0.8838	0.7797	0.5785	0.026
Mof_H 	H 	0.8833	0.4833	0.7308	-0.025
Mof_H 	H 	0.8854	0.5114	0.3737	0.007
Mof_H 	H 	0.8818	0.6976	0.7289	-0.029
Mof_H 	H 	0.8876	0.67	0.3745	0.011
Mof_H 	H 	0.8815	0.4015	0.5809	0.027
Mof_H 	H 	0.8984	0.3716	0.7363	0.066
Mof_H 	H 	0.8694	0.3422	0.6768	0.085
Mof_H 	H 	0.7175	0.3752	0.6923	0.044
Mof_H 	H 	0.896	0.6221	0.2676	0.047
Mof_H 	H 	0.8998	0.5582	0.2688	0.043
Mof_H 	H 	0.7399	0.585	0.3025	0.077
Mof_H 	H 	0.714	0.8069	0.6941	0.044
Mof_H 	H 	0.898	0.8114	0.7322	0.054
Mof_H 	H 	0.8642	0.8398	0.6734	0.073
Mof_H 	H 	0.3838	0.2203	0.0785	0.024
Mof_H 	H 	0.3833	0.5167	0.2308	-0.028
Mof_H 	H 	0.3854	0.4886	0.8737	0.005
Mof_H 	H 	0.3818	0.3024	0.2289	-0.033
Mof_H 	H 	0.3876	0.33	0.8745	0.006
Mof_H 	H 	0.3815	0.5985	0.0809	0.025
Mof_H 	H 	0.3984	0.6284	0.2363	0.06
Mof_H 	H 	0.3694	0.6578	0.1768	0.082
Mof_H 	H 	0.2175	0.6248	0.1923	0.041
Mof_H 	H 	0.396	0.3779	0.7676	0.041
Mof_H 	H 	0.3998	0.4418	0.7688	0.036
Mof_H 	H 	0.2399	0.415	0.8025	0.074
Mof_H 	H 	0.214	0.1931	0.1941	0.042
Mof_H 	H 	0.398	0.1886	0.2322	0.048
Mof_H 	H 	0.3642	0.1602	0.1734	0.068
Mof_H 	H 	0.6162	0.2797	0.0785	0.025
Mof_H 	H 	0.6167	0.9833	0.2308	-0.028
Mof_H 	H 	0.6146	0.0114	0.8737	0.008
Mof_H 	H 	0.6182	0.1976	0.2289	-0.032
Mof_H 	H 	0.6124	0.17	0.8745	0.009
Mof_H 	H 	0.6185	0.9015	0.0809	0.027
Mof_H 	H 	0.6016	0.8716	0.2363	0.059
Mof_H 	H 	0.6306	0.8422	0.1768	0.082
Mof_H 	H 	0.7825	0.8752	0.1923	0.049
Mof_H 	H 	0.604	0.1221	0.7676	0.068
Mof_H 	H 	0.6002	0.0582	0.7688	0.064
Mof_H 	H 	0.7601	0.085	0.8025	0.034
Mof_H 	H 	0.786	0.3069	0.1941	0.049
Mof_H 	H 	0.602	0.3114	0.2322	0.046
Mof_H 	H 	0.6358	0.3398	0.1734	0.068
Mof_H 	H 	0.8838	0.2797	0.4215	0.026
Mof_H 	H 	0.8833	0.9833	0.2692	-0.025
Mof_H 	H 	0.8854	0.0114	0.6263	0.007
Mof_H 	H 	0.8818	0.1976	0.2711	-0.029
Mof_H 	H 	0.8876	0.17	0.6255	0.011
Mof_H 	H 	0.8815	0.9015	0.4191	0.027
Mof_H 	H 	0.8984	0.8716	0.2637	0.066
Mof_H 	H 	0.8694	0.8422	0.3232	0.086
Mof_H 	H 	0.7175	0.8752	0.3077	0.044
Mof_H 	H 	0.896	0.1221	0.7324	0.048
Mof_H 	H 	0.8998	0.0582	0.7312	0.043
Mof_H 	H 	0.7399	0.085	0.6975	0.075
Mof_H 	H 	0.714	0.3069	0.3059	0.044
Mof_H 	H 	0.898	0.3114	0.2678	0.054
Mof_H 	H 	0.8642	0.3398	0.3266	0.072
Mof_H 	H 	0.1162	0.2203	0.4215	0.023
Mof_H 	H 	0.1167	0.5167	0.2692	-0.031
Mof_H 	H 	0.1146	0.4886	0.6263	0.005
Mof_H 	H 	0.1182	0.3024	0.2711	-0.036
Mof_H 	H 	0.1124	0.33	0.6255	0.006
Mof_H 	H 	0.1185	0.5985	0.4191	0.024
Mof_H 	H 	0.1016	0.6284	0.2637	0.052
Mof_H 	H 	0.1306	0.6578	0.3232	0.077
Mof_H 	H 	0.2825	0.6248	0.3077	0.046
Mof_H 	H 	0.104	0.3779	0.7324	0.061
Mof_H 	H 	0.1002	0.4418	0.7312	0.057
Mof_H 	H 	0.2601	0.415	0.6975	0.032
Mof_H 	H 	0.286	0.1931	0.3059	0.047
Mof_H 	H 	0.102	0.1886	0.2678	0.04
Mof_H 	H 	0.1358	0.1602	0.3266	0.065
Mof_C 	C 	0.6144	0.7515	0.8937	0.092
Mof_C 	C 	0.6143	0.4749	0.8096	0.092
Mof_C 	C 	0.6162	0.5474	0.1133	0.1
Mof_C 	C 	0.6152	0.7062	0.8115	0.098
Mof_C 	C 	0.6146	0.6338	0.1133	0.11
Mof_C 	C 	0.6154	0.4298	0.8916	0.086
Mof_C 	C 	0.6415	0.3738	0.7982	-0.082
Mof_C 	C 	0.7373	0.3746	0.7786	-0.038
Mof_C 	C 	0.6319	0.5897	0.2156	-0.119
Mof_C 	C 	0.7267	0.5875	0.2326	0.043
Mof_C 	C 	0.739	0.8075	0.778	-0.042
Mof_C 	C 	0.6443	0.8084	0.8009	-0.073
Mof_C 	C 	0.3856	0.7485	0.8937	0.09
Mof_C 	C 	0.3857	0.0251	0.8096	0.093
Mof_C 	C 	0.3838	0.9526	0.1133	0.102
Mof_C 	C 	0.3848	0.7938	0.8115	0.096
Mof_C 	C 	0.3854	0.8662	0.1133	0.113
Mof_C 	C 	0.3846	0.0702	0.8916	0.084
Mof_C 	C 	0.3585	0.1262	0.7982	-0.085
Mof_C 	C 	0.2627	0.1254	0.7786	-0.034
Mof_C 	C 	0.3681	0.9103	0.2156	-0.014
Mof_C 	C 	0.2733	0.9125	0.2326	-0.13
Mof_C 	C 	0.261	0.6925	0.778	-0.035
Mof_C 	C 	0.3557	0.6916	0.8009	-0.079
Mof_C 	C 	0.1144	0.7485	0.6063	0.086
Mof_C 	C 	0.1143	0.0251	0.6904	0.091
Mof_C 	C 	0.1162	0.9526	0.3867	0.095
Mof_C 	C 	0.1152	0.7938	0.6885	0.093
Mof_C 	C 	0.1146	0.8662	0.3867	0.104
Mof_C 	C 	0.1154	0.0702	0.6084	0.081
Mof_C 	C 	0.1415	0.1262	0.7018	-0.08
Mof_C 	C 	0.2373	0.1254	0.7214	-0.04
Mof_C 	C 	0.1319	0.9103	0.2844	-0.115
Mof_C 	C 	0.2267	0.9125	0.2674	0.04
Mof_C 	C 	0.239	0.6925	0.722	-0.044
Mof_C 	C 	0.1443	0.6916	0.6991	-0.071
Mof_C 	C 	0.8856	0.7515	0.6063	0.095
Mof_C 	C 	0.8857	0.4749	0.6904	0.095
Mof_C 	C 	0.8838	0.5474	0.3867	0.107
Mof_C 	C 	0.8848	0.7062	0.6885	0.101
Mof_C 	C 	0.8854	0.6338	0.3867	0.117
Mof_C 	C 	0.8846	0.4298	0.6084	0.089
Mof_C 	C 	0.8585	0.3738	0.7018	-0.087
Mof_C 	C 	0.7627	0.3746	0.7214	-0.032
Mof_C 	C 	0.8681	0.5897	0.2844	-0.017
Mof_C 	C 	0.7733	0.5875	0.2674	-0.128
Mof_C 	C 	0.761	0.8075	0.722	-0.033
Mof_C 	C 	0.8557	0.8084	0.6991	-0.08
Mof_C 	C 	0.3856	0.2485	0.1063	0.09
Mof_C 	C 	0.3857	0.5251	0.1904	0.09
Mof_C 	C 	0.3838	0.4526	0.8867	0.102
Mof_C 	C 	0.3848	0.2938	0.1885	0.096
Mof_C 	C 	0.3854	0.3662	0.8867	0.113
Mof_C 	C 	0.3846	0.5702	0.1084	0.084
Mof_C 	C 	0.3585	0.6262	0.2018	-0.086
Mof_C 	C 	0.2627	0.6254	0.2214	-0.034
Mof_C 	C 	0.3681	0.4103	0.7844	-0.017
Mof_C 	C 	0.2733	0.4125	0.7674	-0.124
Mof_C 	C 	0.261	0.1925	0.222	-0.035
Mof_C 	C 	0.3557	0.1916	0.1991	-0.078
Mof_C 	C 	0.6144	0.2515	0.1063	0.092
Mof_C 	C 	0.6143	0.9749	0.1904	0.095
Mof_C 	C 	0.6162	0.0474	0.8867	0.1
Mof_C 	C 	0.6152	0.2062	0.1885	0.098
Mof_C 	C 	0.6146	0.1338	0.8867	0.11
Mof_C 	C 	0.6154	0.9298	0.1084	0.086
Mof_C 	C 	0.6415	0.8738	0.2018	-0.082
Mof_C 	C 	0.7373	0.8746	0.2214	-0.039
Mof_C 	C 	0.6319	0.0897	0.7844	-0.115
Mof_C 	C 	0.7267	0.0875	0.7674	0.036
Mof_C 	C 	0.739	0.3075	0.222	-0.042
Mof_C 	C 	0.6443	0.3084	0.1991	-0.073
Mof_C 	C 	0.8856	0.2515	0.3937	0.095
Mof_C 	C 	0.8857	0.9749	0.3096	0.098
Mof_C 	C 	0.8838	0.0474	0.6133	0.107
Mof_C 	C 	0.8848	0.2062	0.3115	0.1
Mof_C 	C 	0.8854	0.1338	0.6133	0.117
Mof_C 	C 	0.8846	0.9298	0.3916	0.089
Mof_C 	C 	0.8585	0.8738	0.2982	-0.088
Mof_C 	C 	0.7627	0.8746	0.2786	-0.032
Mof_C 	C 	0.8681	0.0897	0.7156	-0.021
Mof_C 	C 	0.7733	0.0875	0.7326	-0.121
Mof_C 	C 	0.761	0.3075	0.278	-0.034
Mof_C 	C 	0.8557	0.3084	0.3009	-0.08
Mof_C 	C 	0.1144	0.2485	0.3937	0.087
Mof_C 	C 	0.1143	0.5251	0.3096	0.088
Mof_C 	C 	0.1162	0.4526	0.6133	0.095
Mof_C 	C 	0.1152	0.2938	0.3115	0.093
Mof_C 	C 	0.1146	0.3662	0.6133	0.105
Mof_C 	C 	0.1154	0.5702	0.3916	0.081
Mof_C 	C 	0.1415	0.6262	0.2982	-0.079
Mof_C 	C 	0.2373	0.6254	0.2786	-0.041
Mof_C 	C 	0.1319	0.4103	0.7156	-0.111
Mof_C 	C 	0.2267	0.4125	0.7326	0.034
Mof_C 	C 	0.239	0.1925	0.278	-0.043
Mof_C 	C 	0.1443	0.1916	0.3009	-0.071
Mof_S 	S 	0.40686	0.5909	0.94439	0.746
Mof_S 	S 	0.59314	0.9091	0.94439	0.745
Mof_S 	S 	0.90686	0.9091	0.55561	0.741
Mof_S 	S 	0.09314	0.5909	0.55561	0.749
Mof_S 	S 	0.59314	0.4091	0.05561	0.745
Mof_S 	S 	0.40686	0.0909	0.05561	0.746
Mof_S 	S 	0.09314	0.0909	0.44439	0.749
Mof_S 	S 	0.90686	0.4091	0.44439	0.741
Mof_S 	S 	0.5	0.75	0.06351	0.724
Mof_S 	S 	-1.00003e-32	0.75	0.43649	0.651
Mof_S 	S 	0.5	0.25	0.93649	0.724
Mof_S 	S 	-1.55223e-32	0.25	0.56351	0.657
Mof_N 	N 	0.6119	0.5622	0.0576	-0.201
Mof_N 	N 	0.6007	0.6993	0.9066	-0.189
Mof_N 	N 	0.6032	0.4826	0.905	-0.194
Mof_N 	N 	0.6096	0.6174	0.0592	-0.193
Mof_N 	N 	0.6014	0.6725	0.8532	-0.217
Mof_N 	N 	0.6251	0.7574	0.8354	-0.128
Mof_N 	N 	0.6026	0.5105	0.8521	-0.216
Mof_N 	N 	0.6226	0.4245	0.8322	-0.123
Mof_N 	N 	0.6235	0.5909	0.1498	-0.125
Mof_N 	N 	0.3881	0.9378	0.0576	-0.202
Mof_N 	N 	0.3993	0.8007	0.9066	-0.19
Mof_N 	N 	0.3968	0.0174	0.905	-0.193
Mof_N 	N 	0.3904	0.8826	0.0592	-0.195
Mof_N 	N 	0.3986	0.8275	0.8532	-0.218
Mof_N 	N 	0.3749	0.7426	0.8354	-0.127
Mof_N 	N 	0.3974	0.9895	0.8521	-0.219
Mof_N 	N 	0.3774	0.0755	0.8322	-0.123
Mof_N 	N 	0.3765	0.9091	0.1498	-0.14
Mof_N 	N 	0.1119	0.9378	0.4424	-0.204
Mof_N 	N 	0.1007	0.8007	0.5934	-0.193
Mof_N 	N 	0.1032	0.0174	0.595	-0.196
Mof_N 	N 	0.1096	0.8826	0.4408	-0.197
Mof_N 	N 	0.1014	0.8275	0.6468	-0.221
Mof_N 	N 	0.1251	0.7426	0.6646	-0.129
Mof_N 	N 	0.1026	0.9895	0.6479	-0.223
Mof_N 	N 	0.1226	0.0755	0.6678	-0.125
Mof_N 	N 	0.1235	0.9091	0.3502	-0.127
Mof_N 	N 	0.8881	0.5622	0.4424	-0.2
Mof_N 	N 	0.8993	0.6993	0.5934	-0.186
Mof_N 	N 	0.8968	0.4826	0.595	-0.191
Mof_N 	N 	0.8904	0.6174	0.4408	-0.192
Mof_N 	N 	0.8986	0.6725	0.6468	-0.213
Mof_N 	N 	0.8749	0.7574	0.6646	-0.125
Mof_N 	N 	0.8974	0.5105	0.6479	-0.213
Mof_N 	N 	0.8774	0.4245	0.6678	-0.121
Mof_N 	N 	0.8765	0.5909	0.3502	-0.138
Mof_N 	N 	0.3881	0.4378	0.9424	-0.203
Mof_N 	N 	0.3993	0.3007	0.0934	-0.19
Mof_N 	N 	0.3968	0.5174	0.095	-0.195
Mof_N 	N 	0.3904	0.3826	0.9408	-0.195
Mof_N 	N 	0.3986	0.3275	0.1468	-0.217
Mof_N 	N 	0.3749	0.2426	0.1646	-0.127
Mof_N 	N 	0.3974	0.4895	0.1479	-0.217
Mof_N 	N 	0.3774	0.5755	0.1678	-0.122
Mof_N 	N 	0.3765	0.4091	0.8502	-0.14
Mof_N 	N 	0.6119	0.0622	0.9424	-0.2
Mof_N 	N 	0.6007	0.1993	0.0934	-0.189
Mof_N 	N 	0.6032	0.9826	0.095	-0.192
Mof_N 	N 	0.6096	0.1174	0.9408	-0.193
Mof_N 	N 	0.6014	0.1725	0.1468	-0.217
Mof_N 	N 	0.6251	0.2574	0.1646	-0.128
Mof_N 	N 	0.6026	0.0105	0.1479	-0.218
Mof_N 	N 	0.6226	0.9245	0.1678	-0.123
Mof_N 	N 	0.6235	0.0909	0.8502	-0.126
Mof_N 	N 	0.8881	0.0622	0.5576	-0.2
Mof_N 	N 	0.8993	0.1993	0.4066	-0.187
Mof_N 	N 	0.8968	0.9826	0.405	-0.19
Mof_N 	N 	0.8904	0.1174	0.5592	-0.192
Mof_N 	N 	0.8986	0.1725	0.3532	-0.214
Mof_N 	N 	0.8749	0.2574	0.3354	-0.125
Mof_N 	N 	0.8974	0.0105	0.3521	-0.215
Mof_N 	N 	0.8774	0.9245	0.3322	-0.121
Mof_N 	N 	0.8765	0.0909	0.6498	-0.138
Mof_N 	N 	0.1119	0.4378	0.5576	-0.204
Mof_N 	N 	0.1007	0.3007	0.4066	-0.193
Mof_N 	N 	0.1032	0.5174	0.405	-0.197
Mof_N 	N 	0.1096	0.3826	0.5592	-0.196
Mof_N 	N 	0.1014	0.3275	0.3532	-0.221
Mof_N 	N 	0.1251	0.2426	0.3354	-0.129
Mof_N 	N 	0.1026	0.4895	0.3521	-0.22
Mof_N 	N 	0.1226	0.5755	0.3322	-0.125
Mof_N 	N 	0.1235	0.4091	0.6498	-0.128
Mof_O 	O 	0.4422	0.5429	0.9765	-0.508
Mof_O 	O 	0.4435	0.6397	0.9737	-0.389
Mof_O 	O 	0.4397	0.5873	0.8836	-0.42
Mof_O 	O 	0.3089	0.5906	0.9478	-0.328
Mof_O 	O 	0.6305	0.5913	0.938	-0.538
Mof_O 	O 	0.5712	0.7273	0.0247	-0.426
Mof_O 	O 	0.5415	0.7935	0.0993	-0.299
Mof_O 	O 	0.5578	0.9571	0.9765	-0.507
Mof_O 	O 	0.5565	0.8603	0.9737	-0.388
Mof_O 	O 	0.5603	0.9127	0.8836	-0.419
Mof_O 	O 	0.6911	0.9094	0.9478	-0.321
Mof_O 	O 	0.3695	0.9087	0.938	-0.543
Mof_O 	O 	0.4288	0.7727	0.0247	-0.428
Mof_O 	O 	0.4585	0.7065	0.0993	-0.3
Mof_O 	O 	0.9422	0.9571	0.5235	-0.495
Mof_O 	O 	0.9435	0.8603	0.5263	-0.376
Mof_O 	O 	0.9397	0.9127	0.6164	-0.407
Mof_O 	O 	0.8089	0.9094	0.5522	-0.323
Mof_O 	O 	0.1305	0.9087	0.562	-0.546
Mof_O 	O 	0.0712	0.7727	0.4753	-0.42
Mof_O 	O 	0.0415	0.7065	0.4007	-0.295
Mof_O 	O 	0.0578	0.5429	0.5235	-0.518
Mof_O 	O 	0.0565	0.6397	0.5263	-0.399
Mof_O 	O 	0.0603	0.5873	0.6164	-0.431
Mof_O 	O 	0.1911	0.5906	0.5522	-0.325
Mof_O 	O 	0.8695	0.5913	0.562	-0.536
Mof_O 	O 	0.9288	0.7273	0.4753	-0.398
Mof_O 	O 	0.9585	0.7935	0.4007	-0.265
Mof_O 	O 	0.5578	0.4571	0.0235	-0.507
Mof_O 	O 	0.5565	0.3603	0.0263	-0.388
Mof_O 	O 	0.5603	0.4127	0.1164	-0.419
Mof_O 	O 	0.6911	0.4094	0.0522	-0.321
Mof_O 	O 	0.3695	0.4087	0.062	-0.542
Mof_O 	O 	0.4288	0.2727	0.9753	-0.428
Mof_O 	O 	0.4585	0.2065	0.9007	-0.3
Mof_O 	O 	0.4422	0.0429	0.0235	-0.508
Mof_O 	O 	0.4435	0.1397	0.0263	-0.389
Mof_O 	O 	0.4397	0.0873	0.1164	-0.42
Mof_O 	O 	0.3089	0.0906	0.0522	-0.328
Mof_O 	O 	0.6305	0.0913	0.062	-0.539
Mof_O 	O 	0.5712	0.2273	0.9753	-0.426
Mof_O 	O 	0.5415	0.2935	0.9007	-0.299
Mof_O 	O 	0.0578	0.0429	0.4765	-0.517
Mof_O 	O 	0.0565	0.1397	0.4737	-0.398
Mof_O 	O 	0.0603	0.0873	0.3836	-0.43
Mof_O 	O 	0.1911	0.0906	0.4478	-0.325
Mof_O 	O 	0.8695	0.0913	0.438	-0.536
Mof_O 	O 	0.9288	0.2273	0.5247	-0.4
Mof_O 	O 	0.9585	0.2935	0.5993	-0.268
Mof_O 	O 	0.9422	0.4571	0.4765	-0.496
Mof_O 	O 	0.9435	0.3603	0.4737	-0.377
Mof_O 	O 	0.9397	0.4127	0.3836	-0.408
Mof_O 	O 	0.8089	0.4094	0.4478	-0.324
Mof_O 	O 	0.1305	0.4087	0.438	-0.545
Mof_O 	O 	0.0712	0.2727	0.5247	-0.421
Mof_O 	O 	0.0415	0.2065	0.5993	-0.295
_end
