data_functionalizedCrystal
_audit_creation_method	'EQeq! by Chris Wilmer'
_symmetry_space_group_name_H-M	'P1'
_symmetry_Int_Tables_number	1
_symmetry_cell_setting	triclinic
loop_
_symmetry_equiv_pos_as_xyz
  x,y,z
_cell_length_a	9.594
_cell_length_b	22.789
_cell_length_c	10.146
_cell_angle_alpha	90
_cell_angle_beta	101.32
_cell_angle_gamma	90
loop_
_atom_site_label
_atom_site_type_symbol
_atom_site_fract_x
_atom_site_fract_y
_atom_site_fract_z
_atom_site_charge
Mof_Nd	Nd	0.25464	0.27797	0.0391	2.19
Mof_Nd	Nd	0.71997	0.43537	0.85184	2.496
Mof_N 	N 	0.5976	0.41577	0.6156	-0.277
Mof_N 	N 	0.5339	0.41565	0.3953	-0.203
Mof_H 	H 	0.5198	0.4275	0.3134	0.151
Mof_N 	N 	0.772	0.50723	0.6384	-0.231
Mof_O 	O 	0.068	0.34014	0.1013	-0.477
Mof_O 	O 	0.0383	0.2907	0.8567	-0.476
Mof_O 	O 	0.837	0.34288	0.7871	-0.457
Mof_O 	O 	0.8495	0.37893	0.0437	-0.463
Mof_O 	O 	0.5223	0.36028	0.8117	-0.532
Mof_O 	O 	0.3788	0.29698	0.6833	-0.596
Mof_O 	O 	0.2822	0.29621	0.3815	-0.609
Mof_O 	O 	0.374	0.34038	0.2216	-0.543
Mof_O 	O 	0.598	0.43609	0.0451	-0.467
Mof_O 	O 	0.4709	0.48992	0.1642	-0.49
Mof_O 	O 	0.9801	0.45067	0.8658	-0.489
Mof_O 	O 	0.1782	0.48015	0.0066	-0.485
Mof_C 	C 	0.4571	0.37123	0.442	-0.044
Mof_C 	C 	0.4983	0.37218	0.5803	-0.078
Mof_C 	C 	0.6175	0.44125	0.5037	0.111
Mof_C 	C 	0.7195	0.48964	0.5098	0.03
Mof_C 	C 	0.7607	0.51467	0.3981	-0.099
Mof_H 	H 	0.7241	0.5005	0.3101	0.069
Mof_C 	C 	0.8575	0.56132	0.4192	0.021
Mof_H 	H 	0.8881	0.5795	0.3455	0.01
Mof_C 	C 	0.9077	0.58043	0.549	-0.119
Mof_H 	H 	0.9718	0.6126	0.5653	0.055
Mof_C 	C 	0.8641	0.55237	0.6558	0.085
Mof_H 	H 	0.9008	0.5656	0.7446	-0.005
Mof_C 	C 	0.3632	0.33302	0.3418	0.439
Mof_C 	C 	0.4617	0.33953	0.6963	0.423
Mof_C 	C 	0.5202	0.47836	0.0605	0.273
Mof_C 	C 	0.0452	0.47999	0.9617	0.278
Mof_C 	C 	0.9542	0.34982	0.0204	0.264
Mof_C 	C 	0.941	0.32542	0.875	0.239
Mof_Nd	Nd	0.74536	0.77797	0.4609	2.2
Mof_Nd	Nd	0.28003	0.93537	0.64816	2.492
Mof_N 	N 	0.4024	0.91577	0.8844	-0.277
Mof_N 	N 	0.4661	0.91565	0.1047	-0.202
Mof_H 	H 	0.4802	0.9275	0.1866	0.151
Mof_N 	N 	0.228	0.00723	0.8616	-0.226
Mof_O 	O 	0.932	0.84014	0.3987	-0.471
Mof_O 	O 	0.9617	0.7907	0.6433	-0.483
Mof_O 	O 	0.163	0.84288	0.7129	-0.458
Mof_O 	O 	0.1505	0.87893	0.4563	-0.462
Mof_O 	O 	0.4777	0.86028	0.6883	-0.533
Mof_O 	O 	0.6212	0.79698	0.8167	-0.597
Mof_O 	O 	0.7178	0.79621	0.1185	-0.606
Mof_O 	O 	0.626	0.84038	0.2784	-0.543
Mof_O 	O 	0.402	0.93609	0.4549	-0.467
Mof_O 	O 	0.5291	0.98992	0.3358	-0.488
Mof_O 	O 	0.0199	0.95067	0.6342	-0.486
Mof_O 	O 	0.8218	0.98015	0.4934	-0.481
Mof_C 	C 	0.5429	0.87123	0.058	-0.038
Mof_C 	C 	0.5017	0.87218	0.9197	-0.083
Mof_C 	C 	0.3825	0.94125	0.9963	0.11
Mof_C 	C 	0.2805	0.98964	0.9902	0.025
Mof_C 	C 	0.2393	0.01467	0.1019	-0.092
Mof_H 	H 	0.2759	0.0005	0.1899	0.065
Mof_C 	C 	0.1425	0.06132	0.0808	0.004
Mof_H 	H 	0.1119	0.0795	0.1545	0.014
Mof_C 	C 	0.0923	0.08043	0.951	-0.101
Mof_H 	H 	0.0282	0.1126	0.9347	0.052
Mof_C 	C 	0.1359	0.05237	0.8442	0.079
Mof_H 	H 	0.0992	0.0656	0.7554	-0.001
Mof_C 	C 	0.6368	0.83302	0.1582	0.438
Mof_C 	C 	0.5383	0.83953	0.8037	0.424
Mof_C 	C 	0.4798	0.97836	0.4395	0.272
Mof_C 	C 	0.9548	0.97999	0.5383	0.272
Mof_C 	C 	0.0458	0.84982	0.4796	0.255
Mof_C 	C 	0.059	0.82542	0.625	0.247
Mof_Nd	Nd	0.74536	0.72203	0.9609	2.191
Mof_Nd	Nd	0.28003	0.56463	0.14816	2.497
Mof_N 	N 	0.4024	0.58423	0.3844	-0.277
Mof_N 	N 	0.4661	0.58435	0.6047	-0.203
Mof_H 	H 	0.4802	0.5725	0.6866	0.151
Mof_N 	N 	0.228	0.49277	0.3616	-0.231
Mof_O 	O 	0.932	0.65986	0.8987	-0.477
Mof_O 	O 	0.9617	0.7093	0.1433	-0.476
Mof_O 	O 	0.163	0.65712	0.2129	-0.457
Mof_O 	O 	0.1505	0.62107	0.9563	-0.463
Mof_O 	O 	0.4777	0.63972	0.1883	-0.532
Mof_O 	O 	0.6212	0.70302	0.3167	-0.596
Mof_O 	O 	0.7178	0.70379	0.6185	-0.609
Mof_O 	O 	0.626	0.65962	0.7784	-0.543
Mof_O 	O 	0.402	0.56391	0.9549	-0.467
Mof_O 	O 	0.5291	0.51008	0.8358	-0.49
Mof_O 	O 	0.0199	0.54933	0.1342	-0.489
Mof_O 	O 	0.8218	0.51985	0.9934	-0.485
Mof_C 	C 	0.5429	0.62877	0.558	-0.044
Mof_C 	C 	0.5017	0.62782	0.4197	-0.078
Mof_C 	C 	0.3825	0.55875	0.4963	0.111
Mof_C 	C 	0.2805	0.51036	0.4902	0.03
Mof_C 	C 	0.2393	0.48533	0.6019	-0.099
Mof_H 	H 	0.2759	0.4995	0.6899	0.069
Mof_C 	C 	0.1425	0.43868	0.5808	0.021
Mof_H 	H 	0.1119	0.4205	0.6545	0.01
Mof_C 	C 	0.0923	0.41957	0.451	-0.119
Mof_H 	H 	0.0282	0.3874	0.4347	0.055
Mof_C 	C 	0.1359	0.44763	0.3442	0.085
Mof_H 	H 	0.0992	0.4344	0.2554	-0.005
Mof_C 	C 	0.6368	0.66698	0.6582	0.439
Mof_C 	C 	0.5383	0.66047	0.3037	0.423
Mof_C 	C 	0.4798	0.52164	0.9395	0.273
Mof_C 	C 	0.9548	0.52001	0.0383	0.278
Mof_C 	C 	0.0458	0.65018	0.9796	0.264
Mof_C 	C 	0.059	0.67458	0.125	0.239
Mof_Nd	Nd	0.25464	0.22203	0.5391	2.2
Mof_Nd	Nd	0.71997	0.06463	0.35184	2.492
Mof_N 	N 	0.5976	0.08423	0.1156	-0.277
Mof_N 	N 	0.5339	0.08435	0.8953	-0.202
Mof_H 	H 	0.5198	0.0725	0.8134	0.151
Mof_N 	N 	0.772	0.99277	0.1384	-0.226
Mof_O 	O 	0.068	0.15986	0.6013	-0.471
Mof_O 	O 	0.0383	0.2093	0.3567	-0.483
Mof_O 	O 	0.837	0.15712	0.2871	-0.458
Mof_O 	O 	0.8495	0.12107	0.5437	-0.462
Mof_O 	O 	0.5223	0.13972	0.3117	-0.533
Mof_O 	O 	0.3788	0.20302	0.1833	-0.597
Mof_O 	O 	0.2822	0.20379	0.8815	-0.606
Mof_O 	O 	0.374	0.15962	0.7216	-0.543
Mof_O 	O 	0.598	0.06391	0.5451	-0.467
Mof_O 	O 	0.4709	0.01008	0.6642	-0.488
Mof_O 	O 	0.9801	0.04933	0.3658	-0.486
Mof_O 	O 	0.1782	0.01985	0.5066	-0.481
Mof_C 	C 	0.4571	0.12877	0.942	-0.038
Mof_C 	C 	0.4983	0.12782	0.0803	-0.083
Mof_C 	C 	0.6175	0.05875	0.0037	0.11
Mof_C 	C 	0.7195	0.01036	0.0098	0.025
Mof_C 	C 	0.7607	0.98533	0.8981	-0.092
Mof_H 	H 	0.7241	0.9995	0.8101	0.065
Mof_C 	C 	0.8575	0.93868	0.9192	0.004
Mof_H 	H 	0.8881	0.9205	0.8455	0.014
Mof_C 	C 	0.9077	0.91957	0.049	-0.101
Mof_H 	H 	0.9718	0.8874	0.0653	0.052
Mof_C 	C 	0.8641	0.94763	0.1558	0.079
Mof_H 	H 	0.9008	0.9344	0.2446	-0.001
Mof_C 	C 	0.3632	0.16698	0.8418	0.438
Mof_C 	C 	0.4617	0.16047	0.1963	0.424
Mof_C 	C 	0.5202	0.02164	0.5605	0.272
Mof_C 	C 	0.0452	0.02001	0.4617	0.272
Mof_C 	C 	0.9542	0.15018	0.5204	0.255
Mof_C 	C 	0.941	0.17458	0.375	0.247
_end
