data_functionalizedCrystal
_audit_creation_method	'EQeq! by Chris Wilmer'
_symmetry_space_group_name_H-M	'P1'
_symmetry_Int_Tables_number	1
_symmetry_cell_setting	triclinic
loop_
_symmetry_equiv_pos_as_xyz
  x,y,z
_cell_length_a	10.943
_cell_length_b	11.828
_cell_length_c	19.261
_cell_angle_alpha	90
_cell_angle_beta	90
_cell_angle_gamma	90
loop_
_atom_site_label
_atom_site_type_symbol
_atom_site_fract_x
_atom_site_fract_y
_atom_site_fract_z
_atom_site_charge
Mof_Eu	Eu	0.86245	0.84249	0.10301	1.961
Mof_Eu	Eu	0.38106	0.02847	0.31746	2.243
Mof_Eu	Eu	0.13755	0.15751	0.60301	2.038
Mof_Eu	Eu	0.61894	0.97153	0.81746	2.251
Mof_Eu	Eu	0.63755	0.34249	0.10301	1.957
Mof_Eu	Eu	0.11894	0.52847	0.31746	2.242
Mof_Eu	Eu	0.36245	0.65751	0.60301	2.041
Mof_Eu	Eu	0.88106	0.47153	0.81746	2.256
Mof_H 	H 	0.6456	0.9945	0.2077	-0.067
Mof_H 	H 	0.7705	0.7501	0.3725	0.055
Mof_H 	H 	0.1296	0.8985	0.2167	-0.042
Mof_H 	H 	0.9936	0.2589	0.2029	0.02
Mof_H 	H 	0.3544	0.0055	0.7077	-0.067
Mof_H 	H 	0.2295	0.2499	0.8725	0.062
Mof_H 	H 	0.8704	0.1015	0.7167	-0.041
Mof_H 	H 	0.0064	0.7411	0.7029	0.017
Mof_H 	H 	0.8544	0.4945	0.2077	-0.067
Mof_H 	H 	0.7295	0.2501	0.3725	0.055
Mof_H 	H 	0.3704	0.3985	0.2167	-0.041
Mof_H 	H 	0.5064	0.7589	0.2029	0.014
Mof_H 	H 	0.1456	0.5055	0.7077	-0.068
Mof_H 	H 	0.2705	0.7499	0.8725	0.062
Mof_H 	H 	0.6296	0.6015	0.7167	-0.04
Mof_H 	H 	0.4936	0.2411	0.7029	0.015
Mof_C 	C 	0.6687	0.9416	0.2409	0.163
Mof_C 	C 	0.6356	0.8579	0.344	-0.029
Mof_C 	C 	0.7427	0.7969	0.3371	-0.011
Mof_C 	C 	0.8058	0.8078	0.2768	-0.054
Mof_C 	C 	0.9135	0.7327	0.2588	0.441
Mof_C 	C 	0.5515	0.84	0.4062	0.345
Mof_C 	C 	0.1017	0.9726	0.2141	0.13
Mof_C 	C 	0.1266	0.1562	0.2422	-0.092
Mof_C 	C 	0.0208	0.1846	0.2063	0.01
Mof_C 	C 	0.9595	0.0973	0.1763	-0.071
Mof_C 	C 	0.8397	0.116	0.1376	0.422
Mof_C 	C 	0.2038	0.2492	0.2774	0.464
Mof_C 	C 	0.3228	0.1205	0.4731	0.255
Mof_C 	C 	0.2011	0.0682	0.4486	0.287
Mof_C 	C 	0.3313	0.0584	0.7409	0.165
Mof_C 	C 	0.3644	0.1421	0.844	-0.024
Mof_C 	C 	0.2573	0.2031	0.8371	-0.014
Mof_C 	C 	0.1942	0.1922	0.7768	-0.052
Mof_C 	C 	0.0865	0.2673	0.7588	0.441
Mof_C 	C 	0.4485	0.16	0.9062	0.343
Mof_C 	C 	0.8983	0.0274	0.7141	0.137
Mof_C 	C 	0.8734	0.8438	0.7422	-0.092
Mof_C 	C 	0.9792	0.8154	0.7063	0.022
Mof_C 	C 	0.0405	0.9027	0.6763	-0.073
Mof_C 	C 	0.1603	0.884	0.6376	0.431
Mof_C 	C 	0.7962	0.7508	0.7774	0.467
Mof_C 	C 	0.6772	0.8795	0.9731	0.34
Mof_C 	C 	0.7989	0.9318	0.9486	0.267
Mof_C 	C 	0.8313	0.4416	0.2409	0.163
Mof_C 	C 	0.8644	0.3579	0.344	-0.03
Mof_C 	C 	0.7573	0.2969	0.3371	-0.011
Mof_C 	C 	0.6942	0.3078	0.2768	-0.054
Mof_C 	C 	0.5865	0.2327	0.2588	0.441
Mof_C 	C 	0.9485	0.34	0.4062	0.347
Mof_C 	C 	0.3983	0.4726	0.2141	0.125
Mof_C 	C 	0.3734	0.6562	0.2422	-0.097
Mof_C 	C 	0.4792	0.6846	0.2063	0.024
Mof_C 	C 	0.5405	0.5973	0.1763	-0.08
Mof_C 	C 	0.6603	0.616	0.1376	0.425
Mof_C 	C 	0.2962	0.7492	0.2774	0.466
Mof_C 	C 	0.1772	0.6205	0.4731	0.255
Mof_C 	C 	0.2989	0.5682	0.4486	0.287
Mof_C 	C 	0.1687	0.5584	0.7409	0.165
Mof_C 	C 	0.1356	0.6421	0.844	-0.024
Mof_C 	C 	0.2427	0.7031	0.8371	-0.014
Mof_C 	C 	0.3058	0.6922	0.7768	-0.052
Mof_C 	C 	0.4135	0.7673	0.7588	0.441
Mof_C 	C 	0.0515	0.66	0.9062	0.343
Mof_C 	C 	0.6017	0.5274	0.7141	0.131
Mof_C 	C 	0.6266	0.3438	0.7422	-0.094
Mof_C 	C 	0.5208	0.3154	0.7063	0.027
Mof_C 	C 	0.4595	0.4027	0.6763	-0.077
Mof_C 	C 	0.3397	0.384	0.6376	0.432
Mof_C 	C 	0.7038	0.2508	0.7774	0.468
Mof_C 	C 	0.8228	0.3795	0.9731	0.342
Mof_C 	C 	0.7011	0.4318	0.9486	0.267
Mof_N 	N 	0.7699	0.8839	0.2283	-0.21
Mof_N 	N 	0.5974	0.9316	0.2957	-0.241
Mof_N 	N 	0.9989	0.9907	0.1773	-0.223
Mof_N 	N 	0.1675	0.0511	0.2473	-0.22
Mof_N 	N 	0.2301	0.1161	0.7283	-0.215
Mof_N 	N 	0.4026	0.0684	0.7957	-0.241
Mof_N 	N 	0.0011	0.0093	0.6773	-0.224
Mof_N 	N 	0.8325	0.9489	0.7473	-0.22
Mof_N 	N 	0.7301	0.3839	0.2283	-0.21
Mof_N 	N 	0.9026	0.4316	0.2957	-0.24
Mof_N 	N 	0.5011	0.4907	0.1773	-0.221
Mof_N 	N 	0.3325	0.5511	0.2473	-0.217
Mof_N 	N 	0.2699	0.6161	0.7283	-0.215
Mof_N 	N 	0.0974	0.5684	0.7957	-0.242
Mof_N 	N 	0.4989	0.5093	0.6773	-0.222
Mof_N 	N 	0.6675	0.4489	0.7473	-0.217
Mof_O 	O 	0.9544	0.7405	0.1984	-0.551
Mof_O 	O 	0.9508	0.6667	0.305	-0.491
Mof_O 	O 	0.4539	0.8965	0.407	-0.465
Mof_O 	O 	0.5854	0.7692	0.4494	-0.304
Mof_O 	O 	0.795	0.0353	0.1043	-0.525
Mof_O 	O 	0.7925	0.2117	0.1458	-0.483
Mof_O 	O 	0.3005	0.2174	0.3065	-0.518
Mof_O 	O 	0.1665	0.3486	0.2736	-0.576
Mof_O 	O 	0.4082	0.1241	0.429	-0.407
Mof_O 	O 	0.3266	0.1533	0.5347	-0.42
Mof_O 	O 	0.2047	0.0146	0.3919	-0.443
Mof_O 	O 	0.1098	0.0818	0.4864	-0.45
Mof_O 	O 	0.0456	0.2595	0.6984	-0.554
Mof_O 	O 	0.0492	0.3333	0.805	-0.489
Mof_O 	O 	0.5461	0.1035	0.907	-0.454
Mof_O 	O 	0.4146	0.2308	0.9494	-0.283
Mof_O 	O 	0.205	0.9647	0.6043	-0.519
Mof_O 	O 	0.2075	0.7883	0.6458	-0.489
Mof_O 	O 	0.6995	0.7826	0.8065	-0.517
Mof_O 	O 	0.8335	0.6514	0.7736	-0.575
Mof_O 	O 	0.5918	0.8759	0.929	-0.417
Mof_O 	O 	0.6734	0.8467	0.0347	-0.484
Mof_O 	O 	0.7953	0.9854	0.8919	-0.434
Mof_O 	O 	0.8902	0.9182	0.9864	-0.406
Mof_O 	O 	0.5456	0.2405	0.1984	-0.551
Mof_O 	O 	0.5492	0.1667	0.305	-0.491
Mof_O 	O 	0.0461	0.3965	0.407	-0.467
Mof_O 	O 	0.9146	0.2692	0.4494	-0.304
Mof_O 	O 	0.705	0.5353	0.1043	-0.527
Mof_O 	O 	0.7075	0.7117	0.1458	-0.485
Mof_O 	O 	0.1995	0.7174	0.3065	-0.518
Mof_O 	O 	0.3335	0.8486	0.2736	-0.575
Mof_O 	O 	0.0918	0.6241	0.429	-0.407
Mof_O 	O 	0.1734	0.6533	0.5347	-0.421
Mof_O 	O 	0.2953	0.5146	0.3919	-0.442
Mof_O 	O 	0.3902	0.5818	0.4864	-0.449
Mof_O 	O 	0.4544	0.7595	0.6984	-0.554
Mof_O 	O 	0.4508	0.8333	0.805	-0.488
Mof_O 	O 	0.9539	0.6035	0.907	-0.456
Mof_O 	O 	0.0854	0.7308	0.9494	-0.283
Mof_O 	O 	0.295	0.4647	0.6043	-0.52
Mof_O 	O 	0.2925	0.2883	0.6458	-0.49
Mof_O 	O 	0.8005	0.2826	0.8065	-0.516
Mof_O 	O 	0.6665	0.1514	0.7736	-0.574
Mof_O 	O 	0.9082	0.3759	0.929	-0.418
Mof_O 	O 	0.8266	0.3467	0.0347	-0.486
Mof_O 	O 	0.7047	0.4854	0.8919	-0.433
Mof_O 	O 	0.6098	0.4182	0.9864	-0.403
_end
