# CIF file generated by openbabel 3.1.0, see https://openbabel.org
data_I
_chemical_name_common 'image0'
_cell_length_a 12.8563
_cell_length_b 12.8563
_cell_length_c 12.8563
_cell_angle_alpha 90
_cell_angle_beta 90
_cell_angle_gamma 90
_space_group_name_H-M_alt 'P 1'
_space_group_name_Hall 'P 1'
loop_
    _symmetry_equiv_pos_as_xyz
    x,y,z
loop_
    _atom_site_label
    _atom_site_type_symbol
    _atom_site_fract_x
    _atom_site_fract_y
    _atom_site_fract_z
    _atom_site_occupancy
    N1       N        0.72420    0.48120    0.03350    1.000
    N2       N        0.64190    0.43920    0.04460    1.000
    N3       N        0.80690    0.51590    0.02700    1.000
    N4       N        0.77580    0.51880    0.53350    1.000
    N5       N        0.85810    0.56080    0.54460    1.000
    N6       N        0.69310    0.48410    0.52700    1.000
    N7       N        0.27580    0.98120    0.46650    1.000
    N8       N        0.35810    0.93920    0.45540    1.000
    N9       N        0.19310    0.01590    0.47300    1.000
    N10      N        0.22420    0.01880    0.96650    1.000
    N11      N        0.14190    0.06080    0.95540    1.000
    N12      N        0.30690    0.98410    0.97300    1.000
    N13      N        0.03350    0.72420    0.48120    1.000
    N14      N        0.04460    0.64190    0.43920    1.000
    N15      N        0.02700    0.80690    0.51590    1.000
    N16      N        0.53350    0.77580    0.51880    1.000
    N17      N        0.54460    0.85810    0.56080    1.000
    N18      N        0.52700    0.69310    0.48410    1.000
    N19      N        0.46650    0.27580    0.98120    1.000
    N20      N        0.45540    0.35810    0.93920    1.000
    N21      N        0.47300    0.19310    0.01590    1.000
    N22      N        0.96650    0.22420    0.01880    1.000
    N23      N        0.95540    0.14190    0.06080    1.000
    N24      N        0.97300    0.30690    0.98410    1.000
    N25      N        0.48120    0.03350    0.72420    1.000
    N26      N        0.43920    0.04460    0.64190    1.000
    N27      N        0.51590    0.02700    0.80690    1.000
    N28      N        0.51880    0.53350    0.77580    1.000
    N29      N        0.56080    0.54460    0.85810    1.000
    N30      N        0.48410    0.52700    0.69310    1.000
    N31      N        0.98120    0.46650    0.27580    1.000
    N32      N        0.93920    0.45540    0.35810    1.000
    N33      N        0.01590    0.47300    0.19310    1.000
    N34      N        0.01880    0.96650    0.22420    1.000
    N35      N        0.06080    0.95540    0.14190    1.000
    N36      N        0.98410    0.97300    0.30690    1.000
    N37      N        0.27580    0.51880    0.96650    1.000
    N38      N        0.35810    0.56080    0.95540    1.000
    N39      N        0.19310    0.48410    0.97300    1.000
    N40      N        0.22420    0.48120    0.46650    1.000
    N41      N        0.14190    0.43920    0.45540    1.000
    N42      N        0.30690    0.51590    0.47300    1.000
    N43      N        0.72420    0.01880    0.53350    1.000
    N44      N        0.64190    0.06080    0.54460    1.000
    N45      N        0.80690    0.98410    0.52700    1.000
    N46      N        0.77580    0.98120    0.03350    1.000
    N47      N        0.85810    0.93920    0.04460    1.000
    N48      N        0.69310    0.01590    0.02700    1.000
    N49      N        0.96650    0.27580    0.51880    1.000
    N50      N        0.95540    0.35810    0.56080    1.000
    N51      N        0.97300    0.19310    0.48410    1.000
    N52      N        0.46650    0.22420    0.48120    1.000
    N53      N        0.45540    0.14190    0.43920    1.000
    N54      N        0.47300    0.30690    0.51590    1.000
    N55      N        0.53350    0.72420    0.01880    1.000
    N56      N        0.54460    0.64190    0.06080    1.000
    N57      N        0.52700    0.80690    0.98410    1.000
    N58      N        0.03350    0.77580    0.98120    1.000
    N59      N        0.04460    0.85810    0.93920    1.000
    N60      N        0.02700    0.69310    0.01590    1.000
    N61      N        0.51880    0.96650    0.27580    1.000
    N62      N        0.56080    0.95540    0.35810    1.000
    N63      N        0.48410    0.97300    0.19310    1.000
    N64      N        0.48120    0.46650    0.22420    1.000
    N65      N        0.43920    0.45540    0.14190    1.000
    N66      N        0.51590    0.47300    0.30690    1.000
    N67      N        0.01880    0.53350    0.72420    1.000
    N68      N        0.06080    0.54460    0.64190    1.000
    N69      N        0.98410    0.52700    0.80690    1.000
    N70      N        0.98120    0.03350    0.77580    1.000
    N71      N        0.93920    0.04460    0.85810    1.000
    N72      N        0.01590    0.02700    0.69310    1.000
    Ru1      Ru       0.50000    0.50000    0.00000    1.000
    Ru2      Ru       0.00000    0.50000    0.50000    1.000
    Ru3      Ru       0.50000    0.00000    0.50000    1.000
    Ru4      Ru       0.00000    0.00000    0.00000    1.000
    Na1      Na       0.00000    0.50000    0.00000    1.000
    Na2      Na       0.50000    0.50000    0.50000    1.000
    Na3      Na       0.00000    0.00000    0.50000    1.000
    Na4      Na       0.50000    0.00000    0.00000    1.000
