data_functionalizedCrystal
_audit_creation_method	'EQeq! by Chris Wilmer'
_symmetry_space_group_name_H-M	'P1'
_symmetry_Int_Tables_number	1
_symmetry_cell_setting	triclinic
loop_
_symmetry_equiv_pos_as_xyz
  x,y,z
_cell_length_a	9.7008
_cell_length_b	20.8675
_cell_length_c	24.75
_cell_angle_alpha	104.531
_cell_angle_beta	90
_cell_angle_gamma	103.441
loop_
_atom_site_label
_atom_site_type_symbol
_atom_site_fract_x
_atom_site_fract_y
_atom_site_fract_z
_atom_site_charge
Mof_Cu	Cu	0.25205	0.78548	0.01049	0.823
Mof_Cu	Cu	0.5645	0.71034	0.96181	0.824
Mof_Cu	Cu	0.47427	0.73852	0.10828	0.821
Mof_Cu	Cu	0.46657	0.21452	0.48951	0.824
Mof_Cu	Cu	0.85416	0.28966	0.53819	0.824
Mof_Cu	Cu	0.73575	0.26148	0.39172	0.821
Mof_Cu	Cu	0.74795	0.21452	0.98951	0.823
Mof_Cu	Cu	0.4355	0.28966	0.03819	0.824
Mof_Cu	Cu	0.52573	0.26148	0.89172	0.821
Mof_Cu	Cu	0.53343	0.78548	0.51049	0.824
Mof_Cu	Cu	0.14584	0.71034	0.46181	0.824
Mof_Cu	Cu	0.26425	0.73852	0.60828	0.821
Mof_Mo	Mo	0.53097	0.8211	0.04004	0.501
Mof_Mo	Mo	0.70987	0.1789	0.45996	0.501
Mof_Mo	Mo	0.46903	0.1789	0.95996	0.501
Mof_Mo	Mo	0.29013	0.8211	0.54004	0.501
Mof_H 	H 	0.9593	0.7146	0.0391	-0.015
Mof_H 	H 	0.8065	0.6096	0.0187	0.077
Mof_H 	H 	0.0646	0.5478	0.9018	0.077
Mof_H 	H 	0.2125	0.6528	0.9282	-0.033
Mof_H 	H 	0.5125	0.4066	0.9509	-0.027
Mof_H 	H 	0.6432	0.5156	0.9723	0.074
Mof_H 	H 	0.9772	0.443	0.9105	0.077
Mof_H 	H 	0.8289	0.3362	0.8907	-0.025
Mof_H 	H 	0.9851	0.8378	0.0437	-0.017
Mof_H 	H 	0.8905	0.9262	0.0459	0.056
Mof_H 	H 	0.1795	0.9864	0.9469	0.058
Mof_H 	H 	0.282	0.8992	0.9529	-0.018
Mof_H 	H 	0.7646	0.82	0.916	-0.024
Mof_H 	H 	0.927	0.831	0.8499	0.077
Mof_H 	H 	0.9059	0.632	0.8224	0.078
Mof_H 	H 	0.7397	0.6278	0.8877	-0.012
Mof_H 	H 	0.2638	0.8308	0.7262	-0.026
Mof_H 	H 	0.1446	0.8316	0.8044	0.072
Mof_H 	H 	0.9487	0.6378	0.7367	0.072
Mof_H 	H 	0.0951	0.6404	0.6625	-0.008
Mof_H 	H 	0.2447	0.2854	0.4609	-0.015
Mof_H 	H 	0.1969	0.3904	0.4813	0.076
Mof_H 	H 	0.5168	0.4522	0.5982	0.077
Mof_H 	H 	0.5597	0.3472	0.5718	-0.033
Mof_H 	H 	0.1059	0.5934	0.5491	-0.027
Mof_H 	H 	0.1276	0.4844	0.5277	0.074
Mof_H 	H 	0.5342	0.557	0.5895	0.078
Mof_H 	H 	0.4927	0.6638	0.6093	-0.024
Mof_H 	H 	0.1473	0.1622	0.4563	-0.019
Mof_H 	H 	0.9643	0.0738	0.4541	0.057
Mof_H 	H 	0.1931	0.0136	0.5531	0.058
Mof_H 	H 	0.3828	0.1008	0.5471	-0.018
Mof_H 	H 	0.9446	0.18	0.584	-0.026
Mof_H 	H 	0.096	0.169	0.6501	0.078
Mof_H 	H 	0.2739	0.368	0.6776	0.078
Mof_H 	H 	0.1119	0.3722	0.6123	-0.012
Mof_H 	H 	0.433	0.1692	0.7738	-0.026
Mof_H 	H 	0.313	0.1684	0.6956	0.072
Mof_H 	H 	0.3109	0.3622	0.7633	0.073
Mof_H 	H 	0.4547	0.3596	0.8375	-0.009
Mof_H 	H 	0.0407	0.2854	0.9609	-0.015
Mof_H 	H 	0.1935	0.3904	0.9813	0.077
Mof_H 	H 	0.9354	0.4522	0.0982	0.077
Mof_H 	H 	0.7875	0.3472	0.0718	-0.033
Mof_H 	H 	0.4875	0.5934	0.0491	-0.027
Mof_H 	H 	0.3568	0.4844	0.0277	0.074
Mof_H 	H 	0.0228	0.557	0.0895	0.077
Mof_H 	H 	0.1711	0.6638	0.1093	-0.025
Mof_H 	H 	0.0149	0.1622	0.9563	-0.017
Mof_H 	H 	0.1095	0.0738	0.9541	0.056
Mof_H 	H 	0.8205	0.0136	0.0531	0.058
Mof_H 	H 	0.718	0.1008	0.0471	-0.018
Mof_H 	H 	0.2354	0.18	0.084	-0.024
Mof_H 	H 	0.073	0.169	0.1501	0.077
Mof_H 	H 	0.0941	0.368	0.1776	0.078
Mof_H 	H 	0.2603	0.3722	0.1123	-0.012
Mof_H 	H 	0.7362	0.1692	0.2738	-0.026
Mof_H 	H 	0.8554	0.1684	0.1956	0.072
Mof_H 	H 	0.0513	0.3622	0.2633	0.072
Mof_H 	H 	0.9049	0.3596	0.3375	-0.008
Mof_H 	H 	0.7553	0.7146	0.5391	-0.015
Mof_H 	H 	0.8031	0.6096	0.5187	0.076
Mof_H 	H 	0.4832	0.5478	0.4018	0.077
Mof_H 	H 	0.4403	0.6528	0.4282	-0.033
Mof_H 	H 	0.8941	0.4066	0.4509	-0.027
Mof_H 	H 	0.8724	0.5156	0.4723	0.074
Mof_H 	H 	0.4658	0.443	0.4105	0.078
Mof_H 	H 	0.5073	0.3362	0.3907	-0.024
Mof_H 	H 	0.8527	0.8378	0.5437	-0.019
Mof_H 	H 	0.0357	0.9262	0.5459	0.057
Mof_H 	H 	0.8069	0.9864	0.4469	0.058
Mof_H 	H 	0.6172	0.8992	0.4529	-0.018
Mof_H 	H 	0.0554	0.82	0.416	-0.026
Mof_H 	H 	0.904	0.831	0.3499	0.078
Mof_H 	H 	0.7261	0.632	0.3224	0.078
Mof_H 	H 	0.8881	0.6278	0.3877	-0.012
Mof_H 	H 	0.567	0.8308	0.2262	-0.026
Mof_H 	H 	0.687	0.8316	0.3044	0.072
Mof_H 	H 	0.6891	0.6378	0.2367	0.073
Mof_H 	H 	0.5453	0.6404	0.1625	-0.009
Mof_C 	C 	0.98286	0.67972	0.012	0.085
Mof_C 	C 	0.88954	0.61648	0.9999	-0.151
Mof_C 	C 	0.9204	0.5634	0.9596	0.06
Mof_C 	C 	0.04262	0.58044	0.9315	-0.141
Mof_C 	C 	0.12993	0.64386	0.9469	0.074
Mof_C 	C 	0.6071	0.4146	0.942	0.078
Mof_C 	C 	0.68497	0.48034	0.9555	-0.14
Mof_C 	C 	0.82756	0.49412	0.944	0.051
Mof_C 	C 	0.88224	0.43728	0.9189	-0.136
Mof_C 	C 	0.79166	0.37332	0.907	0.076
Mof_C 	C 	0.03122	0.87004	0.0255	0.079
Mof_C 	C 	0.97152	0.92244	0.0265	-0.15
Mof_C 	C 	0.02956	0.96872	0.9994	0.057
Mof_C 	C 	0.1419	0.958	0.9695	-0.142
Mof_C 	C 	0.2015	0.9042	0.9723	0.066
Mof_C 	C 	0.7927	0.7814	0.8965	0.09
Mof_C 	C 	0.89055	0.7887	0.8567	-0.15
Mof_C 	C 	0.93352	0.73144	0.8269	0.06
Mof_C 	C 	0.8777	0.6714	0.8402	-0.146
Mof_C 	C 	0.779	0.6696	0.8802	0.082
Mof_C 	C 	0.2	0.7908	0.7281	0.086
Mof_C 	C 	0.12713	0.79206	0.7753	-0.144
Mof_C 	C 	0.02588	0.73396	0.7803	0.05
Mof_C 	C 	0.0142	0.6782	0.7364	-0.128
Mof_C 	C 	0.1002	0.6806	0.6902	0.066
Mof_C 	C 	0.4114	0.5562	0.9134	0.096
Mof_C 	C 	0.30314	0.32028	0.488	0.084
Mof_C 	C 	0.27306	0.38352	0.5001	-0.149
Mof_C 	C 	0.357	0.4366	0.5404	0.061
Mof_C 	C 	0.46218	0.41956	0.5685	-0.142
Mof_C 	C 	0.48607	0.35614	0.5531	0.074
Mof_C 	C 	0.1925	0.5854	0.558	0.078
Mof_C 	C 	0.20463	0.51966	0.5445	-0.14
Mof_C 	C 	0.33344	0.50588	0.556	0.051
Mof_C 	C 	0.44496	0.56272	0.5811	-0.136
Mof_C 	C 	0.41834	0.62668	0.593	0.076
Mof_C 	C 	0.16118	0.12996	0.4745	0.085
Mof_C 	C 	0.04908	0.07756	0.4735	-0.153
Mof_C 	C 	0.06084	0.03128	0.5006	0.057
Mof_C 	C 	0.1839	0.042	0.5305	-0.142
Mof_C 	C 	0.2973	0.0958	0.5277	0.064
Mof_C 	C 	0.0113	0.2186	0.6035	0.092
Mof_C 	C 	0.10185	0.2113	0.6433	-0.151
Mof_C 	C 	0.20208	0.26856	0.6731	0.062
Mof_C 	C 	0.2063	0.3286	0.6598	-0.147
Mof_C 	C 	0.1094	0.3304	0.6198	0.083
Mof_C 	C 	0.4092	0.2092	0.7719	0.086
Mof_C 	C 	0.33507	0.20794	0.7247	-0.143
Mof_C 	C 	0.29192	0.26604	0.7197	0.049
Mof_C 	C 	0.336	0.3218	0.7636	-0.129
Mof_C 	C 	0.4196	0.3194	0.8098	0.066
Mof_C 	C 	0.8552	0.4438	0.5866	0.096
Mof_C 	C 	0.01714	0.32028	0.988	0.085
Mof_C 	C 	0.11046	0.38352	0.0001	-0.151
Mof_C 	C 	0.0796	0.4366	0.0404	0.06
Mof_C 	C 	0.95738	0.41956	0.0685	-0.141
Mof_C 	C 	0.87007	0.35614	0.0531	0.074
Mof_C 	C 	0.3929	0.5854	0.058	0.078
Mof_C 	C 	0.31503	0.51966	0.0445	-0.14
Mof_C 	C 	0.17244	0.50588	0.056	0.051
Mof_C 	C 	0.11776	0.56272	0.0811	-0.136
Mof_C 	C 	0.20834	0.62668	0.093	0.076
Mof_C 	C 	0.96878	0.12996	0.9745	0.079
Mof_C 	C 	0.02848	0.07756	0.9735	-0.15
Mof_C 	C 	0.97044	0.03128	0.0006	0.057
Mof_C 	C 	0.8581	0.042	0.0305	-0.142
Mof_C 	C 	0.7985	0.0958	0.0277	0.066
Mof_C 	C 	0.2073	0.2186	0.1035	0.09
Mof_C 	C 	0.10945	0.2113	0.1433	-0.15
Mof_C 	C 	0.06648	0.26856	0.1731	0.06
Mof_C 	C 	0.1223	0.3286	0.1598	-0.146
Mof_C 	C 	0.221	0.3304	0.1198	0.082
Mof_C 	C 	0.8	0.2092	0.2719	0.086
Mof_C 	C 	0.87287	0.20794	0.2247	-0.144
Mof_C 	C 	0.97412	0.26604	0.2197	0.05
Mof_C 	C 	0.9858	0.3218	0.2636	-0.128
Mof_C 	C 	0.8998	0.3194	0.3098	0.066
Mof_C 	C 	0.5886	0.4438	0.0866	0.096
Mof_C 	C 	0.69686	0.67972	0.512	0.084
Mof_C 	C 	0.72694	0.61648	0.4999	-0.149
Mof_C 	C 	0.643	0.5634	0.4596	0.061
Mof_C 	C 	0.53782	0.58044	0.4315	-0.142
Mof_C 	C 	0.51393	0.64386	0.4469	0.074
Mof_C 	C 	0.8075	0.4146	0.442	0.078
Mof_C 	C 	0.79537	0.48034	0.4555	-0.14
Mof_C 	C 	0.66656	0.49412	0.444	0.051
Mof_C 	C 	0.55504	0.43728	0.4189	-0.136
Mof_C 	C 	0.58166	0.37332	0.407	0.076
Mof_C 	C 	0.83882	0.87004	0.5255	0.085
Mof_C 	C 	0.95092	0.92244	0.5265	-0.153
Mof_C 	C 	0.93916	0.96872	0.4994	0.057
Mof_C 	C 	0.8161	0.958	0.4695	-0.142
Mof_C 	C 	0.7027	0.9042	0.4723	0.064
Mof_C 	C 	0.9887	0.7814	0.3965	0.092
Mof_C 	C 	0.89815	0.7887	0.3567	-0.151
Mof_C 	C 	0.79792	0.73144	0.3269	0.062
Mof_C 	C 	0.7937	0.6714	0.3402	-0.147
Mof_C 	C 	0.8906	0.6696	0.3802	0.083
Mof_C 	C 	0.5908	0.7908	0.2281	0.086
Mof_C 	C 	0.66493	0.79206	0.2753	-0.143
Mof_C 	C 	0.70808	0.73396	0.2803	0.049
Mof_C 	C 	0.664	0.6782	0.2364	-0.129
Mof_C 	C 	0.5804	0.6806	0.1902	0.066
Mof_C 	C 	0.1448	0.5562	0.4134	0.096
Mof_S 	S 	0.43304	0.78534	0.95146	-0.545
Mof_S 	S 	0.65994	0.7474	0.05145	-0.549
Mof_S 	S 	0.3523	0.81572	0.09939	-0.561
Mof_S 	S 	0.31909	0.47818	0.88875	-0.082
Mof_S 	S 	0.6477	0.21466	0.54854	-0.546
Mof_S 	S 	0.91254	0.2526	0.44855	-0.55
Mof_S 	S 	0.53658	0.18428	0.40061	-0.56
Mof_S 	S 	0.84091	0.52182	0.61125	-0.083
Mof_S 	S 	0.56696	0.21466	0.04854	-0.545
Mof_S 	S 	0.34006	0.2526	0.94855	-0.549
Mof_S 	S 	0.6477	0.18428	0.90061	-0.561
Mof_S 	S 	0.68091	0.52182	0.11125	-0.082
Mof_S 	S 	0.3523	0.78534	0.45146	-0.546
Mof_S 	S 	0.08746	0.7474	0.55145	-0.55
Mof_S 	S 	0.46342	0.81572	0.59939	-0.56
Mof_S 	S 	0.15909	0.47818	0.38875	-0.083
Mof_N 	N 	0.10317	0.69454	0.9879	-0.249
Mof_N 	N 	0.65608	0.36116	0.917	-0.25
Mof_N 	N 	0.1485	0.8596	0.0015	-0.238
Mof_N 	N 	0.73671	0.72362	0.9088	-0.233
Mof_N 	N 	0.18725	0.7375	0.685	-0.241
Mof_N 	N 	0.47891	0.61022	0.9305	-0.262
Mof_N 	N 	0.40863	0.30546	0.5121	-0.25
Mof_N 	N 	0.29492	0.63884	0.583	-0.25
Mof_N 	N 	0.2889	0.1404	0.4985	-0.238
Mof_N 	N 	0.01309	0.27638	0.5912	-0.234
Mof_N 	N 	0.44975	0.2625	0.815	-0.241
Mof_N 	N 	0.86869	0.38978	0.5695	-0.262
Mof_N 	N 	0.89683	0.30546	0.0121	-0.249
Mof_N 	N 	0.34392	0.63884	0.083	-0.25
Mof_N 	N 	0.8515	0.1404	0.9985	-0.238
Mof_N 	N 	0.26329	0.27638	0.0912	-0.233
Mof_N 	N 	0.81275	0.2625	0.315	-0.241
Mof_N 	N 	0.52109	0.38978	0.0695	-0.262
Mof_N 	N 	0.59137	0.69454	0.4879	-0.25
Mof_N 	N 	0.70508	0.36116	0.417	-0.25
Mof_N 	N 	0.7111	0.8596	0.5015	-0.238
Mof_N 	N 	0.98691	0.72362	0.4088	-0.234
Mof_N 	N 	0.55025	0.7375	0.185	-0.241
Mof_N 	N 	0.13131	0.61022	0.4305	-0.262
_end
