data_functionalizedCrystal
_audit_creation_method	'EQeq! by Chris Wilmer'
_symmetry_space_group_name_H-M	'P1'
_symmetry_Int_Tables_number	1
_symmetry_cell_setting	triclinic
loop_
_symmetry_equiv_pos_as_xyz
  x,y,z
_cell_length_a	14.9365
_cell_length_b	17.1361
_cell_length_c	17.3016
_cell_angle_alpha	118.509
_cell_angle_beta	103.354
_cell_angle_gamma	96.64
loop_
_atom_site_label
_atom_site_type_symbol
_atom_site_fract_x
_atom_site_fract_y
_atom_site_fract_z
_atom_site_charge
Mof_Gd	Gd	0.88079	0.45839	0.39204	1.954
Mof_Gd	Gd	0.11921	0.54161	0.60796	1.95
Mof_H 	H 	0.9042	0.8853	0.811	0.32
Mof_H 	H 	0.9282	0.929	0.9187	0.305
Mof_H 	H 	0.9437	0.9922	0.8782	0.33
Mof_H 	H 	0.6453	0.0743	0.0381	0.336
Mof_H 	H 	0.6791	0.9972	0.0519	0.322
Mof_H 	H 	0.5752	0.9762	0.9881	0.284
Mof_H 	H 	0.5862	0.9788	0.6779	0.498
Mof_H 	H 	0.5219	0.8914	0.6649	0.418
Mof_H 	H 	0.607	0.8826	0.6252	0.423
Mof_H 	H 	0.7937	0.9528	0.046	0.005
Mof_H 	H 	0.8832	0.9563	0.0137	-0.011
Mof_H 	H 	0.8861	0.1256	0.0112	0.028
Mof_H 	H 	0.9367	0.2788	0.1185	0.177
Mof_H 	H 	0.9195	0.2208	0.3165	0.139
Mof_H 	H 	0.8687	0.0689	0.2041	-0.015
Mof_H 	H 	0.5175	0.0228	0.8964	0.031
Mof_H 	H 	0.5137	0.0213	0.8044	0.078
Mof_H 	H 	0.4963	0.8286	0.8286	-0.023
Mof_H 	H 	0.3682	0.7037	0.7516	0.176
Mof_H 	H 	0.2269	0.8292	0.6393	0.18
Mof_H 	H 	0.3562	0.9524	0.7211	0.033
Mof_H 	H 	0.7406	0.9271	0.6549	0.064
Mof_H 	H 	0.8445	0.9628	0.7249	0.059
Mof_H 	H 	0.7047	0.7623	0.6788	-0.044
Mof_H 	H 	0.723	0.6184	0.5977	0.173
Mof_H 	H 	0.9188	0.7173	0.5215	0.159
Mof_H 	H 	0.895	0.8584	0.6022	-0.019
Mof_H 	H 	0.5134	0.3016	0.6509	0.366
Mof_H 	H 	0.5975	0.2695	0.6151	0.372
Mof_H 	H 	0.552	0.2255	0.663	0.435
Mof_H 	H 	0.9403	0.4568	0.9265	0.308
Mof_H 	H 	0.9209	0.4143	0.8195	0.323
Mof_H 	H 	0.9343	0.5201	0.8845	0.305
Mof_H 	H 	0.5705	0.5062	0.982	0.256
Mof_H 	H 	0.669	0.5197	0.0497	0.304
Mof_H 	H 	0.6549	0.5925	0.0208	0.292
Mof_H 	H 	0.4957	0.3931	0.8778	0.056
Mof_H 	H 	0.4778	0.3118	0.7764	0.085
Mof_H 	H 	0.5327	0.5506	0.8624	-0.024
Mof_H 	H 	0.4363	0.6245	0.8173	0.184
Mof_H 	H 	0.2377	0.3851	0.6407	0.154
Mof_H 	H 	0.3377	0.3139	0.6898	-0
Mof_H 	H 	0.8098	0.6317	0.0314	0.025
Mof_H 	H 	0.8961	0.5926	0.0085	0.024
Mof_H 	H 	0.8825	0.7017	0.1916	-0.004
Mof_H 	H 	0.9172	0.6939	0.322	0.17
Mof_H 	H 	0.8675	0.4186	0.16	0.168
Mof_H 	H 	0.8375	0.4335	0.0334	0.041
Mof_H 	H 	0.7242	0.2524	0.6515	0.084
Mof_H 	H 	0.8249	0.2874	0.7264	0.081
Mof_H 	H 	0.855	0.2331	0.5743	0.019
Mof_H 	H 	0.926	0.2867	0.5001	0.139
Mof_H 	H 	0.8625	0.5266	0.638	0.15
Mof_H 	H 	0.7866	0.4664	0.7055	-0.03
Mof_H 	H 	0.0958	0.1147	0.189	0.321
Mof_H 	H 	0.0718	0.071	0.0813	0.319
Mof_H 	H 	0.0563	0.0078	0.1218	0.331
Mof_H 	H 	0.3547	0.9257	0.9619	0.387
Mof_H 	H 	0.3209	0.0028	0.9481	0.364
Mof_H 	H 	0.4248	0.0238	0.0119	0.382
Mof_H 	H 	0.4138	0.0212	0.3221	0.489
Mof_H 	H 	0.4781	0.1086	0.3351	0.415
Mof_H 	H 	0.393	0.1174	0.3748	0.419
Mof_H 	H 	0.2063	0.0472	0.954	0.009
Mof_H 	H 	0.1168	0.0437	0.9863	-0.014
Mof_H 	H 	0.1139	0.8744	0.9888	0.009
Mof_H 	H 	0.0633	0.7212	0.8815	0.164
Mof_H 	H 	0.0805	0.7792	0.6835	0.137
Mof_H 	H 	0.1313	0.9311	0.7959	-0.01
Mof_H 	H 	0.4825	0.9772	0.1036	0.075
Mof_H 	H 	0.4863	0.9787	0.1956	0.114
Mof_H 	H 	0.5037	0.1714	0.1714	-0.019
Mof_H 	H 	0.6318	0.2963	0.2484	0.176
Mof_H 	H 	0.7731	0.1708	0.3607	0.178
Mof_H 	H 	0.6438	0.0476	0.2789	0.03
Mof_H 	H 	0.2594	0.0729	0.3451	0.061
Mof_H 	H 	0.1555	0.0372	0.2751	0.054
Mof_H 	H 	0.2953	0.2377	0.3212	-0.042
Mof_H 	H 	0.277	0.3816	0.4023	0.174
Mof_H 	H 	0.0812	0.2827	0.4785	0.158
Mof_H 	H 	0.105	0.1416	0.3978	-0.021
Mof_H 	H 	0.4866	0.6984	0.3491	0.361
Mof_H 	H 	0.4025	0.7305	0.3849	0.368
Mof_H 	H 	0.448	0.7745	0.337	0.432
Mof_H 	H 	0.0597	0.5432	0.0735	0.322
Mof_H 	H 	0.0791	0.5857	0.1805	0.322
Mof_H 	H 	0.0657	0.4799	0.1155	0.316
Mof_H 	H 	0.4295	0.4938	0.018	0.252
Mof_H 	H 	0.331	0.4803	0.9503	0.244
Mof_H 	H 	0.3451	0.4075	0.9792	0.231
Mof_H 	H 	0.5043	0.6069	0.1222	0.066
Mof_H 	H 	0.5222	0.6882	0.2236	0.089
Mof_H 	H 	0.4673	0.4494	0.1376	-0.012
Mof_H 	H 	0.5637	0.3755	0.1827	0.188
Mof_H 	H 	0.7623	0.6149	0.3593	0.153
Mof_H 	H 	0.6623	0.6861	0.3102	0
Mof_H 	H 	0.1902	0.3683	0.9686	0.038
Mof_H 	H 	0.1039	0.4074	0.9915	0.029
Mof_H 	H 	0.1175	0.2983	0.8084	-0.005
Mof_H 	H 	0.0828	0.3061	0.678	0.168
Mof_H 	H 	0.1325	0.5814	0.84	0.162
Mof_H 	H 	0.1625	0.5665	0.9666	0.018
Mof_H 	H 	0.2758	0.7476	0.3485	0.087
Mof_H 	H 	0.1751	0.7126	0.2736	0.084
Mof_H 	H 	0.145	0.7669	0.4257	0.02
Mof_H 	H 	0.074	0.7133	0.4999	0.138
Mof_H 	H 	0.1375	0.4734	0.362	0.15
Mof_H 	H 	0.2134	0.5336	0.2945	-0.027
Mof_C 	C 	0.904	0.9374	0.8675	-0.944
Mof_C 	C 	0.6405	0.0095	0.0085	-0.871
Mof_C 	C 	0.5856	0.9215	0.6753	-1.196
Mof_C 	C 	0.7682	0.9683	0.9337	-0.316
Mof_C 	C 	0.6749	0.9793	0.9255	0.401
Mof_C 	C 	0.6174	0.9656	0.8415	-0.285
Mof_C 	C 	0.6507	0.9395	0.7654	0.512
Mof_C 	C 	0.7444	0.9332	0.7759	-0.304
Mof_C 	C 	0.8029	0.9464	0.8589	0.417
Mof_C 	C 	0.8304	0.9835	0.024	0.12
Mof_C 	C 	0.891	0.1459	0.0728	0.179
Mof_C 	C 	0.9205	0.2375	0.1366	-0.313
Mof_C 	C 	0.9269	0.2709	0.231	0.386
Mof_C 	C 	0.9102	0.203	0.2547	-0.321
Mof_C 	C 	0.8808	0.1124	0.1876	0.158
Mof_C 	C 	0.5205	0.9855	0.8341	0.074
Mof_C 	C 	0.4414	0.8282	0.7897	0.19
Mof_C 	C 	0.3645	0.753	0.7429	-0.366
Mof_C 	C 	0.2806	0.7478	0.6826	0.435
Mof_C 	C 	0.281	0.8271	0.6771	-0.346
Mof_C 	C 	0.3587	0.9008	0.7258	0.179
Mof_C 	C 	0.7838	0.9176	0.699	0.057
Mof_C 	C 	0.748	0.7527	0.6463	0.216
Mof_C 	C 	0.7587	0.6664	0.5975	-0.402
Mof_C 	C 	0.8217	0.6488	0.5474	0.462
Mof_C 	C 	0.8741	0.7247	0.5522	-0.395
Mof_C 	C 	0.8604	0.809	0.6012	0.211
Mof_C 	C 	0.5693	0.2811	0.6628	-1.057
Mof_C 	C 	0.9094	0.4601	0.8734	-0.907
Mof_C 	C 	0.6384	0.5282	-0	-0.757
Mof_C 	C 	0.6405	0.3548	0.7568	0.427
Mof_C 	C 	0.7388	0.3717	0.7714	-0.246
Mof_C 	C 	0.8027	0.4429	0.8569	0.386
Mof_C 	C 	0.7682	0.496	0.9285	-0.282
Mof_C 	C 	0.6711	0.4752	0.9179	0.346
Mof_C 	C 	0.6077	0.4042	0.8312	-0.229
Mof_C 	C 	0.5027	0.3779	0.8182	0.015
Mof_C 	C 	0.4728	0.5171	0.8177	0.197
Mof_C 	C 	0.4148	0.5612	0.7909	-0.346
Mof_C 	C 	0.3235	0.5148	0.7249	0.427
Mof_C 	C 	0.2968	0.4199	0.6863	-0.34
Mof_C 	C 	0.3575	0.3771	0.7154	0.165
Mof_C 	C 	0.836	0.5792	0.0179	0.081
Mof_C 	C 	0.8794	0.6446	0.1859	0.183
Mof_C 	C 	0.8994	0.64	0.264	-0.344
Mof_C 	C 	0.8937	0.5544	0.2587	0.417
Mof_C 	C 	0.8704	0.4766	0.168	-0.325
Mof_C 	C 	0.8523	0.4856	0.0921	0.165
Mof_C 	C 	0.7759	0.3068	0.6976	0.009
Mof_C 	C 	0.857	0.2926	0.587	0.162
Mof_C 	C 	0.9003	0.3251	0.5435	-0.315
Mof_C 	C 	0.9074	0.4152	0.5623	0.404
Mof_C 	C 	0.8621	0.467	0.6245	-0.341
Mof_C 	C 	0.8172	0.4311	0.6654	0.176
Mof_C 	C 	0.096	0.0626	0.1325	-0.944
Mof_C 	C 	0.3595	0.9905	0.9915	-1.09
Mof_C 	C 	0.4144	0.0785	0.3247	-1.187
Mof_C 	C 	0.2318	0.0317	0.0663	-0.278
Mof_C 	C 	0.3251	0.0207	0.0745	0.47
Mof_C 	C 	0.3826	0.0344	0.1585	-0.292
Mof_C 	C 	0.3493	0.0605	0.2346	0.508
Mof_C 	C 	0.2556	0.0668	0.2241	-0.305
Mof_C 	C 	0.1971	0.0536	0.1411	0.414
Mof_C 	C 	0.1696	0.0165	0.976	0.045
Mof_C 	C 	0.109	0.8541	0.9272	0.17
Mof_C 	C 	0.0795	0.7625	0.8634	-0.314
Mof_C 	C 	0.0731	0.7291	0.769	0.38
Mof_C 	C 	0.0898	0.797	0.7453	-0.317
Mof_C 	C 	0.1192	0.8876	0.8124	0.151
Mof_C 	C 	0.4795	0.0145	0.1659	0.003
Mof_C 	C 	0.5586	0.1718	0.2103	0.188
Mof_C 	C 	0.6355	0.247	0.2571	-0.362
Mof_C 	C 	0.7194	0.2522	0.3174	0.434
Mof_C 	C 	0.719	0.1729	0.3229	-0.343
Mof_C 	C 	0.6413	0.0992	0.2742	0.176
Mof_C 	C 	0.2162	0.0824	0.301	0.06
Mof_C 	C 	0.252	0.2473	0.3537	0.216
Mof_C 	C 	0.2413	0.3336	0.4025	-0.402
Mof_C 	C 	0.1783	0.3512	0.4526	0.462
Mof_C 	C 	0.1259	0.2753	0.4478	-0.396
Mof_C 	C 	0.1396	0.191	0.3988	0.211
Mof_C 	C 	0.4307	0.7189	0.3372	-1.042
Mof_C 	C 	0.0906	0.5399	0.1266	-0.902
Mof_C 	C 	0.3616	0.4718	-0	-0.642
Mof_C 	C 	0.3595	0.6452	0.2432	0.412
Mof_C 	C 	0.2612	0.6283	0.2286	-0.231
Mof_C 	C 	0.1973	0.5571	0.1431	0.365
Mof_C 	C 	0.2318	0.504	0.0715	-0.198
Mof_C 	C 	0.3289	0.5248	0.0821	0.317
Mof_C 	C 	0.3923	0.5958	0.1688	-0.207
Mof_C 	C 	0.4973	0.6221	0.1818	0.003
Mof_C 	C 	0.5272	0.4829	0.1823	0.197
Mof_C 	C 	0.5852	0.4388	0.2091	-0.339
Mof_C 	C 	0.6765	0.4852	0.2751	0.427
Mof_C 	C 	0.7032	0.5801	0.3137	-0.338
Mof_C 	C 	0.6425	0.6229	0.2846	0.165
Mof_C 	C 	0.164	0.4208	0.9821	-0.002
Mof_C 	C 	0.1206	0.3554	0.8141	0.18
Mof_C 	C 	0.1006	0.36	0.736	-0.343
Mof_C 	C 	0.1063	0.4456	0.7413	0.415
Mof_C 	C 	0.1296	0.5234	0.832	-0.329
Mof_C 	C 	0.1477	0.5144	0.9079	0.16
Mof_C 	C 	0.2241	0.6932	0.3024	0.001
Mof_C 	C 	0.143	0.7074	0.413	0.161
Mof_C 	C 	0.0997	0.6749	0.4565	-0.315
Mof_C 	C 	0.0926	0.5848	0.4377	0.403
Mof_C 	C 	0.1379	0.533	0.3755	-0.34
Mof_C 	C 	0.1828	0.5689	0.3346	0.175
Mof_N 	N 	0.4448	0.4245	0.7801	-0.178
Mof_N 	N 	0.8551	0.5683	0.1	-0.177
Mof_N 	N 	0.8162	0.3465	0.6492	-0.172
Mof_N 	N 	0.4392	0.9012	0.7806	-0.19
Mof_N 	N 	0.8685	0.0831	0.0964	-0.182
Mof_N 	N 	0.798	0.8237	0.6487	-0.197
Mof_N 	N 	0.5552	0.5755	0.2199	-0.175
Mof_N 	N 	0.1449	0.4317	0.9	-0.171
Mof_N 	N 	0.1838	0.6535	0.3508	-0.17
Mof_N 	N 	0.5608	0.0988	0.2194	-0.181
Mof_N 	N 	0.1315	0.9169	0.9036	-0.17
Mof_N 	N 	0.202	0.1763	0.3513	-0.198
Mof_O 	O 	0.2698	0.5593	0.7036	-0.47
Mof_O 	O 	0.909	0.5492	0.331	-0.49
Mof_O 	O 	0.9551	0.4495	0.5254	-0.591
Mof_O 	O 	0.2091	0.6766	0.6351	-0.493
Mof_O 	O 	0.8321	0.5674	0.5001	-0.525
Mof_O 	O 	0.945	0.3578	0.2895	-0.488
Mof_O 	O 	0.7302	0.4407	0.2964	-0.468
Mof_O 	O 	0.091	0.4508	0.669	-0.491
Mof_O 	O 	0.0449	0.5505	0.4746	-0.592
Mof_O 	O 	0.7909	0.3234	0.3649	-0.493
Mof_O 	O 	0.1679	0.4326	0.4999	-0.525
Mof_O 	O 	0.055	0.6422	0.7105	-0.489
Mof_C 	C 	0.4581	0.7626	0.0632	0.785
Mof_S 	S 	0.5614	0.7925	0.0375	0.355
Mof_O 	O 	0.6017	0.7211	0.0305	-0.213
Mof_O 	O 	0.6146	0.885	0.1174	-0.188
Mof_O 	O 	0.5186	0.7942	0.9561	-0.242
Mof_F 	F 	0.471	0.7884	0.1512	-0.441
Mof_F 	F 	0.4127	0.6776	0.0113	-0.483
Mof_F 	F 	0.394	0.8093	0.0458	-0.412
Mof_C 	C 	0.7938	0.1905	0.8545	0.793
Mof_S 	S 	0.92109	0.22766	0.89503	0.319
Mof_O 	O 	0.9443	0.2462	0.8283	-0.188
Mof_O 	O 	0.9435	0.3074	0.9856	-0.231
Mof_O 	O 	0.9471	0.1492	0.8942	-0.209
Mof_F 	F 	0.7605	0.1232	0.7648	-0.452
Mof_F 	F 	0.7559	0.2594	0.8623	-0.449
Mof_F 	F 	0.7626	0.1592	0.9021	-0.461
Mof_C 	C 	0.6563	0.9912	0.4621	0.876
Mof_S 	S 	0.7106	0.89881	0.45115	0.311
Mof_O 	O 	0.6563	0.8494	0.4785	-0.21
Mof_O 	O 	0.7026	0.8478	0.355	-0.163
Mof_O 	O 	0.8059	0.948	0.5131	-0.155
Mof_F 	F 	0.566	0.9562	0.4052	-0.465
Mof_F 	F 	0.7005	0.0465	0.4459	-0.519
Mof_F 	F 	0.6567	0.0402	0.5472	-0.472
Mof_C 	C 	0.5419	0.2374	0.9368	0.8
Mof_S 	S 	0.4386	0.2075	0.9625	0.267
Mof_O 	O 	0.3983	0.2789	0.9695	-0.211
Mof_O 	O 	0.3854	0.115	0.8826	-0.184
Mof_O 	O 	0.4814	0.2058	0.0439	-0.179
Mof_F 	F 	0.529	0.2116	0.8488	-0.445
Mof_F 	F 	0.5873	0.3224	0.9887	-0.508
Mof_F 	F 	0.606	0.1907	0.9542	-0.432
Mof_C 	C 	0.2062	0.8095	0.1455	0.796
Mof_S 	S 	0.07891	0.77234	0.10497	0.316
Mof_O 	O 	0.0557	0.7538	0.1717	-0.185
Mof_O 	O 	0.0565	0.6926	0.0144	-0.2
Mof_O 	O 	0.0529	0.8508	0.1058	-0.189
Mof_F 	F 	0.2395	0.8768	0.2352	-0.447
Mof_F 	F 	0.2441	0.7406	0.1377	-0.443
Mof_F 	F 	0.2374	0.8408	0.0979	-0.446
Mof_C 	C 	0.3437	0.0088	0.5379	0.843
Mof_S 	S 	0.2894	0.10119	0.54885	0.318
Mof_O 	O 	0.3437	0.1506	0.5215	-0.213
Mof_O 	O 	0.2974	0.1522	0.645	-0.167
Mof_O 	O 	0.1941	0.052	0.4869	-0.164
Mof_F 	F 	0.434	0.0438	0.5948	-0.467
Mof_F 	F 	0.2995	0.9535	0.5541	-0.502
Mof_F 	F 	0.3433	0.9598	0.4528	-0.455
_end
