data_functionalizedCrystal
_audit_creation_method	'EQeq! by Chris Wilmer'
_symmetry_space_group_name_H-M	'P1'
_symmetry_Int_Tables_number	1
_symmetry_cell_setting	triclinic
loop_
_symmetry_equiv_pos_as_xyz
  x,y,z
_cell_length_a	11.95
_cell_length_b	12.114
_cell_length_c	13.6683
_cell_angle_alpha	63.6955
_cell_angle_beta	81.1713
_cell_angle_gamma	69.7359
loop_
_atom_site_label
_atom_site_type_symbol
_atom_site_fract_x
_atom_site_fract_y
_atom_site_fract_z
_atom_site_charge
Mof_Fe	Fe	-0	0	-0	0.546
Mof_Fe	Fe	0.73968	0.89478	-0	0.639
Mof_Fe	Fe	0.26032	0.10522	-0	0.57
Mof_H 	H 	0.0855	0.0871	0.5748	0.12
Mof_H 	H 	0.8891	0.8672	0.607	0.123
Mof_H 	H 	0.9145	0.3381	0.5748	0.054
Mof_H 	H 	0.1109	0.5258	0.607	0.059
Mof_H 	H 	0.9145	0.9129	0.4252	0.012
Mof_H 	H 	0.1109	0.1328	0.393	0.005
Mof_H 	H 	0.0855	0.6619	0.4252	0.08
Mof_H 	H 	0.8891	0.4742	0.393	0.07
Mof_H 	H 	0.6996	0.4671	-0	0.049
Mof_H 	H 	0.4429	0.3398	-0	0.043
Mof_H 	H 	0.3004	0.5329	-0	0.047
Mof_H 	H 	0.5571	0.6602	-0	0.048
Mof_C 	C 	0.0496	0.0522	0.5448	-0.228
Mof_C 	C 	0.9816	0.977	0.61	0.16
Mof_C 	C 	0.9333	0.922	0.564	-0.182
Mof_C 	C 	0.9566	0.9607	0.723	0.088
Mof_C 	C 	0.9504	0.403	0.5448	-0.002
Mof_C 	C 	0.0184	0.413	0.61	-0.025
Mof_C 	C 	0.0667	0.514	0.564	-0.01
Mof_C 	C 	0.0434	0.3163	0.723	0.123
Mof_C 	C 	0.9504	0.9478	0.4552	0.146
Mof_C 	C 	0.0184	0.023	0.39	-0.152
Mof_C 	C 	0.0667	0.078	0.436	0.104
Mof_C 	C 	0.0434	0.0393	0.277	0.142
Mof_C 	C 	0.0496	0.597	0.4552	-0.08
Mof_C 	C 	0.9816	0.587	0.39	0.035
Mof_C 	C 	0.9333	0.486	0.436	-0.066
Mof_C 	C 	0.9566	0.6837	0.277	0.118
Mof_C 	C 	0.6187	0.4779	-0	-0.049
Mof_C 	C 	0.5828	0.3834	-0	-0.006
Mof_C 	C 	0.4695	0.4035	-0	-0.046
Mof_C 	C 	0.6641	0.2635	-0	0.107
Mof_C 	C 	0.3813	0.5221	-0	-0.05
Mof_C 	C 	0.4172	0.6166	-0	-0.003
Mof_C 	C 	0.5305	0.5965	-0	-0.047
Mof_C 	C 	0.3359	0.7365	-0	0.11
Mof_C 	C 	0.5	0.0313	0.9374	0.313
Mof_C 	C 	0.5	0.9687	0.0626	0.185
Mof_N 	N 	0.0206	0.98003	0.78194	-0.06
Mof_N 	N 	0.9659	0.95876	0.87588	-0.051
Mof_N 	N 	0.8676	0.9309	0.8742	-0.069
Mof_N 	N 	0.8618	0.92828	0.77904	-0.067
Mof_N 	N 	0.9794	0.23803	0.78194	-0.065
Mof_N 	N 	0.0341	0.16536	0.87588	-0.069
Mof_N 	N 	0.1324	0.1949	0.8742	-0.071
Mof_N 	N 	0.1382	0.29268	0.77904	-0.078
Mof_N 	N 	0.9794	0.01997	0.21806	-0.082
Mof_N 	N 	0.0341	0.04124	0.12412	-0.112
Mof_N 	N 	0.1324	0.0691	0.1258	-0.114
Mof_N 	N 	0.1382	0.07172	0.22096	-0.101
Mof_N 	N 	0.0206	0.76197	0.21806	-0.086
Mof_N 	N 	0.9659	0.83464	0.12412	-0.083
Mof_N 	N 	0.8676	0.8051	0.1258	-0.107
Mof_N 	N 	0.8618	0.70732	0.22096	-0.088
Mof_N 	N 	0.7865	0.2316	-0	-0.093
Mof_N 	N 	0.8221	0.1168	-0	-0.104
Mof_N 	N 	0.7328	0.079	-0	-0.11
Mof_N 	N 	0.6315	0.1704	-0	-0.106
Mof_N 	N 	0.2135	0.7684	-0	-0.095
Mof_N 	N 	0.1779	0.8832	-0	-0.095
Mof_N 	N 	0.2672	0.921	-0	-0.085
Mof_N 	N 	0.3685	0.8296	-0	-0.097
Mof_O 	O 	0.5962	0.00574	0.89092	-0.275
Mof_O 	O 	0.4038	0.10334	0.89092	-0.259
Mof_O 	O 	0.4038	0.99426	0.10908	-0.255
Mof_O 	O 	0.5962	0.89666	0.10908	-0.273
_end
