data_functionalizedCrystal
_audit_creation_method	'EQeq! by Chris Wilmer'
_symmetry_space_group_name_H-M	'P1'
_symmetry_Int_Tables_number	1
_symmetry_cell_setting	triclinic
loop_
_symmetry_equiv_pos_as_xyz
  x,y,z
_cell_length_a	11.512
_cell_length_b	14.78
_cell_length_c	15.1746
_cell_angle_alpha	119.144
_cell_angle_beta	105.968
_cell_angle_gamma	90
loop_
_atom_site_label
_atom_site_type_symbol
_atom_site_fract_x
_atom_site_fract_y
_atom_site_fract_z
_atom_site_charge
Mof_Cu	Cu	0.5	-5.31182e-17	0.5	0.86
Mof_Cu	Cu	0.5	0.5	0.5	0.882
Mof_Cu	Cu	3.34642e-17	-5.31182e-17	0.5	0.802
Mof_Cu	Cu	6.90508e-18	0.5	0.5	0.825
Mof_Cu	Cu	-0	0.7645	-0	0.788
Mof_Cu	Cu	-2.94865e-33	0.2355	-0	0.779
Mof_H 	H 	0.504	0.1568	0.7268	-0.01
Mof_H 	H 	0.3645	0.2217	0.818	0.101
Mof_H 	H 	0.16	0.1557	0.7274	-0.048
Mof_H 	H 	0.2381	0.9831	0.4672	0.048
Mof_H 	H 	0.496	0.43	0.2732	-0.015
Mof_H 	H 	0.6355	0.4037	0.182	0.09
Mof_H 	H 	0.84	0.4283	0.2726	0.016
Mof_H 	H 	0.7619	0.5159	0.5328	-0.022
Mof_H 	H 	0.496	0.8432	0.2732	-0.01
Mof_H 	H 	0.6355	0.7783	0.182	0.098
Mof_H 	H 	0.84	0.8443	0.2726	0.02
Mof_H 	H 	0.7619	0.0169	0.5328	-0.095
Mof_H 	H 	0.504	0.57	0.7268	-0.006
Mof_H 	H 	0.3645	0.5963	0.818	0.109
Mof_H 	H 	0.16	0.5717	0.7274	-0.046
Mof_H 	H 	0.2381	0.4841	0.4672	-0.031
Mof_W 	W 	0.20064	0.15035	0.3007	0.475
Mof_W 	W 	0.79936	0.84965	0.6993	0.542
Mof_W 	W 	0.14186	0.63832	0.27664	0.441
Mof_W 	W 	0.85814	0.36168	0.72336	0.573
Mof_C 	C 	0.3316	0.0706	0.3562	-0.032
Mof_C 	C 	0.1163	0.99482	0.17264	0.011
Mof_C 	C 	0.0827	0.08019	0.34738	-0.074
Mof_C 	C 	0.093	0.69755	0.1689	-0.059
Mof_C 	C 	0.2903	0.76832	0.35964	-0.012
Mof_C 	C 	0.0792	0.78049	0.37498	-0.053
Mof_C 	C 	0.4207	0.1331	0.691	0.106
Mof_C 	C 	0.3385	0.1713	0.7462	-0.179
Mof_C 	C 	0.2171	0.1325	0.6914	0.105
Mof_C 	C 	0.2643	0.03111	0.53982	0.012
Mof_C 	C 	0.6684	0.7144	0.6438	-0.019
Mof_C 	C 	0.8837	0.82218	0.82736	0.017
Mof_C 	C 	0.9173	0.73281	0.65262	-0.004
Mof_C 	C 	0.907	0.52865	0.8311	0.03
Mof_C 	C 	0.7097	0.40868	0.64036	-0.031
Mof_C 	C 	0.9208	0.40551	0.62502	0.021
Mof_C 	C 	0.5793	0.4421	0.309	0.112
Mof_C 	C 	0.6615	0.4251	0.2538	-0.171
Mof_C 	C 	0.7829	0.4411	0.3086	0.117
Mof_C 	C 	0.7357	0.49129	0.46018	0.118
Mof_C 	C 	0.6684	0.9294	0.6438	-0.002
Mof_C 	C 	0.8837	0.00518	0.82736	-0.052
Mof_C 	C 	0.9173	0.91981	0.65262	0.014
Mof_C 	C 	0.907	0.30245	0.8311	0.026
Mof_C 	C 	0.7097	0.23168	0.64036	-0.034
Mof_C 	C 	0.9208	0.21951	0.62502	0.019
Mof_C 	C 	0.5793	0.8669	0.309	0.125
Mof_C 	C 	0.6615	0.8287	0.2538	-0.177
Mof_C 	C 	0.7829	0.8675	0.3086	0.129
Mof_C 	C 	0.7357	0.96889	0.46018	0.22
Mof_C 	C 	0.3316	0.2856	0.3562	-0.014
Mof_C 	C 	0.1163	0.17782	0.17264	-0.061
Mof_C 	C 	0.0827	0.26719	0.34738	-0.055
Mof_C 	C 	0.093	0.47135	0.1689	-0.063
Mof_C 	C 	0.2903	0.59132	0.35964	-0.015
Mof_C 	C 	0.0792	0.59449	0.37498	-0.055
Mof_C 	C 	0.4207	0.5579	0.691	0.12
Mof_C 	C 	0.3385	0.5749	0.7462	-0.186
Mof_C 	C 	0.2171	0.5589	0.6914	0.118
Mof_C 	C 	0.2643	0.50871	0.53982	0.118
Mof_C 	C 	0.3158	0.099	0.198	-0.058
Mof_C 	C 	0.2573	0.2363	0.4726	-0.042
Mof_C 	C 	0.6842	0.901	0.802	-0.008
Mof_C 	C 	0.7427	0.7637	0.5274	-0.036
Mof_C 	C 	0.2665	0.5928	0.1856	-0.042
Mof_C 	C 	0.9427	0.6055	0.211	0.095
Mof_C 	C 	0.7335	0.4072	0.8144	-0.031
Mof_C 	C 	0.0573	0.3945	0.789	-0.164
Mof_N 	N 	0.4	0.03378	0.39336	-0.218
Mof_N 	N 	0.073	0.91168	0.10576	-0.254
Mof_N 	N 	0.0275	0.04018	0.37416	-0.21
Mof_N 	N 	0.0648	0.72506	0.10952	-0.244
Mof_N 	N 	0.3685	0.83664	0.40268	-0.156
Mof_N 	N 	0.0474	0.85765	0.4221	-0.216
Mof_N 	N 	0.3833	0.06306	0.58752	-0.224
Mof_N 	N 	0.1789	0.06226	0.58772	-0.242
Mof_N 	N 	0.6	0.64042	0.60664	-0.202
Mof_N 	N 	0.927	0.80592	0.89424	-0.155
Mof_N 	N 	0.9725	0.66602	0.62584	-0.12
Mof_N 	N 	0.9352	0.61554	0.89048	-0.16
Mof_N 	N 	0.6315	0.43396	0.59732	-0.16
Mof_N 	N 	0.9526	0.43555	0.5779	-0.159
Mof_N 	N 	0.6167	0.47554	0.41248	-0.234
Mof_N 	N 	0.8211	0.47454	0.41228	-0.206
Mof_N 	N 	0.6	0.96622	0.60664	-0.184
Mof_N 	N 	0.927	0.08832	0.89424	-0.154
Mof_N 	N 	0.9725	0.95982	0.62584	-0.105
Mof_N 	N 	0.9352	0.27494	0.89048	-0.163
Mof_N 	N 	0.6315	0.16336	0.59732	-0.166
Mof_N 	N 	0.9526	0.14235	0.5779	-0.165
Mof_N 	N 	0.6167	0.93694	0.41248	-0.238
Mof_N 	N 	0.8211	0.93774	0.41228	-0.211
Mof_N 	N 	0.4	0.35958	0.39336	-0.207
Mof_N 	N 	0.073	0.19408	0.10576	-0.254
Mof_N 	N 	0.0275	0.33398	0.37416	-0.199
Mof_N 	N 	0.0648	0.38446	0.10952	-0.248
Mof_N 	N 	0.3685	0.56604	0.40268	-0.166
Mof_N 	N 	0.0474	0.56445	0.4221	-0.229
Mof_N 	N 	0.3833	0.52446	0.58752	-0.236
Mof_N 	N 	0.1789	0.52546	0.58772	-0.252
Mof_N 	N 	0.3761	0.0734	0.1468	-0.121
Mof_N 	N 	0.2877	0.282	0.564	-0.093
Mof_N 	N 	0.6239	0.9266	0.8532	-0.071
Mof_N 	N 	0.7123	0.718	0.436	-0.081
Mof_N 	N 	0.3325	0.5684	0.1368	-0.107
Mof_N 	N 	0.8398	0.5878	0.1756	-0.114
Mof_N 	N 	0.6675	0.4316	0.8632	-0.074
Mof_N 	N 	0.1602	0.4122	0.8244	-0.072
_end
