data_functionalizedCrystal
_audit_creation_method	'EQeq! by Chris Wilmer'
_symmetry_space_group_name_H-M	'P1'
_symmetry_Int_Tables_number	1
_symmetry_cell_setting	triclinic
loop_
_symmetry_equiv_pos_as_xyz
  x,y,z
_cell_length_a	9.8195
_cell_length_b	17.6984
_cell_length_c	17.6984
_cell_angle_alpha	63.34
_cell_angle_beta	79.3423
_cell_angle_gamma	100.658
loop_
_atom_site_label
_atom_site_type_symbol
_atom_site_fract_x
_atom_site_fract_y
_atom_site_fract_z
_atom_site_charge
Mof_Ag	Ag	0.55055	0.91819	0.55172	0.57
Mof_Ag	Ag	0.10227	0.55172	0.53009	0.571
Mof_Ag	Ag	0.63236	0.53009	0.91819	0.569
Mof_Ag	Ag	0.44945	0.08181	0.44828	0.57
Mof_Ag	Ag	0.89773	0.44828	0.46991	0.571
Mof_Ag	Ag	0.36764	0.46991	0.08181	0.569
Mof_H 	H 	0.1033	0.6451	0.6938	0.043
Mof_H 	H 	0.2931	0.7607	0.5601	0.025
Mof_H 	H 	0.4206	0.8889	0.7232	0.315
Mof_H 	H 	0.2604	0.8537	0.7854	0.376
Mof_H 	H 	0.368	0.7983	0.8126	0.323
Mof_H 	H 	0.2076	0.4091	0.9602	0.062
Mof_H 	H 	0.0912	0.4964	0.8567	0.058
Mof_H 	H 	0.0876	0.6969	0.8719	0.067
Mof_H 	H 	0.994	0.634	0.8478	0.049
Mof_H 	H 	0.2999	0.6319	0.0272	0.321
Mof_H 	H 	0.31	0.7059	0.9324	0.337
Mof_H 	H 	0.1606	0.6577	0.008	0.377
Mof_H 	H 	0.7971	0.6938	0.6611	0.042
Mof_H 	H 	0.8532	0.5601	0.6792	0.025
Mof_H 	H 	0.1438	0.7232	0.3879	0.314
Mof_H 	H 	0.0458	0.7854	0.3609	0.376
Mof_H 	H 	0.1806	0.8126	0.3891	0.323
Mof_H 	H 	0.1678	0.9602	0.6307	0.062
Mof_H 	H 	0.9479	0.8567	0.6469	0.057
Mof_H 	H 	0.9595	0.8719	0.4312	0.067
Mof_H 	H 	0.8418	0.8478	0.5182	0.052
Mof_H 	H 	0.3271	0.0272	0.3409	0.325
Mof_H 	H 	0.2424	0.9324	0.3617	0.341
Mof_H 	H 	0.1686	0.008	0.3343	0.383
Mof_H 	H 	0.4582	0.6611	0.6451	0.042
Mof_H 	H 	0.5324	0.6792	0.7607	0.025
Mof_H 	H 	0.5317	0.3879	0.8889	0.315
Mof_H 	H 	0.4067	0.3609	0.8537	0.376
Mof_H 	H 	0.5697	0.3891	0.7983	0.323
Mof_H 	H 	0.7985	0.6307	0.4091	0.061
Mof_H 	H 	0.5948	0.6469	0.4964	0.058
Mof_H 	H 	0.3907	0.4312	0.6969	0.067
Mof_H 	H 	0.36	0.5182	0.634	0.052
Mof_H 	H 	0.668	0.3409	0.6319	0.326
Mof_H 	H 	0.6041	0.3617	0.7059	0.341
Mof_H 	H 	0.5029	0.3343	0.6577	0.383
Mof_H 	H 	0.8967	0.3549	0.3062	0.043
Mof_H 	H 	0.7069	0.2393	0.4399	0.025
Mof_H 	H 	0.5794	0.1111	0.2768	0.315
Mof_H 	H 	0.7396	0.1463	0.2146	0.376
Mof_H 	H 	0.632	0.2017	0.1874	0.323
Mof_H 	H 	0.7924	0.5909	0.0398	0.062
Mof_H 	H 	0.9088	0.5036	0.1433	0.058
Mof_H 	H 	0.9124	0.3031	0.1281	0.067
Mof_H 	H 	0.006	0.366	0.1522	0.049
Mof_H 	H 	0.7001	0.3681	0.9728	0.321
Mof_H 	H 	0.69	0.2941	0.0676	0.337
Mof_H 	H 	0.8394	0.3423	0.992	0.377
Mof_H 	H 	0.2029	0.3062	0.3389	0.042
Mof_H 	H 	0.1468	0.4399	0.3208	0.025
Mof_H 	H 	0.8562	0.2768	0.6121	0.314
Mof_H 	H 	0.9542	0.2146	0.6391	0.376
Mof_H 	H 	0.8194	0.1874	0.6109	0.323
Mof_H 	H 	0.8322	0.0398	0.3693	0.062
Mof_H 	H 	0.0521	0.1433	0.3531	0.057
Mof_H 	H 	0.0405	0.1281	0.5688	0.067
Mof_H 	H 	0.1582	0.1522	0.4818	0.052
Mof_H 	H 	0.6729	0.9728	0.6591	0.325
Mof_H 	H 	0.7576	0.0676	0.6383	0.341
Mof_H 	H 	0.8314	0.992	0.6657	0.383
Mof_H 	H 	0.5418	0.3389	0.3549	0.042
Mof_H 	H 	0.4676	0.3208	0.2393	0.025
Mof_H 	H 	0.4683	0.6121	0.1111	0.315
Mof_H 	H 	0.5933	0.6391	0.1463	0.376
Mof_H 	H 	0.4303	0.6109	0.2017	0.323
Mof_H 	H 	0.2015	0.3693	0.5909	0.061
Mof_H 	H 	0.4052	0.3531	0.5036	0.058
Mof_H 	H 	0.6093	0.5688	0.3031	0.067
Mof_H 	H 	0.64	0.4818	0.366	0.052
Mof_H 	H 	0.332	0.6591	0.3681	0.326
Mof_H 	H 	0.3959	0.6383	0.2941	0.341
Mof_H 	H 	0.4971	0.6657	0.3423	0.383
Mof_C 	C 	0.1702	0.6933	0.6884	-0.004
Mof_C 	C 	0.2751	0.7572	0.6152	0.019
Mof_C 	C 	0.2925	0.7892	0.7166	0.348
Mof_C 	C 	0.3396	0.8368	0.7637	-0.95
Mof_C 	C 	0.199	0.4642	0.9496	0.013
Mof_C 	C 	0.1351	0.5118	0.8922	-0.002
Mof_C 	C 	0.217	0.5828	0.9572	0.367
Mof_C 	C 	0.0921	0.6595	0.8454	0.015
Mof_C 	C 	0.2497	0.6504	0.9835	-0.98
Mof_C 	C 	0.8586	0.6884	0.6183	-0.005
Mof_C 	C 	0.8903	0.6152	0.6276	0.019
Mof_C 	C 	0.0091	0.7166	0.4942	0.348
Mof_C 	C 	0.1033	0.7637	0.3995	-0.949
Mof_C 	C 	0.1486	0.9496	0.5862	0.012
Mof_C 	C 	0.0273	0.8922	0.596	-0.001
Mof_C 	C 	0.1742	0.9572	0.46	0.37
Mof_C 	C 	0.9375	0.8454	0.4951	0.011
Mof_C 	C 	0.2332	0.9835	0.3661	-0.995
Mof_C 	C 	0.4769	0.6183	0.6933	-0.004
Mof_C 	C 	0.5179	0.6276	0.7572	0.019
Mof_C 	C 	0.5033	0.4942	0.7892	0.347
Mof_C 	C 	0.5028	0.3995	0.8368	-0.95
Mof_C 	C 	0.7348	0.5862	0.4642	0.013
Mof_C 	C 	0.6233	0.596	0.5118	-0.002
Mof_C 	C 	0.6342	0.46	0.5828	0.37
Mof_C 	C 	0.4326	0.4951	0.6595	0.011
Mof_C 	C 	0.5993	0.3661	0.6504	-0.996
Mof_C 	C 	0.8298	0.3067	0.3116	-0.004
Mof_C 	C 	0.7249	0.2428	0.3848	0.019
Mof_C 	C 	0.7075	0.2108	0.2834	0.348
Mof_C 	C 	0.6604	0.1632	0.2363	-0.95
Mof_C 	C 	0.801	0.5358	0.0504	0.013
Mof_C 	C 	0.8649	0.4882	0.1078	-0.002
Mof_C 	C 	0.783	0.4172	0.0428	0.367
Mof_C 	C 	0.9079	0.3405	0.1546	0.015
Mof_C 	C 	0.7503	0.3496	0.0165	-0.98
Mof_C 	C 	0.1414	0.3116	0.3817	-0.005
Mof_C 	C 	0.1097	0.3848	0.3724	0.019
Mof_C 	C 	0.9909	0.2834	0.5058	0.348
Mof_C 	C 	0.8967	0.2363	0.6005	-0.949
Mof_C 	C 	0.8514	0.0504	0.4138	0.012
Mof_C 	C 	0.9727	0.1078	0.404	-0.001
Mof_C 	C 	0.8258	0.0428	0.54	0.37
Mof_C 	C 	0.0625	0.1546	0.5049	0.011
Mof_C 	C 	0.7668	0.0165	0.6339	-0.995
Mof_C 	C 	0.5231	0.3817	0.3067	-0.004
Mof_C 	C 	0.4821	0.3724	0.2428	0.019
Mof_C 	C 	0.4967	0.5058	0.2108	0.347
Mof_C 	C 	0.4972	0.6005	0.1632	-0.95
Mof_C 	C 	0.2652	0.4138	0.5358	0.013
Mof_C 	C 	0.3767	0.404	0.4882	-0.002
Mof_C 	C 	0.3658	0.54	0.4172	0.37
Mof_C 	C 	0.5674	0.5049	0.3405	0.011
Mof_C 	C 	0.4007	0.6339	0.3496	-0.996
Mof_N 	N 	0.18078	0.7131	0.75421	-0.163
Mof_N 	N 	0.35204	0.81631	0.63267	-0.251
Mof_N 	N 	0.24916	0.50798	0.98985	-0.255
Mof_N 	N 	0.14812	0.58835	0.89679	-0.174
Mof_N 	N 	0.93499	0.75421	0.53269	-0.163
Mof_N 	N 	0.98471	0.63267	0.55102	-0.251
Mof_N 	N 	0.23901	0.98985	0.50217	-0.256
Mof_N 	N 	0.04491	0.89679	0.51486	-0.175
Mof_N 	N 	0.46768	0.53269	0.7131	-0.163
Mof_N 	N 	0.53573	0.55102	0.81631	-0.251
Mof_N 	N 	0.74118	0.50217	0.50798	-0.256
Mof_N 	N 	0.55977	0.51486	0.58835	-0.175
Mof_N 	N 	0.81922	0.2869	0.24579	-0.163
Mof_N 	N 	0.64796	0.18369	0.36733	-0.251
Mof_N 	N 	0.75084	0.49202	0.01015	-0.255
Mof_N 	N 	0.85188	0.41165	0.10321	-0.174
Mof_N 	N 	0.06501	0.24579	0.46731	-0.163
Mof_N 	N 	0.01529	0.36733	0.44898	-0.251
Mof_N 	N 	0.76099	0.01015	0.49783	-0.256
Mof_N 	N 	0.95509	0.10321	0.48514	-0.175
Mof_N 	N 	0.53232	0.46731	0.2869	-0.163
Mof_N 	N 	0.46427	0.44898	0.18369	-0.251
Mof_N 	N 	0.25882	0.49783	0.49202	-0.256
Mof_N 	N 	0.44023	0.48514	0.41165	-0.175
Mof_C 	C 	0.6917	0.8735	0.3028	0.527
Mof_S 	S 	0.57505	0.84984	0.39832	0.43
Mof_O 	O 	0.556	0.9293	0.3906	-0.289
Mof_O 	O 	0.4536	0.7835	0.4156	-0.269
Mof_O 	O 	0.6443	0.8127	0.4628	-0.259
Mof_F 	F 	0.6812	0.8285	0.2572	-0.366
Mof_F 	F 	0.8365	0.9238	0.2941	-0.369
Mof_F 	F 	0.6646	0.9515	0.2248	-0.308
Mof_C 	C 	0.9945	0.3028	0.8237	0.527
Mof_S 	S 	0.97337	0.39832	0.75184	0.429
Mof_O 	O 	0.9466	0.3906	0.6801	-0.289
Mof_O 	O 	0.8692	0.4156	0.8009	-0.269
Mof_O 	O 	0.1071	0.4628	0.7245	-0.258
Mof_F 	F 	0.9384	0.2572	0.9143	-0.366
Mof_F 	F 	0.1306	0.2941	0.7821	-0.368
Mof_F 	F 	0.8894	0.2248	0.8237	-0.308
Mof_C 	C 	0.8182	0.8237	0.8735	0.527
Mof_S 	S 	0.72521	0.75184	0.84984	0.43
Mof_O 	O 	0.6267	0.6801	0.9293	-0.289
Mof_O 	O 	0.6701	0.8009	0.7835	-0.269
Mof_O 	O 	0.8316	0.7245	0.8127	-0.26
Mof_F 	F 	0.8527	0.9143	0.8285	-0.366
Mof_F 	F 	0.9127	0.7821	0.9238	-0.37
Mof_F 	F 	0.7131	0.8237	0.9515	-0.308
Mof_C 	C 	0.3083	0.1265	0.6972	0.527
Mof_S 	S 	0.42495	0.15016	0.60168	0.43
Mof_O 	O 	0.444	0.0707	0.6094	-0.289
Mof_O 	O 	0.5464	0.2165	0.5844	-0.269
Mof_O 	O 	0.3557	0.1873	0.5372	-0.259
Mof_F 	F 	0.3188	0.1715	0.7428	-0.366
Mof_F 	F 	0.1635	0.0762	0.7059	-0.369
Mof_F 	F 	0.3354	0.0485	0.7752	-0.308
Mof_C 	C 	0.0055	0.6972	0.1763	0.527
Mof_S 	S 	0.02663	0.60168	0.24816	0.429
Mof_O 	O 	0.0534	0.6094	0.3199	-0.289
Mof_O 	O 	0.1308	0.5844	0.1991	-0.269
Mof_O 	O 	0.8929	0.5372	0.2755	-0.258
Mof_F 	F 	0.0616	0.7428	0.0857	-0.366
Mof_F 	F 	0.8694	0.7059	0.2179	-0.368
Mof_F 	F 	0.1106	0.7752	0.1763	-0.308
Mof_C 	C 	0.1818	0.1763	0.1265	0.527
Mof_S 	S 	0.27479	0.24816	0.15016	0.43
Mof_O 	O 	0.3733	0.3199	0.0707	-0.289
Mof_O 	O 	0.3299	0.1991	0.2165	-0.269
Mof_O 	O 	0.1684	0.2755	0.1873	-0.26
Mof_F 	F 	0.1473	0.0857	0.1715	-0.366
Mof_F 	F 	0.0873	0.2179	0.0762	-0.37
Mof_F 	F 	0.2869	0.1763	0.0485	-0.308
_end
