# CIF file generated by openbabel 3.1.0, see https://openbabel.org
data_I
_chemical_name_common 'image0'
_cell_length_a 8.4515
_cell_length_b 12.3972
_cell_length_c 12.568
_cell_angle_alpha 110.453
_cell_angle_beta 102.132
_cell_angle_gamma 109.619
_space_group_name_H-M_alt 'P 1'
_space_group_name_Hall 'P 1'
loop_
    _symmetry_equiv_pos_as_xyz
    x,y,z
loop_
    _atom_site_label
    _atom_site_type_symbol
    _atom_site_fract_x
    _atom_site_fract_y
    _atom_site_fract_z
    _atom_site_occupancy
    Yb1      Yb       0.70597    0.54147    0.40361    1.000
    O1       O        0.86100    0.73390    0.39270    1.000
    O2       O        0.02820    0.67170    0.49320    1.000
    C1       C        0.01430    0.74890    0.45000    1.000
    C2       C        0.18230    0.85290    0.46380    1.000
    C3       C        0.16940    0.95210    0.43560    1.000
    H1       H        0.05510    0.95110    0.40810    1.000
    C4       C        0.32300    0.04920    0.44840    1.000
    H2       H        0.31490    0.11670    0.43180    1.000
    C5       C        0.49340    0.04940    0.48630    1.000
    C6       C        0.65340    0.14660    0.49690    1.000
    H3       H        0.64640    0.21220    0.47640    1.000
    O3       O        0.55030    0.49150    0.20100    1.000
    O4       O        0.44080    0.56660    0.33890    1.000
    C7       C        0.43010    0.52130    0.22750    1.000
    C8       C        0.27590    0.50350    0.12820    1.000
    C9       C        0.26170    0.44490    0.00570    1.000
    H4       H        0.34890    0.41670    0.98780    1.000
    C10      C        0.12340    0.42830    0.91240    1.000
    H5       H        0.11490    0.38860    0.83030    1.000
    C11      C        0.99260    0.47050    0.93830    1.000
    C12      C        0.84930    0.45450    0.84420    1.000
    H6       H        0.83860    0.41480    0.76160    1.000
    O5       O        0.71650    0.67300    0.57840    1.000
    O6       O        0.51600    0.65850    0.66780    1.000
    C13      C        0.67150    0.70860    0.66850    1.000
    C14      C        0.81790    0.82100    0.78510    1.000
    C15      C        0.99970    0.86580    0.79610    1.000
    H7       H        0.03000    0.82830    0.72830    1.000
    C16      C        0.13190    0.96220    0.90320    1.000
    H8       H        0.25460    0.98920    0.91030    1.000
    C17      C        0.09130    0.02350    0.00440    1.000
    C18      C        0.22650    0.12700    0.11670    1.000
    H9       H        0.34920    0.16080    0.12390    1.000
    Yb2      Yb       0.29403    0.45853    0.59639    1.000
    O7       O        0.13900    0.26610    0.60730    1.000
    O8       O        0.97180    0.32830    0.50680    1.000
    C19      C        0.98570    0.25110    0.55000    1.000
    C20      C        0.81770    0.14710    0.53620    1.000
    C21      C        0.83060    0.04790    0.56440    1.000
    H10      H        0.94490    0.04890    0.59190    1.000
    C22      C        0.67700    0.95080    0.55160    1.000
    H11      H        0.68510    0.88330    0.56820    1.000
    C23      C        0.50660    0.95060    0.51370    1.000
    C24      C        0.34660    0.85340    0.50310    1.000
    H12      H        0.35360    0.78780    0.52360    1.000
    O9       O        0.44970    0.50850    0.79900    1.000
    O10      O        0.55920    0.43340    0.66110    1.000
    C25      C        0.56990    0.47870    0.77250    1.000
    C26      C        0.72410    0.49650    0.87180    1.000
    C27      C        0.73830    0.55510    0.99430    1.000
    H13      H        0.65110    0.58330    0.01220    1.000
    C28      C        0.87660    0.57170    0.08760    1.000
    H14      H        0.88510    0.61140    0.16970    1.000
    C29      C        0.00740    0.52950    0.06170    1.000
    C30      C        0.15070    0.54550    0.15580    1.000
    H15      H        0.16140    0.58520    0.23840    1.000
    O11      O        0.28350    0.32700    0.42160    1.000
    O12      O        0.48400    0.34150    0.33220    1.000
    C31      C        0.32850    0.29140    0.33150    1.000
    C32      C        0.18210    0.17900    0.21490    1.000
    C33      C        0.00030    0.13420    0.20390    1.000
    H16      H        0.97000    0.17170    0.27170    1.000
    C34      C        0.86810    0.03780    0.09680    1.000
    H17      H        0.74540    0.01080    0.08970    1.000
    C35      C        0.90870    0.97650    0.99560    1.000
    C36      C        0.77350    0.87300    0.88330    1.000
    H18      H        0.65080    0.83920    0.87610    1.000
