data_functionalizedCrystal
_audit_creation_method	'EQeq! by Chris Wilmer'
_symmetry_space_group_name_H-M	'P1'
_symmetry_Int_Tables_number	1
_symmetry_cell_setting	triclinic
loop_
_symmetry_equiv_pos_as_xyz
  x,y,z
_cell_length_a	7.3181
_cell_length_b	17.02
_cell_length_c	10.5789
_cell_angle_alpha	90
_cell_angle_beta	102.651
_cell_angle_gamma	90
loop_
_atom_site_label
_atom_site_type_symbol
_atom_site_fract_x
_atom_site_fract_y
_atom_site_fract_z
_atom_site_charge
Mof_In	In	0.69333	0.39814	0.18043	2.814
Mof_In	In	0.20093	0.45343	0.26209	2.677
Mof_O 	O 	0.6691	0.5367	0.0818	-0.431
Mof_O 	O 	0.586	0.4252	0.9804	-0.612
Mof_O 	O 	0.462	0.7875	0.8735	-0.572
Mof_O 	O 	0.2825	0.7892	0.679	-0.492
Mof_O 	O 	0.2972	0.4333	0.5011	-0.421
Mof_O 	O 	0.2541	0.5496	0.4096	-0.516
Mof_O 	O 	0.8555	0.0673	0.8573	-0.498
Mof_O 	O 	0.8889	0.9572	0.9652	-0.578
Mof_O 	O 	0.916	0.3204	0.1127	-0.598
Mof_O 	O 	0.1932	0.3285	0.2591	-0.674
Mof_O 	O 	0.3	0.0694	0.5321	-0.222
Mof_O 	O 	0.1167	0.9713	0.4502	-0.259
Mof_O 	O 	0.9197	0.4502	0.2906	-0.915
Mof_O 	O 	0.4956	0.451	0.2672	-0.883
Mof_C 	C 	0.5122	0.5446	0.865	-0.085
Mof_C 	C 	0.496	0.6241	0.8692	0.027
Mof_H 	H 	0.5384	0.6503	0.9472	0.059
Mof_C 	C 	0.417	0.6666	0.759	-0.081
Mof_C 	C 	0.343	0.6269	0.6429	0.025
Mof_H 	H 	0.2813	0.655	0.5706	0.067
Mof_C 	C 	0.361	0.5465	0.6353	-0.066
Mof_C 	C 	0.4462	0.5057	0.7474	0.023
Mof_H 	H 	0.4594	0.4515	0.7437	0.065
Mof_C 	C 	0.598	0.5012	0.9842	0.335
Mof_C 	C 	0.39	0.7519	0.7722	0.341
Mof_C 	C 	0.299	0.5062	0.5061	0.347
Mof_C 	C 	0.9757	0.0772	0.0853	-0.157
Mof_C 	C 	0.981	0.158	0.0839	0.122
Mof_H 	H 	0.9301	0.1844	0.0073	0.026
Mof_C 	C 	0.059	0.2008	0.1925	-0.187
Mof_C 	C 	0.1333	0.1607	0.3071	0.106
Mof_H 	H 	0.1933	0.1883	0.3804	0.023
Mof_C 	C 	0.1175	0.0792	0.3115	-0.154
Mof_C 	C 	0.047	0.0373	0.2034	0.131
Mof_H 	H 	0.0459	0.9827	0.2063	0.001
Mof_C 	C 	0.902	0.0295	0.9649	0.402
Mof_C 	C 	0.056	0.2893	0.189	0.481
Mof_C 	C 	0.184	0.0378	0.4388	0.354
Mof_In	In	0.30667	0.89814	0.81957	2.787
Mof_In	In	0.79907	0.95343	0.73791	2.621
Mof_O 	O 	0.3309	0.0367	0.9182	-0.425
Mof_O 	O 	0.414	0.9252	0.0196	-0.63
Mof_O 	O 	0.538	0.2875	0.1265	-0.577
Mof_O 	O 	0.7175	0.2892	0.321	-0.496
Mof_O 	O 	0.7028	0.9333	0.4989	-0.45
Mof_O 	O 	0.7459	0.0496	0.5904	-0.51
Mof_O 	O 	0.1445	0.5673	0.1427	-0.501
Mof_O 	O 	0.1111	0.4572	0.0348	-0.542
Mof_O 	O 	0.084	0.8204	0.8873	-0.594
Mof_O 	O 	0.8068	0.8285	0.7409	-0.663
Mof_O 	O 	0.7	0.5694	0.4679	-0.219
Mof_O 	O 	0.8833	0.4713	0.5498	-0.226
Mof_O 	O 	0.0803	0.9502	0.7094	-0.916
Mof_O 	O 	0.5044	0.951	0.7328	-0.885
Mof_C 	C 	0.4878	0.0446	0.135	-0.131
Mof_C 	C 	0.504	0.1241	0.1308	0.061
Mof_H 	H 	0.4616	0.1503	0.0528	0.048
Mof_C 	C 	0.583	0.1666	0.241	-0.106
Mof_C 	C 	0.657	0.1269	0.3571	0.059
Mof_H 	H 	0.7187	0.155	0.4294	0.057
Mof_C 	C 	0.639	0.0465	0.3647	-0.113
Mof_C 	C 	0.5538	0.0057	0.2526	0.117
Mof_H 	H 	0.5406	0.9515	0.2563	0.017
Mof_C 	C 	0.402	0.0012	0.0158	0.375
Mof_C 	C 	0.61	0.2519	0.2278	0.35
Mof_C 	C 	0.701	0.0062	0.4939	0.406
Mof_C 	C 	0.0243	0.5772	0.9147	-0.106
Mof_C 	C 	0.019	0.658	0.9161	0.078
Mof_H 	H 	0.0699	0.6844	0.9927	0.041
Mof_C 	C 	0.941	0.7008	0.8075	-0.154
Mof_C 	C 	0.8667	0.6607	0.6929	0.068
Mof_H 	H 	0.8067	0.6883	0.6196	0.036
Mof_C 	C 	0.8825	0.5792	0.6885	-0.103
Mof_C 	C 	0.953	0.5373	0.7966	0.044
Mof_H 	H 	0.9541	0.4827	0.7937	0.048
Mof_C 	C 	0.098	0.5295	0.0351	0.335
Mof_C 	C 	0.944	0.7893	0.811	0.471
Mof_C 	C 	0.816	0.5378	0.5612	0.303
_end
