data_functionalizedCrystal
_audit_creation_method	'EQeq! by Chris Wilmer'
_symmetry_space_group_name_H-M	'P1'
_symmetry_Int_Tables_number	1
_symmetry_cell_setting	triclinic
loop_
_symmetry_equiv_pos_as_xyz
  x,y,z
_cell_length_a	14.2232
_cell_length_b	26.5395
_cell_length_c	19.467
_cell_angle_alpha	90
_cell_angle_beta	107.701
_cell_angle_gamma	90
loop_
_atom_site_label
_atom_site_type_symbol
_atom_site_fract_x
_atom_site_fract_y
_atom_site_fract_z
_atom_site_charge
Mof_C 	C 	0.8087	0.4248	0.12443	0.337
Mof_C 	C 	0.7165	0.39537	0.1077	-0.171
Mof_C 	C 	0.6908	0.36024	0.053	0.124
Mof_H 	H 	0.7334	0.3546	0.0257	-0.001
Mof_C 	C 	0.605	0.33357	0.0375	-0.221
Mof_H 	H 	0.5899	0.3104	0.9998	0.114
Mof_C 	C 	0.54	0.34058	0.07737	0.19
Mof_C 	C 	0.5654	0.37527	0.1333	-0.216
Mof_H 	H 	0.5235	0.3805	0.1612	0.111
Mof_C 	C 	0.6519	0.40189	0.14772	0.118
Mof_H 	H 	0.6677	0.425	0.1854	0.005
Mof_C 	C 	0.1315	0.39362	0.14823	0.356
Mof_C 	C 	0.2158	0.373	0.12551	-0.164
Mof_C 	C 	0.2534	0.32598	0.1487	0.106
Mof_H 	H 	0.2266	0.3071	0.1784	0.004
Mof_C 	C 	0.3318	0.30652	0.1276	-0.216
Mof_H 	H 	0.3578	0.275	0.1439	0.108
Mof_C 	C 	0.3703	0.33393	0.0829	0.19
Mof_C 	C 	0.3335	0.38083	0.061	-0.224
Mof_H 	H 	0.3603	0.3998	0.0313	0.114
Mof_C 	C 	0.2568	0.40033	0.0824	0.119
Mof_H 	H 	0.2328	0.4324	0.0673	0.005
Mof_C 	C 	0.4166	0.03448	0.92369	0.109
Mof_H 	H 	0.4286	0.0051	0.951	-0.009
Mof_C 	C 	0.4252	0.07954	0.95929	-0.181
Mof_H 	H 	0.4436	0.0803	0.0094	0.107
Mof_C 	C 	0.4063	0.12404	0.92016	0.137
Mof_C 	C 	0.3791	0.11966	0.84634	-0.193
Mof_H 	H 	0.3643	0.1483	0.8176	0.102
Mof_C 	C 	0.3738	0.07275	0.8149	0.119
Mof_H 	H 	0.3563	0.071	0.7649	-0.025
Mof_C 	C 	0.4164	0.17321	0.95726	-0.081
Mof_C 	C 	0.4947	0.18196	0.01912	0.04
Mof_H 	H 	0.5398	0.1563	0.0377	0.032
Mof_C 	C 	0.5069	0.22797	0.0535	-0.163
Mof_H 	H 	0.5607	0.2333	0.0943	0.097
Mof_C 	C 	0.4393	0.26628	0.0275	0.153
Mof_C 	C 	0.3598	0.25712	0.9683	-0.168
Mof_H 	H 	0.313	0.2823	0.9513	0.092
Mof_C 	C 	0.348	0.21165	0.9334	0.045
Mof_H 	H 	0.2933	0.2064	0.8932	0.016
Mof_C 	C 	0.9169	0.56593	0.126	0.114
Mof_H 	H 	0.8767	0.5575	0.154	-0.021
Mof_C 	C 	0.9135	0.61445	0.1013	-0.191
Mof_H 	H 	0.8716	0.6377	0.1126	0.097
Mof_C 	C 	0.97242	0.62907	0.05926	0.141
Mof_C 	C 	0.0329	0.59147	0.04571	-0.194
Mof_H 	H 	0.0742	0.5988	0.018	0.106
Mof_C 	C 	0.0321	0.54438	0.07251	0.107
Mof_H 	H 	0.0739	0.5204	0.0627	-0.016
Mof_C 	C 	0.9692	0.68041	0.02876	-0.091
Mof_C 	C 	0.9195	0.72004	0.05035	0.063
Mof_H 	H 	0.8904	0.7145	0.0864	0.006
Mof_C 	C 	0.9129	0.76673	0.0195	-0.185
Mof_H 	H 	0.8797	0.7923	0.0352	0.102
Mof_C 	C 	0.9546	0.77643	0.96581	0.167
Mof_C 	C 	0.0039	0.73811	0.94352	-0.18
Mof_H 	H 	0.0322	0.7439	0.9071	0.103
Mof_C 	C 	0.0113	0.69093	0.97513	0.057
Mof_H 	H 	0.0456	0.6657	0.9598	0.021
Mof_C 	C 	0.563	0.9144	0.848	0.472
Mof_C 	C 	0.6649	0.89265	0.87072	-0.274
Mof_C 	C 	0.6761	0.84295	0.8643	0.218
Mof_H 	H 	0.6202	0.8231	0.8456	-0.031
Mof_C 	C 	0.7665	0.82033	0.884	-0.302
Mof_H 	H 	0.7711	0.7857	0.8786	0.14
Mof_C 	C 	0.8503	0.84806	0.91158	0.246
Mof_C 	C 	0.8418	0.89869	0.91958	-0.291
Mof_H 	H 	0.8976	0.9186	0.9384	0.143
Mof_C 	C 	0.7479	0.92004	0.8989	0.205
Mof_H 	H 	0.7421	0.9546	0.9048	-0.023
Mof_C 	C 	0.2717	0.91306	0.8657	0.334
Mof_C 	C 	0.18535	0.88828	0.88156	-0.152
Mof_C 	C 	0.0912	0.892	0.83362	0.11
Mof_H 	H 	0.0814	0.9087	0.79	0.003
Mof_C 	C 	0.0114	0.87112	0.84986	-0.214
Mof_H 	H 	0.9484	0.874	0.8173	0.11
Mof_C 	C 	0.02479	0.846	0.91434	0.183
Mof_C 	C 	0.1194	0.84193	0.96182	-0.209
Mof_H 	H 	0.1296	0.8245	0.0049	0.109
Mof_C 	C 	0.1987	0.86346	0.94579	0.103
Mof_H 	H 	0.2615	0.8611	0.9787	0.008
Mof_C 	C 	0.991	0.47727	0.30834	0.105
Mof_H 	H 	0.9231	0.4819	0.296	-0.003
Mof_C 	C 	0.1455	0.47173	0.3713	-0.007
Mof_H 	H 	0.2039	0.4711	0.4093	0.04
Mof_C 	C 	0.1354	0.46489	0.3016	0.02
Mof_H 	H 	0.1873	0.4592	0.2828	0.008
Mof_C 	C 	0.0852	0.5209	0.49138	-0.083
Mof_H 	H 	0.1421	0.5348	0.4852	0.071
Mof_C 	C 	0.0254	0.49005	0.43921	0.087
Mof_C 	C 	0.9403	0.46914	0.4473	-0.08
Mof_H 	H 	0.9006	0.4485	0.4115	0.065
Mof_C 	C 	0.2905	0.95247	0.64988	0.002
Mof_H 	H 	0.2332	0.9396	0.6568	0.028
Mof_C 	C 	0.3067	0.95758	0.58603	0.005
Mof_H 	H 	0.2631	0.9495	0.5411	0.037
Mof_C 	C 	0.4349	0.98342	0.67114	0.11
Mof_H 	H 	0.4971	0.9965	0.6947	-0.016
Mof_C 	C 	0.3992	0.00618	0.48131	-0.075
Mof_H 	H 	0.3311	0.0103	0.4688	0.063
Mof_C 	C 	0.4507	0.98815	0.54877	0.089
Mof_C 	C 	0.5516	0.98196	0.56733	-0.077
Mof_H 	H 	0.5864	0.9698	0.6127	0.065
Mof_N 	N 	0.39214	0.03012	0.85194	-0.271
Mof_N 	N 	0.45054	0.31405	0.06189	-0.195
Mof_N 	N 	0.97417	0.53037	0.11248	-0.274
Mof_N 	N 	0.9446	0.82431	0.93259	-0.204
Mof_N 	N 	0.03844	0.46744	0.26165	-0.265
Mof_N 	N 	0.05183	0.47986	0.3755	-0.136
Mof_N 	N 	0.37178	0.96928	0.70375	-0.257
Mof_N 	N 	0.39952	0.97684	0.59948	-0.14
Mof_O 	O 	0.87097	0.41555	0.09295	-0.438
Mof_O 	O 	0.8236	0.46004	0.17101	-0.36
Mof_O 	O 	0.09969	0.43694	0.12433	-0.458
Mof_O 	O 	0.09607	0.36861	0.18796	-0.319
Mof_O 	O 	0.26378	0.92456	0.8008	-0.438
Mof_O 	O 	0.34826	0.92226	0.91596	-0.345
Mof_O 	O 	0.5503	0.9574	0.85936	-0.46
Mof_O 	O 	0.4908	0.89054	0.817	-0.429
Mof_Zn	Zn	0.39333	0.95818	0.8107	1.212
Mof_Zn	Zn	0.98604	0.45856	0.15439	1.209
Mof_C 	C 	0.1913	0.5752	0.87557	0.338
Mof_C 	C 	0.2835	0.60463	0.8923	-0.17
Mof_C 	C 	0.3092	0.63976	0.947	0.125
Mof_H 	H 	0.2666	0.6454	0.9743	0
Mof_C 	C 	0.395	0.66643	0.9625	-0.221
Mof_H 	H 	0.4101	0.6896	0.0002	0.114
Mof_C 	C 	0.46	0.65942	0.92263	0.19
Mof_C 	C 	0.4346	0.62473	0.8667	-0.216
Mof_H 	H 	0.4765	0.6195	0.8388	0.111
Mof_C 	C 	0.3481	0.59811	0.85228	0.118
Mof_H 	H 	0.3323	0.575	0.8146	0.005
Mof_C 	C 	0.8685	0.60638	0.85177	0.356
Mof_C 	C 	0.7842	0.627	0.87449	-0.164
Mof_C 	C 	0.7466	0.67402	0.8513	0.106
Mof_H 	H 	0.7734	0.6929	0.8216	0.004
Mof_C 	C 	0.6682	0.69348	0.8724	-0.216
Mof_H 	H 	0.6422	0.725	0.8561	0.108
Mof_C 	C 	0.6297	0.66607	0.9171	0.19
Mof_C 	C 	0.6665	0.61917	0.939	-0.224
Mof_H 	H 	0.6397	0.6002	0.9687	0.114
Mof_C 	C 	0.7432	0.59967	0.9176	0.119
Mof_H 	H 	0.7672	0.5676	0.9327	0.005
Mof_C 	C 	0.5834	0.96552	0.07631	0.109
Mof_H 	H 	0.5714	0.9949	0.049	-0.009
Mof_C 	C 	0.5748	0.92046	0.04071	-0.181
Mof_H 	H 	0.5564	0.9197	0.9906	0.107
Mof_C 	C 	0.5937	0.87596	0.07984	0.137
Mof_C 	C 	0.6209	0.88034	0.15366	-0.193
Mof_H 	H 	0.6357	0.8517	0.1824	0.102
Mof_C 	C 	0.6262	0.92725	0.1851	0.119
Mof_H 	H 	0.6437	0.929	0.2351	-0.025
Mof_C 	C 	0.5836	0.82679	0.04274	-0.081
Mof_C 	C 	0.5053	0.81804	0.98088	0.04
Mof_H 	H 	0.4602	0.8437	0.9623	0.032
Mof_C 	C 	0.4931	0.77203	0.9465	-0.163
Mof_H 	H 	0.4393	0.7667	0.9057	0.097
Mof_C 	C 	0.5607	0.73372	0.9725	0.153
Mof_C 	C 	0.6402	0.74288	0.0317	-0.168
Mof_H 	H 	0.687	0.7177	0.0487	0.092
Mof_C 	C 	0.652	0.78835	0.0666	0.045
Mof_H 	H 	0.7067	0.7936	0.1068	0.016
Mof_C 	C 	0.0831	0.43407	0.874	0.114
Mof_H 	H 	0.1233	0.4425	0.846	-0.021
Mof_C 	C 	0.0865	0.38555	0.8987	-0.191
Mof_H 	H 	0.1284	0.3623	0.8874	0.097
Mof_C 	C 	0.02758	0.37093	0.94074	0.141
Mof_C 	C 	0.9671	0.40853	0.95429	-0.194
Mof_H 	H 	0.9258	0.4012	0.982	0.106
Mof_C 	C 	0.9679	0.45562	0.92749	0.107
Mof_H 	H 	0.9261	0.4796	0.9373	-0.016
Mof_C 	C 	0.0308	0.31959	0.97124	-0.091
Mof_C 	C 	0.0805	0.27996	0.94965	0.063
Mof_H 	H 	0.1096	0.2855	0.9136	0.006
Mof_C 	C 	0.0871	0.23327	0.9805	-0.185
Mof_H 	H 	0.1203	0.2077	0.9648	0.102
Mof_C 	C 	0.0454	0.22357	0.03419	0.167
Mof_C 	C 	0.9961	0.26189	0.05648	-0.18
Mof_H 	H 	0.9678	0.2561	0.0929	0.103
Mof_C 	C 	0.9887	0.30907	0.02487	0.057
Mof_H 	H 	0.9544	0.3343	0.0402	0.021
Mof_C 	C 	0.437	0.0856	0.152	0.472
Mof_C 	C 	0.3351	0.10735	0.12928	-0.274
Mof_C 	C 	0.3239	0.15705	0.1357	0.218
Mof_H 	H 	0.3798	0.1769	0.1544	-0.031
Mof_C 	C 	0.2335	0.17967	0.116	-0.302
Mof_H 	H 	0.2289	0.2143	0.1214	0.14
Mof_C 	C 	0.1497	0.15194	0.08842	0.246
Mof_C 	C 	0.1582	0.10131	0.08042	-0.291
Mof_H 	H 	0.1024	0.0814	0.0616	0.143
Mof_C 	C 	0.2521	0.07996	0.1011	0.205
Mof_H 	H 	0.2579	0.0454	0.0952	-0.023
Mof_C 	C 	0.7283	0.08694	0.1343	0.334
Mof_C 	C 	0.81465	0.11172	0.11844	-0.152
Mof_C 	C 	0.9088	0.108	0.16638	0.11
Mof_H 	H 	0.9186	0.0913	0.21	0.003
Mof_C 	C 	0.9886	0.12888	0.15014	-0.214
Mof_H 	H 	0.0516	0.126	0.1827	0.11
Mof_C 	C 	0.97521	0.154	0.08566	0.183
Mof_C 	C 	0.8806	0.15807	0.03818	-0.209
Mof_H 	H 	0.8704	0.1755	0.9951	0.109
Mof_C 	C 	0.8013	0.13654	0.05421	0.103
Mof_H 	H 	0.7385	0.1389	0.0213	0.008
Mof_C 	C 	0.009	0.52273	0.69166	0.105
Mof_H 	H 	0.0769	0.5181	0.704	-0.003
Mof_C 	C 	0.8545	0.52827	0.6287	-0.007
Mof_H 	H 	0.7961	0.5289	0.5907	0.04
Mof_C 	C 	0.8646	0.53511	0.6984	0.02
Mof_H 	H 	0.8127	0.5408	0.7172	0.008
Mof_C 	C 	0.9148	0.4791	0.50862	-0.083
Mof_H 	H 	0.8579	0.4652	0.5148	0.071
Mof_C 	C 	0.9746	0.50995	0.56079	0.087
Mof_C 	C 	0.0597	0.53086	0.5527	-0.08
Mof_H 	H 	0.0994	0.5515	0.5885	0.065
Mof_C 	C 	0.7095	0.04753	0.35012	0.002
Mof_H 	H 	0.7668	0.0604	0.3432	0.028
Mof_C 	C 	0.6933	0.04242	0.41397	0.005
Mof_H 	H 	0.7369	0.0505	0.4589	0.037
Mof_C 	C 	0.5651	0.01658	0.32886	0.11
Mof_H 	H 	0.5029	0.0035	0.3053	-0.016
Mof_C 	C 	0.6008	0.99382	0.51869	-0.075
Mof_H 	H 	0.6689	0.9897	0.5312	0.063
Mof_C 	C 	0.5493	0.01185	0.45123	0.089
Mof_C 	C 	0.4484	0.01804	0.43267	-0.077
Mof_H 	H 	0.4136	0.0302	0.3873	0.065
Mof_N 	N 	0.60786	0.96988	0.14806	-0.271
Mof_N 	N 	0.54946	0.68595	0.93811	-0.195
Mof_N 	N 	0.02583	0.46963	0.88752	-0.274
Mof_N 	N 	0.0554	0.17569	0.06741	-0.204
Mof_N 	N 	0.96156	0.53256	0.73835	-0.265
Mof_N 	N 	0.94817	0.52014	0.6245	-0.136
Mof_N 	N 	0.62822	0.03072	0.29625	-0.257
Mof_N 	N 	0.60048	0.02316	0.40052	-0.14
Mof_O 	O 	0.12903	0.58445	0.90705	-0.438
Mof_O 	O 	0.1764	0.53996	0.82899	-0.36
Mof_O 	O 	0.90031	0.56306	0.87567	-0.458
Mof_O 	O 	0.90393	0.63139	0.81204	-0.319
Mof_O 	O 	0.73622	0.07544	0.1992	-0.438
Mof_O 	O 	0.65174	0.07774	0.08404	-0.345
Mof_O 	O 	0.4497	0.0426	0.14064	-0.46
Mof_O 	O 	0.5092	0.10946	0.183	-0.429
Mof_Zn	Zn	0.60667	0.04182	0.1893	1.212
Mof_Zn	Zn	0.01396	0.54144	0.84561	1.209
Mof_C 	C 	0.1913	0.9248	0.37557	0.338
Mof_C 	C 	0.2835	0.89537	0.3923	-0.17
Mof_C 	C 	0.3092	0.86024	0.447	0.124
Mof_H 	H 	0.2666	0.8546	0.4743	0.001
Mof_C 	C 	0.395	0.83357	0.4625	-0.221
Mof_H 	H 	0.4101	0.8104	0.5002	0.113
Mof_C 	C 	0.46	0.84058	0.42263	0.19
Mof_C 	C 	0.4346	0.87527	0.3667	-0.216
Mof_H 	H 	0.4765	0.8805	0.3388	0.111
Mof_C 	C 	0.3481	0.90189	0.35228	0.118
Mof_H 	H 	0.3323	0.925	0.3146	0.005
Mof_C 	C 	0.8685	0.89362	0.35177	0.356
Mof_C 	C 	0.7842	0.873	0.37449	-0.164
Mof_C 	C 	0.7466	0.82598	0.3513	0.106
Mof_H 	H 	0.7734	0.8071	0.3216	0.004
Mof_C 	C 	0.6682	0.80652	0.3724	-0.216
Mof_H 	H 	0.6422	0.775	0.3561	0.108
Mof_C 	C 	0.6297	0.83393	0.4171	0.19
Mof_C 	C 	0.6665	0.88083	0.439	-0.224
Mof_H 	H 	0.6397	0.8998	0.4687	0.114
Mof_C 	C 	0.7432	0.90033	0.4176	0.119
Mof_H 	H 	0.7672	0.9324	0.4327	0.006
Mof_C 	C 	0.5834	0.53448	0.57631	0.11
Mof_H 	H 	0.5714	0.5051	0.549	-0.009
Mof_C 	C 	0.5748	0.57954	0.54071	-0.183
Mof_H 	H 	0.5564	0.5803	0.4906	0.108
Mof_C 	C 	0.5937	0.62404	0.57984	0.139
Mof_C 	C 	0.6209	0.61966	0.65366	-0.194
Mof_H 	H 	0.6357	0.6483	0.6824	0.103
Mof_C 	C 	0.6262	0.57275	0.6851	0.12
Mof_H 	H 	0.6437	0.571	0.7351	-0.026
Mof_C 	C 	0.5836	0.67321	0.54274	-0.083
Mof_C 	C 	0.5053	0.68196	0.48088	0.042
Mof_H 	H 	0.4602	0.6563	0.4623	0.032
Mof_C 	C 	0.4931	0.72797	0.4465	-0.165
Mof_H 	H 	0.4393	0.7333	0.4057	0.097
Mof_C 	C 	0.5607	0.76628	0.4725	0.154
Mof_C 	C 	0.6402	0.75712	0.5317	-0.17
Mof_H 	H 	0.687	0.7823	0.5487	0.092
Mof_C 	C 	0.652	0.71165	0.5666	0.046
Mof_H 	H 	0.7067	0.7064	0.6068	0.016
Mof_C 	C 	0.0831	0.06593	0.374	0.115
Mof_H 	H 	0.1233	0.0575	0.346	-0.021
Mof_C 	C 	0.0865	0.11445	0.3987	-0.191
Mof_H 	H 	0.1284	0.1377	0.3874	0.097
Mof_C 	C 	0.02758	0.12907	0.44074	0.142
Mof_C 	C 	0.9671	0.09147	0.45429	-0.195
Mof_H 	H 	0.9258	0.0988	0.482	0.106
Mof_C 	C 	0.9679	0.04438	0.42749	0.105
Mof_H 	H 	0.9261	0.0204	0.4373	-0.016
Mof_C 	C 	0.0308	0.18041	0.47124	-0.091
Mof_C 	C 	0.0805	0.22004	0.44965	0.063
Mof_H 	H 	0.1096	0.2145	0.4136	0.006
Mof_C 	C 	0.0871	0.26673	0.4805	-0.186
Mof_H 	H 	0.1203	0.2923	0.4648	0.102
Mof_C 	C 	0.0454	0.27643	0.53419	0.168
Mof_C 	C 	0.9961	0.23811	0.55648	-0.179
Mof_H 	H 	0.9678	0.2439	0.5929	0.103
Mof_C 	C 	0.9887	0.19093	0.52487	0.057
Mof_H 	H 	0.9544	0.1657	0.5402	0.021
Mof_C 	C 	0.437	0.4144	0.652	0.472
Mof_C 	C 	0.3351	0.39265	0.62928	-0.274
Mof_C 	C 	0.3239	0.34295	0.6357	0.218
Mof_H 	H 	0.3798	0.3231	0.6544	-0.031
Mof_C 	C 	0.2335	0.32033	0.616	-0.302
Mof_H 	H 	0.2289	0.2857	0.6214	0.14
Mof_C 	C 	0.1497	0.34806	0.58842	0.246
Mof_C 	C 	0.1582	0.39869	0.58042	-0.291
Mof_H 	H 	0.1024	0.4186	0.5616	0.142
Mof_C 	C 	0.2521	0.42004	0.6011	0.205
Mof_H 	H 	0.2579	0.4546	0.5952	-0.023
Mof_C 	C 	0.7283	0.41306	0.6343	0.333
Mof_C 	C 	0.81465	0.38828	0.61844	-0.151
Mof_C 	C 	0.9088	0.392	0.66638	0.107
Mof_H 	H 	0.9186	0.4087	0.71	0.004
Mof_C 	C 	0.9886	0.37112	0.65014	-0.21
Mof_H 	H 	0.0516	0.374	0.6827	0.108
Mof_C 	C 	0.97521	0.346	0.58566	0.181
Mof_C 	C 	0.8806	0.34193	0.53818	-0.206
Mof_H 	H 	0.8704	0.3245	0.4951	0.108
Mof_C 	C 	0.8013	0.36346	0.55421	0.101
Mof_H 	H 	0.7385	0.3611	0.5213	0.009
Mof_C 	C 	0.009	0.97727	0.19166	0.101
Mof_H 	H 	0.0769	0.9819	0.204	-0.002
Mof_C 	C 	0.8545	0.97173	0.1287	-0.006
Mof_H 	H 	0.7961	0.9711	0.0907	0.04
Mof_C 	C 	0.8646	0.96489	0.1984	0.02
Mof_H 	H 	0.8127	0.9592	0.2172	0.008
Mof_C 	C 	0.9148	0.0209	0.00862	-0.087
Mof_H 	H 	0.8579	0.0348	0.0148	0.072
Mof_C 	C 	0.9746	0.99005	0.06079	0.092
Mof_C 	C 	0.0597	0.96914	0.0527	-0.082
Mof_H 	H 	0.0994	0.9485	0.0885	0.065
Mof_C 	C 	0.7095	0.45247	0.85012	0.002
Mof_H 	H 	0.7668	0.4396	0.8432	0.028
Mof_C 	C 	0.6933	0.45758	0.91397	0.005
Mof_H 	H 	0.7369	0.4495	0.9589	0.037
Mof_C 	C 	0.5651	0.48342	0.82886	0.11
Mof_H 	H 	0.5029	0.4965	0.8053	-0.016
Mof_C 	C 	0.6008	0.50618	0.01869	-0.076
Mof_H 	H 	0.6689	0.5103	0.0312	0.062
Mof_C 	C 	0.5493	0.48815	0.95123	0.09
Mof_C 	C 	0.4484	0.48196	0.93267	-0.077
Mof_H 	H 	0.4136	0.4698	0.8873	0.065
Mof_N 	N 	0.60786	0.53012	0.64806	-0.272
Mof_N 	N 	0.54946	0.81405	0.43811	-0.195
Mof_N 	N 	0.02583	0.03037	0.38752	-0.273
Mof_N 	N 	0.0554	0.32431	0.56741	-0.204
Mof_N 	N 	0.96156	0.96744	0.23835	-0.263
Mof_N 	N 	0.94817	0.97986	0.1245	-0.135
Mof_N 	N 	0.62822	0.46928	0.79625	-0.257
Mof_N 	N 	0.60048	0.47684	0.90052	-0.14
Mof_O 	O 	0.12903	0.91555	0.40705	-0.438
Mof_O 	O 	0.1764	0.96004	0.32899	-0.36
Mof_O 	O 	0.90031	0.93694	0.37567	-0.457
Mof_O 	O 	0.90393	0.86861	0.31204	-0.318
Mof_O 	O 	0.73622	0.42456	0.6992	-0.438
Mof_O 	O 	0.65174	0.42226	0.58404	-0.344
Mof_O 	O 	0.4497	0.4574	0.64064	-0.46
Mof_O 	O 	0.5092	0.39054	0.683	-0.429
Mof_Zn	Zn	0.60667	0.45818	0.6893	1.212
Mof_Zn	Zn	0.01396	0.95856	0.34561	1.208
Mof_C 	C 	0.8087	0.0752	0.62443	0.338
Mof_C 	C 	0.7165	0.10463	0.6077	-0.17
Mof_C 	C 	0.6908	0.13976	0.553	0.124
Mof_H 	H 	0.7334	0.1454	0.5257	0.001
Mof_C 	C 	0.605	0.16643	0.5375	-0.221
Mof_H 	H 	0.5899	0.1896	0.4998	0.113
Mof_C 	C 	0.54	0.15942	0.57737	0.19
Mof_C 	C 	0.5654	0.12473	0.6333	-0.216
Mof_H 	H 	0.5235	0.1195	0.6612	0.111
Mof_C 	C 	0.6519	0.09811	0.64772	0.118
Mof_H 	H 	0.6677	0.075	0.6854	0.005
Mof_C 	C 	0.1315	0.10638	0.64823	0.356
Mof_C 	C 	0.2158	0.127	0.62551	-0.164
Mof_C 	C 	0.2534	0.17402	0.6487	0.106
Mof_H 	H 	0.2266	0.1929	0.6784	0.004
Mof_C 	C 	0.3318	0.19348	0.6276	-0.216
Mof_H 	H 	0.3578	0.225	0.6439	0.108
Mof_C 	C 	0.3703	0.16607	0.5829	0.19
Mof_C 	C 	0.3335	0.11917	0.561	-0.224
Mof_H 	H 	0.3603	0.1002	0.5313	0.114
Mof_C 	C 	0.2568	0.09967	0.5824	0.119
Mof_H 	H 	0.2328	0.0676	0.5673	0.006
Mof_C 	C 	0.4166	0.46552	0.42369	0.11
Mof_H 	H 	0.4286	0.4949	0.451	-0.009
Mof_C 	C 	0.4252	0.42046	0.45929	-0.183
Mof_H 	H 	0.4436	0.4197	0.5094	0.108
Mof_C 	C 	0.4063	0.37596	0.42016	0.139
Mof_C 	C 	0.3791	0.38034	0.34634	-0.194
Mof_H 	H 	0.3643	0.3517	0.3176	0.103
Mof_C 	C 	0.3738	0.42725	0.3149	0.12
Mof_H 	H 	0.3563	0.429	0.2649	-0.026
Mof_C 	C 	0.4164	0.32679	0.45726	-0.083
Mof_C 	C 	0.4947	0.31804	0.51912	0.042
Mof_H 	H 	0.5398	0.3437	0.5377	0.032
Mof_C 	C 	0.5069	0.27203	0.5535	-0.165
Mof_H 	H 	0.5607	0.2667	0.5943	0.097
Mof_C 	C 	0.4393	0.23372	0.5275	0.154
Mof_C 	C 	0.3598	0.24288	0.4683	-0.17
Mof_H 	H 	0.313	0.2177	0.4513	0.092
Mof_C 	C 	0.348	0.28835	0.4334	0.046
Mof_H 	H 	0.2933	0.2936	0.3932	0.016
Mof_C 	C 	0.9169	0.93407	0.626	0.115
Mof_H 	H 	0.8767	0.9425	0.654	-0.021
Mof_C 	C 	0.9135	0.88555	0.6013	-0.191
Mof_H 	H 	0.8716	0.8623	0.6126	0.097
Mof_C 	C 	0.97242	0.87093	0.55926	0.142
Mof_C 	C 	0.0329	0.90853	0.54571	-0.195
Mof_H 	H 	0.0742	0.9012	0.518	0.106
Mof_C 	C 	0.0321	0.95562	0.57251	0.105
Mof_H 	H 	0.0739	0.9796	0.5627	-0.016
Mof_C 	C 	0.9692	0.81959	0.52876	-0.091
Mof_C 	C 	0.9195	0.77996	0.55035	0.063
Mof_H 	H 	0.8904	0.7855	0.5864	0.006
Mof_C 	C 	0.9129	0.73327	0.5195	-0.186
Mof_H 	H 	0.8797	0.7077	0.5352	0.102
Mof_C 	C 	0.9546	0.72357	0.46581	0.168
Mof_C 	C 	0.0039	0.76189	0.44352	-0.179
Mof_H 	H 	0.0322	0.7561	0.4071	0.103
Mof_C 	C 	0.0113	0.80907	0.47513	0.057
Mof_H 	H 	0.0456	0.8343	0.4598	0.021
Mof_C 	C 	0.563	0.5856	0.348	0.472
Mof_C 	C 	0.6649	0.60735	0.37072	-0.274
Mof_C 	C 	0.6761	0.65705	0.3643	0.218
Mof_H 	H 	0.6202	0.6769	0.3456	-0.031
Mof_C 	C 	0.7665	0.67967	0.384	-0.302
Mof_H 	H 	0.7711	0.7143	0.3786	0.14
Mof_C 	C 	0.8503	0.65194	0.41158	0.246
Mof_C 	C 	0.8418	0.60131	0.41958	-0.291
Mof_H 	H 	0.8976	0.5814	0.4384	0.142
Mof_C 	C 	0.7479	0.57996	0.3989	0.205
Mof_H 	H 	0.7421	0.5454	0.4048	-0.023
Mof_C 	C 	0.2717	0.58694	0.3657	0.333
Mof_C 	C 	0.18535	0.61172	0.38156	-0.151
Mof_C 	C 	0.0912	0.608	0.33362	0.107
Mof_H 	H 	0.0814	0.5913	0.29	0.004
Mof_C 	C 	0.0114	0.62888	0.34986	-0.21
Mof_H 	H 	0.9484	0.626	0.3173	0.108
Mof_C 	C 	0.02479	0.654	0.41434	0.181
Mof_C 	C 	0.1194	0.65807	0.46182	-0.206
Mof_H 	H 	0.1296	0.6755	0.5049	0.108
Mof_C 	C 	0.1987	0.63654	0.44579	0.101
Mof_H 	H 	0.2615	0.6389	0.4787	0.009
Mof_C 	C 	0.991	0.02273	0.80834	0.101
Mof_H 	H 	0.9231	0.0181	0.796	-0.002
Mof_C 	C 	0.1455	0.02827	0.8713	-0.006
Mof_H 	H 	0.2039	0.0289	0.9093	0.04
Mof_C 	C 	0.1354	0.03511	0.8016	0.02
Mof_H 	H 	0.1873	0.0408	0.7828	0.008
Mof_C 	C 	0.0852	0.9791	0.99138	-0.087
Mof_H 	H 	0.1421	0.9652	0.9852	0.072
Mof_C 	C 	0.0254	0.00995	0.93921	0.092
Mof_C 	C 	0.9403	0.03086	0.9473	-0.082
Mof_H 	H 	0.9006	0.0515	0.9115	0.065
Mof_C 	C 	0.2905	0.54753	0.14988	0.002
Mof_H 	H 	0.2332	0.5604	0.1568	0.028
Mof_C 	C 	0.3067	0.54242	0.08603	0.005
Mof_H 	H 	0.2631	0.5505	0.0411	0.037
Mof_C 	C 	0.4349	0.51658	0.17114	0.11
Mof_H 	H 	0.4971	0.5035	0.1947	-0.016
Mof_C 	C 	0.3992	0.49382	0.98131	-0.076
Mof_H 	H 	0.3311	0.4897	0.9688	0.062
Mof_C 	C 	0.4507	0.51185	0.04877	0.09
Mof_C 	C 	0.5516	0.51804	0.06733	-0.077
Mof_H 	H 	0.5864	0.5302	0.1127	0.065
Mof_N 	N 	0.39214	0.46988	0.35194	-0.272
Mof_N 	N 	0.45054	0.18595	0.56189	-0.195
Mof_N 	N 	0.97417	0.96963	0.61248	-0.273
Mof_N 	N 	0.9446	0.67569	0.43259	-0.204
Mof_N 	N 	0.03844	0.03256	0.76165	-0.263
Mof_N 	N 	0.05183	0.02014	0.8755	-0.135
Mof_N 	N 	0.37178	0.53072	0.20375	-0.257
Mof_N 	N 	0.39952	0.52316	0.09948	-0.14
Mof_O 	O 	0.87097	0.08445	0.59295	-0.438
Mof_O 	O 	0.8236	0.03996	0.67101	-0.36
Mof_O 	O 	0.09969	0.06306	0.62433	-0.457
Mof_O 	O 	0.09607	0.13139	0.68796	-0.318
Mof_O 	O 	0.26378	0.57544	0.3008	-0.438
Mof_O 	O 	0.34826	0.57774	0.41596	-0.344
Mof_O 	O 	0.5503	0.5426	0.35936	-0.46
Mof_O 	O 	0.4908	0.60946	0.317	-0.429
Mof_Zn	Zn	0.39333	0.54182	0.3107	1.212
Mof_Zn	Zn	0.98604	0.04144	0.65439	1.208
_end
