# CIF file generated by openbabel 3.1.0, see https://openbabel.org
data_I
_chemical_name_common 'BIXYEO_clean'
_cell_length_a 13.1554
_cell_length_b 13.7014
_cell_length_c 22.7273
_cell_angle_alpha 100.366
_cell_angle_beta 90
_cell_angle_gamma 90
_space_group_name_H-M_alt 'P 1'
_space_group_name_Hall 'P 1'
loop_
    _symmetry_equiv_pos_as_xyz
    x,y,z
loop_
    _atom_site_label
    _atom_site_type_symbol
    _atom_site_fract_x
    _atom_site_fract_y
    _atom_site_fract_z
    _atom_site_occupancy
    Ce1      Ce       0.39899    0.72393    0.82147    1.000
    Ce2      Ce       0.60101    0.27607    0.17853    1.000
    Ce3      Ce       0.10085    0.21878    0.27619    1.000
    Ce4      Ce       0.39915    0.21878    0.77619    1.000
    Ce5      Ce       0.60085    0.78122    0.22381    1.000
    Ce6      Ce       0.10101    0.72393    0.32147    1.000
    Ce7      Ce       0.89915    0.78122    0.72381    1.000
    Ce8      Ce       0.89899    0.27607    0.67853    1.000
    Si1      Si       0.00000    0.50000    0.00000    1.000
    Si2      Si       0.50000    0.50000    0.50000    1.000
    H1       H        0.35550    0.40850    0.22090    1.000
    H2       H        0.29930    0.45730    0.76860    1.000
    H3       H        0.64450    0.59150    0.77910    1.000
    H4       H        0.60440    0.07250    0.73410    1.000
    H5       H        0.70070    0.54270    0.23140    1.000
    H6       H        0.89560    0.07250    0.23410    1.000
    H7       H        0.73390    0.02280    0.19690    1.000
    H8       H        0.26610    0.97720    0.80310    1.000
    H9       H        0.79930    0.54270    0.73140    1.000
    H10      H        0.20070    0.45730    0.26860    1.000
    H11      H        0.14450    0.40850    0.72090    1.000
    H12      H        0.85550    0.59150    0.27910    1.000
    H13      H        0.76610    0.02280    0.69690    1.000
    H14      H        0.23390    0.97720    0.30310    1.000
    H15      H        0.10440    0.92750    0.76590    1.000
    H16      H        0.39560    0.92750    0.26590    1.000
    W1       W        0.94137    0.36792    0.85785    1.000
    W2       W        0.30098    0.61763    0.43764    1.000
    W3       W        0.44137    0.63208    0.64215    1.000
    W4       W        0.05863    0.63208    0.14215    1.000
    W5       W        0.74799    0.51000    0.44262    1.000
    W6       W        0.31079    0.35508    0.41311    1.000
    W7       W        0.98805    0.23819    0.97605    1.000
    W8       W        0.48805    0.76181    0.52395    1.000
    W9       W        0.55863    0.36792    0.35785    1.000
    W10      W        0.04855    0.37065    0.11991    1.000
    W11      W        0.45145    0.37065    0.61991    1.000
    W12      W        0.19902    0.61763    0.93764    1.000
    W13      W        0.54855    0.62935    0.38009    1.000
    W14      W        0.18921    0.35508    0.91311    1.000
    W15      W        0.68921    0.64492    0.58689    1.000
    W16      W        0.75201    0.51000    0.94262    1.000
    W17      W        0.81079    0.64492    0.08689    1.000
    W18      W        0.51195    0.23819    0.47605    1.000
    W19      W        0.24799    0.49000    0.05738    1.000
    W20      W        0.25201    0.49000    0.55738    1.000
    W21      W        0.69902    0.38237    0.56236    1.000
    W22      W        0.80098    0.38237    0.06236    1.000
    W23      W        0.95145    0.62935    0.88009    1.000
    W24      W        0.01195    0.76181    0.02395    1.000
    C1       C        0.72110    0.98490    0.71490    1.000
    C2       C        0.75120    0.49990    0.23990    1.000
    C3       C        0.27890    0.01510    0.28510    1.000
    C4       C        0.89530    0.44570    0.27020    1.000
    C5       C        0.00010    0.46510    0.29710    1.000
    C6       C        0.83910    0.25900    0.23430    1.000
    C7       C        0.25120    0.50010    0.26010    1.000
    C8       C        0.41430    0.05640    0.24180    1.000
    C9       C        0.34310    0.23040    0.22880    1.000
    C10      C        0.51810    0.03710    0.21230    1.000
    C11      C        0.60470    0.44570    0.77020    1.000
    C12      C        0.66560    0.36800    0.74700    1.000
    C13      C        0.01810    0.96290    0.28770    1.000
    C14      C        0.16090    0.74100    0.76570    1.000
    C15      C        0.33440    0.63200    0.25300    1.000
    C16      C        0.49990    0.46510    0.79710    1.000
    C17      C        0.24880    0.50010    0.76010    1.000
    C18      C        0.84610    0.86710    0.25250    1.000
    C19      C        0.91430    0.94360    0.25820    1.000
    C20      C        0.65390    0.86710    0.75250    1.000
    C21      C        0.15390    0.13290    0.74750    1.000
    C22      C        0.99990    0.53490    0.70290    1.000
    C23      C        0.16560    0.63200    0.75300    1.000
    C24      C        0.58570    0.94360    0.75820    1.000
    C25      C        0.65690    0.76960    0.77120    1.000
    C26      C        0.34610    0.13290    0.24750    1.000
    C27      C        0.08570    0.05640    0.74180    1.000
    C28      C        0.77890    0.98490    0.21490    1.000
    C29      C        0.83440    0.36800    0.24700    1.000
    C30      C        0.22110    0.01510    0.78510    1.000
    C31      C        0.66090    0.25900    0.73430    1.000
    C32      C        0.50010    0.53490    0.20290    1.000
    C33      C        0.39530    0.55430    0.22980    1.000
    C34      C        0.74880    0.49990    0.73990    1.000
    C35      C        0.10470    0.55430    0.72980    1.000
    C36      C        0.48190    0.96290    0.78770    1.000
    C37      C        0.98190    0.03710    0.71230    1.000
    C38      C        0.15690    0.23040    0.72880    1.000
    C39      C        0.84310    0.76960    0.27120    1.000
    C40      C        0.33910    0.74100    0.26570    1.000
    N1       N        0.63040    0.01530    0.73540    1.000
    N2       N        0.75660    0.40360    0.72680    1.000
    N3       N        0.25660    0.59640    0.77320    1.000
    N4       N        0.83790    0.53090    0.26650    1.000
    N5       N        0.26000    0.10770    0.27660    1.000
    N6       N        0.24340    0.59640    0.27320    1.000
    N7       N        0.16210    0.46910    0.73350    1.000
    N8       N        0.74000    0.89230    0.72340    1.000
    N9       N        0.36960    0.98470    0.26460    1.000
    N10      N        0.13040    0.98470    0.76460    1.000
    N11      N        0.66210    0.53090    0.76650    1.000
    N12      N        0.24000    0.10770    0.77660    1.000
    N13      N        0.76000    0.89230    0.22340    1.000
    N14      N        0.33790    0.46910    0.23350    1.000
    N15      N        0.86960    0.01530    0.23540    1.000
    N16      N        0.74340    0.40360    0.22680    1.000
    O1       O        0.91230    0.30080    0.78890    1.000
    O2       O        0.70120    0.33180    0.09480    1.000
    O3       O        0.24400    0.38840    0.48760    1.000
    O4       O        0.54150    0.49520    0.34240    1.000
    O5       O        0.74050    0.72370    0.76380    1.000
    O6       O        0.11440    0.49760    0.98080    1.000
    O7       O        0.71990    0.71090    0.13060    1.000
    O8       O        0.44930    0.39050    0.80520    1.000
    O9       O        0.62300    0.75300    0.55680    1.000
    O10      O        0.08220    0.26550    0.70610    1.000
    O11      O        0.28010    0.28910    0.86940    1.000
    O12      O        0.95850    0.49520    0.84240    1.000
    O13      O        0.28140    0.48400    0.40180    1.000
    O14      O        0.46500    0.59600    0.47200    1.000
    O15      O        0.08200    0.35650    0.85780    1.000
    O16      O        0.24050    0.27630    0.73620    1.000
    O17      O        0.42960    0.31130    0.67720    1.000
    O18      O        0.41230    0.69920    0.71110    1.000
    O19      O        0.58220    0.73450    0.79390    1.000
    O20      O        0.43600    0.74480    0.60140    1.000
    O21      O        0.92220    0.21700    0.24820    1.000
    O22      O        0.08770    0.69920    0.21110    1.000
    O23      O        0.02820    0.55140    0.31130    1.000
    O24      O        0.58200    0.64350    0.64220    1.000
    O25      O        0.78140    0.51600    0.09820    1.000
    O26      O        0.71860    0.51600    0.59820    1.000
    O27      O        0.52700    0.60500    0.54660    1.000
    O28      O        0.07040    0.31130    0.17720    1.000
    O29      O        0.90620    0.37320    0.11670    1.000
    O30      O        0.75950    0.72370    0.26380    1.000
    O31      O        0.04150    0.50480    0.15760    1.000
    O32      O        0.56400    0.25520    0.39860    1.000
    O33      O        0.88560    0.50240    0.01920    1.000
    O34      O        0.58770    0.30080    0.28890    1.000
    O35      O        0.68300    0.60400    0.40240    1.000
    O36      O        0.18400    0.59400    0.10860    1.000
    O37      O        0.81600    0.40600    0.89140    1.000
    O38      O        0.18300    0.39600    0.09760    1.000
    O39      O        0.96500    0.40400    0.02800    1.000
    O40      O        0.29880    0.66820    0.90520    1.000
    O41      O        0.97300    0.60500    0.04660    1.000
    O42      O        0.20120    0.66820    0.40520    1.000
    O43      O        0.42220    0.78300    0.25180    1.000
    O44      O        0.74400    0.61160    0.01240    1.000
    O45      O        0.53500    0.40400    0.52800    1.000
    O46      O        0.95270    0.94830    0.70510    1.000
    O47      O        0.04730    0.05170    0.29490    1.000
    O48      O        0.95400    0.73100    0.94750    1.000
    O49      O        0.07780    0.78300    0.75180    1.000
    O50      O        0.23500    0.58530    0.50550    1.000
    O51      O        0.87700    0.75300    0.05680    1.000
    O52      O        0.47300    0.39500    0.45340    1.000
    O53      O        0.85800    0.27160    0.01290    1.000
    O54      O        0.56630    0.10780    0.19900    1.000
    O55      O        0.57040    0.68870    0.32280    1.000
    O56      O        0.81700    0.60400    0.90240    1.000
    O57      O        0.55070    0.60950    0.19480    1.000
    O58      O        0.52820    0.44860    0.18870    1.000
    O59      O        0.45400    0.26900    0.55250    1.000
    O60      O        0.75600    0.61160    0.51240    1.000
    O61      O        0.91780    0.73450    0.29390    1.000
    O62      O        0.09380    0.62680    0.88330    1.000
    O63      O        0.07000    0.49480    0.06050    1.000
    O64      O        0.14200    0.72840    0.98710    1.000
    O65      O        0.76500    0.41470    0.49450    1.000
    O66      O        0.23230    0.79100    0.78960    1.000
    O67      O        0.05070    0.39050    0.30520    1.000
    O68      O        0.04600    0.26900    0.05250    1.000
    O69      O        0.54730    0.94830    0.20510    1.000
    O70      O        0.25950    0.27630    0.23620    1.000
    O71      O        0.68400    0.40600    0.39140    1.000
    O72      O        0.06400    0.74480    0.10140    1.000
    O73      O        0.26770    0.79100    0.28960    1.000
    O74      O        0.93600    0.25520    0.89860    1.000
    O75      O        0.73500    0.41470    0.99450    1.000
    O76      O        0.21860    0.48400    0.90180    1.000
    O77      O        0.38560    0.49760    0.48080    1.000
    O78      O        0.79880    0.33180    0.59480    1.000
    O79      O        0.25600    0.38840    0.98760    1.000
    O80      O        0.92960    0.68870    0.82280    1.000
    O81      O        0.26500    0.58530    0.00550    1.000
    O82      O        0.45850    0.50480    0.65760    1.000
    O83      O        0.41780    0.26550    0.20610    1.000
    O84      O        0.03500    0.59600    0.97200    1.000
    O85      O        0.12300    0.24700    0.94320    1.000
    O86      O        0.31600    0.59400    0.60860    1.000
    O87      O        0.43000    0.49480    0.56050    1.000
    O88      O        0.94930    0.60950    0.69480    1.000
    O89      O        0.93000    0.50520    0.93950    1.000
    O90      O        0.41800    0.35650    0.35780    1.000
    O91      O        0.40620    0.62680    0.38330    1.000
    O92      O        0.64200    0.27160    0.51290    1.000
    O93      O        0.93370    0.10780    0.69900    1.000
    O94      O        0.59380    0.37320    0.61670    1.000
    O95      O        0.57780    0.21700    0.74820    1.000
    O96      O        0.31700    0.39600    0.59760    1.000
    O97      O        0.43370    0.89220    0.80100    1.000
    O98      O        0.37700    0.24700    0.44320    1.000
    O99      O        0.76770    0.20900    0.21040    1.000
    O100     O        0.91800    0.64350    0.14220    1.000
    O101     O        0.97180    0.44860    0.68870    1.000
    O102     O        0.35800    0.72840    0.48710    1.000
    O103     O        0.06630    0.89220    0.30100    1.000
    O104     O        0.78010    0.71090    0.63060    1.000
    O105     O        0.54600    0.73100    0.44750    1.000
    O106     O        0.47180    0.55140    0.81130    1.000
    O107     O        0.57000    0.50520    0.43950    1.000
    O108     O        0.73230    0.20900    0.71040    1.000
    O109     O        0.21990    0.28910    0.36940    1.000
    O110     O        0.02700    0.39500    0.95340    1.000
    O111     O        0.61440    0.50240    0.51920    1.000
    O112     O        0.45270    0.05170    0.79490    1.000
