data_functionalizedCrystal
_audit_creation_method	'EQeq! by Chris Wilmer'
_symmetry_space_group_name_H-M	'P1'
_symmetry_Int_Tables_number	1
_symmetry_cell_setting	triclinic
loop_
_symmetry_equiv_pos_as_xyz
  x,y,z
_cell_length_a	15.6206
_cell_length_b	15.9054
_cell_length_c	22.8496
_cell_angle_alpha	90
_cell_angle_beta	90
_cell_angle_gamma	119.41
loop_
_atom_site_label
_atom_site_type_symbol
_atom_site_fract_x
_atom_site_fract_y
_atom_site_fract_z
_atom_site_charge
Mof_Cd	Cd	0.32081	0.17124	0.37003	0.507
Mof_Cd	Cd	0.67919	0.82876	0.87003	0.508
Mof_Cd	Cd	0.85043	0.17124	0.12996	0.506
Mof_Cd	Cd	0.14957	0.82876	0.62997	0.508
Mof_Cd	Cd	0.23505	0	0.5	0.431
Mof_Cd	Cd	0.76495	0	-0	0.424
Mof_Si	Si	0.83291	0.19528	0.55103	0.759
Mof_Si	Si	0.16709	0.80472	0.05103	0.799
Mof_Si	Si	0.36237	0.19528	0.94897	0.748
Mof_Si	Si	0.63763	0.80472	0.44897	0.786
Mof_H 	H 	0.9936	0.1634	0.5824	-0.007
Mof_H 	H 	0.12	0.154	0.5353	0.08
Mof_H 	H 	0.9961	0.149	0.3789	0.09
Mof_H 	H 	0.8691	0.1582	0.4262	-0.017
Mof_H 	H 	0.8051	0.3212	0.634	-0.01
Mof_H 	H 	0.8829	0.4868	0.6538	0.086
Mof_H 	H 	0.0793	0.5356	0.5244	0.084
Mof_H 	H 	0.0016	0.37	0.5046	-0.005
Mof_H 	H 	0.6872	0.0028	0.586	-0.003
Mof_H 	H 	0.6551	0.9036	0.6677	0.064
Mof_H 	H 	0.8611	0.132	0.7592	0.071
Mof_H 	H 	0.8995	0.2288	0.6739	-0.002
Mof_H 	H 	0.6243	0.1092	0.5806	-0.006
Mof_H 	H 	0.4829	0.0908	0.5338	0.073
Mof_H 	H 	0.6391	0.2012	0.3847	0.082
Mof_H 	H 	0.7805	0.2196	0.4316	-0.009
Mof_H 	H 	0.0064	0.8366	0.0824	-0.013
Mof_H 	H 	0.88	0.846	0.0353	0.091
Mof_H 	H 	0.0039	0.851	0.8789	0.101
Mof_H 	H 	0.1309	0.8418	0.9262	-0.023
Mof_H 	H 	0.1949	0.6788	0.134	-0.013
Mof_H 	H 	0.1171	0.5132	0.1538	0.089
Mof_H 	H 	0.9207	0.4644	0.0244	0.086
Mof_H 	H 	0.9984	0.63	0.0046	-0.012
Mof_H 	H 	0.3128	0.9972	0.086	-0.027
Mof_H 	H 	0.3449	0.0964	0.1677	0.1
Mof_H 	H 	0.1389	0.868	0.2592	0.096
Mof_H 	H 	0.1005	0.7712	0.1739	-0.02
Mof_H 	H 	0.3757	0.8908	0.0806	-0.012
Mof_H 	H 	0.5171	0.9092	0.0338	0.086
Mof_H 	H 	0.3609	0.7988	0.8847	0.092
Mof_H 	H 	0.2195	0.7804	0.9316	-0.017
Mof_H 	H 	0.1698	0.1634	0.9176	-0.002
Mof_H 	H 	0.034	0.154	0.9647	0.075
Mof_H 	H 	0.1529	0.149	0.1211	0.084
Mof_H 	H 	0.2891	0.1582	0.0738	-0.01
Mof_H 	H 	0.5161	0.3212	0.866	-0.009
Mof_H 	H 	0.6039	0.4868	0.8462	0.086
Mof_H 	H 	0.4563	0.5356	0.9756	0.086
Mof_H 	H 	0.3684	0.37	0.9954	-0.004
Mof_H 	H 	0.3156	0.0028	0.914	-0.001
Mof_H 	H 	0.2485	0.9036	0.8323	0.063
Mof_H 	H 	0.2709	0.132	0.7408	0.07
Mof_H 	H 	0.3293	0.2288	0.8261	-0.001
Mof_H 	H 	0.4849	0.1092	0.9194	0
Mof_H 	H 	0.6079	0.0908	0.9662	0.067
Mof_H 	H 	0.5621	0.2012	0.1153	0.077
Mof_H 	H 	0.4391	0.2196	0.0684	-0.003
Mof_H 	H 	0.8302	0.8366	0.4176	-0.007
Mof_H 	H 	0.966	0.846	0.4647	0.084
Mof_H 	H 	0.8471	0.851	0.6211	0.094
Mof_H 	H 	0.7109	0.8418	0.5738	-0.016
Mof_H 	H 	0.4839	0.6788	0.366	-0.012
Mof_H 	H 	0.3961	0.5132	0.3462	0.088
Mof_H 	H 	0.5437	0.4644	0.4756	0.086
Mof_H 	H 	0.6316	0.63	0.4954	-0.008
Mof_H 	H 	0.6844	0.9972	0.414	-0.025
Mof_H 	H 	0.7515	0.0964	0.3323	0.1
Mof_H 	H 	0.7291	0.868	0.2408	0.096
Mof_H 	H 	0.6707	0.7712	0.3261	-0.019
Mof_H 	H 	0.5151	0.8908	0.4194	-0.005
Mof_H 	H 	0.3921	0.9092	0.4662	0.08
Mof_H 	H 	0.4379	0.7988	0.6153	0.086
Mof_H 	H 	0.5609	0.7804	0.5684	-0.01
Mof_C 	C 	0.91819	0.16718	0.50907	-0.28
Mof_C 	C 	0.9941	0.1612	0.5408	0.09
Mof_C 	C 	0.0672	0.152	0.5136	-0.107
Mof_C 	C 	0.06171	0.13982	0.45256	0.011
Mof_C 	C 	0.9935	0.149	0.4204	-0.12
Mof_C 	C 	0.9201	0.1582	0.4488	0.11
Mof_C 	C 	0.14499	0.13398	0.4232	0.278
Mof_C 	C 	0.896	0.33	0.56745	-0.262
Mof_C 	C 	0.86076	0.36472	0.61177	0.096
Mof_C 	C 	0.90695	0.4631	0.62353	-0.111
Mof_C 	C 	0.98837	0.52674	0.59096	0.023
Mof_C 	C 	0.02361	0.49202	0.54664	-0.109
Mof_C 	C 	0.97742	0.39364	0.53489	0.093
Mof_C 	C 	0.04603	0.63466	0.604	0.247
Mof_C 	C 	0.80216	0.12432	0.6207	-0.256
Mof_C 	C 	0.72532	0.02824	0.6205	0.048
Mof_C 	C 	0.70411	0.96982	0.6695	-0.046
Mof_C 	C 	0.75529	0.00918	0.72165	-0.039
Mof_C 	C 	0.82709	0.10478	0.7237	-0.076
Mof_C 	C 	0.85016	0.16272	0.6724	0.076
Mof_C 	C 	0.73133	0.94686	0.77545	0.297
Mof_C 	C 	0.71569	0.16614	0.51051	-0.264
Mof_C 	C 	0.62731	0.12786	0.54086	0.085
Mof_C 	C 	0.5433	0.11688	0.51303	-0.096
Mof_C 	C 	0.54767	0.1442	0.45484	-0.009
Mof_C 	C 	0.63605	0.18248	0.42448	-0.097
Mof_C 	C 	0.72005	0.19344	0.45232	0.086
Mof_C 	C 	0.45667	0.13534	0.4262	0.293
Mof_C 	C 	0.08181	0.83282	0.00907	-0.308
Mof_C 	C 	0.0059	0.8388	0.0408	0.116
Mof_C 	C 	0.9328	0.848	0.0136	-0.135
Mof_C 	C 	0.93829	0.86018	0.95256	0.037
Mof_C 	C 	0.0065	0.851	0.9204	-0.14
Mof_C 	C 	0.0799	0.8418	0.9488	0.143
Mof_C 	C 	0.85501	0.86602	0.9232	0.27
Mof_C 	C 	0.104	0.67	0.06745	-0.278
Mof_C 	C 	0.13924	0.63528	0.11177	0.107
Mof_C 	C 	0.09305	0.5369	0.12353	-0.119
Mof_C 	C 	0.01163	0.47326	0.09096	0.03
Mof_C 	C 	0.97639	0.50798	0.04664	-0.12
Mof_C 	C 	0.02258	0.60636	0.03489	0.106
Mof_C 	C 	0.95397	0.36534	0.104	0.244
Mof_C 	C 	0.19784	0.87568	0.1207	-0.308
Mof_C 	C 	0.27468	0.97176	0.1205	0.146
Mof_C 	C 	0.29589	0.03018	0.1695	-0.171
Mof_C 	C 	0.24471	0.99082	0.22165	0.064
Mof_C 	C 	0.17291	0.89522	0.2237	-0.141
Mof_C 	C 	0.14984	0.83728	0.1724	0.132
Mof_C 	C 	0.26867	0.05314	0.27545	0.247
Mof_C 	C 	0.28431	0.83386	0.01051	-0.293
Mof_C 	C 	0.37269	0.87214	0.04086	0.112
Mof_C 	C 	0.4567	0.88312	0.01303	-0.124
Mof_C 	C 	0.45233	0.8558	0.95484	0.019
Mof_C 	C 	0.36395	0.81752	0.92448	-0.119
Mof_C 	C 	0.27995	0.80656	0.95232	0.118
Mof_C 	C 	0.54333	0.86466	0.9262	0.286
Mof_C 	C 	0.24899	0.16718	0.99093	-0.26
Mof_C 	C 	0.1671	0.1612	0.9592	0.076
Mof_C 	C 	0.0848	0.152	0.9864	-0.086
Mof_C 	C 	0.07811	0.13982	0.04744	-0.009
Mof_C 	C 	0.1555	0.149	0.0796	-0.101
Mof_C 	C 	0.2381	0.1582	0.0512	0.086
Mof_C 	C 	0.98899	0.13398	0.0768	0.283
Mof_C 	C 	0.434	0.33	0.93255	-0.259
Mof_C 	C 	0.50396	0.36472	0.88823	0.096
Mof_C 	C 	0.55615	0.4631	0.87647	-0.11
Mof_C 	C 	0.53837	0.52674	0.90904	0.025
Mof_C 	C 	0.46841	0.49202	0.95336	-0.11
Mof_C 	C 	0.41622	0.39364	0.96511	0.094
Mof_C 	C 	0.58863	0.63466	0.896	0.246
Mof_C 	C 	0.32216	0.12432	0.8793	-0.252
Mof_C 	C 	0.30292	0.02824	0.8795	0.046
Mof_C 	C 	0.26571	0.96982	0.8305	-0.044
Mof_C 	C 	0.25389	0.00918	0.77835	-0.04
Mof_C 	C 	0.27769	0.10478	0.7763	-0.075
Mof_C 	C 	0.31256	0.16272	0.8276	0.073
Mof_C 	C 	0.21553	0.94686	0.72455	0.298
Mof_C 	C 	0.45045	0.16614	0.98949	-0.244
Mof_C 	C 	0.50055	0.12786	0.95914	0.068
Mof_C 	C 	0.57358	0.11688	0.98697	-0.074
Mof_C 	C 	0.59653	0.1442	0.04516	-0.028
Mof_C 	C 	0.54643	0.18248	0.07552	-0.081
Mof_C 	C 	0.47339	0.19344	0.04768	0.063
Mof_C 	C 	0.67867	0.13534	0.0738	0.299
Mof_C 	C 	0.75101	0.83282	0.49093	-0.287
Mof_C 	C 	0.8329	0.8388	0.4592	0.098
Mof_C 	C 	0.9152	0.848	0.4864	-0.111
Mof_C 	C 	0.92189	0.86018	0.54744	0.017
Mof_C 	C 	0.8445	0.851	0.5796	-0.122
Mof_C 	C 	0.7619	0.8418	0.5512	0.118
Mof_C 	C 	0.01101	0.86602	0.5768	0.277
Mof_C 	C 	0.566	0.67	0.43255	-0.272
Mof_C 	C 	0.49604	0.63528	0.38823	0.104
Mof_C 	C 	0.44385	0.5369	0.37647	-0.116
Mof_C 	C 	0.46163	0.47326	0.40904	0.028
Mof_C 	C 	0.53159	0.50798	0.45336	-0.116
Mof_C 	C 	0.58378	0.60636	0.46511	0.101
Mof_C 	C 	0.41137	0.36534	0.396	0.246
Mof_C 	C 	0.67784	0.87568	0.3793	-0.303
Mof_C 	C 	0.69708	0.97176	0.3795	0.143
Mof_C 	C 	0.73429	0.03018	0.3305	-0.17
Mof_C 	C 	0.74611	0.99082	0.27835	0.062
Mof_C 	C 	0.72231	0.89522	0.2763	-0.139
Mof_C 	C 	0.68744	0.83728	0.3276	0.129
Mof_C 	C 	0.78447	0.05314	0.22455	0.248
Mof_C 	C 	0.54955	0.83386	0.48949	-0.272
Mof_C 	C 	0.49945	0.87214	0.45914	0.094
Mof_C 	C 	0.42642	0.88312	0.48697	-0.1
Mof_C 	C 	0.40347	0.8558	0.54516	-0.002
Mof_C 	C 	0.45357	0.81752	0.57552	-0.101
Mof_C 	C 	0.52661	0.80656	0.54768	0.094
Mof_C 	C 	0.32133	0.86466	0.5738	0.292
Mof_O 	O 	0.18772	0.09644	0.4501	-0.283
Mof_O 	O 	0.17398	0.17154	0.37364	-0.25
Mof_O 	O 	0.0875	0.6936	0.5618	-0.235
Mof_O 	O 	0.04473	0.66106	0.656	-0.228
Mof_O 	O 	0.7557	0.9866	0.82456	-0.252
Mof_O 	O 	0.687	0.8574	0.7698	-0.251
Mof_O 	O 	0.46729	0.17178	0.37523	-0.256
Mof_O 	O 	0.3766	0.0998	0.45011	-0.297
Mof_O 	O 	0.81228	0.90356	0.9501	-0.271
Mof_O 	O 	0.82602	0.82846	0.87364	-0.245
Mof_O 	O 	0.9125	0.3064	0.0618	-0.236
Mof_O 	O 	0.95527	0.33894	0.156	-0.229
Mof_O 	O 	0.2443	0.0134	0.32456	-0.251
Mof_O 	O 	0.313	0.1426	0.2698	-0.241
Mof_O 	O 	0.53271	0.82822	0.87523	-0.251
Mof_O 	O 	0.6234	0.9002	0.95011	-0.285
Mof_O 	O 	0.90872	0.09644	0.0499	-0.286
Mof_O 	O 	0.99756	0.17154	0.12636	-0.251
Mof_O 	O 	0.6061	0.6936	0.9382	-0.234
Mof_O 	O 	0.61633	0.66106	0.844	-0.228
Mof_O 	O 	0.2309	0.9866	0.67544	-0.253
Mof_O 	O 	0.1704	0.8574	0.7302	-0.25
Mof_O 	O 	0.70449	0.17178	0.12477	-0.257
Mof_O 	O 	0.7232	0.0998	0.04989	-0.3
Mof_O 	O 	0.09128	0.90356	0.5499	-0.276
Mof_O 	O 	0.00244	0.82846	0.62636	-0.247
Mof_O 	O 	0.3939	0.3064	0.4382	-0.235
Mof_O 	O 	0.38367	0.33894	0.344	-0.229
Mof_O 	O 	0.7691	0.0134	0.17544	-0.251
Mof_O 	O 	0.8296	0.1426	0.2302	-0.241
Mof_O 	O 	0.29551	0.82822	0.62477	-0.253
Mof_O 	O 	0.2768	0.9002	0.54989	-0.291
_end
