data_functionalizedCrystal
_audit_creation_method	'EQeq! by Chris Wilmer'
_symmetry_space_group_name_H-M	'P1'
_symmetry_Int_Tables_number	1
_symmetry_cell_setting	triclinic
loop_
_symmetry_equiv_pos_as_xyz
  x,y,z
_cell_length_a	9.1671
_cell_length_b	15.52
_cell_length_c	22.199
_cell_angle_alpha	102.89
_cell_angle_beta	101.79
_cell_angle_gamma	104.14
loop_
_atom_site_label
_atom_site_type_symbol
_atom_site_fract_x
_atom_site_fract_y
_atom_site_fract_z
_atom_site_charge
Mof_Ho	Ho	0.51675	0.86169	0.80353	2.055
Mof_Ho	Ho	0.02993	0.91146	0.85606	1.999
Mof_C 	C 	0.1709	0.8762	0.7252	0.509
Mof_C 	C 	0.0903	0.8756	0.6595	-0.181
Mof_C 	C 	0.9265	0.8513	0.6381	0.115
Mof_H 	H 	0.8675	0.8349	0.6656	-0.007
Mof_C 	C 	0.8514	0.851	0.5781	-0.18
Mof_H 	H 	0.7427	0.834	0.5653	0.104
Mof_C 	C 	0.9375	0.8762	0.5356	0.137
Mof_C 	C 	0.0952	0.8991	0.5561	0.07
Mof_C 	C 	0.1766	0.9012	0.6177	0.001
Mof_H 	H 	0.2854	0.9193	0.6304	0.048
Mof_C 	C 	0.7079	0.8504	0.4517	-0.327
Mof_H 	H 	0.6673	0.7879	0.4532	0.159
Mof_H 	H 	0.6662	0.8905	0.478	0.162
Mof_H 	H 	0.6782	0.8527	0.4082	0.16
Mof_C 	C 	0.2196	0.8972	0.4013	0.014
Mof_C 	C 	0.0756	0.8836	0.3614	-0.108
Mof_H 	H 	0.9852	0.8497	0.3685	0.095
Mof_C 	C 	0.0672	0.9214	0.3098	0.087
Mof_H 	H 	0.9698	0.9159	0.284	0.018
Mof_C 	C 	0.1972	0.9654	0.2968	-0.186
Mof_C 	C 	0.3449	0.9774	0.3373	0.074
Mof_H 	H 	0.4358	0.008	0.3288	0.008
Mof_C 	C 	0.3527	0.9425	0.3905	-0.102
Mof_H 	H 	0.4492	0.9505	0.4181	0.087
Mof_C 	C 	0.1914	0.0058	0.2398	0.539
Mof_C 	C 	0.2128	0.7462	0.8558	0.526
Mof_C 	C 	0.1813	0.6536	0.8689	-0.196
Mof_C 	C 	0.0601	0.6247	0.8962	0.092
Mof_H 	H 	0.0025	0.6647	0.9067	0.009
Mof_C 	C 	0.0224	0.5409	0.908	-0.117
Mof_H 	H 	0.9461	0.5254	0.9289	0.096
Mof_C 	C 	0.1025	0.4788	0.8874	0.014
Mof_C 	C 	0.222	0.5052	0.8602	-0.106
Mof_H 	H 	0.2764	0.4642	0.8475	0.096
Mof_C 	C 	0.261	0.5925	0.8519	0.086
Mof_H 	H 	0.3434	0.6102	0.8343	0.02
Mof_C 	C 	0.2618	0.3295	0.9802	0.09
Mof_C 	C 	0.2119	0.2678	0.0118	-0.034
Mof_H 	H 	0.1155	0.2612	0.0207	0.062
Mof_C 	C 	0.3036	0.2145	0.0311	-0.164
Mof_C 	C 	0.443	0.2235	0.0165	0.1
Mof_H 	H 	0.503	0.1865	0.0283	-0.004
Mof_C 	C 	0.497	0.2856	0.9849	-0.17
Mof_H 	H 	0.5927	0.2902	0.9758	0.103
Mof_C 	C 	0.4087	0.3425	0.9661	0.123
Mof_C 	C 	0.2425	0.1528	0.0692	0.474
Mof_C 	C 	0.597	0.4222	0.9233	-0.327
Mof_H 	H 	0.6736	0.4666	0.9605	0.165
Mof_H 	H 	0.6246	0.3657	0.9143	0.157
Mof_H 	H 	0.5942	0.4465	0.8871	0.161
Mof_C 	C 	0.7046	0.7296	0.7901	0.419
Mof_C 	C 	0.7543	0.6454	0.7731	-0.118
Mof_C 	C 	0.6763	0.5645	0.7849	-0.052
Mof_H 	H 	0.5958	0.5643	0.8046	0.076
Mof_C 	C 	0.7177	0.4848	0.7678	0.107
Mof_C 	C 	0.8408	0.4826	0.7381	0.107
Mof_C 	C 	0.9166	0.5628	0.7258	-0.14
Mof_H 	H 	0.9968	0.5628	0.706	0.083
Mof_C 	C 	0.8753	0.6431	0.7426	0.051
Mof_H 	H 	0.9275	0.6962	0.7336	0.019
Mof_C 	C 	0.9899	0.3958	0.6938	-0.294
Mof_H 	H 	0.9613	0.4106	0.6541	0.142
Mof_H 	H 	0.0888	0.4388	0.7199	0.14
Mof_H 	H 	0.998	0.3339	0.6848	0.152
Mof_C 	C 	0.4486	0.2519	0.765	-0.002
Mof_C 	C 	0.3259	0.2345	0.7914	-0.103
Mof_H 	H 	0.2566	0.2693	0.7896	0.099
Mof_C 	C 	0.3058	0.1632	0.8212	0.087
Mof_H 	H 	0.2218	0.1493	0.8386	0.015
Mof_C 	C 	0.4115	0.1147	0.8244	-0.188
Mof_C 	C 	0.53	0.13	0.795	0.079
Mof_H 	H 	0.5954	0.0927	0.795	0.018
Mof_C 	C 	0.5539	0.2009	0.7652	-0.094
Mof_H 	H 	0.6358	0.2132	0.7464	0.09
Mof_C 	C 	0.391	0.0386	0.8554	0.495
Mof_O 	O 	0.0897	0.8578	0.7625	-0.53
Mof_O 	O 	0.3164	0.8923	0.738	-0.548
Mof_O 	O 	0.8778	0.8807	0.4755	-0.121
Mof_O 	O 	0.1882	0.9293	0.5162	-0.228
Mof_O 	O 	0.1083	0.7661	0.4525	-0.243
Mof_O 	O 	0.3866	0.8555	0.4941	-0.257
Mof_O 	O 	0.0598	0.0042	0.2101	-0.54
Mof_O 	O 	0.3164	0.0363	0.2275	-0.596
Mof_O 	O 	0.1383	0.7995	0.8765	-0.544
Mof_O 	O 	0.3148	0.7661	0.8271	-0.545
Mof_O 	O 	0.9036	0.3493	0.9139	-0.245
Mof_O 	O 	0.0803	0.3021	0.8537	-0.248
Mof_O 	O 	0.1817	0.3932	0.9686	-0.247
Mof_O 	O 	0.4989	0.0007	0.8645	-0.496
Mof_O 	O 	0.2688	0.0161	0.873	-0.547
Mof_O 	O 	0.1086	0.1429	0.076	-0.549
Mof_O 	O 	0.3336	0.1126	0.0942	-0.543
Mof_O 	O 	0.3644	0.3898	0.7372	-0.259
Mof_O 	O 	0.6413	0.405	0.7817	-0.246
Mof_O 	O 	0.5729	0.7197	0.8004	-0.487
Mof_O 	O 	0.4481	0.4039	0.9351	-0.13
Mof_O 	O 	0.7898	0.806	0.7906	-0.561
Mof_O 	O 	0.8736	0.4016	0.7269	-0.122
Mof_O 	O 	0.5043	0.3164	0.6696	-0.248
Mof_S 	S 	0.2297	0.8508	0.46788	0.424
Mof_S 	S 	0.053	0.3694	0.90081	0.423
Mof_S 	S 	0.4785	0.3435	0.73025	0.436
Mof_Ho	Ho	0.48325	0.13831	0.19647	2.056
Mof_Ho	Ho	0.97007	0.08854	0.14394	2
Mof_C 	C 	0.8291	0.1238	0.2748	0.51
Mof_C 	C 	0.9097	0.1244	0.3405	-0.18
Mof_C 	C 	0.0735	0.1487	0.3619	0.116
Mof_H 	H 	0.1325	0.1651	0.3344	-0.006
Mof_C 	C 	0.1486	0.149	0.4219	-0.18
Mof_H 	H 	0.2573	0.166	0.4347	0.104
Mof_C 	C 	0.0625	0.1238	0.4644	0.137
Mof_C 	C 	0.9048	0.1009	0.4439	0.07
Mof_C 	C 	0.8234	0.0988	0.3823	0.001
Mof_H 	H 	0.7146	0.0807	0.3696	0.048
Mof_C 	C 	0.2921	0.1496	0.5483	-0.327
Mof_H 	H 	0.3327	0.2121	0.5468	0.159
Mof_H 	H 	0.3338	0.1095	0.522	0.162
Mof_H 	H 	0.3218	0.1473	0.5918	0.16
Mof_C 	C 	0.7804	0.1028	0.5987	0.014
Mof_C 	C 	0.9244	0.1164	0.6386	-0.108
Mof_H 	H 	0.0148	0.1503	0.6315	0.095
Mof_C 	C 	0.9328	0.0786	0.6902	0.087
Mof_H 	H 	0.0302	0.0841	0.716	0.018
Mof_C 	C 	0.8028	0.0346	0.7032	-0.186
Mof_C 	C 	0.6551	0.0226	0.6627	0.074
Mof_H 	H 	0.5642	0.992	0.6712	0.008
Mof_C 	C 	0.6473	0.0575	0.6095	-0.102
Mof_H 	H 	0.5508	0.0495	0.5819	0.087
Mof_C 	C 	0.8086	0.9942	0.7602	0.539
Mof_C 	C 	0.7872	0.2538	0.1442	0.526
Mof_C 	C 	0.8187	0.3464	0.1311	-0.196
Mof_C 	C 	0.9399	0.3753	0.1038	0.092
Mof_H 	H 	0.9975	0.3353	0.0933	0.009
Mof_C 	C 	0.9776	0.4591	0.092	-0.117
Mof_H 	H 	0.0539	0.4746	0.0711	0.096
Mof_C 	C 	0.8975	0.5212	0.1126	0.014
Mof_C 	C 	0.778	0.4948	0.1398	-0.106
Mof_H 	H 	0.7236	0.5358	0.1525	0.096
Mof_C 	C 	0.739	0.4075	0.1481	0.086
Mof_H 	H 	0.6566	0.3898	0.1657	0.02
Mof_C 	C 	0.7382	0.6705	0.0198	0.09
Mof_C 	C 	0.7881	0.7322	0.9882	-0.034
Mof_H 	H 	0.8845	0.7388	0.9793	0.062
Mof_C 	C 	0.6964	0.7855	0.9689	-0.164
Mof_C 	C 	0.557	0.7765	0.9835	0.1
Mof_H 	H 	0.497	0.8135	0.9717	-0.004
Mof_C 	C 	0.503	0.7144	0.0151	-0.17
Mof_H 	H 	0.4073	0.7098	0.0242	0.103
Mof_C 	C 	0.5913	0.6575	0.0339	0.123
Mof_C 	C 	0.7575	0.8472	0.9308	0.474
Mof_C 	C 	0.403	0.5778	0.0767	-0.327
Mof_H 	H 	0.3264	0.5334	0.0395	0.165
Mof_H 	H 	0.3754	0.6343	0.0857	0.157
Mof_H 	H 	0.4058	0.5535	0.1129	0.161
Mof_C 	C 	0.2954	0.2704	0.2099	0.419
Mof_C 	C 	0.2457	0.3546	0.2269	-0.118
Mof_C 	C 	0.3237	0.4355	0.2151	-0.052
Mof_H 	H 	0.4042	0.4357	0.1954	0.076
Mof_C 	C 	0.2823	0.5152	0.2322	0.107
Mof_C 	C 	0.1592	0.5174	0.2619	0.107
Mof_C 	C 	0.0834	0.4372	0.2742	-0.14
Mof_H 	H 	0.0032	0.4372	0.294	0.083
Mof_C 	C 	0.1247	0.3569	0.2574	0.051
Mof_H 	H 	0.0725	0.3038	0.2664	0.019
Mof_C 	C 	0.0101	0.6042	0.3062	-0.294
Mof_H 	H 	0.0387	0.5894	0.3459	0.142
Mof_H 	H 	0.9112	0.5612	0.2801	0.14
Mof_H 	H 	0.002	0.6661	0.3152	0.152
Mof_C 	C 	0.5514	0.7481	0.235	-0.002
Mof_C 	C 	0.6741	0.7655	0.2086	-0.103
Mof_H 	H 	0.7434	0.7307	0.2104	0.099
Mof_C 	C 	0.6942	0.8368	0.1788	0.087
Mof_H 	H 	0.7782	0.8507	0.1614	0.015
Mof_C 	C 	0.5885	0.8853	0.1756	-0.188
Mof_C 	C 	0.47	0.87	0.205	0.079
Mof_H 	H 	0.4046	0.9073	0.205	0.018
Mof_C 	C 	0.4461	0.7991	0.2348	-0.094
Mof_H 	H 	0.3642	0.7868	0.2536	0.09
Mof_C 	C 	0.609	0.9614	0.1446	0.495
Mof_O 	O 	0.9103	0.1422	0.2375	-0.53
Mof_O 	O 	0.6836	0.1077	0.262	-0.548
Mof_O 	O 	0.1222	0.1193	0.5245	-0.121
Mof_O 	O 	0.8118	0.0707	0.4838	-0.228
Mof_O 	O 	0.8917	0.2339	0.5475	-0.243
Mof_O 	O 	0.6134	0.1445	0.5059	-0.257
Mof_O 	O 	0.9402	0.9958	0.7899	-0.54
Mof_O 	O 	0.6836	0.9637	0.7725	-0.596
Mof_O 	O 	0.8617	0.2005	0.1235	-0.544
Mof_O 	O 	0.6852	0.2339	0.1729	-0.545
Mof_O 	O 	0.0964	0.6507	0.0861	-0.245
Mof_O 	O 	0.9197	0.6979	0.1463	-0.248
Mof_O 	O 	0.8183	0.6068	0.0314	-0.247
Mof_O 	O 	0.5011	0.9993	0.1355	-0.496
Mof_O 	O 	0.7312	0.9839	0.127	-0.547
Mof_O 	O 	0.8914	0.8571	0.924	-0.549
Mof_O 	O 	0.6664	0.8874	0.9058	-0.543
Mof_O 	O 	0.6356	0.6102	0.2628	-0.259
Mof_O 	O 	0.3587	0.595	0.2183	-0.246
Mof_O 	O 	0.4271	0.2803	0.1996	-0.487
Mof_O 	O 	0.5519	0.5961	0.0649	-0.13
Mof_O 	O 	0.2102	0.194	0.2094	-0.561
Mof_O 	O 	0.1264	0.5984	0.2731	-0.122
Mof_O 	O 	0.4957	0.6836	0.3304	-0.248
Mof_S 	S 	0.7703	0.1492	0.53212	0.424
Mof_S 	S 	0.947	0.6306	0.09919	0.423
Mof_S 	S 	0.5215	0.6565	0.26975	0.436
_end
