data_functionalizedCrystal
_audit_creation_method	'EQeq! by Chris Wilmer'
_symmetry_space_group_name_H-M	'P1'
_symmetry_Int_Tables_number	1
_symmetry_cell_setting	triclinic
loop_
_symmetry_equiv_pos_as_xyz
  x,y,z
_cell_length_a	7.4362
_cell_length_b	9.3446
_cell_length_c	10.2711
_cell_angle_alpha	90
_cell_angle_beta	111.223
_cell_angle_gamma	90
loop_
_atom_site_label
_atom_site_type_symbol
_atom_site_fract_x
_atom_site_fract_y
_atom_site_fract_z
_atom_site_charge
Mof_V 	V 	0.53528	0.25	0.48222	1.807
Mof_V 	V 	0.46472	0.75	0.51778	1.807
Mof_V 	V 	0.94694	0.25	0.48222	1.804
Mof_V 	V 	0.05306	0.75	0.51778	1.804
Mof_P 	P 	0.81948	0.51552	0.63896	0.429
Mof_P 	P 	0.18052	0.01552	0.36104	0.434
Mof_P 	P 	0.81948	0.98448	0.63896	0.434
Mof_P 	P 	0.18052	0.48448	0.36104	0.429
Mof_H 	H 	0.8004	0.3737	0.8154	0.017
Mof_H 	H 	0.8547	0.6019	0.9248	-0.036
Mof_H 	H 	0.1996	0.8737	0.1846	0.021
Mof_H 	H 	0.1453	0.1019	0.0752	-0.039
Mof_H 	H 	0.015	0.1263	0.8154	0.021
Mof_H 	H 	0.0701	0.8981	0.9248	-0.047
Mof_H 	H 	0.985	0.6263	0.1846	0.015
Mof_H 	H 	0.9299	0.3981	0.0752	-0.041
Mof_H 	H 	0.1996	0.6263	0.1846	0.017
Mof_H 	H 	0.1453	0.3981	0.0752	-0.036
Mof_H 	H 	0.8004	0.1263	0.8154	0.021
Mof_H 	H 	0.8547	0.8981	0.9248	-0.039
Mof_H 	H 	0.985	0.8737	0.1846	0.021
Mof_H 	H 	0.9299	0.1019	0.0752	-0.047
Mof_H 	H 	0.015	0.3737	0.8154	0.015
Mof_H 	H 	0.0701	0.6019	0.9248	-0.041
Mof_H 	H 	0.37	0.807	0.74	3.021
Mof_H 	H 	0.63	0.307	0.26	3.021
Mof_H 	H 	0.37	0.693	0.74	3.021
Mof_H 	H 	0.63	0.193	0.26	3.021
Mof_C 	C 	0.90379	0.4359	0.80758	-0.265
Mof_C 	C 	0.96515	0.5399	0.9303	-0.018
Mof_C 	C 	0.09621	0.9359	0.19242	-0.278
Mof_C 	C 	0.03485	0.0399	0.0697	-0.009
Mof_C 	C 	0.90379	0.0641	0.80758	-0.278
Mof_C 	C 	0.96515	0.9601	0.9303	-0.009
Mof_C 	C 	0.09621	0.5641	0.19242	-0.265
Mof_C 	C 	0.03485	0.4601	0.0697	-0.018
Mof_O 	O 	0.63988	0.60042	0.62456	-0.571
Mof_O 	O 	0.36012	0.10042	0.37544	-0.572
Mof_O 	O 	0.98468	0.89958	0.62456	-0.57
Mof_O 	O 	0.01532	0.39958	0.37544	-0.571
Mof_O 	O 	0.36012	0.39958	0.37544	-0.571
Mof_O 	O 	0.63988	0.89958	0.62456	-0.572
Mof_O 	O 	0.01532	0.10042	0.37544	-0.57
Mof_O 	O 	0.98468	0.60042	0.62456	-0.571
Mof_O 	O 	0.76533	0.3901	0.53066	-0.606
Mof_O 	O 	0.23467	0.8901	0.46934	-0.609
Mof_O 	O 	0.76533	0.1099	0.53066	-0.609
Mof_O 	O 	0.23467	0.6099	0.46934	-0.606
Mof_O 	O 	0.3486	0.75	0.6972	-6.358
Mof_O 	O 	0.6514	0.25	0.3028	-6.358
_end
