# CIF file generated by openbabel 3.1.0, see https://openbabel.org
data_I
_chemical_name_common 'image0'
_cell_length_a 10.2292
_cell_length_b 24.7002
_cell_length_c 11.4243
_cell_angle_alpha 90
_cell_angle_beta 90.087
_cell_angle_gamma 90
_space_group_name_H-M_alt 'P 1'
_space_group_name_Hall 'P 1'
loop_
    _symmetry_equiv_pos_as_xyz
    x,y,z
loop_
    _atom_site_label
    _atom_site_type_symbol
    _atom_site_fract_x
    _atom_site_fract_y
    _atom_site_fract_z
    _atom_site_occupancy
    Co1      Co       0.95568    0.18183    0.07918    1.000
    Co2      Co       0.45687    0.26113    0.05656    1.000
    O1       O        0.76880    0.21420    0.07500    1.000
    O2       O        0.26870    0.22830    0.06420    1.000
    O3       O        0.64650    0.28800    0.05550    1.000
    O4       O        0.14510    0.15560    0.08140    1.000
    N1       N        0.95670    0.17610    0.26760    1.000
    N2       N        0.95710    0.17790    0.88720    1.000
    N3       N        0.46000    0.26400    0.86500    1.000
    C1       C        0.84910    0.18380    0.82890    1.000
    H1       H        0.77060    0.19010    0.87100    1.000
    N4       N        0.46300    0.26860    0.24400    1.000
    C2       C        0.25170    0.17940    0.07370    1.000
    N5       N        0.37580    0.34080    0.04160    1.000
    C3       C        0.35630    0.25250    0.80370    1.000
    H2       H        0.28110    0.24000    0.84420    1.000
    O5       O        0.98690    0.26920    0.09090    1.000
    H3       H        0.03500    0.28300    0.14600    1.000
    C4       C        0.95370    0.17100    0.51180    1.000
    N6       N        0.12310    0.60180    0.92740    1.000
    C5       C        0.34870    0.25740    0.68350    1.000
    H4       H        0.26810    0.25090    0.64450    1.000
    O6       O        0.48640    0.17360    0.05080    1.000
    H5       H        0.50600    0.17000    0.97600    1.000
    C6       C        0.06510    0.18110    0.33280    1.000
    H6       H        0.14530    0.18720    0.29320    1.000
    C7       C        0.95560    0.17140    0.64120    1.000
    C8       C        0.84350    0.18140    0.70830    1.000
    H7       H        0.76200    0.18660    0.66990    1.000
    C9       C        0.57630    0.26790    0.43060    1.000
    H8       H        0.65710    0.26630    0.47160    1.000
    C10      C        0.56310    0.28320    0.80780    1.000
    H9       H        0.63760    0.29450    0.85120    1.000
    C11      C        0.06270    0.16290    0.82700    1.000
    H10      H        0.14020    0.15440    0.86910    1.000
    C12      C        0.06830    0.17800    0.45090    1.000
    H11      H        0.14910    0.18080    0.49160    1.000
    C13      C        0.45900    0.27180    0.61960    1.000
    C14      C        0.84210    0.16320    0.44920    1.000
    H12      H        0.76220    0.15550    0.48790    1.000
    C15      C        0.46060    0.27290    0.48980    1.000
    C16      C        0.75420    0.26540    0.06680    1.000
    C17      C        0.56530    0.28730    0.68350    1.000
    H13      H        0.64090    0.30080    0.64510    1.000
    C18      C        0.57270    0.26530    0.31090    1.000
    H14      H        0.65360    0.26080    0.27140    1.000
    C19      C        0.84640    0.16670    0.33040    1.000
    H15      H        0.76680    0.16230    0.28860    1.000
    C20      C        0.06500    0.15910    0.70790    1.000
    H16      H        0.14290    0.14790    0.66990    1.000
    C21      C        0.37300    0.14260    0.07550    1.000
    H17      H        0.36270    0.11480    0.01250    1.000
    C22      C        0.27700    0.44320    0.99000    1.000
    C23      C        0.87510    0.30150    0.07230    1.000
    H18      H        0.86560    0.32680    0.14010    1.000
    C24      C        0.35240    0.27650    0.30380    1.000
    H19      H        0.27320    0.28060    0.26120    1.000
    C25      C        0.24770    0.59250    0.93770    1.000
    H20      H        0.30580    0.62230    0.93060    1.000
    C26      C        0.25260    0.34940    0.02160    1.000
    H21      H        0.19540    0.31910    0.02430    1.000
    C27      C        0.45240    0.38250    0.03400    1.000
    H22      H        0.54360    0.37760    0.04580    1.000
    C28      C        0.22350    0.49840    0.96360    1.000
    C29      C        0.88200    0.33490    0.96030    1.000
    C30      C        0.34770    0.27910    0.42370    1.000
    H23      H        0.26650    0.28520    0.46170    1.000
    C31      C        0.40520    0.43460    0.00900    1.000
    H24      H        0.46450    0.46410    0.00580    1.000
    C32      C        0.19880    0.39920    0.99680    1.000
    H25      H        0.10730    0.40260    0.98460    1.000
    C33      C        0.05240    0.55900    0.92700    1.000
    H26      H        0.96120    0.56350    0.91480    1.000
    C34      C        0.38170    0.11360    0.19180    1.000
    C35      C        0.37100    0.06830    0.41800    1.000
    H27      H        0.37180    0.05210    0.49300    1.000
    C36      C        0.45580    0.13530    0.28100    1.000
    H28      H        0.51180    0.16530    0.26760    1.000
    C37      C        0.30130    0.54190    0.95840    1.000
    H29      H        0.39300    0.53800    0.96890    1.000
    C38      C        0.09630    0.50750    0.94400    1.000
    H30      H        0.03670    0.47800    0.94110    1.000
    C39      C        0.94920    0.31660    0.86490    1.000
    H31      H        0.99740    0.28370    0.86780    1.000
    C40      C        0.30180    0.06970    0.21970    1.000
    H32      H        0.25030    0.05380    0.15950    1.000
    C41      C        0.81130    0.41530    0.85700    1.000
    H33      H        0.76590    0.44890    0.85620    1.000
    C42      C        0.94500    0.34930    0.75780    1.000
    H34      H        0.98890    0.33840    0.68870    1.000
    C43      C        0.81680    0.38370    0.95700    1.000
    H35      H        0.77410    0.39610    0.02570    1.000
    C44      C        0.87200    0.39670    0.76200    1.000
    H36      H        0.86590    0.41750    0.69230    1.000
    C45      C        0.44600    0.11150    0.39290    1.000
    H37      H        0.49510    0.12710    0.45490    1.000
    C46      C        0.29500    0.04880    0.32880    1.000
    H38      H        0.23550    0.02010    0.34420    1.000
    Co3      Co       0.04432    0.68183    0.92082    1.000
    Co4      Co       0.54313    0.76113    0.94344    1.000
    O7       O        0.23120    0.71420    0.92500    1.000
    O8       O        0.73130    0.72830    0.93580    1.000
    O9       O        0.35350    0.78800    0.94450    1.000
    O10      O        0.85490    0.65560    0.91860    1.000
    N7       N        0.04330    0.67610    0.73240    1.000
    N8       N        0.04290    0.67790    0.11280    1.000
    N9       N        0.54000    0.76400    0.13500    1.000
    C47      C        0.15090    0.68380    0.17110    1.000
    H39      H        0.22940    0.69010    0.12900    1.000
    N10      N        0.53700    0.76860    0.75600    1.000
    C48      C        0.74830    0.67940    0.92630    1.000
    N11      N        0.62420    0.84080    0.95840    1.000
    C49      C        0.64370    0.75250    0.19630    1.000
    H40      H        0.71890    0.74000    0.15580    1.000
    O11      O        0.01310    0.76920    0.90910    1.000
    H41      H        0.96500    0.78300    0.85400    1.000
    C50      C        0.04630    0.67100    0.48820    1.000
    N12      N        0.87690    0.10180    0.07260    1.000
    C51      C        0.65130    0.75740    0.31650    1.000
    H42      H        0.73190    0.75090    0.35550    1.000
    O12      O        0.51360    0.67360    0.94920    1.000
    H43      H        0.49400    0.67000    0.02400    1.000
    C52      C        0.93490    0.68110    0.66720    1.000
    H44      H        0.85470    0.68720    0.70680    1.000
    C53      C        0.04440    0.67140    0.35880    1.000
    C54      C        0.15650    0.68140    0.29170    1.000
    H45      H        0.23800    0.68660    0.33010    1.000
    C55      C        0.42370    0.76790    0.56940    1.000
    H46      H        0.34290    0.76630    0.52840    1.000
    C56      C        0.43690    0.78320    0.19220    1.000
    H47      H        0.36240    0.79450    0.14880    1.000
    C57      C        0.93730    0.66290    0.17300    1.000
    H48      H        0.85980    0.65440    0.13090    1.000
    C58      C        0.93170    0.67800    0.54910    1.000
    H49      H        0.85090    0.68080    0.50840    1.000
    C59      C        0.54100    0.77180    0.38040    1.000
    C60      C        0.15790    0.66320    0.55080    1.000
    H50      H        0.23780    0.65550    0.51210    1.000
    C61      C        0.53940    0.77290    0.51020    1.000
    C62      C        0.24580    0.76540    0.93320    1.000
    C63      C        0.43470    0.78730    0.31650    1.000
    H51      H        0.35910    0.80080    0.35490    1.000
    C64      C        0.42730    0.76530    0.68910    1.000
    H52      H        0.34640    0.76080    0.72860    1.000
    C65      C        0.15360    0.66670    0.66960    1.000
    H53      H        0.23320    0.66230    0.71140    1.000
    C66      C        0.93500    0.65910    0.29210    1.000
    H54      H        0.85710    0.64790    0.33010    1.000
    C67      C        0.62700    0.64260    0.92450    1.000
    H55      H        0.63730    0.61480    0.98750    1.000
    C68      C        0.72300    0.94320    0.01000    1.000
    C69      C        0.12490    0.80150    0.92770    1.000
    H56      H        0.13440    0.82680    0.85990    1.000
    C70      C        0.64760    0.77650    0.69620    1.000
    H57      H        0.72680    0.78060    0.73880    1.000
    C71      C        0.75230    0.09250    0.06230    1.000
    H58      H        0.69420    0.12230    0.06940    1.000
    C72      C        0.74740    0.84940    0.97840    1.000
    H59      H        0.80460    0.81910    0.97570    1.000
    C73      C        0.54760    0.88250    0.96600    1.000
    H60      H        0.45640    0.87760    0.95420    1.000
    C74      C        0.77650    0.99840    0.03640    1.000
    C75      C        0.11800    0.83490    0.03970    1.000
    C76      C        0.65230    0.77910    0.57630    1.000
    H61      H        0.73350    0.78520    0.53830    1.000
    C77      C        0.59480    0.93460    0.99100    1.000
    H62      H        0.53550    0.96410    0.99420    1.000
    C78      C        0.80120    0.89920    0.00320    1.000
    H63      H        0.89270    0.90260    0.01540    1.000
    C79      C        0.94760    0.05900    0.07300    1.000
    H64      H        0.03880    0.06350    0.08520    1.000
    C80      C        0.61830    0.61360    0.80820    1.000
    C81      C        0.62900    0.56830    0.58200    1.000
    H65      H        0.62820    0.55210    0.50700    1.000
    C82      C        0.54420    0.63530    0.71900    1.000
    H66      H        0.48820    0.66530    0.73240    1.000
    C83      C        0.69870    0.04190    0.04160    1.000
    H67      H        0.60700    0.03800    0.03110    1.000
    C84      C        0.90370    0.00750    0.05600    1.000
    H68      H        0.96330    0.97800    0.05890    1.000
    C85      C        0.05080    0.81660    0.13510    1.000
    H69      H        0.00260    0.78370    0.13220    1.000
    C86      C        0.69820    0.56970    0.78030    1.000
    H70      H        0.74970    0.55380    0.84050    1.000
    C87      C        0.18870    0.91530    0.14300    1.000
    H71      H        0.23410    0.94890    0.14380    1.000
    C88      C        0.05500    0.84930    0.24220    1.000
    H72      H        0.01110    0.83840    0.31130    1.000
    C89      C        0.18320    0.88370    0.04300    1.000
    H73      H        0.22590    0.89610    0.97430    1.000
    C90      C        0.12800    0.89670    0.23800    1.000
    H74      H        0.13410    0.91750    0.30770    1.000
    C91      C        0.55400    0.61150    0.60710    1.000
    H75      H        0.50490    0.62710    0.54510    1.000
    C92      C        0.70500    0.54880    0.67120    1.000
    H76      H        0.76450    0.52010    0.65580    1.000
