data_functionalizedCrystal
_audit_creation_method	'EQeq! by Chris Wilmer'
_symmetry_space_group_name_H-M	'P1'
_symmetry_Int_Tables_number	1
_symmetry_cell_setting	triclinic
loop_
_symmetry_equiv_pos_as_xyz
  x,y,z
_cell_length_a	18.8058
_cell_length_b	18.8058
_cell_length_c	18.8058
_cell_angle_alpha	60
_cell_angle_beta	60
_cell_angle_gamma	60
loop_
_atom_site_label
_atom_site_type_symbol
_atom_site_fract_x
_atom_site_fract_y
_atom_site_fract_z
_atom_site_charge
Mof_Ca	Ca	-0	0	-0	0.683
Mof_Ca	Ca	0.5	0.5	-0	1.306
Mof_Ca	Ca	0.5	2.41741e-17	0.5	1.305
Mof_Ca	Ca	0.5	0	-0	0.997
Mof_Ca	Ca	4.83481e-17	2.41741e-17	0.5	0.988
Mof_Ca	Ca	0.5	0.5	0.5	1.609
Mof_Ca	Ca	-0	0.5	-0	0.989
Mof_Ca	Ca	7.25222e-17	0.5	0.5	1.297
Mof_Gd	Gd	0.75	0.25	0.25	1.912
Mof_Gd	Gd	0.75	0.25	0.75	1.926
Mof_Gd	Gd	0.75	0.75	0.25	1.926
Mof_Gd	Gd	0.25	0.25	0.25	1.897
Mof_Gd	Gd	0.25	0.75	0.75	1.924
Mof_Gd	Gd	0.25	0.75	0.25	1.91
Mof_Gd	Gd	0.25	0.25	0.75	1.91
Mof_Gd	Gd	0.75	0.75	0.75	1.937
Mof_H 	H 	0.9837	0.1569	0.0805	0.116
Mof_H 	H 	0.9223	0.2081	0.0243	0.094
Mof_H 	H 	0.6569	0.4837	0.7789	0.112
Mof_H 	H 	0.7081	0.4223	0.8453	0.131
Mof_H 	H 	0.5805	0.7789	0.4837	0.11
Mof_H 	H 	0.5243	0.8453	0.4223	0.126
Mof_H 	H 	0.2789	0.0805	0.1569	0.037
Mof_H 	H 	0.3453	0.0243	0.2081	0.041
Mof_H 	H 	0.9837	0.0805	0.7789	0.136
Mof_H 	H 	0.9223	0.0243	0.8453	0.115
Mof_H 	H 	0.6569	0.7789	0.0805	0.068
Mof_H 	H 	0.7081	0.8453	0.0243	0.073
Mof_H 	H 	0.5805	0.4837	0.1569	0.09
Mof_H 	H 	0.5243	0.4223	0.2081	0.105
Mof_H 	H 	0.2789	0.1569	0.4837	0.083
Mof_H 	H 	0.3453	0.2081	0.4223	0.103
Mof_H 	H 	0.9837	0.7789	0.1569	0.162
Mof_H 	H 	0.9223	0.8453	0.2081	0.175
Mof_H 	H 	0.6569	0.0805	0.4837	0.065
Mof_H 	H 	0.7081	0.0243	0.4223	0.05
Mof_H 	H 	0.5805	0.1569	0.7789	0.093
Mof_H 	H 	0.5243	0.2081	0.8453	0.127
Mof_H 	H 	0.2789	0.4837	0.0805	0.056
Mof_H 	H 	0.3453	0.4223	0.0243	0.041
Mof_H 	H 	0.8431	0.0163	0.4195	0.063
Mof_H 	H 	0.7919	0.0777	0.4757	0.07
Mof_H 	H 	0.5163	0.3431	0.7211	0.111
Mof_H 	H 	0.5777	0.2919	0.6547	0.102
Mof_H 	H 	0.2211	0.4195	0.0163	0.039
Mof_H 	H 	0.1547	0.4757	0.0777	0.046
Mof_H 	H 	0.9195	0.7211	0.3431	0.159
Mof_H 	H 	0.9757	0.6547	0.2919	0.17
Mof_H 	H 	0.9195	0.0163	0.7211	0.097
Mof_H 	H 	0.9757	0.0777	0.6547	0.134
Mof_H 	H 	0.2211	0.3431	0.4195	0.104
Mof_H 	H 	0.1547	0.2919	0.4757	0.084
Mof_H 	H 	0.5163	0.4195	0.3431	0.105
Mof_H 	H 	0.5777	0.4757	0.2919	0.1
Mof_H 	H 	0.8431	0.7211	0.0163	0.07
Mof_H 	H 	0.7919	0.6547	0.0777	0.071
Mof_H 	H 	0.2211	0.0163	0.3431	0.037
Mof_H 	H 	0.1547	0.0777	0.2919	0.04
Mof_H 	H 	0.9195	0.3431	0.0163	0.089
Mof_H 	H 	0.9757	0.2919	0.0777	0.128
Mof_H 	H 	0.8431	0.4195	0.7211	0.133
Mof_H 	H 	0.7919	0.4757	0.6547	0.112
Mof_H 	H 	0.5163	0.7211	0.4195	0.112
Mof_H 	H 	0.5777	0.6547	0.4757	0.107
Mof_H 	H 	0.0163	0.8431	0.9195	0.108
Mof_H 	H 	0.0777	0.7919	0.9757	0.135
Mof_H 	H 	0.3431	0.5163	0.2211	0.104
Mof_H 	H 	0.2919	0.5777	0.1547	0.085
Mof_H 	H 	0.4195	0.2211	0.5163	0.105
Mof_H 	H 	0.4757	0.1547	0.5777	0.091
Mof_H 	H 	0.7211	0.9195	0.8431	0.176
Mof_H 	H 	0.6547	0.9757	0.7919	0.176
Mof_H 	H 	0.0163	0.9195	0.2211	0.087
Mof_H 	H 	0.0777	0.9757	0.1547	0.115
Mof_H 	H 	0.3431	0.2211	0.9195	0.153
Mof_H 	H 	0.2919	0.1547	0.9757	0.154
Mof_H 	H 	0.4195	0.5163	0.8431	0.127
Mof_H 	H 	0.4757	0.5777	0.7919	0.111
Mof_H 	H 	0.7211	0.8431	0.5163	0.132
Mof_H 	H 	0.6547	0.7919	0.5777	0.112
Mof_H 	H 	0.0163	0.2211	0.8431	0.06
Mof_H 	H 	0.0777	0.1547	0.7919	0.052
Mof_H 	H 	0.3431	0.9195	0.5163	0.153
Mof_H 	H 	0.2919	0.9757	0.5777	0.169
Mof_H 	H 	0.4195	0.8431	0.2211	0.127
Mof_H 	H 	0.4757	0.7919	0.1547	0.096
Mof_H 	H 	0.7211	0.5163	0.9195	0.159
Mof_H 	H 	0.6547	0.5777	0.9757	0.174
Mof_H 	H 	0.1569	0.9837	0.5805	0.158
Mof_H 	H 	0.2081	0.9223	0.5243	0.154
Mof_H 	H 	0.4837	0.6569	0.2789	0.103
Mof_H 	H 	0.4223	0.7081	0.3453	0.109
Mof_H 	H 	0.7789	0.5805	0.9837	0.176
Mof_H 	H 	0.8453	0.5243	0.9223	0.173
Mof_H 	H 	0.0805	0.2789	0.6569	0.057
Mof_H 	H 	0.0243	0.3453	0.7081	0.046
Mof_H 	H 	0.0805	0.9837	0.2789	0.126
Mof_H 	H 	0.0243	0.9223	0.3453	0.09
Mof_H 	H 	0.7789	0.6569	0.5805	0.111
Mof_H 	H 	0.8453	0.7081	0.5243	0.132
Mof_H 	H 	0.4837	0.5805	0.6569	0.109
Mof_H 	H 	0.4223	0.5243	0.7081	0.11
Mof_H 	H 	0.1569	0.2789	0.9837	0.153
Mof_H 	H 	0.2081	0.3453	0.9223	0.153
Mof_H 	H 	0.7789	0.9837	0.6569	0.176
Mof_H 	H 	0.8453	0.9223	0.7081	0.176
Mof_H 	H 	0.0805	0.6569	0.9837	0.132
Mof_H 	H 	0.0243	0.7081	0.9223	0.097
Mof_H 	H 	0.1569	0.5805	0.2789	0.083
Mof_H 	H 	0.2081	0.5243	0.3453	0.104
Mof_H 	H 	0.4837	0.2789	0.5805	0.102
Mof_H 	H 	0.4223	0.3453	0.5243	0.103
Mof_C 	C 	0.8797	0.1179	0.1369	0.415
Mof_C 	C 	0.9235	0.1837	0.0831	-0.23
Mof_C 	C 	0.6179	0.3797	0.8655	0.446
Mof_C 	C 	0.6837	0.4235	0.8097	-0.251
Mof_C 	C 	0.6369	0.8655	0.3797	0.444
Mof_C 	C 	0.5831	0.8097	0.4235	-0.248
Mof_C 	C 	0.3655	0.1369	0.1179	0.395
Mof_C 	C 	0.3097	0.0831	0.1837	-0.175
Mof_C 	C 	0.8797	0.1369	0.8655	0.418
Mof_C 	C 	0.9235	0.0831	0.8097	-0.232
Mof_C 	C 	0.6179	0.8655	0.1369	0.404
Mof_C 	C 	0.6837	0.8097	0.0831	-0.189
Mof_C 	C 	0.6369	0.3797	0.1179	0.442
Mof_C 	C 	0.5831	0.4235	0.1837	-0.246
Mof_C 	C 	0.3655	0.1179	0.3797	0.438
Mof_C 	C 	0.3097	0.1837	0.4235	-0.241
Mof_C 	C 	0.8797	0.8655	0.1179	0.447
Mof_C 	C 	0.9235	0.8097	0.1837	-0.287
Mof_C 	C 	0.6179	0.1369	0.3797	0.414
Mof_C 	C 	0.6837	0.0831	0.4235	-0.194
Mof_C 	C 	0.6369	0.1179	0.8655	0.431
Mof_C 	C 	0.5831	0.1837	0.8097	-0.24
Mof_C 	C 	0.3655	0.3797	0.1369	0.408
Mof_C 	C 	0.3097	0.4235	0.0831	-0.184
Mof_C 	C 	0.8821	0.1203	0.3631	0.4
Mof_C 	C 	0.8163	0.0765	0.4169	-0.184
Mof_C 	C 	0.6203	0.3821	0.6345	0.457
Mof_C 	C 	0.5765	0.3163	0.6903	-0.252
Mof_C 	C 	0.1345	0.3631	0.1203	0.396
Mof_C 	C 	0.1903	0.4169	0.0765	-0.18
Mof_C 	C 	0.8631	0.6345	0.3821	0.473
Mof_C 	C 	0.9169	0.6903	0.3163	-0.302
Mof_C 	C 	0.8631	0.1203	0.6345	0.434
Mof_C 	C 	0.9169	0.0765	0.6903	-0.245
Mof_C 	C 	0.1345	0.3821	0.3631	0.437
Mof_C 	C 	0.1903	0.3163	0.4169	-0.239
Mof_C 	C 	0.6203	0.3631	0.3821	0.454
Mof_C 	C 	0.5765	0.4169	0.3163	-0.248
Mof_C 	C 	0.8821	0.6345	0.1203	0.403
Mof_C 	C 	0.8163	0.6903	0.0765	-0.188
Mof_C 	C 	0.1345	0.1203	0.3821	0.394
Mof_C 	C 	0.1903	0.0765	0.3163	-0.175
Mof_C 	C 	0.8631	0.3821	0.1203	0.429
Mof_C 	C 	0.9169	0.3163	0.0765	-0.237
Mof_C 	C 	0.8821	0.3631	0.6345	0.445
Mof_C 	C 	0.8163	0.4169	0.6903	-0.249
Mof_C 	C 	0.6203	0.6345	0.3631	0.459
Mof_C 	C 	0.5765	0.6903	0.4169	-0.257
Mof_C 	C 	0.1203	0.8821	0.8631	0.416
Mof_C 	C 	0.0765	0.8163	0.9169	-0.23
Mof_C 	C 	0.3821	0.6203	0.1345	0.438
Mof_C 	C 	0.3163	0.5765	0.1903	-0.238
Mof_C 	C 	0.3631	0.1345	0.6203	0.441
Mof_C 	C 	0.4169	0.1903	0.5765	-0.244
Mof_C 	C 	0.6345	0.8631	0.8821	0.461
Mof_C 	C 	0.6903	0.9169	0.8163	-0.294
Mof_C 	C 	0.1203	0.8631	0.1345	0.414
Mof_C 	C 	0.0765	0.9169	0.1903	-0.229
Mof_C 	C 	0.3821	0.1345	0.8631	0.455
Mof_C 	C 	0.3163	0.1903	0.9169	-0.289
Mof_C 	C 	0.3631	0.6203	0.8821	0.443
Mof_C 	C 	0.4169	0.5765	0.8163	-0.246
Mof_C 	C 	0.6345	0.8821	0.6203	0.446
Mof_C 	C 	0.6903	0.8163	0.5765	-0.249
Mof_C 	C 	0.1203	0.1345	0.8821	0.384
Mof_C 	C 	0.0765	0.1903	0.8163	-0.172
Mof_C 	C 	0.3821	0.8631	0.6203	0.471
Mof_C 	C 	0.3163	0.9169	0.5765	-0.297
Mof_C 	C 	0.3631	0.8821	0.1345	0.427
Mof_C 	C 	0.4169	0.8163	0.1903	-0.237
Mof_C 	C 	0.6345	0.6203	0.8631	0.476
Mof_C 	C 	0.6903	0.5765	0.9169	-0.304
Mof_C 	C 	0.1179	0.8797	0.6369	0.458
Mof_C 	C 	0.1837	0.9235	0.5831	-0.292
Mof_C 	C 	0.3797	0.6179	0.3655	0.455
Mof_C 	C 	0.4235	0.6837	0.3097	-0.252
Mof_C 	C 	0.8655	0.6369	0.8797	0.459
Mof_C 	C 	0.8097	0.5831	0.9235	-0.292
Mof_C 	C 	0.1369	0.3655	0.6179	0.411
Mof_C 	C 	0.0831	0.3097	0.6837	-0.186
Mof_C 	C 	0.1369	0.8797	0.3655	0.425
Mof_C 	C 	0.0831	0.9235	0.3097	-0.23
Mof_C 	C 	0.8655	0.6179	0.6369	0.447
Mof_C 	C 	0.8097	0.6837	0.5831	-0.251
Mof_C 	C 	0.3797	0.6369	0.6179	0.458
Mof_C 	C 	0.4235	0.5831	0.6837	-0.257
Mof_C 	C 	0.1179	0.3655	0.8797	0.455
Mof_C 	C 	0.1837	0.3097	0.9235	-0.288
Mof_C 	C 	0.8655	0.8797	0.6179	0.461
Mof_C 	C 	0.8097	0.9235	0.6837	-0.294
Mof_C 	C 	0.1369	0.6179	0.8797	0.43
Mof_C 	C 	0.0831	0.6837	0.9235	-0.238
Mof_C 	C 	0.1179	0.6369	0.3655	0.439
Mof_C 	C 	0.1837	0.5831	0.3097	-0.24
Mof_C 	C 	0.3797	0.3655	0.6369	0.453
Mof_C 	C 	0.4235	0.3097	0.5831	-0.248
Mof_O 	O 	0.8136	0.1282	0.2028	-0.441
Mof_O 	O 	0.9114	0.0498	0.118	-0.374
Mof_O 	O 	0.6282	0.3136	0.8554	-0.41
Mof_O 	O 	0.5498	0.4114	0.9208	-0.357
Mof_O 	O 	0.7028	0.8554	0.3136	-0.408
Mof_O 	O 	0.618	0.9208	0.4114	-0.356
Mof_O 	O 	0.3554	0.2028	0.1282	-0.447
Mof_O 	O 	0.4208	0.118	0.0498	-0.465
Mof_O 	O 	0.8136	0.2028	0.8554	-0.393
Mof_O 	O 	0.9114	0.118	0.9208	-0.248
Mof_O 	O 	0.6282	0.8554	0.2028	-0.401
Mof_O 	O 	0.5498	0.9208	0.118	-0.335
Mof_O 	O 	0.7028	0.3136	0.1282	-0.456
Mof_O 	O 	0.618	0.4114	0.0498	-0.483
Mof_O 	O 	0.3554	0.1282	0.3136	-0.456
Mof_O 	O 	0.4208	0.0498	0.4114	-0.485
Mof_O 	O 	0.8136	0.8554	0.1282	-0.419
Mof_O 	O 	0.9114	0.9208	0.0498	-0.293
Mof_O 	O 	0.6282	0.2028	0.3136	-0.432
Mof_O 	O 	0.5498	0.118	0.4114	-0.44
Mof_O 	O 	0.7028	0.1282	0.8554	-0.424
Mof_O 	O 	0.618	0.0498	0.9208	-0.378
Mof_O 	O 	0.3554	0.3136	0.2028	-0.43
Mof_O 	O 	0.4208	0.4114	0.118	-0.439
Mof_O 	O 	0.8718	0.1864	0.2972	-0.401
Mof_O 	O 	0.9502	0.0886	0.382	-0.333
Mof_O 	O 	0.6864	0.3718	0.6446	-0.433
Mof_O 	O 	0.5886	0.4502	0.5792	-0.454
Mof_O 	O 	0.1446	0.2972	0.1864	-0.451
Mof_O 	O 	0.0792	0.382	0.0886	-0.468
Mof_O 	O 	0.7972	0.6446	0.3718	-0.433
Mof_O 	O 	0.882	0.5792	0.4502	-0.384
Mof_O 	O 	0.7972	0.1864	0.6446	-0.43
Mof_O 	O 	0.882	0.0886	0.5792	-0.38
Mof_O 	O 	0.1446	0.3718	0.2972	-0.453
Mof_O 	O 	0.0792	0.4502	0.382	-0.469
Mof_O 	O 	0.6864	0.2972	0.3718	-0.432
Mof_O 	O 	0.5886	0.382	0.4502	-0.455
Mof_O 	O 	0.8718	0.6446	0.1864	-0.402
Mof_O 	O 	0.9502	0.5792	0.0886	-0.332
Mof_O 	O 	0.1446	0.1864	0.3718	-0.449
Mof_O 	O 	0.0792	0.0886	0.4502	-0.465
Mof_O 	O 	0.7972	0.3718	0.1864	-0.428
Mof_O 	O 	0.882	0.4502	0.0886	-0.379
Mof_O 	O 	0.8718	0.2972	0.6446	-0.406
Mof_O 	O 	0.9502	0.382	0.5792	-0.338
Mof_O 	O 	0.6864	0.6446	0.2972	-0.434
Mof_O 	O 	0.5886	0.5792	0.382	-0.456
Mof_O 	O 	0.1864	0.8718	0.7972	-0.398
Mof_O 	O 	0.0886	0.9502	0.882	-0.266
Mof_O 	O 	0.3718	0.6864	0.1446	-0.448
Mof_O 	O 	0.4502	0.5886	0.0792	-0.464
Mof_O 	O 	0.2972	0.1446	0.6864	-0.45
Mof_O 	O 	0.382	0.0792	0.5886	-0.466
Mof_O 	O 	0.6446	0.7972	0.8718	-0.404
Mof_O 	O 	0.5792	0.882	0.9502	-0.274
Mof_O 	O 	0.1864	0.7972	0.1446	-0.446
Mof_O 	O 	0.0886	0.882	0.0792	-0.392
Mof_O 	O 	0.3718	0.1446	0.7972	-0.449
Mof_O 	O 	0.4502	0.0792	0.882	-0.394
Mof_O 	O 	0.2972	0.6864	0.8718	-0.402
Mof_O 	O 	0.382	0.5886	0.9502	-0.338
Mof_O 	O 	0.6446	0.8718	0.6864	-0.403
Mof_O 	O 	0.5792	0.9502	0.5886	-0.339
Mof_O 	O 	0.1864	0.1446	0.8718	-0.417
Mof_O 	O 	0.0886	0.0792	0.9502	-0.345
Mof_O 	O 	0.3718	0.7972	0.6864	-0.429
Mof_O 	O 	0.4502	0.882	0.5886	-0.384
Mof_O 	O 	0.2972	0.8718	0.1446	-0.422
Mof_O 	O 	0.382	0.9502	0.0792	-0.349
Mof_O 	O 	0.6446	0.6864	0.7972	-0.431
Mof_O 	O 	0.5792	0.5886	0.882	-0.385
Mof_O 	O 	0.1282	0.8136	0.7028	-0.447
Mof_O 	O 	0.0498	0.9114	0.618	-0.393
Mof_O 	O 	0.3136	0.6282	0.3554	-0.438
Mof_O 	O 	0.4114	0.5498	0.4208	-0.458
Mof_O 	O 	0.8554	0.7028	0.8136	-0.4
Mof_O 	O 	0.9208	0.618	0.9114	-0.27
Mof_O 	O 	0.2028	0.3554	0.6282	-0.428
Mof_O 	O 	0.118	0.4208	0.5498	-0.437
Mof_O 	O 	0.2028	0.8136	0.3554	-0.42
Mof_O 	O 	0.118	0.9114	0.4208	-0.348
Mof_O 	O 	0.8554	0.6282	0.7028	-0.406
Mof_O 	O 	0.9208	0.5498	0.618	-0.352
Mof_O 	O 	0.3136	0.7028	0.6282	-0.438
Mof_O 	O 	0.4114	0.618	0.5498	-0.457
Mof_O 	O 	0.1282	0.3554	0.8136	-0.447
Mof_O 	O 	0.0498	0.4208	0.9114	-0.395
Mof_O 	O 	0.8554	0.8136	0.6282	-0.401
Mof_O 	O 	0.9208	0.9114	0.5498	-0.27
Mof_O 	O 	0.2028	0.6282	0.8136	-0.423
Mof_O 	O 	0.118	0.5498	0.9114	-0.349
Mof_O 	O 	0.1282	0.7028	0.3554	-0.452
Mof_O 	O 	0.0498	0.618	0.4208	-0.481
Mof_O 	O 	0.3136	0.3554	0.7028	-0.435
Mof_O 	O 	0.4114	0.4208	0.618	-0.456
Mof_O 	O 	0.8806	0.25	0.1194	-0.222
Mof_O 	O 	0.75	0.3806	0.75	-0.208
Mof_O 	O 	0.6194	0.75	0.3806	-0.211
Mof_O 	O 	0.25	0.1194	0.25	-0.259
Mof_O 	O 	0.8806	0.1194	0.75	-0.214
Mof_O 	O 	0.75	0.75	0.1194	-0.241
Mof_O 	O 	0.6194	0.3806	0.25	-0.219
Mof_O 	O 	0.25	0.25	0.3806	-0.224
Mof_O 	O 	0.8806	0.75	0.25	-0.186
Mof_O 	O 	0.75	0.1194	0.3806	-0.244
Mof_O 	O 	0.6194	0.25	0.75	-0.217
Mof_O 	O 	0.25	0.3806	0.1194	-0.253
Mof_O 	O 	0.1194	0.75	0.8806	-0.215
Mof_O 	O 	0.25	0.6194	0.25	-0.225
Mof_O 	O 	0.3806	0.25	0.6194	-0.219
Mof_O 	O 	0.75	0.8806	0.75	-0.18
Mof_O 	O 	0.1194	0.8806	0.25	-0.223
Mof_O 	O 	0.25	0.25	0.8806	-0.193
Mof_O 	O 	0.3806	0.6194	0.75	-0.21
Mof_O 	O 	0.75	0.75	0.6194	-0.208
Mof_O 	O 	0.1194	0.25	0.75	-0.25
Mof_O 	O 	0.25	0.8806	0.6194	-0.189
Mof_O 	O 	0.3806	0.75	0.25	-0.215
Mof_O 	O 	0.75	0.6194	0.8806	-0.182
_end
