data_functionalizedCrystal
_audit_creation_method	'EQeq! by Chris Wilmer'
_symmetry_space_group_name_H-M	'P1'
_symmetry_Int_Tables_number	1
_symmetry_cell_setting	triclinic
loop_
_symmetry_equiv_pos_as_xyz
  x,y,z
_cell_length_a	7.025
_cell_length_b	9.47
_cell_length_c	16.57
_cell_angle_alpha	90
_cell_angle_beta	96.03
_cell_angle_gamma	90
loop_
_atom_site_label
_atom_site_type_symbol
_atom_site_fract_x
_atom_site_fract_y
_atom_site_fract_z
_atom_site_charge
Mof_P 	P 	0.5613	0.1988	0.5113	0.574
Mof_P 	P 	0.5084	0.2949	0.7758	0.563
Mof_O 	O 	0.5632	0.1541	0.6011	-0.585
Mof_O 	O 	0.5206	0.1355	0.7683	-0.682
Mof_O 	O 	0.5601	0.3621	0.5125	-0.515
Mof_O 	O 	0.3463	0.3427	0.8233	-0.524
Mof_O 	O 	0.7374	0.1454	0.4763	-0.621
Mof_O 	O 	0.6989	0.3504	0.8113	-0.537
Mof_O 	O 	0.3789	0.1477	0.4639	-0.58
Mof_O 	O 	0.4641	0.3533	0.6871	-0.227
Mof_P 	P 	0.0613	0.6988	0.0113	0.58
Mof_P 	P 	0.0084	0.7949	0.2758	0.552
Mof_O 	O 	0.0632	0.6541	0.1011	-0.49
Mof_O 	O 	0.0206	0.6355	0.2683	-0.56
Mof_O 	O 	0.0601	0.8621	0.0125	-0.344
Mof_O 	O 	0.8463	0.8427	0.3233	-0.327
Mof_O 	O 	0.2374	0.6454	0.9763	-0.525
Mof_O 	O 	0.1989	0.8504	0.3113	-0.341
Mof_O 	O 	0.8789	0.6477	0.9639	-0.493
Mof_O 	O 	0.9641	0.8533	0.1871	-0.085
Mof_P 	P 	0.5613	0.8012	0.5113	0.587
Mof_P 	P 	0.5084	0.7051	0.7758	0.555
Mof_O 	O 	0.5632	0.8459	0.6011	-0.358
Mof_O 	O 	0.5206	0.8645	0.7683	-0.379
Mof_O 	O 	0.5601	0.6379	0.5125	-0.51
Mof_O 	O 	0.3463	0.6573	0.8233	-0.455
Mof_O 	O 	0.7374	0.8546	0.4763	-0.382
Mof_O 	O 	0.6989	0.6496	0.8113	-0.48
Mof_O 	O 	0.3789	0.8523	0.4639	-0.349
Mof_O 	O 	0.4641	0.6467	0.6871	-0.193
Mof_P 	P 	0.0613	0.3012	0.0113	0.593
Mof_P 	P 	0.0084	0.2051	0.2758	0.552
Mof_O 	O 	0.0632	0.3459	0.1011	-0.526
Mof_O 	O 	0.0206	0.3645	0.2683	-0.566
Mof_O 	O 	0.0601	0.1379	0.0125	-0.632
Mof_O 	O 	0.8463	0.1573	0.3233	-0.543
Mof_O 	O 	0.2374	0.3546	0.9763	-0.588
Mof_O 	O 	0.1989	0.1496	0.3113	-0.571
Mof_O 	O 	0.8789	0.3523	0.9639	-0.553
Mof_O 	O 	0.9641	0.1467	0.1871	-0.326
Mof_V 	V 	0.5874	0	0.6832	1.562
Mof_V 	V 	0.0874	0.5	0.1832	1.703
Mof_V 	V 	0.5967	0.5	0.4254	1.607
Mof_V 	V 	0.3285	0.5	0.9056	1.825
Mof_V 	V 	0.8224	0.5	0.8834	1.83
Mof_O 	O 	0.5551	0.5	0.936	-0.703
Mof_O 	O 	0.0334	0.5	0.8491	-0.694
Mof_V 	V 	0.0967	0	0.9254	1.47
Mof_V 	V 	0.8285	0	0.4056	1.729
Mof_V 	V 	0.3224	-5.7568e-33	0.3834	1.731
Mof_O 	O 	0.0551	-5.7568e-33	0.436	-0.886
Mof_O 	O 	0.5334	0	0.3491	-0.883
_end
