data_functionalizedCrystal
_audit_creation_method	'EQeq! by Chris Wilmer'
_symmetry_space_group_name_H-M	'P1'
_symmetry_Int_Tables_number	1
_symmetry_cell_setting	triclinic
loop_
_symmetry_equiv_pos_as_xyz
  x,y,z
_cell_length_a	17.1625
_cell_length_b	15.8356
_cell_length_c	15.6712
_cell_angle_alpha	90
_cell_angle_beta	90
_cell_angle_gamma	90
loop_
_atom_site_label
_atom_site_type_symbol
_atom_site_fract_x
_atom_site_fract_y
_atom_site_fract_z
_atom_site_charge
Mof_Tb	Tb	0.59614	0.95391	0.95706	2.219
Mof_O 	O 	0.6474	0.0988	0.9481	-0.449
Mof_O 	O 	0.5296	0.0861	0.9982	-0.641
Mof_O 	O 	0.5977	0.7988	0.0024	-0.36
Mof_O 	O 	0.5524	0.8221	0.8749	-0.365
Mof_O 	O 	0.7331	0.93	0.9733	-0.434
Mof_O 	O 	0.6914	0.946	0.8417	-0.414
Mof_O 	O 	0.6017	0.9657	0.1093	-0.51
Mof_C 	C 	0.7457	0.9336	0.8941	0.339
Mof_C 	C 	0.8288	0.9278	0.8629	-0.128
Mof_C 	C 	0.8864	0.8941	0.9175	0.085
Mof_C 	C 	0.8478	0.9526	0.7814	0.133
Mof_C 	C 	0.9632	0.8902	0.8894	-0.062
Mof_C 	C 	0.9238	0.9501	0.7545	-0.182
Mof_C 	C 	0.0245	0.8496	0.9457	0.037
Mof_C 	C 	0.9825	0.9198	0.8099	0.09
Mof_C 	C 	0.9495	0.9737	0.6654	0.511
Mof_C 	C 	0.0883	0.8979	0.972	0.001
Mof_C 	C 	0.0218	0.7654	0.964	-0.012
Mof_O 	O 	0.0173	0.0004	0.6557	-0.525
Mof_C 	C 	0.1467	0.8606	0.0206	0.007
Mof_C 	C 	0.084	0.7255	0.0092	-0.114
Mof_C 	C 	0.9503	0.7118	0.9443	0.266
Mof_C 	C 	0.1435	0.7749	0.0374	0.057
Mof_C 	C 	0.0885	0.6325	0.0236	0.438
Mof_Tb	Tb	0.90386	0.54609	0.95706	2.239
Mof_O 	O 	0.8526	0.4012	0.9481	-0.455
Mof_O 	O 	0.9704	0.4139	0.9982	-0.65
Mof_O 	O 	0.9023	0.7012	0.0024	-0.357
Mof_O 	O 	0.9476	0.6779	0.8749	-0.364
Mof_O 	O 	0.7669	0.57	0.9733	-0.433
Mof_O 	O 	0.8086	0.554	0.8417	-0.414
Mof_O 	O 	0.8983	0.5343	0.1093	-0.513
Mof_C 	C 	0.7543	0.5664	0.8941	0.34
Mof_C 	C 	0.6712	0.5722	0.8629	-0.128
Mof_C 	C 	0.6136	0.6059	0.9175	0.087
Mof_C 	C 	0.6522	0.5474	0.7814	0.135
Mof_C 	C 	0.5368	0.6098	0.8894	-0.056
Mof_C 	C 	0.5762	0.5499	0.7545	-0.183
Mof_C 	C 	0.4755	0.6504	0.9457	0.032
Mof_C 	C 	0.5175	0.5802	0.8099	0.093
Mof_C 	C 	0.5505	0.5263	0.6654	0.519
Mof_C 	C 	0.4117	0.6021	0.972	0.003
Mof_C 	C 	0.4782	0.7346	0.964	-0.022
Mof_O 	O 	0.4827	0.4996	0.6557	-0.53
Mof_C 	C 	0.3533	0.6394	0.0206	0.001
Mof_C 	C 	0.416	0.7745	0.0092	-0.108
Mof_C 	C 	0.5497	0.7882	0.9443	0.274
Mof_C 	C 	0.3565	0.7251	0.0374	0.056
Mof_C 	C 	0.4115	0.8675	0.0236	0.434
Mof_Tb	Tb	0.40386	0.45391	0.54294	2.247
Mof_O 	O 	0.3526	0.5988	0.5519	-0.456
Mof_O 	O 	0.4704	0.5861	0.5018	-0.651
Mof_O 	O 	0.4023	0.2988	0.4976	-0.369
Mof_O 	O 	0.4476	0.3221	0.6251	-0.367
Mof_O 	O 	0.2669	0.43	0.5267	-0.432
Mof_O 	O 	0.3086	0.446	0.6583	-0.415
Mof_O 	O 	0.3983	0.4657	0.3907	-0.515
Mof_C 	C 	0.2543	0.4336	0.6059	0.34
Mof_C 	C 	0.1712	0.4278	0.6371	-0.128
Mof_C 	C 	0.1136	0.3941	0.5825	0.088
Mof_C 	C 	0.1522	0.4526	0.7186	0.136
Mof_C 	C 	0.0368	0.3902	0.6106	-0.057
Mof_C 	C 	0.0762	0.4501	0.7455	-0.184
Mof_C 	C 	0.9755	0.3496	0.5543	0.031
Mof_C 	C 	0.0175	0.4198	0.6901	0.094
Mof_C 	C 	0.0505	0.4737	0.8346	0.522
Mof_C 	C 	0.9117	0.3979	0.528	0.005
Mof_C 	C 	0.9782	0.2654	0.536	-0.014
Mof_O 	O 	0.9827	0.5004	0.8443	-0.532
Mof_C 	C 	0.8533	0.3606	0.4794	-0.001
Mof_C 	C 	0.916	0.2255	0.4908	-0.114
Mof_C 	C 	0.0497	0.2118	0.5557	0.279
Mof_C 	C 	0.8565	0.2749	0.4626	0.058
Mof_C 	C 	0.9115	0.1325	0.4764	0.438
Mof_Tb	Tb	0.09614	0.04609	0.54294	2.239
Mof_O 	O 	0.1474	0.9012	0.5519	-0.454
Mof_O 	O 	0.0296	0.9139	0.5018	-0.646
Mof_O 	O 	0.0977	0.2012	0.4976	-0.369
Mof_O 	O 	0.0524	0.1779	0.6251	-0.366
Mof_O 	O 	0.2331	0.07	0.5267	-0.432
Mof_O 	O 	0.1914	0.054	0.6583	-0.413
Mof_O 	O 	0.1017	0.0343	0.3907	-0.514
Mof_C 	C 	0.2457	0.0664	0.6059	0.34
Mof_C 	C 	0.3288	0.0722	0.6371	-0.128
Mof_C 	C 	0.3864	0.1059	0.5825	0.088
Mof_C 	C 	0.3478	0.0474	0.7186	0.137
Mof_C 	C 	0.4632	0.1098	0.6106	-0.057
Mof_C 	C 	0.4238	0.0499	0.7455	-0.185
Mof_C 	C 	0.5245	0.1504	0.5543	0.031
Mof_C 	C 	0.4825	0.0802	0.6901	0.096
Mof_C 	C 	0.4495	0.0263	0.8346	0.525
Mof_C 	C 	0.5883	0.1021	0.528	0.006
Mof_C 	C 	0.5218	0.2346	0.536	-0.017
Mof_O 	O 	0.5173	0.9996	0.8443	-0.535
Mof_C 	C 	0.6467	0.1394	0.4794	-0.001
Mof_C 	C 	0.584	0.2745	0.4908	-0.115
Mof_C 	C 	0.4503	0.2882	0.5557	0.282
Mof_C 	C 	0.6435	0.2251	0.4626	0.058
Mof_C 	C 	0.5885	0.3675	0.4764	0.438
Mof_Tb	Tb	0.40386	0.04609	0.04294	2.22
Mof_O 	O 	0.3526	0.9012	0.0519	-0.448
Mof_O 	O 	0.4704	0.9139	0.0018	-0.64
Mof_O 	O 	0.4023	0.2012	0.9976	-0.359
Mof_O 	O 	0.4476	0.1779	0.1251	-0.365
Mof_O 	O 	0.2669	0.07	0.0267	-0.434
Mof_O 	O 	0.3086	0.054	0.1583	-0.414
Mof_O 	O 	0.3983	0.0343	0.8907	-0.51
Mof_C 	C 	0.2543	0.0664	0.1059	0.339
Mof_C 	C 	0.1712	0.0722	0.1371	-0.128
Mof_C 	C 	0.1136	0.1059	0.0825	0.085
Mof_C 	C 	0.1522	0.0474	0.2186	0.133
Mof_C 	C 	0.0368	0.1098	0.1106	-0.062
Mof_C 	C 	0.0762	0.0499	0.2455	-0.182
Mof_C 	C 	0.9755	0.1504	0.0543	0.037
Mof_C 	C 	0.0175	0.0802	0.1901	0.09
Mof_C 	C 	0.0505	0.0263	0.3346	0.511
Mof_C 	C 	0.9117	0.1021	0.028	0.001
Mof_C 	C 	0.9782	0.2346	0.036	-0.012
Mof_O 	O 	0.9827	0.9996	0.3443	-0.525
Mof_C 	C 	0.8533	0.1394	0.9794	0.007
Mof_C 	C 	0.916	0.2745	0.9908	-0.114
Mof_C 	C 	0.0497	0.2882	0.0557	0.266
Mof_C 	C 	0.8565	0.2251	0.9626	0.057
Mof_C 	C 	0.9115	0.3675	0.9764	0.438
Mof_Tb	Tb	0.09614	0.45391	0.04294	2.239
Mof_O 	O 	0.1474	0.5988	0.0519	-0.455
Mof_O 	O 	0.0296	0.5861	0.0018	-0.65
Mof_O 	O 	0.0977	0.2988	0.9976	-0.357
Mof_O 	O 	0.0524	0.3221	0.1251	-0.364
Mof_O 	O 	0.2331	0.43	0.0267	-0.433
Mof_O 	O 	0.1914	0.446	0.1583	-0.414
Mof_O 	O 	0.1017	0.4657	0.8907	-0.513
Mof_C 	C 	0.2457	0.4336	0.1059	0.34
Mof_C 	C 	0.3288	0.4278	0.1371	-0.128
Mof_C 	C 	0.3864	0.3941	0.0825	0.087
Mof_C 	C 	0.3478	0.4526	0.2186	0.135
Mof_C 	C 	0.4632	0.3902	0.1106	-0.056
Mof_C 	C 	0.4238	0.4501	0.2455	-0.183
Mof_C 	C 	0.5245	0.3496	0.0543	0.032
Mof_C 	C 	0.4825	0.4198	0.1901	0.093
Mof_C 	C 	0.4495	0.4737	0.3346	0.519
Mof_C 	C 	0.5883	0.3979	0.028	0.003
Mof_C 	C 	0.5218	0.2654	0.036	-0.022
Mof_O 	O 	0.5173	0.5004	0.3443	-0.53
Mof_C 	C 	0.6467	0.3606	0.9794	0.001
Mof_C 	C 	0.584	0.2255	0.9908	-0.108
Mof_C 	C 	0.4503	0.2118	0.0557	0.274
Mof_C 	C 	0.6435	0.2749	0.9626	0.056
Mof_C 	C 	0.5885	0.1325	0.9764	0.434
Mof_Tb	Tb	0.59614	0.54609	0.45706	2.247
Mof_O 	O 	0.6474	0.4012	0.4481	-0.456
Mof_O 	O 	0.5296	0.4139	0.4982	-0.651
Mof_O 	O 	0.5977	0.7012	0.5024	-0.369
Mof_O 	O 	0.5524	0.6779	0.3749	-0.367
Mof_O 	O 	0.7331	0.57	0.4733	-0.432
Mof_O 	O 	0.6914	0.554	0.3417	-0.415
Mof_O 	O 	0.6017	0.5343	0.6093	-0.515
Mof_C 	C 	0.7457	0.5664	0.3941	0.34
Mof_C 	C 	0.8288	0.5722	0.3629	-0.128
Mof_C 	C 	0.8864	0.6059	0.4175	0.088
Mof_C 	C 	0.8478	0.5474	0.2814	0.136
Mof_C 	C 	0.9632	0.6098	0.3894	-0.057
Mof_C 	C 	0.9238	0.5499	0.2545	-0.184
Mof_C 	C 	0.0245	0.6504	0.4457	0.031
Mof_C 	C 	0.9825	0.5802	0.3099	0.094
Mof_C 	C 	0.9495	0.5263	0.1654	0.522
Mof_C 	C 	0.0883	0.6021	0.472	0.005
Mof_C 	C 	0.0218	0.7346	0.464	-0.014
Mof_O 	O 	0.0173	0.4996	0.1557	-0.532
Mof_C 	C 	0.1467	0.6394	0.5206	-0.001
Mof_C 	C 	0.084	0.7745	0.5092	-0.114
Mof_C 	C 	0.9503	0.7882	0.4443	0.279
Mof_C 	C 	0.1435	0.7251	0.5374	0.058
Mof_C 	C 	0.0885	0.8675	0.5236	0.438
Mof_Tb	Tb	0.90386	0.95391	0.45706	2.239
Mof_O 	O 	0.8526	0.0988	0.4481	-0.454
Mof_O 	O 	0.9704	0.0861	0.4982	-0.646
Mof_O 	O 	0.9023	0.7988	0.5024	-0.369
Mof_O 	O 	0.9476	0.8221	0.3749	-0.366
Mof_O 	O 	0.7669	0.93	0.4733	-0.432
Mof_O 	O 	0.8086	0.946	0.3417	-0.413
Mof_O 	O 	0.8983	0.9657	0.6093	-0.514
Mof_C 	C 	0.7543	0.9336	0.3941	0.34
Mof_C 	C 	0.6712	0.9278	0.3629	-0.128
Mof_C 	C 	0.6136	0.8941	0.4175	0.088
Mof_C 	C 	0.6522	0.9526	0.2814	0.137
Mof_C 	C 	0.5368	0.8902	0.3894	-0.057
Mof_C 	C 	0.5762	0.9501	0.2545	-0.185
Mof_C 	C 	0.4755	0.8496	0.4457	0.031
Mof_C 	C 	0.5175	0.9198	0.3099	0.096
Mof_C 	C 	0.5505	0.9737	0.1654	0.525
Mof_C 	C 	0.4117	0.8979	0.472	0.006
Mof_C 	C 	0.4782	0.7654	0.464	-0.017
Mof_O 	O 	0.4827	0.0004	0.1557	-0.535
Mof_C 	C 	0.3533	0.8606	0.5206	-0.001
Mof_C 	C 	0.416	0.7255	0.5092	-0.115
Mof_C 	C 	0.5497	0.7118	0.4443	0.282
Mof_C 	C 	0.3565	0.7749	0.5374	0.058
Mof_C 	C 	0.4115	0.6325	0.5236	0.438
_end
