# CIF file generated by openbabel 3.1.0, see https://openbabel.org
data_I
_chemical_name_common 'ACAKUM_clean'
_cell_length_a 10.395
_cell_length_b 10.779
_cell_length_c 21.445
_cell_angle_alpha 90
_cell_angle_beta 90
_cell_angle_gamma 112.06
_space_group_name_H-M_alt 'P 1'
_space_group_name_Hall 'P 1'
loop_
    _symmetry_equiv_pos_as_xyz
    x,y,z
loop_
    _atom_site_label
    _atom_site_type_symbol
    _atom_site_fract_x
    _atom_site_fract_y
    _atom_site_fract_z
    _atom_site_occupancy
    La1      La       0.76694    0.75943    0.52780    1.000
    La2      La       0.73306    0.24057    0.02780    1.000
    La3      La       0.23306    0.24057    0.47220    1.000
    La4      La       0.26694    0.75943    0.97220    1.000
    H1       H        0.22890    0.80490    0.67350    1.000
    H2       H        0.78250    0.17840    0.84080    1.000
    H3       H        0.28700    0.48660    0.63400    1.000
    H4       H        0.66740    0.07200    0.66350    1.000
    H5       H        0.39980    0.90880    0.80400    1.000
    H6       H        0.01160    0.29990    0.80150    1.000
    H7       H        0.21420    0.49590    0.81790    1.000
    H8       H        0.59020    0.71490    0.74870    1.000
    H9       H        0.27110    0.19510    0.17350    1.000
    H10      H        0.71750    0.82160    0.34080    1.000
    H11      H        0.21300    0.51340    0.13400    1.000
    H12      H        0.83260    0.92800    0.16350    1.000
    H13      H        0.10020    0.09120    0.30400    1.000
    H14      H        0.48840    0.70010    0.30150    1.000
    H15      H        0.28580    0.50410    0.31790    1.000
    H16      H        0.90980    0.28510    0.24870    1.000
    H17      H        0.77110    0.19510    0.32650    1.000
    H18      H        0.21750    0.82160    0.15920    1.000
    H19      H        0.71300    0.51340    0.36600    1.000
    H20      H        0.33260    0.92800    0.33650    1.000
    H21      H        0.60020    0.09120    0.19600    1.000
    H22      H        0.98840    0.70010    0.19850    1.000
    H23      H        0.78580    0.50410    0.18210    1.000
    H24      H        0.40980    0.28510    0.25130    1.000
    H25      H        0.72890    0.80490    0.82650    1.000
    H26      H        0.28250    0.17840    0.65920    1.000
    H27      H        0.78700    0.48660    0.86600    1.000
    H28      H        0.16740    0.07200    0.83650    1.000
    H29      H        0.89980    0.90880    0.69600    1.000
    H30      H        0.51160    0.29990    0.69850    1.000
    H31      H        0.71420    0.49590    0.68210    1.000
    H32      H        0.09020    0.71490    0.75130    1.000
    C1       C        0.55290    0.66130    0.62945    1.000
    C2       C        0.74550    0.14130    0.74900    1.000
    C3       C        0.71640    0.12770    0.81220    1.000
    C4       C        0.55990    0.02140    0.90246    1.000
    C5       C        0.58840    0.03840    0.83311    1.000
    C6       C        0.51760    0.98030    0.72691    1.000
    C7       C        0.08800    0.38340    0.71593    1.000
    C8       C        0.22910    0.47640    0.72493    1.000
    C9       C        0.31770    0.51860    0.67378    1.000
    C10      C        0.41120    0.90580    0.67891    1.000
    C11      C        0.64680    0.06550    0.70586    1.000
    C12      C        0.45880    0.66190    0.85908    1.000
    C13      C        0.48680    0.96590    0.79034    1.000
    C14      C        0.99630    0.30530    0.75902    1.000
    C15      C        0.45290    0.60930    0.68313    1.000
    C16      C        0.27470    0.52360    0.78427    1.000
    C17      C        0.49930    0.65520    0.74288    1.000
    C18      C        0.41140    0.61280    0.79378    1.000
    C19      C        0.94710    0.33870    0.12945    1.000
    C20      C        0.75450    0.85870    0.24900    1.000
    C21      C        0.78360    0.87230    0.31220    1.000
    C22      C        0.94010    0.97860    0.40246    1.000
    C23      C        0.91160    0.96160    0.33311    1.000
    C24      C        0.98240    0.01970    0.22691    1.000
    C25      C        0.41200    0.61660    0.21593    1.000
    C26      C        0.27090    0.52360    0.22493    1.000
    C27      C        0.18230    0.48140    0.17378    1.000
    C28      C        0.08880    0.09420    0.17891    1.000
    C29      C        0.85320    0.93450    0.20586    1.000
    C30      C        0.04120    0.33810    0.35908    1.000
    C31      C        0.01320    0.03410    0.29034    1.000
    C32      C        0.50370    0.69470    0.25902    1.000
    C33      C        0.04710    0.39070    0.18313    1.000
    C34      C        0.22530    0.47640    0.28427    1.000
    C35      C        0.00070    0.34480    0.24288    1.000
    C36      C        0.08860    0.38720    0.29378    1.000
    C37      C        0.44710    0.33870    0.37055    1.000
    C38      C        0.25450    0.85870    0.25100    1.000
    C39      C        0.28360    0.87230    0.18780    1.000
    C40      C        0.44010    0.97860    0.09754    1.000
    C41      C        0.41160    0.96160    0.16689    1.000
    C42      C        0.48240    0.01970    0.27309    1.000
    C43      C        0.91200    0.61660    0.28407    1.000
    C44      C        0.77090    0.52360    0.27507    1.000
    C45      C        0.68230    0.48140    0.32622    1.000
    C46      C        0.58880    0.09420    0.32109    1.000
    C47      C        0.35320    0.93450    0.29414    1.000
    C48      C        0.54120    0.33810    0.14092    1.000
    C49      C        0.51320    0.03410    0.20966    1.000
    C50      C        0.00370    0.69470    0.24098    1.000
    C51      C        0.54710    0.39070    0.31687    1.000
    C52      C        0.72530    0.47640    0.21573    1.000
    C53      C        0.50070    0.34480    0.25712    1.000
    C54      C        0.58860    0.38720    0.20622    1.000
    C55      C        0.05290    0.66130    0.87055    1.000
    C56      C        0.24550    0.14130    0.75100    1.000
    C57      C        0.21640    0.12770    0.68780    1.000
    C58      C        0.05990    0.02140    0.59754    1.000
    C59      C        0.08840    0.03840    0.66689    1.000
    C60      C        0.01760    0.98030    0.77309    1.000
    C61      C        0.58800    0.38340    0.78407    1.000
    C62      C        0.72910    0.47640    0.77507    1.000
    C63      C        0.81770    0.51860    0.82622    1.000
    C64      C        0.91120    0.90580    0.82109    1.000
    C65      C        0.14680    0.06550    0.79414    1.000
    C66      C        0.95880    0.66190    0.64092    1.000
    C67      C        0.98680    0.96590    0.70966    1.000
    C68      C        0.49630    0.30530    0.74098    1.000
    C69      C        0.95290    0.60930    0.81687    1.000
    C70      C        0.77470    0.52360    0.71573    1.000
    C71      C        0.99930    0.65520    0.75712    1.000
    C72      C        0.91140    0.61280    0.70622    1.000
    N1       N        0.87780    0.23710    0.72669    1.000
    N2       N        0.89790    0.27500    0.66625    1.000
    N3       N        0.02580    0.36250    0.65950    1.000
    N4       N        0.62220    0.76290    0.22669    1.000
    N5       N        0.60210    0.72500    0.16625    1.000
    N6       N        0.47420    0.63750    0.15950    1.000
    N7       N        0.12220    0.76290    0.27331    1.000
    N8       N        0.10210    0.72500    0.33375    1.000
    N9       N        0.97420    0.63750    0.34050    1.000
    N10      N        0.37780    0.23710    0.77331    1.000
    N11      N        0.39790    0.27500    0.83375    1.000
    N12      N        0.52580    0.36250    0.84050    1.000
    O1       O        0.58510    0.72350    0.86989    1.000
    O2       O        0.52390    0.60100    0.57676    1.000
    O3       O        0.29000    0.83860    0.70297    1.000
    O4       O        0.65750    0.08450    0.93828    1.000
    O5       O        0.66230    0.75970    0.63792    1.000
    O6       O        0.43770    0.90950    0.62362    1.000
    O7       O        0.36560    0.63520    0.90033    1.000
    O8       O        0.44160    0.94640    0.91962    1.000
    O9       O        0.91490    0.27650    0.36989    1.000
    O10      O        0.97610    0.39900    0.07676    1.000
    O11      O        0.21000    0.16140    0.20297    1.000
    O12      O        0.84250    0.91550    0.43828    1.000
    O13      O        0.83770    0.24030    0.13792    1.000
    O14      O        0.06230    0.09050    0.12362    1.000
    O15      O        0.13440    0.36480    0.40033    1.000
    O16      O        0.05840    0.05360    0.41962    1.000
    O17      O        0.41490    0.27650    0.13011    1.000
    O18      O        0.47610    0.39900    0.42324    1.000
    O19      O        0.71000    0.16140    0.29703    1.000
    O20      O        0.34250    0.91550    0.06172    1.000
    O21      O        0.33770    0.24030    0.36208    1.000
    O22      O        0.56230    0.09050    0.37638    1.000
    O23      O        0.63440    0.36480    0.09967    1.000
    O24      O        0.55840    0.05360    0.08038    1.000
    O25      O        0.08510    0.72350    0.63011    1.000
    O26      O        0.02390    0.60100    0.92324    1.000
    O27      O        0.79000    0.83860    0.79703    1.000
    O28      O        0.15750    0.08450    0.56172    1.000
    O29      O        0.16230    0.75970    0.86208    1.000
    O30      O        0.93770    0.90950    0.87638    1.000
    O31      O        0.86560    0.63520    0.59967    1.000
    O32      O        0.94160    0.94640    0.58038    1.000
