# CIF file generated by openbabel 3.1.0, see https://openbabel.org
data_I
_chemical_name_common 'image0'
_cell_length_a 9.0808
_cell_length_b 9.641
_cell_length_c 11.6416
_cell_angle_alpha 108.051
_cell_angle_beta 94.17
_cell_angle_gamma 108.174
_space_group_name_H-M_alt 'P 1'
_space_group_name_Hall 'P 1'
loop_
    _symmetry_equiv_pos_as_xyz
    x,y,z
loop_
    _atom_site_label
    _atom_site_type_symbol
    _atom_site_fract_x
    _atom_site_fract_y
    _atom_site_fract_z
    _atom_site_occupancy
    Tb1      Tb       0.27890    0.02876    0.99152    1.000
    O1       O        0.42250    0.89070    0.05070    1.000
    O2       O        0.30120    0.88090    0.78710    1.000
    O3       O        0.91140    0.22560    0.07580    1.000
    O4       O        0.57600    0.76070    0.07790    1.000
    O5       O        0.11680    0.98390    0.79440    1.000
    C1       C        0.95640    0.56350    0.21020    1.000
    C2       C        0.05510    0.26940    0.07370    1.000
    N1       N        0.19190    0.69520    0.14630    1.000
    N2       N        0.08990    0.55870    0.14570    1.000
    C3       C        0.28810    0.50410    0.07060    1.000
    C4       C        0.44460    0.77910    0.07500    1.000
    C5       C        0.18450    0.89430    0.73390    1.000
    C6       C        0.31320    0.65910    0.09850    1.000
    C7       C        0.12120    0.80440    0.59790    1.000
    C8       C        0.14540    0.44040    0.10050    1.000
    C9       C        0.01510    0.64810    0.34750    1.000
    C10      C        0.12680    0.61220    0.41140    1.000
    C11      C        0.18070    0.69120    0.53460    1.000
    C12      C        0.00710    0.83430    0.53610    1.000
    C13      C        0.95600    0.75910    0.41060    1.000
    O6       O        0.13580    0.18370    0.04680    1.000
    H1       H        0.36700    0.45800    0.02600    1.000
    H2       H        0.27700    0.65300    0.56800    1.000
    H3       H        0.88400    0.47500    0.19100    1.000
    H4       H        0.19500    0.56300    0.36900    1.000
    H5       H        0.92300    0.89500    0.56400    1.000
    H6       H        0.87500    0.76300    0.34700    1.000
    H7       H        0.91300    0.64300    0.17900    1.000
    Tb2      Tb       0.72110    0.97124    0.00848    1.000
    O7       O        0.57750    0.10930    0.94930    1.000
    O8       O        0.69880    0.11910    0.21290    1.000
    O9       O        0.08860    0.77440    0.92420    1.000
    O10      O        0.42400    0.23930    0.92210    1.000
    O11      O        0.88320    0.01610    0.20560    1.000
    C14      C        0.04360    0.43650    0.78980    1.000
    C15      C        0.94490    0.73060    0.92630    1.000
    N3       N        0.80810    0.30480    0.85370    1.000
    N4       N        0.91010    0.44130    0.85430    1.000
    C16      C        0.71190    0.49590    0.92940    1.000
    C17      C        0.55540    0.22090    0.92500    1.000
    C18      C        0.81550    0.10570    0.26610    1.000
    C19      C        0.68680    0.34090    0.90150    1.000
    C20      C        0.87880    0.19560    0.40210    1.000
    C21      C        0.85460    0.55960    0.89950    1.000
    C22      C        0.98490    0.35190    0.65250    1.000
    C23      C        0.87320    0.38780    0.58860    1.000
    C24      C        0.81930    0.30880    0.46540    1.000
    C25      C        0.99290    0.16570    0.46390    1.000
    C26      C        0.04400    0.24090    0.58940    1.000
    O12      O        0.86420    0.81630    0.95320    1.000
    H8       H        0.63300    0.54200    0.97400    1.000
    H9       H        0.72300    0.34700    0.43200    1.000
    H10      H        0.11600    0.52500    0.80900    1.000
    H11      H        0.80500    0.43700    0.63100    1.000
    H12      H        0.07700    0.10500    0.43600    1.000
    H13      H        0.12500    0.23700    0.65300    1.000
    H14      H        0.08700    0.35700    0.82100    1.000
