# CIF file generated by openbabel 3.1.0, see https://openbabel.org
data_I
_chemical_name_common 'image0'
_cell_length_a 10.266
_cell_length_b 10.266
_cell_length_c 9.6311
_cell_angle_alpha 90
_cell_angle_beta 90
_cell_angle_gamma 90
_space_group_name_H-M_alt 'P 1'
_space_group_name_Hall 'P 1'
loop_
    _symmetry_equiv_pos_as_xyz
    x,y,z
loop_
    _atom_site_label
    _atom_site_type_symbol
    _atom_site_fract_x
    _atom_site_fract_y
    _atom_site_fract_z
    _atom_site_occupancy
    O1       O        0.30440    0.47790    0.77880    1.000
    O2       O        0.80440    0.97790    0.27880    1.000
    O3       O        0.69560    0.52210    0.77880    1.000
    O4       O        0.19560    0.02210    0.27880    1.000
    O5       O        0.47790    0.69560    0.22120    1.000
    O6       O        0.97790    0.19560    0.72120    1.000
    O7       O        0.52210    0.30440    0.22120    1.000
    O8       O        0.02210    0.80440    0.72120    1.000
    O9       O        0.69560    0.47790    0.22120    1.000
    O10      O        0.19560    0.97790    0.72120    1.000
    O11      O        0.30440    0.52210    0.22120    1.000
    O12      O        0.80440    0.02210    0.72120    1.000
    O13      O        0.52210    0.69560    0.77880    1.000
    O14      O        0.02210    0.19560    0.27880    1.000
    O15      O        0.47790    0.30440    0.77880    1.000
    O16      O        0.97790    0.80440    0.27880    1.000
    Fe1      Fe       0.36725    0.36725    0.13121    1.000
    P1       P        0.33584    0.33584    0.80630    1.000
    O17      O        0.30040    0.30040    0.95480    1.000
    O18      O        0.25640    0.25640    0.70740    1.000
    Fe2      Fe       0.86725    0.86725    0.63121    1.000
    P2       P        0.83584    0.83584    0.30630    1.000
    O19      O        0.80040    0.80040    0.45480    1.000
    O20      O        0.75640    0.75640    0.20740    1.000
    Fe3      Fe       0.63275    0.63275    0.13121    1.000
    P3       P        0.66416    0.66416    0.80630    1.000
    O21      O        0.69960    0.69960    0.95480    1.000
    O22      O        0.74360    0.74360    0.70740    1.000
    Fe4      Fe       0.13275    0.13275    0.63121    1.000
    P4       P        0.16416    0.16416    0.30630    1.000
    O23      O        0.19960    0.19960    0.45480    1.000
    O24      O        0.24360    0.24360    0.20740    1.000
    Fe5      Fe       0.36725    0.63275    0.86879    1.000
    P5       P        0.33584    0.66416    0.19370    1.000
    O25      O        0.30040    0.69960    0.04520    1.000
    O26      O        0.25640    0.74360    0.29260    1.000
    Fe6      Fe       0.86725    0.13275    0.36879    1.000
    P6       P        0.83584    0.16416    0.69370    1.000
    O27      O        0.80040    0.19960    0.54520    1.000
    O28      O        0.75640    0.24360    0.79260    1.000
    Fe7      Fe       0.63275    0.36725    0.86879    1.000
    P7       P        0.66416    0.33584    0.19370    1.000
    O29      O        0.69960    0.30040    0.04520    1.000
    O30      O        0.74360    0.25640    0.29260    1.000
    Fe8      Fe       0.13275    0.86725    0.36879    1.000
    P8       P        0.16416    0.83584    0.69370    1.000
    O31      O        0.19960    0.80040    0.54520    1.000
    O32      O        0.24360    0.75640    0.79260    1.000
