data_functionalizedCrystal
_audit_creation_method	'EQeq! by Chris Wilmer'
_symmetry_space_group_name_H-M	'P1'
_symmetry_Int_Tables_number	1
_symmetry_cell_setting	triclinic
loop_
_symmetry_equiv_pos_as_xyz
  x,y,z
_cell_length_a	10.1884
_cell_length_b	10.1884
_cell_length_c	11.7332
_cell_angle_alpha	85.062
_cell_angle_beta	85.062
_cell_angle_gamma	70.5414
loop_
_atom_site_label
_atom_site_type_symbol
_atom_site_fract_x
_atom_site_fract_y
_atom_site_fract_z
_atom_site_charge
Mof_Cd	Cd	0.97825	0.02175	-0	0.362
Mof_Cd	Cd	0.78608	0.21392	0.5	0.41
Mof_H 	H 	0.3607	0.6101	0.6699	0.097
Mof_H 	H 	0.1368	0.1654	0.3505	0.08
Mof_H 	H 	0.3832	0.0778	0.7217	0.089
Mof_H 	H 	0.6835	0.0567	0.1417	0.003
Mof_H 	H 	0.9396	0.936	0.3722	-0.003
Mof_H 	H 	0.3038	0.1604	0.4745	0.035
Mof_H 	H 	0.064	0.0604	0.6278	-0.004
Mof_H 	H 	0.9222	0.6168	0.2783	0.086
Mof_H 	H 	0.0185	0.7325	0.1391	0.037
Mof_H 	H 	0.2641	0.8699	0.6353	0.102
Mof_H 	H 	0.9433	0.3165	0.8583	0.019
Mof_H 	H 	0.5417	0.4107	0.6635	0.005
Mof_H 	H 	0.6896	0.719	0.3405	0.037
Mof_H 	H 	0.8346	0.8632	0.6495	0.084
Mof_H 	H 	0.5893	0.4583	0.3365	-0.001
Mof_H 	H 	0.281	0.3104	0.6595	0.039
Mof_H 	H 	0.2675	0.9815	0.8609	0.049
Mof_H 	H 	0.3899	0.6393	0.3301	0.093
Mof_H 	H 	0.8396	0.6962	0.5255	0.034
Mof_H 	H 	0.4324	0.9134	0.1491	0.074
Mof_H 	H 	0.1301	0.7359	0.3647	0.1
Mof_H 	H 	0.0866	0.5676	0.8509	0.087
Mof_C 	C 	0.422	0.5976	0.4006	-0.162
Mof_C 	C 	0.5749	0.0625	0.4565	0.331
Mof_C 	C 	0.0282	0.4894	0.7175	0.096
Mof_C 	C 	0.9681	0.8417	0.8396	0.262
Mof_C 	C 	0.0345	0.5933	0.7865	-0.087
Mof_C 	C 	0.2949	0.1295	0.7508	-0.103
Mof_C 	C 	0.1583	0.0319	0.1604	0.264
Mof_C 	C 	0.928	0.7764	0.1685	0.047
Mof_C 	C 	0.5139	0.4613	0.5948	0.108
Mof_C 	C 	0.9642	0.733	0.76	-0.009
Mof_C 	C 	0.4067	0.9655	0.2135	-0.081
Mof_C 	C 	0.8859	0.6693	0.593	0.034
Mof_C 	C 	0.7299	0.9657	0.1684	0.073
Mof_C 	C 	0.2004	0.879	0.5805	-0.164
Mof_C 	C 	0.9533	0.5285	0.6203	-0.126
Mof_C 	C 	0.2229	0.7771	0.5	0.075
Mof_C 	C 	0.4024	0.578	0.5994	-0.161
Mof_C 	C 	0.3504	0.6496	0.5	0.081
Mof_C 	C 	0.267	0.0358	0.24	-0.022
Mof_C 	C 	0.2297	0.1133	0.3346	-0.07
Mof_C 	C 	0.4715	0.0467	0.3797	-0.126
Mof_C 	C 	0.7326	0.767	0.2873	0.011
Mof_C 	C 	0.3307	0.1141	0.407	0.028
Mof_C 	C 	0.121	0.7996	0.4195	-0.163
Mof_C 	C 	0.0062	0.921	0.4256	0.151
Mof_C 	C 	0.6591	0.9003	0.2462	-0.051
Mof_C 	C 	0.8705	0.7051	0.2492	-0.109
Mof_C 	C 	0.079	0.9938	0.5744	0.152
Mof_C 	C 	0.8867	0.7703	0.6654	-0.075
Mof_C 	C 	0.9375	0.4251	0.5435	0.332
Mof_C 	C 	0.2236	0.072	0.8315	0.051
Mof_C 	C 	0.0997	0.3409	0.7538	-0.046
Mof_C 	C 	0.5387	0.4861	0.4052	0.108
Mof_C 	C 	0.5106	0.9718	0.2825	0.093
Mof_C 	C 	0.233	0.2674	0.7127	0.012
Mof_C 	C 	0.0343	0.2701	0.8316	0.071
Mof_N 	N 	0.0949	0.1379	0.8706	-0.128
Mof_N 	N 	0.8621	0.9051	0.1294	-0.141
Mof_N 	N 	0.5864	0.4136	0.5	-0.163
Mof_N 	N 	0.9842	0.0158	0.5	-0.199
Mof_O 	O 	0.9602	0.445	0.4388	-0.271
Mof_O 	O 	0.19015	0.93755	0.0932	-0.254
Mof_O 	O 	0.67164	0.10184	0.4102	-0.296
Mof_O 	O 	0.555	0.0398	0.5612	-0.268
Mof_O 	O 	0.0401	0.1231	0.1657	-0.256
Mof_O 	O 	0.8769	0.9599	0.8343	-0.239
Mof_O 	O 	0.06245	0.80985	0.9068	-0.23
Mof_O 	O 	0.89816	0.32836	0.5898	-0.294
_end
