# CIF file generated by openbabel 3.1.0, see https://openbabel.org
data_I
_chemical_name_common 'PEYSIW_clean'
_cell_length_a 8.63
_cell_length_b 13.533
_cell_length_c 13.533
_cell_angle_alpha 93.4134
_cell_angle_beta 97.036
_cell_angle_gamma 97.036
_space_group_name_H-M_alt 'P 1'
_space_group_name_Hall 'P 1'
loop_
    _symmetry_equiv_pos_as_xyz
    x,y,z
loop_
    _atom_site_label
    _atom_site_type_symbol
    _atom_site_fract_x
    _atom_site_fract_y
    _atom_site_fract_z
    _atom_site_occupancy
    Ni1      Ni       0.75000    0.67710    0.32290    1.000
    H1       H        0.94430    0.74560    0.16040    1.000
    H2       H        0.92430    0.73500    0.98060    1.000
    H3       H        0.46750    0.60170    0.96150    1.000
    H4       H        0.50460    0.60590    0.14070    1.000
    H5       H        0.59640    0.69580    0.82180    1.000
    H6       H        0.66680    0.59580    0.82240    1.000
    H7       H        0.67350    0.81460    0.49000    1.000
    H8       H        0.70140    0.82920    0.67260    1.000
    H9       H        0.92170    0.57250    0.66610    1.000
    H10      H        0.88450    0.55870    0.49710    1.000
    H11      H        0.83300    0.77990    0.83450    1.000
    H12      H        0.90840    0.68190    0.84250    1.000
    H13      H        0.55570    0.83960    0.25440    1.000
    H14      H        0.57570    0.01940    0.26500    1.000
    H15      H        0.03250    0.03850    0.39830    1.000
    H16      H        0.99540    0.85930    0.39410    1.000
    H17      H        0.90360    0.17820    0.30420    1.000
    H18      H        0.83320    0.17760    0.40420    1.000
    H19      H        0.82650    0.51000    0.18540    1.000
    H20      H        0.79860    0.32740    0.17080    1.000
    H21      H        0.57830    0.33390    0.42750    1.000
    H22      H        0.61550    0.50290    0.44130    1.000
    H23      H        0.66700    0.16550    0.22010    1.000
    H24      H        0.59160    0.15750    0.31810    1.000
    C1       C        0.83800    0.71300    0.12300    1.000
    C2       C        0.83200    0.71110    0.01490    1.000
    C3       C        0.69600    0.66900    0.95900    1.000
    C4       C        0.57400    0.62800    0.00400    1.000
    C5       C        0.58800    0.63610    0.10590    1.000
    C6       C        0.68800    0.66200    0.85000    1.000
    C7       C        0.72600    0.76400    0.53000    1.000
    C8       C        0.74100    0.77100    0.63900    1.000
    C9       C        0.81000    0.69700    0.68900    1.000
    C10      C        0.86500    0.62400    0.63600    1.000
    C11      C        0.85200    0.62000    0.53600    1.000
    C12      C        0.81600    0.71400    0.80600    1.000
    C13      C        0.10900    0.65610    0.34590    1.000
    C14      C        0.66200    0.87700    0.28700    1.000
    C15      C        0.66800    0.98510    0.28890    1.000
    C16      C        0.80400    0.04100    0.33100    1.000
    C17      C        0.92600    0.99600    0.37200    1.000
    C18      C        0.91200    0.89410    0.36390    1.000
    C19      C        0.81200    0.15000    0.33800    1.000
    C20      C        0.77400    0.47000    0.23600    1.000
    C21      C        0.75900    0.36100    0.22900    1.000
    C22      C        0.69000    0.31100    0.30300    1.000
    C23      C        0.63500    0.36400    0.37600    1.000
    C24      C        0.64800    0.46400    0.38000    1.000
    C25      C        0.68400    0.19400    0.28600    1.000
    C26      C        0.39100    0.65410    0.34390    1.000
    N1       N        0.72000    0.67450    0.16570    1.000
    N2       N        0.77900    0.68800    0.48380    1.000
    N3       N        0.98800    0.67180    0.33040    1.000
    N4       N        0.78000    0.83430    0.32550    1.000
    N5       N        0.72100    0.51620    0.31200    1.000
    N6       N        0.51200    0.66960    0.32820    1.000
    N7       N        0.25000    0.62400    0.37600    1.000
    Ni2      Ni       0.25000    0.32290    0.67710    1.000
    H25      H        0.05570    0.25440    0.83960    1.000
    H26      H        0.07570    0.26500    0.01940    1.000
    H27      H        0.53250    0.39830    0.03850    1.000
    H28      H        0.49540    0.39410    0.85930    1.000
    H29      H        0.40360    0.30420    0.17820    1.000
    H30      H        0.33320    0.40420    0.17760    1.000
    H31      H        0.32650    0.18540    0.51000    1.000
    H32      H        0.29860    0.17080    0.32740    1.000
    H33      H        0.07830    0.42750    0.33390    1.000
    H34      H        0.11550    0.44130    0.50290    1.000
    H35      H        0.16700    0.22010    0.16550    1.000
    H36      H        0.09160    0.31810    0.15750    1.000
    H37      H        0.44430    0.16040    0.74560    1.000
    H38      H        0.42430    0.98060    0.73500    1.000
    H39      H        0.96750    0.96150    0.60170    1.000
    H40      H        0.00460    0.14070    0.60590    1.000
    H41      H        0.09640    0.82180    0.69580    1.000
    H42      H        0.16680    0.82240    0.59580    1.000
    H43      H        0.17350    0.49000    0.81460    1.000
    H44      H        0.20140    0.67260    0.82920    1.000
    H45      H        0.42170    0.66610    0.57250    1.000
    H46      H        0.38450    0.49710    0.55870    1.000
    H47      H        0.33300    0.83450    0.77990    1.000
    H48      H        0.40840    0.84250    0.68190    1.000
    C27      C        0.16200    0.28700    0.87700    1.000
    C28      C        0.16800    0.28890    0.98510    1.000
    C29      C        0.30400    0.33100    0.04100    1.000
    C30      C        0.42600    0.37200    0.99600    1.000
    C31      C        0.41200    0.36390    0.89410    1.000
    C32      C        0.31200    0.33800    0.15000    1.000
    C33      C        0.27400    0.23600    0.47000    1.000
    C34      C        0.25900    0.22900    0.36100    1.000
    C35      C        0.19000    0.30300    0.31100    1.000
    C36      C        0.13500    0.37600    0.36400    1.000
    C37      C        0.14800    0.38000    0.46400    1.000
    C38      C        0.18400    0.28600    0.19400    1.000
    C39      C        0.89100    0.34390    0.65410    1.000
    C40      C        0.33800    0.12300    0.71300    1.000
    C41      C        0.33200    0.01490    0.71110    1.000
    C42      C        0.19600    0.95900    0.66900    1.000
    C43      C        0.07400    0.00400    0.62800    1.000
    C44      C        0.08800    0.10590    0.63610    1.000
    C45      C        0.18800    0.85000    0.66200    1.000
    C46      C        0.22600    0.53000    0.76400    1.000
    C47      C        0.24100    0.63900    0.77100    1.000
    C48      C        0.31000    0.68900    0.69700    1.000
    C49      C        0.36500    0.63600    0.62400    1.000
    C50      C        0.35200    0.53600    0.62000    1.000
    C51      C        0.31600    0.80600    0.71400    1.000
    C52      C        0.60900    0.34590    0.65610    1.000
    N8       N        0.28000    0.32550    0.83430    1.000
    N9       N        0.22100    0.31200    0.51620    1.000
    N10      N        0.01200    0.32820    0.66960    1.000
    N11      N        0.22000    0.16570    0.67450    1.000
    N12      N        0.27900    0.48380    0.68800    1.000
    N13      N        0.48800    0.33040    0.67180    1.000
    N14      N        0.75000    0.37600    0.62400    1.000
