data_functionalizedCrystal
_audit_creation_method	'EQeq! by Chris Wilmer'
_symmetry_space_group_name_H-M	'P1'
_symmetry_Int_Tables_number	1
_symmetry_cell_setting	triclinic
loop_
_symmetry_equiv_pos_as_xyz
  x,y,z
_cell_length_a	15.306
_cell_length_b	6.726
_cell_length_c	14.386
_cell_angle_alpha	90
_cell_angle_beta	90
_cell_angle_gamma	90
loop_
_atom_site_label
_atom_site_type_symbol
_atom_site_fract_x
_atom_site_fract_y
_atom_site_fract_z
_atom_site_charge
Mof_O 	O 	0.1479	0.5869	0.3624	-0.63
Mof_O 	O 	0.2056	0.915	0.7549	-0.668
Mof_O 	O 	0.3521	0.4131	0.8624	-0.63
Mof_O 	O 	0.2944	0.085	0.2549	-0.668
Mof_O 	O 	0.8521	0.0869	0.6376	-0.63
Mof_O 	O 	0.7944	0.415	0.2451	-0.669
Mof_O 	O 	0.6479	0.9131	0.1376	-0.631
Mof_O 	O 	0.7056	0.585	0.7451	-0.669
Mof_O 	O 	0.8521	0.4131	0.6376	-0.63
Mof_O 	O 	0.7944	0.085	0.2451	-0.668
Mof_O 	O 	0.6479	0.5869	0.1376	-0.63
Mof_O 	O 	0.7056	0.915	0.7451	-0.668
Mof_O 	O 	0.1479	0.9131	0.3624	-0.63
Mof_O 	O 	0.2056	0.585	0.7549	-0.669
Mof_O 	O 	0.3521	0.0869	0.8624	-0.631
Mof_O 	O 	0.2944	0.415	0.2549	-0.669
Mof_Eu	Eu	0.80154	0.75	0.6211	1.845
Mof_O 	O 	0.8498	0.75	0.4629	-0.684
Mof_O 	O 	0.9505	0.75	0.3525	-0.393
Mof_O 	O 	0.0229	0.75	0.8301	-0.401
Mof_O 	O 	0.8916	0.75	0.7589	-0.547
Mof_N 	N 	0.9665	0.75	0.5955	-0.192
Mof_N 	N 	0.143	0.75	0.5631	-0.165
Mof_C 	C 	0.9979	0.75	0.5082	-0.033
Mof_C 	C 	0.0857	0.75	0.4925	-0.084
Mof_C 	C 	0.1065	0.75	0.6521	-0.089
Mof_C 	C 	0.02	0.75	0.6669	-0.012
Mof_C 	C 	0.9288	0.75	0.4336	0.397
Mof_C 	C 	0.1291	0.75	0.3993	0.449
Mof_C 	C 	0.1734	0.75	0.729	0.398
Mof_C 	C 	0.9729	0.75	0.7599	0.33
Mof_Eu	Eu	0.69846	0.25	0.1211	1.848
Mof_O 	O 	0.6502	0.25	0.9629	-0.685
Mof_O 	O 	0.5495	0.25	0.8525	-0.392
Mof_O 	O 	0.4771	0.25	0.3301	-0.403
Mof_O 	O 	0.6084	0.25	0.2589	-0.548
Mof_N 	N 	0.5335	0.25	0.0955	-0.192
Mof_N 	N 	0.357	0.25	0.0631	-0.165
Mof_C 	C 	0.5021	0.25	0.0082	-0.03
Mof_C 	C 	0.4143	0.25	0.9925	-0.085
Mof_C 	C 	0.3935	0.25	0.1521	-0.088
Mof_C 	C 	0.48	0.25	0.1669	-0.014
Mof_C 	C 	0.5712	0.25	0.9336	0.396
Mof_C 	C 	0.3709	0.25	0.8993	0.45
Mof_C 	C 	0.3266	0.25	0.229	0.398
Mof_C 	C 	0.5271	0.25	0.2599	0.334
Mof_Eu	Eu	0.19846	0.25	0.3789	1.845
Mof_O 	O 	0.1502	0.25	0.5371	-0.684
Mof_O 	O 	0.0495	0.25	0.6475	-0.393
Mof_O 	O 	0.9771	0.25	0.1699	-0.401
Mof_O 	O 	0.1084	0.25	0.2411	-0.547
Mof_N 	N 	0.0335	0.25	0.4045	-0.192
Mof_N 	N 	0.857	0.25	0.4369	-0.165
Mof_C 	C 	0.0021	0.25	0.4918	-0.033
Mof_C 	C 	0.9143	0.25	0.5075	-0.084
Mof_C 	C 	0.8935	0.25	0.3479	-0.089
Mof_C 	C 	0.98	0.25	0.3331	-0.012
Mof_C 	C 	0.0712	0.25	0.5664	0.397
Mof_C 	C 	0.8709	0.25	0.6007	0.449
Mof_C 	C 	0.8266	0.25	0.271	0.398
Mof_C 	C 	0.0271	0.25	0.2401	0.33
Mof_Eu	Eu	0.30154	0.75	0.8789	1.848
Mof_O 	O 	0.3498	0.75	0.0371	-0.685
Mof_O 	O 	0.4505	0.75	0.1475	-0.392
Mof_O 	O 	0.5229	0.75	0.6699	-0.403
Mof_O 	O 	0.3916	0.75	0.7411	-0.548
Mof_N 	N 	0.4665	0.75	0.9045	-0.192
Mof_N 	N 	0.643	0.75	0.9369	-0.165
Mof_C 	C 	0.4979	0.75	0.9918	-0.03
Mof_C 	C 	0.5857	0.75	0.0075	-0.085
Mof_C 	C 	0.6065	0.75	0.8479	-0.088
Mof_C 	C 	0.52	0.75	0.8331	-0.014
Mof_C 	C 	0.4288	0.75	0.0664	0.396
Mof_C 	C 	0.6291	0.75	0.1007	0.45
Mof_C 	C 	0.6734	0.75	0.771	0.398
Mof_C 	C 	0.4729	0.75	0.7401	0.334
Mof_Na	Na	0.2639	0.25	0.689	1.776
Mof_Na	Na	0.2361	0.75	0.189	1.776
Mof_Na	Na	0.7361	0.75	0.311	1.776
Mof_Na	Na	0.7639	0.25	0.811	1.776
_end
