# CIF file generated by openbabel 3.1.0, see https://openbabel.org
data_I
_chemical_name_common 'image0'
_cell_length_a 12.3299
_cell_length_b 22.7467
_cell_length_c 26.7771
_cell_angle_alpha 90
_cell_angle_beta 101.159
_cell_angle_gamma 90
_space_group_name_H-M_alt 'P 1'
_space_group_name_Hall 'P 1'
loop_
    _symmetry_equiv_pos_as_xyz
    x,y,z
loop_
    _atom_site_label
    _atom_site_type_symbol
    _atom_site_fract_x
    _atom_site_fract_y
    _atom_site_fract_z
    _atom_site_occupancy
    Cu1      Cu       0.96829    0.85464    0.29368    1.000
    N1       N        0.90820    0.93270    0.26427    1.000
    N2       N        0.92270    0.87570    0.36023    1.000
    N3       N        0.46270    0.28040    0.17183    1.000
    N4       N        0.98140    0.16620    0.77162    1.000
    C1       C        0.80800    0.95310    0.27040    1.000
    C2       C        0.97030    0.96850    0.24160    1.000
    C3       C        0.97310    0.92030    0.38800    1.000
    C4       C        0.84090    0.84750    0.37650    1.000
    H1       H        0.76300    0.92820    0.28640    1.000
    C5       C        0.76900    0.00730    0.25490    1.000
    C6       C        0.93750    0.02450    0.22600    1.000
    H2       H        0.03970    0.95460    0.23600    1.000
    H3       H        0.03120    0.94050    0.37660    1.000
    C7       C        0.94360    0.93790    0.43240    1.000
    C8       C        0.80390    0.86370    0.42060    1.000
    H4       H        0.80650    0.81520    0.35730    1.000
    H5       H        0.69740    0.01940    0.25880    1.000
    C9       C        0.83580    0.04450    0.23320    1.000
    H6       H        0.98400    0.04900    0.21050    1.000
    H7       H        0.98230    0.96900    0.45180    1.000
    C10      C        0.85690    0.91000    0.44900    1.000
    H8       H        0.74420    0.84360    0.43080    1.000
    C11      C        0.79490    0.10520    0.21750    1.000
    C12      C        0.82520    0.93110    0.49650    1.000
    O1       O        0.70530    0.12350    0.22150    1.000
    O2       O        0.87080    0.13545    0.20011    1.000
    O3       O        0.88180    0.96400    0.52510    1.000
    O4       O        0.73120    0.91030    0.50478    1.000
    C13      C        0.84020    0.19530    0.18360    1.000
    C14      C        0.70190    0.93340    0.55110    1.000
    H9       H        0.83850    0.22080    0.21340    1.000
    H10      H        0.76610    0.19570    0.16130    1.000
    C15      C        0.92570    0.21640    0.15520    1.000
    H11      H        0.70640    0.97690    0.55140    1.000
    H12      H        0.75360    0.91820    0.58140    1.000
    C16      C        0.58590    0.91410    0.55240    1.000
    N5       N        0.92310    0.18330    0.10730    1.000
    H13      H        0.91320    0.25860    0.14710    1.000
    H14      H        0.99970    0.21230    0.17710    1.000
    N6       N        0.56080    0.93410    0.60131    1.000
    H15      H        0.53330    0.93170    0.52360    1.000
    H16      H        0.57990    0.87070    0.54970    1.000
    C17      C        0.00700    0.14300    0.10490    1.000
    C18      C        0.83600    0.19540    0.06900    1.000
    C19      C        0.58810    0.89610    0.64200    1.000
    C20      C        0.52200    0.99030    0.60360    1.000
    O5       O        0.08240    0.13470    0.14000    1.000
    N7       N        0.99820    0.11450    0.05920    1.000
    O6       O        0.76510    0.23100    0.07310    1.000
    N8       N        0.83180    0.16430    0.02550    1.000
    O7       O        0.62720    0.84820    0.63909    1.000
    N9       N        0.56660    0.91850    0.68789    1.000
    O8       O        0.50400    0.02220    0.56625    1.000
    N10      N        0.50520    0.00870    0.65090    1.000
    C21      C        0.08430    0.07210    0.05420    1.000
    C22      C        0.90940    0.12170    0.01880    1.000
    C23      C        0.73400    0.17430    0.98440    1.000
    C24      C        0.59000    0.88130    0.73340    1.000
    C25      C        0.52350    0.97390    0.69340    1.000
    C26      C        0.45690    0.06730    0.65450    1.000
    C27      C        0.16830    0.09770    0.02530    1.000
    H17      H        0.04980    0.03690    0.03600    1.000
    H18      H        0.12270    0.05970    0.08850    1.000
    O9       O        0.90370    0.09290    0.98010    1.000
    C28      C        0.74160    0.23800    0.95310    1.000
    H19      H        0.66660    0.17470    0.99940    1.000
    H20      H        0.72730    0.14140    0.95990    1.000
    C29      C        0.70080    0.89630    0.76690    1.000
    H21      H        0.59010    0.83950    0.72300    1.000
    H22      H        0.53070    0.88650    0.75320    1.000
    O10      O        0.50450    0.99010    0.73363    1.000
    C30      C        0.54200    0.11430    0.66970    1.000
    H23      H        0.40790    0.06590    0.67970    1.000
    H24      H        0.41100    0.07760    0.62110    1.000
    O11      O        0.22820    0.14530    0.05310    1.000
    H25      H        0.22080    0.06660    0.01970    1.000
    H26      H        0.12960    0.11200    0.99160    1.000
    O12      O        0.77960    0.22270    0.90650    1.000
    H27      H        0.66820    0.25710    0.94500    1.000
    H28      H        0.79430    0.26530    0.97400    1.000
    O13      O        0.78880    0.89050    0.73821    1.000
    H29      H        0.69910    0.93700    0.77960    1.000
    H30      H        0.71510    0.86950    0.79660    1.000
    O14      O        0.60810    0.12230    0.63018    1.000
    H31      H        0.50490    0.15170    0.67510    1.000
    H32      H        0.59100    0.10330    0.70220    1.000
    C31      C        0.31900    0.13110    0.08700    1.000
    C32      C        0.88770    0.21530    0.91150    1.000
    C33      C        0.82630    0.83600    0.73320    1.000
    C34      C        0.56090    0.15100    0.58960    1.000
    O15      O        0.35550    0.08310    0.09490    1.000
    C35      C        0.36850    0.18390    0.11650    1.000
    O16      O        0.95180    0.21990    0.94930    1.000
    C36      C        0.91620    0.19750    0.86170    1.000
    O17      O        0.80200    0.79260    0.75442    1.000
    C37      C        0.90330    0.83560    0.69540    1.000
    O18      O        0.47030    0.17520    0.58360    1.000
    C38      C        0.63030    0.15300    0.55000    1.000
    C39      C        0.31510    0.23690    0.11350    1.000
    C40      C        0.47010    0.17980    0.14860    1.000
    C41      C        0.02240    0.17820    0.86180    1.000
    C42      C        0.84190    0.19970    0.81530    1.000
    C43      C        0.91840    0.88560    0.66840    1.000
    C44      C        0.95650    0.78490    0.68720    1.000
    C45      C        0.60790    0.19520    0.51190    1.000
    C46      C        0.71770    0.11450    0.54920    1.000
    C47      C        0.36340    0.28370    0.14090    1.000
    H33      H        0.24420    0.24110    0.09230    1.000
    H34      H        0.50930    0.14360    0.15200    1.000
    C48      C        0.51400    0.22820    0.17570    1.000
    C49      C        0.05070    0.16230    0.81600    1.000
    H35      H        0.07510    0.17580    0.89280    1.000
    H36      H        0.76740    0.21150    0.81390    1.000
    C50      C        0.87780    0.18490    0.77230    1.000
    C51      C        0.98780    0.88310    0.63440    1.000
    H37      H        0.88120    0.92110    0.67330    1.000
    H38      H        0.94750    0.75000    0.70540    1.000
    C52      C        0.02340    0.78590    0.65170    1.000
    C53      C        0.67270    0.19790    0.47530    1.000
    H39      H        0.54840    0.22200    0.51100    1.000
    H40      H        0.73590    0.08500    0.57450    1.000
    C54      C        0.77680    0.11980    0.51150    1.000
    H41      H        0.32520    0.32020    0.13790    1.000
    H42      H        0.58360    0.22470    0.19800    1.000
    H43      H        0.12330    0.14790    0.81640    1.000
    H44      H        0.82710    0.18770    0.74080    1.000
    N11      N        0.04120    0.83410    0.62570    1.000
    H45      H        0.99870    0.91780    0.61620    1.000
    H46      H        0.05900    0.75040    0.64520    1.000
    N12      N        0.75600    0.16050    0.47490    1.000
    H47      H        0.65750    0.22710    0.44960    1.000
    H48      H        0.83600    0.09320    0.51110    1.000
    Cu2      Cu       0.15005    0.83389    0.57838    1.000
    O19      O        0.27300    0.77790    0.63570    1.000
    C55      C        0.34580    0.80010    0.67670    1.000
    H49      H        0.38890    0.76790    0.69500    1.000
    H50      H        0.39580    0.82800    0.66480    1.000
    H51      H        0.30470    0.82020    0.69950    1.000
    O20      O        0.15700    0.92220    0.58510    1.000
    N13      N        0.24870    0.93970    0.60960    1.000
    O21      O        0.26110    0.99290    0.62140    1.000
    O22      O        0.33380    0.90810    0.61800    1.000
    H52      H        0.26320    0.80270    0.61200    1.000
    O23      O        0.73400    0.10950    0.36870    1.000
    Cu3      Cu       0.53171    0.35464    0.20632    1.000
    N14      N        0.59180    0.43270    0.23573    1.000
    N15      N        0.57730    0.37570    0.13977    1.000
    N16      N        0.03730    0.78040    0.32817    1.000
    N17      N        0.51860    0.66620    0.72838    1.000
    C56      C        0.69200    0.45310    0.22960    1.000
    C57      C        0.52970    0.46850    0.25840    1.000
    C58      C        0.52690    0.42030    0.11200    1.000
    C59      C        0.65910    0.34750    0.12350    1.000
    H53      H        0.73700    0.42820    0.21360    1.000
    C60      C        0.73100    0.50730    0.24510    1.000
    C61      C        0.56250    0.52450    0.27400    1.000
    H54      H        0.46030    0.45460    0.26400    1.000
    H55      H        0.46880    0.44050    0.12340    1.000
    C62      C        0.55640    0.43790    0.06760    1.000
    C63      C        0.69610    0.36370    0.07940    1.000
    H56      H        0.69350    0.31520    0.14270    1.000
    H57      H        0.80260    0.51940    0.24120    1.000
    C64      C        0.66420    0.54450    0.26680    1.000
    H58      H        0.51600    0.54900    0.28950    1.000
    H59      H        0.51770    0.46900    0.04820    1.000
    C65      C        0.64310    0.41000    0.05100    1.000
    H60      H        0.75580    0.34360    0.06920    1.000
    C66      C        0.70510    0.60520    0.28250    1.000
    C67      C        0.67480    0.43110    0.00350    1.000
    O24      O        0.79470    0.62350    0.27850    1.000
    O25      O        0.62920    0.63545    0.29989    1.000
    O26      O        0.61820    0.46400    0.97490    1.000
    O27      O        0.76880    0.41030    0.99522    1.000
    C68      C        0.65980    0.69530    0.31640    1.000
    C69      C        0.79810    0.43340    0.94890    1.000
    H61      H        0.66150    0.72080    0.28660    1.000
    H62      H        0.73390    0.69570    0.33870    1.000
    C70      C        0.57430    0.71640    0.34480    1.000
    H63      H        0.79360    0.47690    0.94860    1.000
    H64      H        0.74640    0.41820    0.91860    1.000
    C71      C        0.91410    0.41410    0.94760    1.000
    N18      N        0.57690    0.68330    0.39270    1.000
    H65      H        0.58680    0.75860    0.35290    1.000
    H66      H        0.50030    0.71230    0.32290    1.000
    N19      N        0.93920    0.43410    0.89869    1.000
    H67      H        0.96670    0.43170    0.97640    1.000
    H68      H        0.92010    0.37070    0.95030    1.000
    C72      C        0.49300    0.64300    0.39510    1.000
    C73      C        0.66400    0.69540    0.43100    1.000
    C74      C        0.91190    0.39610    0.85800    1.000
    C75      C        0.97800    0.49030    0.89640    1.000
    O28      O        0.41760    0.63470    0.36000    1.000
    N20      N        0.50180    0.61450    0.44080    1.000
    O29      O        0.73490    0.73100    0.42690    1.000
    N21      N        0.66820    0.66430    0.47450    1.000
    O30      O        0.87280    0.34820    0.86091    1.000
    N22      N        0.93340    0.41850    0.81211    1.000
    O31      O        0.99600    0.52220    0.93375    1.000
    N23      N        0.99480    0.50870    0.84910    1.000
    C76      C        0.41570    0.57210    0.44580    1.000
    C77      C        0.59060    0.62170    0.48120    1.000
    C78      C        0.76600    0.67430    0.51560    1.000
    C79      C        0.91000    0.38130    0.76660    1.000
    C80      C        0.97650    0.47390    0.80660    1.000
    C81      C        0.04310    0.56730    0.84550    1.000
    C82      C        0.33170    0.59770    0.47470    1.000
    H69      H        0.45020    0.53690    0.46400    1.000
    H70      H        0.37730    0.55970    0.41150    1.000
    O32      O        0.59630    0.59290    0.51990    1.000
    C83      C        0.75840    0.73800    0.54690    1.000
    H71      H        0.83340    0.67470    0.50060    1.000
    H72      H        0.77270    0.64140    0.54010    1.000
    C84      C        0.79920    0.39630    0.73310    1.000
    H73      H        0.90990    0.33950    0.77700    1.000
    H74      H        0.96930    0.38650    0.74680    1.000
    O33      O        0.99550    0.49010    0.76637    1.000
    C85      C        0.95800    0.61430    0.83030    1.000
    H75      H        0.09210    0.56590    0.82030    1.000
    H76      H        0.08900    0.57760    0.87890    1.000
    O34      O        0.27180    0.64530    0.44690    1.000
    H77      H        0.27920    0.56660    0.48030    1.000
    H78      H        0.37040    0.61200    0.50840    1.000
    O35      O        0.72040    0.72270    0.59350    1.000
    H79      H        0.83180    0.75710    0.55500    1.000
    H80      H        0.70570    0.76530    0.52600    1.000
    O36      O        0.71120    0.39050    0.76179    1.000
    H81      H        0.80090    0.43700    0.72040    1.000
    H82      H        0.78490    0.36950    0.70340    1.000
    O37      O        0.89190    0.62230    0.86982    1.000
    H83      H        0.99510    0.65170    0.82490    1.000
    H84      H        0.90900    0.60330    0.79780    1.000
    C86      C        0.18100    0.63110    0.41300    1.000
    C87      C        0.61230    0.71530    0.58850    1.000
    C88      C        0.67370    0.33600    0.76680    1.000
    C89      C        0.93910    0.65100    0.91040    1.000
    O38      O        0.14450    0.58310    0.40510    1.000
    C90      C        0.13150    0.68390    0.38350    1.000
    O39      O        0.54820    0.71990    0.55070    1.000
    C91      C        0.58380    0.69750    0.63830    1.000
    O40      O        0.69800    0.29260    0.74558    1.000
    C92      C        0.59670    0.33560    0.80460    1.000
    O41      O        0.02970    0.67520    0.91640    1.000
    C93      C        0.86970    0.65300    0.95000    1.000
    C94      C        0.18490    0.73690    0.38650    1.000
    C95      C        0.02990    0.67980    0.35140    1.000
    C96      C        0.47760    0.67820    0.63820    1.000
    C97      C        0.65810    0.69970    0.68470    1.000
    C98      C        0.58160    0.38560    0.83160    1.000
    C99      C        0.54350    0.28490    0.81280    1.000
    C100     C        0.89210    0.69520    0.98810    1.000
    C101     C        0.78230    0.61450    0.95080    1.000
    C102     C        0.13660    0.78370    0.35910    1.000
    H85      H        0.25580    0.74110    0.40770    1.000
    H86      H        0.99070    0.64360    0.34800    1.000
    C103     C        0.98600    0.72820    0.32430    1.000
    C104     C        0.44930    0.66230    0.68400    1.000
    H87      H        0.42490    0.67580    0.60720    1.000
    H88      H        0.73260    0.71150    0.68610    1.000
    C105     C        0.62220    0.68490    0.72770    1.000
    C106     C        0.51220    0.38310    0.86560    1.000
    H89      H        0.61880    0.42110    0.82670    1.000
    H90      H        0.55250    0.25000    0.79460    1.000
    C107     C        0.47660    0.28590    0.84830    1.000
    C108     C        0.82730    0.69790    0.02470    1.000
    H91      H        0.95160    0.72200    0.98900    1.000
    H92      H        0.76410    0.58500    0.92550    1.000
    C109     C        0.72320    0.61980    0.98850    1.000
    H93      H        0.17480    0.82020    0.36210    1.000
    H94      H        0.91640    0.72470    0.30200    1.000
    H95      H        0.37670    0.64790    0.68360    1.000
    H96      H        0.67290    0.68770    0.75920    1.000
    N24      N        0.45880    0.33410    0.87430    1.000
    H97      H        0.50130    0.41780    0.88380    1.000
    H98      H        0.44100    0.25040    0.85480    1.000
    N25      N        0.74400    0.66050    0.02510    1.000
    H99      H        0.84250    0.72710    0.05040    1.000
    H100     H        0.66400    0.59320    0.98890    1.000
    Cu4      Cu       0.34995    0.33389    0.92162    1.000
    O42      O        0.22700    0.27790    0.86430    1.000
    C110     C        0.15420    0.30010    0.82330    1.000
    H101     H        0.11110    0.26790    0.80500    1.000
    H102     H        0.10420    0.32800    0.83520    1.000
    H103     H        0.19530    0.32020    0.80050    1.000
    O43      O        0.34300    0.42220    0.91490    1.000
    N26      N        0.25130    0.43970    0.89040    1.000
    O44      O        0.23890    0.49290    0.87860    1.000
    O45      O        0.16620    0.40810    0.88200    1.000
    H104     H        0.23680    0.30270    0.88800    1.000
    O46      O        0.76600    0.60950    0.13130    1.000
    Cu5      Cu       0.03171    0.14536    0.70632    1.000
    N27      N        0.09180    0.06730    0.73573    1.000
    N28      N        0.07730    0.12430    0.63977    1.000
    N29      N        0.53730    0.71960    0.82817    1.000
    N30      N        0.01860    0.83380    0.22838    1.000
    C111     C        0.19200    0.04690    0.72960    1.000
    C112     C        0.02970    0.03150    0.75840    1.000
    C113     C        0.02690    0.07970    0.61200    1.000
    C114     C        0.15910    0.15250    0.62350    1.000
    H105     H        0.23700    0.07180    0.71360    1.000
    C115     C        0.23100    0.99270    0.74510    1.000
    C116     C        0.06250    0.97550    0.77400    1.000
    H106     H        0.96030    0.04540    0.76400    1.000
    H107     H        0.96880    0.05950    0.62340    1.000
    C117     C        0.05640    0.06210    0.56760    1.000
    C118     C        0.19610    0.13630    0.57940    1.000
    H108     H        0.19350    0.18480    0.64270    1.000
    H109     H        0.30260    0.98060    0.74120    1.000
    C119     C        0.16420    0.95550    0.76680    1.000
    H110     H        0.01600    0.95100    0.78950    1.000
    H111     H        0.01770    0.03100    0.54820    1.000
    C120     C        0.14310    0.09000    0.55100    1.000
    H112     H        0.25580    0.15640    0.56920    1.000
    C121     C        0.20510    0.89480    0.78250    1.000
    C122     C        0.17480    0.06890    0.50350    1.000
    O47      O        0.29470    0.87650    0.77850    1.000
    O48      O        0.12920    0.86455    0.79989    1.000
    O49      O        0.11820    0.03600    0.47490    1.000
    O50      O        0.26880    0.08970    0.49522    1.000
    C123     C        0.15980    0.80470    0.81640    1.000
    C124     C        0.29810    0.06660    0.44890    1.000
    H113     H        0.16150    0.77920    0.78660    1.000
    H114     H        0.23390    0.80430    0.83870    1.000
    C125     C        0.07430    0.78360    0.84480    1.000
    H115     H        0.29360    0.02310    0.44860    1.000
    H116     H        0.24640    0.08180    0.41860    1.000
    C126     C        0.41410    0.08590    0.44760    1.000
    N31      N        0.07690    0.81670    0.89270    1.000
    H117     H        0.08680    0.74140    0.85290    1.000
    H118     H        0.00030    0.78770    0.82290    1.000
    N32      N        0.43920    0.06590    0.39869    1.000
    H119     H        0.46670    0.06830    0.47640    1.000
    H120     H        0.42010    0.12930    0.45030    1.000
    C127     C        0.99300    0.85700    0.89510    1.000
    C128     C        0.16400    0.80460    0.93100    1.000
    C129     C        0.41190    0.10390    0.35800    1.000
    C130     C        0.47800    0.00970    0.39640    1.000
    O51      O        0.91760    0.86530    0.86000    1.000
    N33      N        0.00180    0.88550    0.94080    1.000
    O52      O        0.23490    0.76900    0.92690    1.000
    N34      N        0.16820    0.83570    0.97450    1.000
    O53      O        0.37280    0.15180    0.36091    1.000
    N35      N        0.43340    0.08150    0.31211    1.000
    O54      O        0.49600    0.97780    0.43375    1.000
    N36      N        0.49480    0.99130    0.34910    1.000
    C131     C        0.91570    0.92790    0.94580    1.000
    C132     C        0.09060    0.87830    0.98120    1.000
    C133     C        0.26600    0.82570    0.01560    1.000
    C134     C        0.41000    0.11870    0.26660    1.000
    C135     C        0.47650    0.02610    0.30660    1.000
    C136     C        0.54310    0.93270    0.34550    1.000
    C137     C        0.83170    0.90230    0.97470    1.000
    H121     H        0.95020    0.96310    0.96400    1.000
    H122     H        0.87730    0.94030    0.91150    1.000
    O55      O        0.09630    0.90710    0.01990    1.000
    C138     C        0.25840    0.76200    0.04690    1.000
    H123     H        0.33340    0.82530    0.00060    1.000
    H124     H        0.27270    0.85860    0.04010    1.000
    C139     C        0.29920    0.10370    0.23310    1.000
    H125     H        0.40990    0.16050    0.27700    1.000
    H126     H        0.46930    0.11350    0.24680    1.000
    O56      O        0.49550    0.00990    0.26637    1.000
    C140     C        0.45800    0.88570    0.33030    1.000
    H127     H        0.59210    0.93410    0.32030    1.000
    H128     H        0.58900    0.92240    0.37890    1.000
    O57      O        0.77180    0.85470    0.94690    1.000
    H129     H        0.77920    0.93340    0.98030    1.000
    H130     H        0.87040    0.88800    0.00840    1.000
    O58      O        0.22040    0.77730    0.09350    1.000
    H131     H        0.33180    0.74290    0.05500    1.000
    H132     H        0.20570    0.73470    0.02600    1.000
    O59      O        0.21120    0.10950    0.26179    1.000
    H133     H        0.30090    0.06300    0.22040    1.000
    H134     H        0.28490    0.13050    0.20340    1.000
    O60      O        0.39190    0.87770    0.36982    1.000
    H135     H        0.49510    0.84830    0.32490    1.000
    H136     H        0.40900    0.89670    0.29780    1.000
    C141     C        0.68100    0.86890    0.91300    1.000
    C142     C        0.11230    0.78470    0.08850    1.000
    C143     C        0.17370    0.16400    0.26680    1.000
    C144     C        0.43910    0.84900    0.41040    1.000
    O61      O        0.64450    0.91690    0.90510    1.000
    C145     C        0.63150    0.81610    0.88350    1.000
    O62      O        0.04820    0.78010    0.05070    1.000
    C146     C        0.08380    0.80250    0.13830    1.000
    O63      O        0.19800    0.20740    0.24558    1.000
    C147     C        0.09670    0.16440    0.30460    1.000
    O64      O        0.52970    0.82480    0.41640    1.000
    C148     C        0.36970    0.84700    0.45000    1.000
    C149     C        0.68490    0.76310    0.88650    1.000
    C150     C        0.52990    0.82020    0.85140    1.000
    C151     C        0.97760    0.82180    0.13820    1.000
    C152     C        0.15810    0.80030    0.18470    1.000
    C153     C        0.08160    0.11440    0.33160    1.000
    C154     C        0.04350    0.21510    0.31280    1.000
    C155     C        0.39210    0.80480    0.48810    1.000
    C156     C        0.28230    0.88550    0.45080    1.000
    C157     C        0.63660    0.71630    0.85910    1.000
    H137     H        0.75580    0.75890    0.90770    1.000
    H138     H        0.49070    0.85640    0.84800    1.000
    C158     C        0.48600    0.77180    0.82430    1.000
    C159     C        0.94930    0.83770    0.18400    1.000
    H139     H        0.92490    0.82420    0.10720    1.000
    H140     H        0.23260    0.78850    0.18610    1.000
    C160     C        0.12220    0.81510    0.22770    1.000
    C161     C        0.01220    0.11690    0.36560    1.000
    H141     H        0.11880    0.07890    0.32670    1.000
    H142     H        0.05250    0.25000    0.29460    1.000
    C162     C        0.97660    0.21410    0.34830    1.000
    C163     C        0.32730    0.80210    0.52470    1.000
    H143     H        0.45160    0.77800    0.48900    1.000
    H144     H        0.26410    0.91500    0.42550    1.000
    C164     C        0.22320    0.88020    0.48850    1.000
    H145     H        0.67480    0.67980    0.86210    1.000
    H146     H        0.41640    0.77530    0.80200    1.000
    H147     H        0.87670    0.85210    0.18360    1.000
    H148     H        0.17290    0.81230    0.25920    1.000
    N37      N        0.95880    0.16590    0.37430    1.000
    H149     H        0.00130    0.08220    0.38380    1.000
    H150     H        0.94100    0.24960    0.35480    1.000
    N38      N        0.24400    0.83950    0.52510    1.000
    H151     H        0.34250    0.77290    0.55040    1.000
    H152     H        0.16400    0.90680    0.48890    1.000
    Cu6      Cu       0.84995    0.16611    0.42162    1.000
    O65      O        0.72700    0.22210    0.36430    1.000
    C165     C        0.65420    0.19990    0.32330    1.000
    H153     H        0.61110    0.23210    0.30500    1.000
    H154     H        0.60420    0.17200    0.33520    1.000
    H155     H        0.69530    0.17980    0.30050    1.000
    O66      O        0.84300    0.07780    0.41490    1.000
    N39      N        0.75130    0.06030    0.39040    1.000
    O67      O        0.73890    0.00710    0.37860    1.000
    O68      O        0.66620    0.09190    0.38200    1.000
    H156     H        0.73680    0.19730    0.38800    1.000
    O69      O        0.26600    0.89050    0.63130    1.000
    Cu7      Cu       0.46829    0.64536    0.79368    1.000
    N40      N        0.40820    0.56730    0.76427    1.000
    N41      N        0.42270    0.62430    0.86023    1.000
    N42      N        0.96270    0.21960    0.67183    1.000
    N43      N        0.48140    0.33380    0.27162    1.000
    C166     C        0.30800    0.54690    0.77040    1.000
    C167     C        0.47030    0.53150    0.74160    1.000
    C168     C        0.47310    0.57970    0.88800    1.000
    C169     C        0.34090    0.65250    0.87650    1.000
    H157     H        0.26300    0.57180    0.78640    1.000
    C170     C        0.26900    0.49270    0.75490    1.000
    C171     C        0.43750    0.47550    0.72600    1.000
    H158     H        0.53970    0.54540    0.73600    1.000
    H159     H        0.53120    0.55950    0.87660    1.000
    C172     C        0.44360    0.56210    0.93240    1.000
    C173     C        0.30390    0.63630    0.92060    1.000
    H160     H        0.30650    0.68480    0.85730    1.000
    H161     H        0.19740    0.48060    0.75880    1.000
    C174     C        0.33580    0.45550    0.73320    1.000
    H162     H        0.48400    0.45100    0.71050    1.000
    H163     H        0.48230    0.53100    0.95180    1.000
    C175     C        0.35690    0.59000    0.94900    1.000
    H164     H        0.24420    0.65640    0.93080    1.000
    C176     C        0.29490    0.39480    0.71750    1.000
    C177     C        0.32520    0.56890    0.99650    1.000
    O70      O        0.20530    0.37650    0.72150    1.000
    O71      O        0.37080    0.36455    0.70011    1.000
    O72      O        0.38180    0.53600    0.02510    1.000
    O73      O        0.23120    0.58970    0.00478    1.000
    C178     C        0.34020    0.30470    0.68360    1.000
    C179     C        0.20190    0.56660    0.05110    1.000
    H165     H        0.33850    0.27920    0.71340    1.000
    H166     H        0.26610    0.30430    0.66130    1.000
    C180     C        0.42570    0.28360    0.65520    1.000
    H167     H        0.20640    0.52310    0.05140    1.000
    H168     H        0.25360    0.58180    0.08140    1.000
    C181     C        0.08590    0.58590    0.05240    1.000
    N44      N        0.42310    0.31670    0.60730    1.000
    H169     H        0.41320    0.24140    0.64710    1.000
    H170     H        0.49970    0.28770    0.67710    1.000
    N45      N        0.06080    0.56590    0.10131    1.000
    H171     H        0.03330    0.56830    0.02360    1.000
    H172     H        0.07990    0.62930    0.04970    1.000
    C182     C        0.50700    0.35700    0.60490    1.000
    C183     C        0.33600    0.30460    0.56900    1.000
    C184     C        0.08810    0.60390    0.14200    1.000
    C185     C        0.02200    0.50970    0.10360    1.000
    O74      O        0.58240    0.36530    0.64000    1.000
    N46      N        0.49820    0.38550    0.55920    1.000
    O75      O        0.26510    0.26900    0.57310    1.000
    N47      N        0.33180    0.33570    0.52550    1.000
    O76      O        0.12720    0.65180    0.13909    1.000
    N48      N        0.06660    0.58150    0.18789    1.000
    O77      O        0.00400    0.47780    0.06625    1.000
    N49      N        0.00520    0.49130    0.15090    1.000
    C186     C        0.58430    0.42790    0.55420    1.000
    C187     C        0.40940    0.37830    0.51880    1.000
    C188     C        0.23400    0.32570    0.48440    1.000
    C189     C        0.09000    0.61870    0.23340    1.000
    C190     C        0.02350    0.52610    0.19340    1.000
    C191     C        0.95690    0.43270    0.15450    1.000
    C192     C        0.66830    0.40230    0.52530    1.000
    H173     H        0.54980    0.46310    0.53600    1.000
    H174     H        0.62270    0.44030    0.58850    1.000
    O78      O        0.40370    0.40710    0.48010    1.000
    C193     C        0.24160    0.26200    0.45310    1.000
    H175     H        0.16660    0.32530    0.49940    1.000
    H176     H        0.22730    0.35860    0.45990    1.000
    C194     C        0.20080    0.60370    0.26690    1.000
    H177     H        0.09010    0.66050    0.22300    1.000
    H178     H        0.03070    0.61350    0.25320    1.000
    O79      O        0.00450    0.50990    0.23363    1.000
    C195     C        0.04200    0.38570    0.16970    1.000
    H179     H        0.90790    0.43410    0.17970    1.000
    H180     H        0.91100    0.42240    0.12110    1.000
    O80      O        0.72820    0.35470    0.55310    1.000
    H181     H        0.72080    0.43340    0.51970    1.000
    H182     H        0.62960    0.38800    0.49160    1.000
    O81      O        0.27960    0.27730    0.40650    1.000
    H183     H        0.16820    0.24290    0.44500    1.000
    H184     H        0.29430    0.23470    0.47400    1.000
    O82      O        0.28880    0.60950    0.23821    1.000
    H185     H        0.19910    0.56300    0.27960    1.000
    H186     H        0.21510    0.63050    0.29660    1.000
    O83      O        0.10810    0.37770    0.13018    1.000
    H187     H        0.00490    0.34830    0.17510    1.000
    H188     H        0.09100    0.39670    0.20220    1.000
    C196     C        0.81900    0.36890    0.58700    1.000
    C197     C        0.38770    0.28470    0.41150    1.000
    C198     C        0.32630    0.66400    0.23320    1.000
    C199     C        0.06090    0.34900    0.08960    1.000
    O84      O        0.85550    0.41690    0.59490    1.000
    C200     C        0.86850    0.31610    0.61650    1.000
    O85      O        0.45180    0.28010    0.44930    1.000
    C201     C        0.41620    0.30250    0.36170    1.000
    O86      O        0.30200    0.70740    0.25442    1.000
    C202     C        0.40330    0.66440    0.19540    1.000
    O87      O        0.97030    0.32480    0.08360    1.000
    C203     C        0.13030    0.34700    0.05000    1.000
    C204     C        0.81510    0.26310    0.61350    1.000
    C205     C        0.97010    0.32020    0.64860    1.000
    C206     C        0.52240    0.32180    0.36180    1.000
    C207     C        0.34190    0.30030    0.31530    1.000
    C208     C        0.41840    0.61440    0.16840    1.000
    C209     C        0.45650    0.71510    0.18720    1.000
    C210     C        0.10790    0.30480    0.01190    1.000
    C211     C        0.21770    0.38550    0.04920    1.000
    C212     C        0.86340    0.21630    0.64090    1.000
    H189     H        0.74420    0.25890    0.59230    1.000
    H190     H        0.00930    0.35640    0.65200    1.000
    C213     C        0.01400    0.27180    0.67570    1.000
    C214     C        0.55070    0.33770    0.31600    1.000
    H191     H        0.57510    0.32420    0.39280    1.000
    H192     H        0.26740    0.28850    0.31390    1.000
    C215     C        0.37780    0.31510    0.27230    1.000
    C216     C        0.48780    0.61690    0.13440    1.000
    H193     H        0.38120    0.57890    0.17330    1.000
    H194     H        0.44750    0.75000    0.20540    1.000
    C217     C        0.52340    0.71410    0.15170    1.000
    C218     C        0.17270    0.30210    0.97530    1.000
    H195     H        0.04840    0.27800    0.01100    1.000
    H196     H        0.23590    0.41500    0.07450    1.000
    C219     C        0.27680    0.38020    0.01150    1.000
    H197     H        0.82520    0.17980    0.63790    1.000
    H198     H        0.08360    0.27530    0.69800    1.000
    H199     H        0.62330    0.35210    0.31640    1.000
    H200     H        0.32710    0.31230    0.24080    1.000
    N50      N        0.54120    0.66590    0.12570    1.000
    H201     H        0.49870    0.58220    0.11620    1.000
    H202     H        0.55900    0.74960    0.14520    1.000
    N51      N        0.25600    0.33950    0.97490    1.000
    H203     H        0.15750    0.27290    0.94960    1.000
    H204     H        0.33600    0.40680    0.01110    1.000
    Cu8      Cu       0.65005    0.66611    0.07838    1.000
    O88      O        0.77300    0.72210    0.13570    1.000
    C220     C        0.84580    0.69990    0.17670    1.000
    H205     H        0.88890    0.73210    0.19500    1.000
    H206     H        0.89580    0.67200    0.16480    1.000
    H207     H        0.80470    0.67980    0.19950    1.000
    O89      O        0.65700    0.57780    0.08510    1.000
    N52      N        0.74870    0.56030    0.10960    1.000
    O90      O        0.76110    0.50710    0.12140    1.000
    O91      O        0.83380    0.59190    0.11800    1.000
    H208     H        0.76320    0.69730    0.11200    1.000
    O92      O        0.23400    0.39050    0.86870    1.000
