# CIF file generated by openbabel 3.1.0, see https://openbabel.org
data_I
_chemical_name_common 'image0'
_cell_length_a 10.2364
_cell_length_b 10.2364
_cell_length_c 28.109
_cell_angle_alpha 90
_cell_angle_beta 90
_cell_angle_gamma 90
_space_group_name_H-M_alt 'P 1'
_space_group_name_Hall 'P 1'
loop_
    _symmetry_equiv_pos_as_xyz
    x,y,z
loop_
    _atom_site_label
    _atom_site_type_symbol
    _atom_site_fract_x
    _atom_site_fract_y
    _atom_site_fract_z
    _atom_site_occupancy
    Ag1      Ag       0.80322    0.60615    0.51640    1.000
    N1       N        0.96360    0.81080    0.72690    1.000
    N2       N        0.95620    0.75210    0.52959    1.000
    O1       O        0.74020    0.78800    0.58450    1.000
    C1       C        0.95410    0.79210    0.68016    1.000
    H1       H        0.01540    0.73910    0.66520    1.000
    C2       C        0.85640    0.84860    0.65286    1.000
    C3       C        0.76610    0.92900    0.67430    1.000
    H2       H        0.69870    0.96650    0.65680    1.000
    C4       C        0.77820    0.95270    0.72274    1.000
    H3       H        0.72030    0.00860    0.73810    1.000
    C5       C        0.87640    0.89280    0.74756    1.000
    H4       H        0.88350    0.90900    0.78000    1.000
    C6       C        0.84480    0.81520    0.60149    1.000
    C7       C        0.96320    0.82150    0.57032    1.000
    C8       C        0.06570    0.90330    0.58033    1.000
    H5       H        0.06980    0.94620    0.60950    1.000
    C9       C        0.16330    0.92170    0.54666    1.000
    H6       H        0.23280    0.97810    0.55240    1.000
    C10      C        0.15400    0.85450    0.50490    1.000
    H7       H        0.21650    0.86650    0.48130    1.000
    C11      C        0.05200    0.76870    0.49763    1.000
    H8       H        0.04960    0.72060    0.46960    1.000
    Ag2      Ag       0.19678    0.39385    0.01640    1.000
    N3       N        0.03640    0.18920    0.22690    1.000
    N4       N        0.04380    0.24790    0.02959    1.000
    O2       O        0.25980    0.21200    0.08450    1.000
    C12      C        0.04590    0.20790    0.18016    1.000
    H9       H        0.98460    0.26090    0.16520    1.000
    C13      C        0.14360    0.15140    0.15286    1.000
    C14      C        0.23390    0.07100    0.17430    1.000
    H10      H        0.30130    0.03350    0.15680    1.000
    C15      C        0.22180    0.04730    0.22274    1.000
    H11      H        0.27970    0.99140    0.23810    1.000
    C16      C        0.12360    0.10720    0.24756    1.000
    H12      H        0.11650    0.09100    0.28000    1.000
    C17      C        0.15520    0.18480    0.10149    1.000
    C18      C        0.03680    0.17850    0.07032    1.000
    C19      C        0.93430    0.09670    0.08033    1.000
    H13      H        0.93020    0.05380    0.10950    1.000
    C20      C        0.83670    0.07830    0.04666    1.000
    H14      H        0.76720    0.02190    0.05240    1.000
    C21      C        0.84600    0.14550    0.00490    1.000
    H15      H        0.78350    0.13350    0.98130    1.000
    C22      C        0.94800    0.23130    0.99763    1.000
    H16      H        0.95040    0.27940    0.96960    1.000
    Ag3      Ag       0.89385    0.30322    0.26640    1.000
    N5       N        0.68920    0.46360    0.47690    1.000
    N6       N        0.74790    0.45620    0.27959    1.000
    O3       O        0.71200    0.24020    0.33450    1.000
    C23      C        0.70790    0.45410    0.43016    1.000
    H17      H        0.76090    0.51540    0.41520    1.000
    C24      C        0.65140    0.35640    0.40286    1.000
    C25      C        0.57100    0.26610    0.42430    1.000
    H18      H        0.53350    0.19870    0.40680    1.000
    C26      C        0.54730    0.27820    0.47274    1.000
    H19      H        0.49140    0.22030    0.48810    1.000
    C27      C        0.60720    0.37640    0.49756    1.000
    H20      H        0.59100    0.38350    0.53000    1.000
    C28      C        0.68480    0.34480    0.35149    1.000
    C29      C        0.67850    0.46320    0.32032    1.000
    C30      C        0.59670    0.56570    0.33033    1.000
    H21      H        0.55380    0.56980    0.35950    1.000
    C31      C        0.57830    0.66330    0.29666    1.000
    H22      H        0.52190    0.73280    0.30240    1.000
    C32      C        0.64550    0.65400    0.25490    1.000
    H23      H        0.63350    0.71650    0.23130    1.000
    C33      C        0.73130    0.55200    0.24763    1.000
    H24      H        0.77940    0.54960    0.21960    1.000
    Ag4      Ag       0.10615    0.69678    0.76640    1.000
    N7       N        0.31080    0.53640    0.97690    1.000
    N8       N        0.25210    0.54380    0.77959    1.000
    O4       O        0.28800    0.75980    0.83450    1.000
    C34      C        0.29210    0.54590    0.93016    1.000
    H25      H        0.23910    0.48460    0.91520    1.000
    C35      C        0.34860    0.64360    0.90286    1.000
    C36      C        0.42900    0.73390    0.92430    1.000
    H26      H        0.46650    0.80130    0.90680    1.000
    C37      C        0.45270    0.72180    0.97274    1.000
    H27      H        0.50860    0.77970    0.98810    1.000
    C38      C        0.39280    0.62360    0.99756    1.000
    H28      H        0.40900    0.61650    0.03000    1.000
    C39      C        0.31520    0.65520    0.85149    1.000
    C40      C        0.32150    0.53680    0.82032    1.000
    C41      C        0.40330    0.43430    0.83033    1.000
    H29      H        0.44620    0.43020    0.85950    1.000
    C42      C        0.42170    0.33670    0.79666    1.000
    H30      H        0.47810    0.26720    0.80240    1.000
    C43      C        0.35450    0.34600    0.75490    1.000
    H31      H        0.36650    0.28350    0.73130    1.000
    C44      C        0.26870    0.44800    0.74763    1.000
    H32      H        0.22060    0.45040    0.71960    1.000
    Ag5      Ag       0.69678    0.10615    0.23360    1.000
    N9       N        0.53640    0.31080    0.02310    1.000
    N10      N        0.54380    0.25210    0.22041    1.000
    O5       O        0.75980    0.28800    0.16550    1.000
    C45      C        0.54590    0.29210    0.06984    1.000
    H33      H        0.48460    0.23910    0.08480    1.000
    C46      C        0.64360    0.34860    0.09714    1.000
    C47      C        0.73390    0.42900    0.07570    1.000
    H34      H        0.80130    0.46650    0.09320    1.000
    C48      C        0.72180    0.45270    0.02726    1.000
    H35      H        0.77970    0.50860    0.01190    1.000
    C49      C        0.62360    0.39280    0.00244    1.000
    H36      H        0.61650    0.40900    0.97000    1.000
    C50      C        0.65520    0.31520    0.14851    1.000
    C51      C        0.53680    0.32150    0.17968    1.000
    C52      C        0.43430    0.40330    0.16967    1.000
    H37      H        0.43020    0.44620    0.14050    1.000
    C53      C        0.33670    0.42170    0.20334    1.000
    H38      H        0.26720    0.47810    0.19760    1.000
    C54      C        0.34600    0.35450    0.24510    1.000
    H39      H        0.28350    0.36650    0.26870    1.000
    C55      C        0.44800    0.26870    0.25237    1.000
    H40      H        0.45040    0.22060    0.28040    1.000
    Ag6      Ag       0.30322    0.89385    0.73360    1.000
    N11      N        0.46360    0.68920    0.52310    1.000
    N12      N        0.45620    0.74790    0.72041    1.000
    O6       O        0.24020    0.71200    0.66550    1.000
    C56      C        0.45410    0.70790    0.56984    1.000
    H41      H        0.51540    0.76090    0.58480    1.000
    C57      C        0.35640    0.65140    0.59714    1.000
    C58      C        0.26610    0.57100    0.57570    1.000
    H42      H        0.19870    0.53350    0.59320    1.000
    C59      C        0.27820    0.54730    0.52726    1.000
    H43      H        0.22030    0.49140    0.51190    1.000
    C60      C        0.37640    0.60720    0.50244    1.000
    H44      H        0.38350    0.59100    0.47000    1.000
    C61      C        0.34480    0.68480    0.64851    1.000
    C62      C        0.46320    0.67850    0.67968    1.000
    C63      C        0.56570    0.59670    0.66967    1.000
    H45      H        0.56980    0.55380    0.64050    1.000
    C64      C        0.66330    0.57830    0.70334    1.000
    H46      H        0.73280    0.52190    0.69760    1.000
    C65      C        0.65400    0.64550    0.74510    1.000
    H47      H        0.71650    0.63350    0.76870    1.000
    C66      C        0.55200    0.73130    0.75237    1.000
    H48      H        0.54960    0.77940    0.78040    1.000
    Ag7      Ag       0.60615    0.80322    0.48360    1.000
    N13      N        0.81080    0.96360    0.27310    1.000
    N14      N        0.75210    0.95620    0.47041    1.000
    O7       O        0.78800    0.74020    0.41550    1.000
    C67      C        0.79210    0.95410    0.31984    1.000
    H49      H        0.73910    0.01540    0.33480    1.000
    C68      C        0.84860    0.85640    0.34714    1.000
    C69      C        0.92900    0.76610    0.32570    1.000
    H50      H        0.96650    0.69870    0.34320    1.000
    C70      C        0.95270    0.77820    0.27726    1.000
    H51      H        0.00860    0.72030    0.26190    1.000
    C71      C        0.89280    0.87640    0.25244    1.000
    H52      H        0.90900    0.88350    0.22000    1.000
    C72      C        0.81520    0.84480    0.39851    1.000
    C73      C        0.82150    0.96320    0.42968    1.000
    C74      C        0.90330    0.06570    0.41967    1.000
    H53      H        0.94620    0.06980    0.39050    1.000
    C75      C        0.92170    0.16330    0.45334    1.000
    H54      H        0.97810    0.23280    0.44760    1.000
    C76      C        0.85450    0.15400    0.49510    1.000
    H55      H        0.86650    0.21650    0.51870    1.000
    C77      C        0.76870    0.05200    0.50237    1.000
    H56      H        0.72060    0.04960    0.53040    1.000
    Ag8      Ag       0.39385    0.19678    0.98360    1.000
    N15      N        0.18920    0.03640    0.77310    1.000
    N16      N        0.24790    0.04380    0.97041    1.000
    O8       O        0.21200    0.25980    0.91550    1.000
    C78      C        0.20790    0.04590    0.81984    1.000
    H57      H        0.26090    0.98460    0.83480    1.000
    C79      C        0.15140    0.14360    0.84714    1.000
    C80      C        0.07100    0.23390    0.82570    1.000
    H58      H        0.03350    0.30130    0.84320    1.000
    C81      C        0.04730    0.22180    0.77726    1.000
    H59      H        0.99140    0.27970    0.76190    1.000
    C82      C        0.10720    0.12360    0.75244    1.000
    H60      H        0.09100    0.11650    0.72000    1.000
    C83      C        0.18480    0.15520    0.89851    1.000
    C84      C        0.17850    0.03680    0.92968    1.000
    C85      C        0.09670    0.93430    0.91967    1.000
    H61      H        0.05380    0.93020    0.89050    1.000
    C86      C        0.07830    0.83670    0.95334    1.000
    H62      H        0.02190    0.76720    0.94760    1.000
    C87      C        0.14550    0.84600    0.99510    1.000
    H63      H        0.13350    0.78350    0.01870    1.000
    C88      C        0.23130    0.94800    0.00237    1.000
    H64      H        0.27940    0.95040    0.03040    1.000
