data_functionalizedCrystal
_audit_creation_method	'EQeq! by Chris Wilmer'
_symmetry_space_group_name_H-M	'P1'
_symmetry_Int_Tables_number	1
_symmetry_cell_setting	triclinic
loop_
_symmetry_equiv_pos_as_xyz
  x,y,z
_cell_length_a	14.584
_cell_length_b	15.199
_cell_length_c	15.199
_cell_angle_alpha	120
_cell_angle_beta	90
_cell_angle_gamma	90
loop_
_atom_site_label
_atom_site_type_symbol
_atom_site_fract_x
_atom_site_fract_y
_atom_site_fract_z
_atom_site_charge
Mof_Pr	Pr	0.25	0.33333	0.66666	2.798
Mof_Pr	Pr	0.25	0.66667	0.33334	2.798
Mof_Pr	Pr	0.75	0.66667	0.33334	2.827
Mof_Pr	Pr	0.75	0.33333	0.66666	2.827
Mof_Cu	Cu	-2.16298e-33	0.5	0.5	0.889
Mof_Cu	Cu	-2.16298e-33	0	0.5	0.856
Mof_Cu	Cu	-0	0.5	-0	0.856
Mof_Cu	Cu	0.5	0	0.5	0.913
Mof_Cu	Cu	0.5	0.5	0.5	0.947
Mof_Cu	Cu	0.5	0.5	-0	0.913
Mof_H 	H 	0.8368	0.7861	0.1507	0.11
Mof_H 	H 	0.7574	0.71	0.0892	0.074
Mof_H 	H 	0.8368	0.3646	0.2139	0.093
Mof_H 	H 	0.7574	0.3792	0.29	0.084
Mof_H 	H 	0.8368	0.8493	0.6354	0.129
Mof_H 	H 	0.7574	0.9108	0.6208	0.122
Mof_H 	H 	0.8368	0.2139	0.8493	0.111
Mof_H 	H 	0.7574	0.29	0.9108	0.112
Mof_H 	H 	0.8368	0.6354	0.7861	0.129
Mof_H 	H 	0.7574	0.6208	0.71	0.103
Mof_H 	H 	0.8368	0.1507	0.3646	0.092
Mof_H 	H 	0.7574	0.0892	0.3792	0.064
Mof_H 	H 	0.6632	0.6354	0.8493	0.114
Mof_H 	H 	0.7426	0.6208	0.9108	0.126
Mof_H 	H 	0.6632	0.1507	0.7861	0.095
Mof_H 	H 	0.7426	0.0892	0.71	0.078
Mof_H 	H 	0.6632	0.2139	0.3646	0.077
Mof_H 	H 	0.7426	0.29	0.3792	0.087
Mof_H 	H 	0.6632	0.3646	0.1507	0.077
Mof_H 	H 	0.7426	0.3792	0.0892	0.068
Mof_H 	H 	0.6632	0.8493	0.2139	0.096
Mof_H 	H 	0.7426	0.9108	0.29	0.116
Mof_H 	H 	0.6632	0.7861	0.6354	0.114
Mof_H 	H 	0.7426	0.71	0.6208	0.107
Mof_H 	H 	0.1632	0.2139	0.8493	0.075
Mof_H 	H 	0.2426	0.29	0.9108	0.105
Mof_H 	H 	0.1632	0.6354	0.7861	0.093
Mof_H 	H 	0.2426	0.6208	0.71	0.096
Mof_H 	H 	0.1632	0.1507	0.3646	0.054
Mof_H 	H 	0.2426	0.0892	0.3792	0.056
Mof_H 	H 	0.1632	0.7861	0.1507	0.074
Mof_H 	H 	0.2426	0.71	0.0892	0.066
Mof_H 	H 	0.1632	0.3646	0.2139	0.055
Mof_H 	H 	0.2426	0.3792	0.29	0.076
Mof_H 	H 	0.1632	0.8493	0.6354	0.093
Mof_H 	H 	0.2426	0.9108	0.6208	0.115
Mof_H 	H 	0.3368	0.3646	0.1507	0.07
Mof_H 	H 	0.2574	0.3792	0.0892	0.054
Mof_H 	H 	0.3368	0.8493	0.2139	0.09
Mof_H 	H 	0.2574	0.9108	0.29	0.103
Mof_H 	H 	0.3368	0.7861	0.6354	0.108
Mof_H 	H 	0.2574	0.71	0.6208	0.094
Mof_H 	H 	0.3368	0.6354	0.8493	0.108
Mof_H 	H 	0.2574	0.6208	0.9108	0.113
Mof_H 	H 	0.3368	0.1507	0.7861	0.089
Mof_H 	H 	0.2574	0.0892	0.71	0.064
Mof_H 	H 	0.3368	0.2139	0.3646	0.071
Mof_H 	H 	0.2574	0.29	0.3792	0.074
Mof_C 	C 	0.3598	0.1275	0.643	0.441
Mof_C 	C 	0.7005	0.8544	0.2691	-0.204
Mof_C 	C 	0.3598	0.5155	0.8725	0.451
Mof_C 	C 	0.7005	0.4147	0.1456	-0.18
Mof_C 	C 	0.3598	0.357	0.4845	0.437
Mof_C 	C 	0.7005	0.7309	0.5853	-0.216
Mof_C 	C 	0.3598	0.8725	0.357	0.444
Mof_C 	C 	0.7005	0.1456	0.7309	-0.195
Mof_C 	C 	0.3598	0.4845	0.1275	0.433
Mof_C 	C 	0.7005	0.5853	0.8544	-0.219
Mof_C 	C 	0.3598	0.643	0.5155	0.451
Mof_C 	C 	0.7005	0.2691	0.4147	-0.185
Mof_C 	C 	0.1402	0.4845	0.357	0.433
Mof_C 	C 	0.7995	0.5853	0.7309	-0.212
Mof_C 	C 	0.1402	0.643	0.1275	0.438
Mof_C 	C 	0.7995	0.2691	0.8544	-0.2
Mof_C 	C 	0.1402	0.8725	0.5155	0.448
Mof_C 	C 	0.7995	0.1456	0.4147	-0.176
Mof_C 	C 	0.1402	0.5155	0.643	0.448
Mof_C 	C 	0.7995	0.4147	0.2691	-0.182
Mof_C 	C 	0.1402	0.357	0.8725	0.441
Mof_C 	C 	0.7995	0.7309	0.1456	-0.191
Mof_C 	C 	0.1402	0.1275	0.4845	0.43
Mof_C 	C 	0.7995	0.8544	0.5853	-0.216
Mof_C 	C 	0.6402	0.8725	0.357	0.449
Mof_C 	C 	0.2995	0.1456	0.7309	-0.184
Mof_C 	C 	0.6402	0.4845	0.1275	0.439
Mof_C 	C 	0.2995	0.5853	0.8544	-0.209
Mof_C 	C 	0.6402	0.643	0.5155	0.456
Mof_C 	C 	0.2995	0.2691	0.4147	-0.174
Mof_C 	C 	0.6402	0.1275	0.643	0.446
Mof_C 	C 	0.2995	0.8544	0.2691	-0.193
Mof_C 	C 	0.6402	0.5155	0.8725	0.456
Mof_C 	C 	0.2995	0.4147	0.1456	-0.169
Mof_C 	C 	0.6402	0.357	0.4845	0.442
Mof_C 	C 	0.2995	0.7309	0.5853	-0.205
Mof_C 	C 	0.8598	0.5155	0.643	0.453
Mof_C 	C 	0.2005	0.4147	0.2691	-0.174
Mof_C 	C 	0.8598	0.357	0.8725	0.446
Mof_C 	C 	0.2005	0.7309	0.1456	-0.184
Mof_C 	C 	0.8598	0.1275	0.4845	0.436
Mof_C 	C 	0.2005	0.8544	0.5853	-0.208
Mof_C 	C 	0.8598	0.4845	0.357	0.439
Mof_C 	C 	0.2005	0.5853	0.7309	-0.205
Mof_C 	C 	0.8598	0.643	0.1275	0.443
Mof_C 	C 	0.2005	0.2691	0.8544	-0.193
Mof_C 	C 	0.8598	0.8725	0.5155	0.453
Mof_C 	C 	0.2005	0.1456	0.4147	-0.168
Mof_O 	O 	0.3593	0.192	0.6149	-0.562
Mof_O 	O 	0.4064	0.0483	0.6063	-0.449
Mof_O 	O 	0.3593	0.4229	0.808	-0.548
Mof_O 	O 	0.4064	0.558	0.9517	-0.384
Mof_O 	O 	0.3593	0.3851	0.5771	-0.554
Mof_O 	O 	0.4064	0.3937	0.442	-0.427
Mof_O 	O 	0.3593	0.808	0.3851	-0.547
Mof_O 	O 	0.4064	0.9517	0.3937	-0.386
Mof_O 	O 	0.3593	0.5771	0.192	-0.56
Mof_O 	O 	0.4064	0.442	0.0483	-0.451
Mof_O 	O 	0.3593	0.6149	0.4229	-0.557
Mof_O 	O 	0.4064	0.6063	0.558	-0.422
Mof_O 	O 	0.1407	0.5771	0.3851	-0.575
Mof_O 	O 	0.0936	0.442	0.3937	-0.459
Mof_O 	O 	0.1407	0.6149	0.192	-0.583
Mof_O 	O 	0.0936	0.6063	0.0483	-0.48
Mof_O 	O 	0.1407	0.808	0.4229	-0.569
Mof_O 	O 	0.0936	0.9517	0.558	-0.415
Mof_O 	O 	0.1407	0.4229	0.6149	-0.579
Mof_O 	O 	0.0936	0.558	0.6063	-0.454
Mof_O 	O 	0.1407	0.3851	0.808	-0.567
Mof_O 	O 	0.0936	0.3937	0.9517	-0.417
Mof_O 	O 	0.1407	0.192	0.5771	-0.581
Mof_O 	O 	0.0936	0.0483	0.442	-0.483
Mof_O 	O 	0.6407	0.808	0.3851	-0.551
Mof_O 	O 	0.5936	0.9517	0.3937	-0.388
Mof_O 	O 	0.6407	0.5771	0.192	-0.565
Mof_O 	O 	0.5936	0.442	0.0483	-0.452
Mof_O 	O 	0.6407	0.6149	0.4229	-0.562
Mof_O 	O 	0.5936	0.6063	0.558	-0.423
Mof_O 	O 	0.6407	0.192	0.6149	-0.566
Mof_O 	O 	0.5936	0.0483	0.6063	-0.45
Mof_O 	O 	0.6407	0.4229	0.808	-0.553
Mof_O 	O 	0.5936	0.558	0.9517	-0.386
Mof_O 	O 	0.6407	0.3851	0.5771	-0.559
Mof_O 	O 	0.5936	0.3937	0.442	-0.428
Mof_O 	O 	0.8593	0.4229	0.6149	-0.534
Mof_O 	O 	0.9064	0.558	0.6063	-0.368
Mof_O 	O 	0.8593	0.3851	0.808	-0.524
Mof_O 	O 	0.9064	0.3937	0.9517	-0.334
Mof_O 	O 	0.8593	0.192	0.5771	-0.537
Mof_O 	O 	0.9064	0.0483	0.442	-0.396
Mof_O 	O 	0.8593	0.5771	0.3851	-0.531
Mof_O 	O 	0.9064	0.442	0.3937	-0.372
Mof_O 	O 	0.8593	0.6149	0.192	-0.538
Mof_O 	O 	0.9064	0.6063	0.0483	-0.394
Mof_O 	O 	0.8593	0.808	0.4229	-0.525
Mof_O 	O 	0.9064	0.9517	0.558	-0.332
Mof_O 	O 	0.75	0.7638	0.2362	-0.307
Mof_O 	O 	0.75	0.4724	0.2362	-0.318
Mof_O 	O 	0.75	0.7638	0.5276	-0.296
Mof_O 	O 	0.75	0.2362	0.7638	-0.307
Mof_O 	O 	0.75	0.5276	0.7638	-0.296
Mof_O 	O 	0.75	0.2362	0.4724	-0.318
Mof_O 	O 	0.25	0.2362	0.7638	-0.315
Mof_O 	O 	0.25	0.5276	0.7638	-0.304
Mof_O 	O 	0.25	0.2362	0.4724	-0.326
Mof_O 	O 	0.25	0.7638	0.2362	-0.315
Mof_O 	O 	0.25	0.4724	0.2362	-0.326
Mof_O 	O 	0.25	0.7638	0.5276	-0.304
_end
