# CIF file generated by openbabel 3.1.0, see https://openbabel.org
data_I
_chemical_name_common 'image0'
_cell_length_a 9.178
_cell_length_b 11.148
_cell_length_c 14.337
_cell_angle_alpha 88.191
_cell_angle_beta 78.882
_cell_angle_gamma 77.968
_space_group_name_H-M_alt 'P 1'
_space_group_name_Hall 'P 1'
loop_
    _symmetry_equiv_pos_as_xyz
    x,y,z
loop_
    _atom_site_label
    _atom_site_type_symbol
    _atom_site_fract_x
    _atom_site_fract_y
    _atom_site_fract_z
    _atom_site_occupancy
    Ag1      Ag       0.04670    0.98810    0.38924    1.000
    Ag2      Ag       0.10812    0.16679    0.25114    1.000
    Ag3      Ag       0.10886    0.97357    0.06015    1.000
    Ag4      Ag       0.30238    0.00273    0.49535    1.000
    C1       C        0.31850    0.90640    0.23150    1.000
    C2       C        0.46220    0.82450    0.18160    1.000
    C3       C        0.54390    0.73510    0.23250    1.000
    H1       H        0.50920    0.72610    0.29720    1.000
    C4       C        0.67630    0.65990    0.18730    1.000
    H2       H        0.73050    0.60120    0.22210    1.000
    C5       C        0.51350    0.83510    0.08610    1.000
    H3       H        0.45900    0.89390    0.05160    1.000
    C6       C        0.64630    0.75880    0.04020    1.000
    H4       H        0.67950    0.76680    0.97530    1.000
    C7       C        0.72980    0.67060    0.09080    1.000
    C8       C        0.87020    0.58600    0.04310    1.000
    C9       C        0.87750    0.46010    0.05070    1.000
    H5       H        0.79430    0.43270    0.08550    1.000
    C10      C        0.99710    0.62580    0.99100    1.000
    C11      C        0.00640    0.75970    0.98620    1.000
    C12      C        0.79410    0.23090    0.37780    1.000
    C13      C        0.63340    0.29960    0.41070    1.000
    C14      C        0.54730    0.27170    0.49530    1.000
    H6       H        0.59260    0.21790    0.53730    1.000
    C15      C        0.39420    0.32300    0.51800    1.000
    H7       H        0.33730    0.30250    0.57500    1.000
    C16      C        0.56710    0.38680    0.35250    1.000
    H8       H        0.62530    0.40980    0.29700    1.000
    C17      C        0.41380    0.44010    0.37670    1.000
    H9       H        0.37080    0.50070    0.33820    1.000
    C18      C        0.32440    0.40430    0.45730    1.000
    C19      C        0.15770    0.45250    0.47790    1.000
    C20      C        0.05580    0.37380    0.50170    1.000
    C21      C        0.90070    0.42230    0.52350    1.000
    H10      H        0.83410    0.36920    0.53960    1.000
    C22      C        0.10800    0.23640    0.50140    1.000
    O1       O        0.27330    0.88640    0.31710    1.000
    O2       O        0.25540    0.99050    0.18290    1.000
    O3       O        0.09630    0.78880    0.03070    1.000
    O4       O        0.92930    0.82840    0.93820    1.000
    O5       O        0.83940    0.13740    0.42510    1.000
    O6       O        0.87000    0.26680    0.30580    1.000
    O7       O        0.07060    0.18330    0.57760    1.000
    O8       O        0.18620    0.18490    0.42730    1.000
    Ag5      Ag       0.95330    0.01190    0.61076    1.000
    Ag6      Ag       0.89188    0.83321    0.74886    1.000
    Ag7      Ag       0.89114    0.02643    0.93985    1.000
    Ag8      Ag       0.69762    0.99727    0.50465    1.000
    C23      C        0.68150    0.09360    0.76850    1.000
    C24      C        0.53780    0.17550    0.81840    1.000
    C25      C        0.45610    0.26490    0.76750    1.000
    H11      H        0.49080    0.27390    0.70280    1.000
    C26      C        0.32370    0.34010    0.81270    1.000
    H12      H        0.26950    0.39880    0.77790    1.000
    C27      C        0.48650    0.16490    0.91390    1.000
    H13      H        0.54100    0.10610    0.94840    1.000
    C28      C        0.35370    0.24120    0.95980    1.000
    H14      H        0.32050    0.23320    0.02470    1.000
    C29      C        0.27020    0.32940    0.90920    1.000
    C30      C        0.12980    0.41400    0.95690    1.000
    C31      C        0.12250    0.53990    0.94930    1.000
    H15      H        0.20570    0.56730    0.91450    1.000
    C32      C        0.00290    0.37420    0.00900    1.000
    C33      C        0.99360    0.24030    0.01380    1.000
    C34      C        0.20590    0.76910    0.62220    1.000
    C35      C        0.36660    0.70040    0.58930    1.000
    C36      C        0.45270    0.72830    0.50470    1.000
    H16      H        0.40740    0.78210    0.46270    1.000
    C37      C        0.60580    0.67700    0.48200    1.000
    H17      H        0.66270    0.69750    0.42500    1.000
    C38      C        0.43290    0.61320    0.64750    1.000
    H18      H        0.37470    0.59020    0.70300    1.000
    C39      C        0.58620    0.55990    0.62330    1.000
    H19      H        0.62920    0.49930    0.66180    1.000
    C40      C        0.67560    0.59570    0.54270    1.000
    C41      C        0.84230    0.54750    0.52210    1.000
    C42      C        0.94420    0.62620    0.49830    1.000
    C43      C        0.09930    0.57770    0.47650    1.000
    H20      H        0.16590    0.63080    0.46040    1.000
    C44      C        0.89200    0.76360    0.49860    1.000
    O9       O        0.72670    0.11360    0.68290    1.000
    O10      O        0.74460    0.00950    0.81710    1.000
    O11      O        0.90370    0.21120    0.96930    1.000
    O12      O        0.07070    0.17160    0.06180    1.000
    O13      O        0.16060    0.86260    0.57490    1.000
    O14      O        0.13000    0.73320    0.69420    1.000
    O15      O        0.92940    0.81670    0.42240    1.000
    O16      O        0.81380    0.81510    0.57270    1.000
