data_functionalizedCrystal
_audit_creation_method	'EQeq! by Chris Wilmer'
_symmetry_space_group_name_H-M	'P1'
_symmetry_Int_Tables_number	1
_symmetry_cell_setting	triclinic
loop_
_symmetry_equiv_pos_as_xyz
  x,y,z
_cell_length_a	14.154
_cell_length_b	16.2511
_cell_length_c	19.1495
_cell_angle_alpha	90
_cell_angle_beta	90
_cell_angle_gamma	90
loop_
_atom_site_label
_atom_site_type_symbol
_atom_site_fract_x
_atom_site_fract_y
_atom_site_fract_z
_atom_site_charge
Mof_Mg	Mg	0.52244	0.20883	0.45571	1.462
Mof_Mg	Mg	0.31033	0.24077	0.56445	1.474
Mof_O 	O 	0.41687	0.29808	0.47764	-0.595
Mof_O 	O 	0.37632	0.72795	0.48848	-0.556
Mof_O 	O 	0.5581	0.26133	0.36353	-0.573
Mof_O 	O 	0.48032	0.34735	0.0458	-0.596
Mof_O 	O 	0.24223	0.65897	0.49812	-0.546
Mof_O 	O 	0.30585	0.35986	0.53605	-0.517
Mof_O 	O 	0.41234	0.28004	0.13126	-0.534
Mof_O 	O 	0.71388	0.26567	0.36504	-0.589
Mof_C 	C 	0.32851	0.66432	0.4808	0.47
Mof_C 	C 	0.37347	0.58916	0.45136	-0.217
Mof_C 	C 	0.34965	0.51289	0.4791	0.137
Mof_H 	H 	0.303	0.5095	0.5131	-0.003
Mof_C 	C 	0.39448	0.44202	0.45675	-0.206
Mof_C 	C 	0.46088	0.44701	0.40416	0.114
Mof_H 	H 	0.4907	0.3995	0.3884	-0.001
Mof_C 	C 	0.4832	0.52204	0.37491	-0.186
Mof_H 	H 	0.5264	0.5248	0.3384	0.093
Mof_C 	C 	0.44153	0.59321	0.39957	0.12
Mof_H 	H 	0.4593	0.644	0.3813	-0.008
Mof_C 	C 	0.63562	0.27793	0.33674	0.529
Mof_C 	C 	0.55958	0.30679	0.22189	0.174
Mof_H 	H 	0.5053	0.2811	0.2384	-0.007
Mof_C 	C 	0.63692	0.31429	0.26511	-0.253
Mof_C 	C 	0.7165	0.354	0.24013	0.161
Mof_H 	H 	0.7699	0.3578	0.2682	-0.017
Mof_C 	C 	0.47952	0.32084	0.10711	0.466
Mof_C 	C 	0.56121	0.33673	0.15445	-0.239
Mof_C 	C 	0.6403	0.3786	0.13105	0.155
Mof_H 	H 	0.6413	0.4005	0.0862	-0.034
Mof_C 	C 	0.37196	0.36227	0.49132	0.436
Mof_C 	C 	0.7175	0.3878	0.17427	-0.231
Mof_H 	H 	0.7702	0.4168	0.1589	0.113
Mof_Mg	Mg	0.97756	0.79117	0.95571	1.462
Mof_Mg	Mg	0.18967	0.75923	0.06445	1.474
Mof_O 	O 	0.08313	0.70192	0.97764	-0.591
Mof_O 	O 	0.12368	0.27205	0.98848	-0.553
Mof_O 	O 	0.9419	0.73867	0.86353	-0.577
Mof_O 	O 	0.01968	0.65265	0.5458	-0.596
Mof_O 	O 	0.25777	0.34103	0.99812	-0.545
Mof_O 	O 	0.19415	0.64014	0.03605	-0.522
Mof_O 	O 	0.08766	0.71996	0.63126	-0.533
Mof_O 	O 	0.78612	0.73433	0.86504	-0.591
Mof_C 	C 	0.17149	0.33568	0.9808	0.47
Mof_C 	C 	0.12653	0.41084	0.95136	-0.217
Mof_C 	C 	0.15035	0.48711	0.9791	0.145
Mof_H 	H 	0.197	0.4905	0.0131	-0.009
Mof_C 	C 	0.10552	0.55798	0.95675	-0.206
Mof_C 	C 	0.03912	0.55299	0.90416	0.108
Mof_H 	H 	0.0093	0.6005	0.8884	0.003
Mof_C 	C 	0.0168	0.47796	0.87491	-0.171
Mof_H 	H 	0.9736	0.4752	0.8384	0.084
Mof_C 	C 	0.05847	0.40679	0.89957	0.114
Mof_H 	H 	0.0407	0.356	0.8813	-0.005
Mof_C 	C 	0.86438	0.72207	0.83674	0.53
Mof_C 	C 	0.94042	0.69321	0.72189	0.177
Mof_H 	H 	0.9947	0.7189	0.7384	-0.009
Mof_C 	C 	0.86308	0.68571	0.76511	-0.257
Mof_C 	C 	0.7835	0.646	0.74013	0.164
Mof_H 	H 	0.7301	0.6422	0.7682	-0.019
Mof_C 	C 	0.02048	0.67916	0.60711	0.471
Mof_C 	C 	0.93879	0.66327	0.65445	-0.244
Mof_C 	C 	0.8597	0.6214	0.63105	0.159
Mof_H 	H 	0.8587	0.5995	0.5862	-0.036
Mof_C 	C 	0.12804	0.63773	0.99132	0.442
Mof_C 	C 	0.7825	0.6122	0.67427	-0.235
Mof_H 	H 	0.7298	0.5832	0.6589	0.114
Mof_Mg	Mg	0.47756	0.70883	0.04429	1.463
Mof_Mg	Mg	0.68967	0.74077	0.93555	1.475
Mof_O 	O 	0.58313	0.79808	0.02236	-0.595
Mof_O 	O 	0.62368	0.22795	0.01152	-0.554
Mof_O 	O 	0.4419	0.76133	0.13647	-0.573
Mof_O 	O 	0.51968	0.84735	0.4542	-0.596
Mof_O 	O 	0.75777	0.15897	0.00188	-0.544
Mof_O 	O 	0.69415	0.85986	0.96395	-0.521
Mof_O 	O 	0.58766	0.78004	0.36874	-0.533
Mof_O 	O 	0.28612	0.76567	0.13496	-0.59
Mof_C 	C 	0.67149	0.16432	0.0192	0.472
Mof_C 	C 	0.62653	0.08916	0.04864	-0.221
Mof_C 	C 	0.65035	0.01289	0.0209	0.147
Mof_H 	H 	0.697	0.0095	0.9869	-0.007
Mof_C 	C 	0.60552	0.94202	0.04325	-0.212
Mof_C 	C 	0.53912	0.94701	0.09584	0.118
Mof_H 	H 	0.5093	0.8995	0.1116	-0.003
Mof_C 	C 	0.5168	0.02204	0.12509	-0.19
Mof_H 	H 	0.4736	0.0248	0.1616	0.094
Mof_C 	C 	0.55847	0.09321	0.10043	0.124
Mof_H 	H 	0.5407	0.144	0.1187	-0.009
Mof_C 	C 	0.36438	0.77793	0.16326	0.529
Mof_C 	C 	0.44042	0.80679	0.27811	0.174
Mof_H 	H 	0.4947	0.7811	0.2616	-0.007
Mof_C 	C 	0.36308	0.81429	0.23489	-0.254
Mof_C 	C 	0.2835	0.854	0.25987	0.161
Mof_H 	H 	0.2301	0.8578	0.2318	-0.018
Mof_C 	C 	0.52048	0.82084	0.39289	0.466
Mof_C 	C 	0.43879	0.83673	0.34555	-0.239
Mof_C 	C 	0.3597	0.8786	0.36895	0.156
Mof_H 	H 	0.3587	0.9005	0.4138	-0.035
Mof_C 	C 	0.62804	0.86227	0.00868	0.442
Mof_C 	C 	0.2825	0.8878	0.32573	-0.232
Mof_H 	H 	0.2298	0.9168	0.3411	0.113
Mof_Mg	Mg	0.02244	0.29117	0.54429	1.463
Mof_Mg	Mg	0.81033	0.25923	0.43555	1.475
Mof_O 	O 	0.91687	0.20192	0.52236	-0.594
Mof_O 	O 	0.87632	0.77205	0.51152	-0.556
Mof_O 	O 	0.0581	0.23867	0.63647	-0.572
Mof_O 	O 	0.98032	0.15265	0.9542	-0.597
Mof_O 	O 	0.74223	0.84103	0.50188	-0.547
Mof_O 	O 	0.80585	0.14014	0.46395	-0.517
Mof_O 	O 	0.91234	0.21996	0.86874	-0.534
Mof_O 	O 	0.21388	0.23433	0.63496	-0.589
Mof_C 	C 	0.82851	0.83568	0.5192	0.473
Mof_C 	C 	0.87347	0.91084	0.54864	-0.226
Mof_C 	C 	0.84965	0.98711	0.5209	0.142
Mof_H 	H 	0.803	0.9905	0.4869	-0.005
Mof_C 	C 	0.89448	0.05798	0.54325	-0.213
Mof_C 	C 	0.96088	0.05299	0.59584	0.136
Mof_H 	H 	0.9907	0.1005	0.6116	-0.008
Mof_C 	C 	0.9832	0.97796	0.62509	-0.217
Mof_H 	H 	0.0264	0.9752	0.6616	0.108
Mof_C 	C 	0.94153	0.90679	0.60043	0.138
Mof_H 	H 	0.9593	0.856	0.6187	-0.015
Mof_C 	C 	0.13562	0.22207	0.66326	0.528
Mof_C 	C 	0.05958	0.19321	0.77811	0.171
Mof_H 	H 	0.0053	0.2189	0.7616	-0.005
Mof_C 	C 	0.13692	0.18571	0.73489	-0.251
Mof_C 	C 	0.2165	0.146	0.75987	0.158
Mof_H 	H 	0.2699	0.1422	0.7318	-0.017
Mof_C 	C 	0.97952	0.17916	0.89289	0.463
Mof_C 	C 	0.06121	0.16327	0.84555	-0.234
Mof_C 	C 	0.1403	0.1214	0.86895	0.152
Mof_H 	H 	0.1413	0.0995	0.9138	-0.033
Mof_C 	C 	0.87196	0.13773	0.50868	0.44
Mof_C 	C 	0.2175	0.1122	0.82573	-0.229
Mof_H 	H 	0.2702	0.0832	0.8411	0.112
Mof_Mg	Mg	0.47756	0.79117	0.54429	1.463
Mof_Mg	Mg	0.68967	0.75923	0.43555	1.475
Mof_O 	O 	0.58313	0.70192	0.52236	-0.594
Mof_O 	O 	0.62368	0.27205	0.51152	-0.555
Mof_O 	O 	0.4419	0.73867	0.63647	-0.573
Mof_O 	O 	0.51968	0.65265	0.9542	-0.596
Mof_O 	O 	0.75777	0.34103	0.50188	-0.546
Mof_O 	O 	0.69415	0.64014	0.46395	-0.517
Mof_O 	O 	0.58766	0.71996	0.86874	-0.534
Mof_O 	O 	0.28612	0.73433	0.63496	-0.589
Mof_C 	C 	0.67149	0.33568	0.5192	0.47
Mof_C 	C 	0.62653	0.41084	0.54864	-0.217
Mof_C 	C 	0.65035	0.48711	0.5209	0.137
Mof_H 	H 	0.697	0.4905	0.4869	-0.003
Mof_C 	C 	0.60552	0.55798	0.54325	-0.206
Mof_C 	C 	0.53912	0.55299	0.59584	0.114
Mof_H 	H 	0.5093	0.6005	0.6116	-0.001
Mof_C 	C 	0.5168	0.47796	0.62509	-0.186
Mof_H 	H 	0.4736	0.4752	0.6616	0.093
Mof_C 	C 	0.55847	0.40679	0.60043	0.12
Mof_H 	H 	0.5407	0.356	0.6187	-0.008
Mof_C 	C 	0.36438	0.72207	0.66326	0.529
Mof_C 	C 	0.44042	0.69321	0.77811	0.174
Mof_H 	H 	0.4947	0.7189	0.7616	-0.007
Mof_C 	C 	0.36308	0.68571	0.73489	-0.253
Mof_C 	C 	0.2835	0.646	0.75987	0.161
Mof_H 	H 	0.2301	0.6422	0.7318	-0.017
Mof_C 	C 	0.52048	0.67916	0.89289	0.466
Mof_C 	C 	0.43879	0.66327	0.84555	-0.239
Mof_C 	C 	0.3597	0.6214	0.86895	0.155
Mof_H 	H 	0.3587	0.5995	0.9138	-0.034
Mof_C 	C 	0.62804	0.63773	0.50868	0.436
Mof_C 	C 	0.2825	0.6122	0.82573	-0.231
Mof_H 	H 	0.2298	0.5832	0.8411	0.113
Mof_Mg	Mg	0.02244	0.20883	0.04429	1.462
Mof_Mg	Mg	0.81033	0.24077	0.93555	1.474
Mof_O 	O 	0.91687	0.29808	0.02236	-0.591
Mof_O 	O 	0.87632	0.72795	0.01152	-0.553
Mof_O 	O 	0.0581	0.26133	0.13647	-0.577
Mof_O 	O 	0.98032	0.34735	0.4542	-0.596
Mof_O 	O 	0.74223	0.65897	0.00188	-0.545
Mof_O 	O 	0.80585	0.35986	0.96395	-0.522
Mof_O 	O 	0.91234	0.28004	0.36874	-0.533
Mof_O 	O 	0.21388	0.26567	0.13496	-0.591
Mof_C 	C 	0.82851	0.66432	0.0192	0.47
Mof_C 	C 	0.87347	0.58916	0.04864	-0.217
Mof_C 	C 	0.84965	0.51289	0.0209	0.145
Mof_H 	H 	0.803	0.5095	0.9869	-0.009
Mof_C 	C 	0.89448	0.44202	0.04325	-0.206
Mof_C 	C 	0.96088	0.44701	0.09584	0.108
Mof_H 	H 	0.9907	0.3995	0.1116	0.003
Mof_C 	C 	0.9832	0.52204	0.12509	-0.171
Mof_H 	H 	0.0264	0.5248	0.1616	0.084
Mof_C 	C 	0.94153	0.59321	0.10043	0.114
Mof_H 	H 	0.9593	0.644	0.1187	-0.005
Mof_C 	C 	0.13562	0.27793	0.16326	0.53
Mof_C 	C 	0.05958	0.30679	0.27811	0.177
Mof_H 	H 	0.0053	0.2811	0.2616	-0.009
Mof_C 	C 	0.13692	0.31429	0.23489	-0.257
Mof_C 	C 	0.2165	0.354	0.25987	0.164
Mof_H 	H 	0.2699	0.3578	0.2318	-0.019
Mof_C 	C 	0.97952	0.32084	0.39289	0.471
Mof_C 	C 	0.06121	0.33673	0.34555	-0.244
Mof_C 	C 	0.1403	0.3786	0.36895	0.159
Mof_H 	H 	0.1413	0.4005	0.4138	-0.036
Mof_C 	C 	0.87196	0.36227	0.00868	0.442
Mof_C 	C 	0.2175	0.3878	0.32573	-0.235
Mof_H 	H 	0.2702	0.4168	0.3411	0.114
Mof_Mg	Mg	0.52244	0.29117	0.95571	1.463
Mof_Mg	Mg	0.31033	0.25923	0.06445	1.475
Mof_O 	O 	0.41687	0.20192	0.97764	-0.595
Mof_O 	O 	0.37632	0.77205	0.98848	-0.554
Mof_O 	O 	0.5581	0.23867	0.86353	-0.573
Mof_O 	O 	0.48032	0.15265	0.5458	-0.596
Mof_O 	O 	0.24223	0.84103	0.99812	-0.544
Mof_O 	O 	0.30585	0.14014	0.03605	-0.521
Mof_O 	O 	0.41234	0.21996	0.63126	-0.533
Mof_O 	O 	0.71388	0.23433	0.86504	-0.59
Mof_C 	C 	0.32851	0.83568	0.9808	0.472
Mof_C 	C 	0.37347	0.91084	0.95136	-0.221
Mof_C 	C 	0.34965	0.98711	0.9791	0.147
Mof_H 	H 	0.303	0.9905	0.0131	-0.007
Mof_C 	C 	0.39448	0.05798	0.95675	-0.212
Mof_C 	C 	0.46088	0.05299	0.90416	0.118
Mof_H 	H 	0.4907	0.1005	0.8884	-0.003
Mof_C 	C 	0.4832	0.97796	0.87491	-0.19
Mof_H 	H 	0.5264	0.9752	0.8384	0.094
Mof_C 	C 	0.44153	0.90679	0.89957	0.124
Mof_H 	H 	0.4593	0.856	0.8813	-0.009
Mof_C 	C 	0.63562	0.22207	0.83674	0.529
Mof_C 	C 	0.55958	0.19321	0.72189	0.174
Mof_H 	H 	0.5053	0.2189	0.7384	-0.007
Mof_C 	C 	0.63692	0.18571	0.76511	-0.254
Mof_C 	C 	0.7165	0.146	0.74013	0.161
Mof_H 	H 	0.7699	0.1422	0.7682	-0.018
Mof_C 	C 	0.47952	0.17916	0.60711	0.466
Mof_C 	C 	0.56121	0.16327	0.65445	-0.239
Mof_C 	C 	0.6403	0.1214	0.63105	0.156
Mof_H 	H 	0.6413	0.0995	0.5862	-0.035
Mof_C 	C 	0.37196	0.13773	0.99132	0.442
Mof_C 	C 	0.7175	0.1122	0.67427	-0.232
Mof_H 	H 	0.7702	0.0832	0.6589	0.113
Mof_Mg	Mg	0.97756	0.70883	0.45571	1.463
Mof_Mg	Mg	0.18967	0.74077	0.56445	1.475
Mof_O 	O 	0.08313	0.79808	0.47764	-0.594
Mof_O 	O 	0.12368	0.22795	0.48848	-0.556
Mof_O 	O 	0.9419	0.76133	0.36353	-0.572
Mof_O 	O 	0.01968	0.84735	0.0458	-0.597
Mof_O 	O 	0.25777	0.15897	0.49812	-0.547
Mof_O 	O 	0.19415	0.85986	0.53605	-0.517
Mof_O 	O 	0.08766	0.78004	0.13126	-0.534
Mof_O 	O 	0.78612	0.76567	0.36504	-0.589
Mof_C 	C 	0.17149	0.16432	0.4808	0.473
Mof_C 	C 	0.12653	0.08916	0.45136	-0.226
Mof_C 	C 	0.15035	0.01289	0.4791	0.142
Mof_H 	H 	0.197	0.0095	0.5131	-0.005
Mof_C 	C 	0.10552	0.94202	0.45675	-0.213
Mof_C 	C 	0.03912	0.94701	0.40416	0.136
Mof_H 	H 	0.0093	0.8995	0.3884	-0.008
Mof_C 	C 	0.0168	0.02204	0.37491	-0.217
Mof_H 	H 	0.9736	0.0248	0.3384	0.108
Mof_C 	C 	0.05847	0.09321	0.39957	0.138
Mof_H 	H 	0.0407	0.144	0.3813	-0.015
Mof_C 	C 	0.86438	0.77793	0.33674	0.528
Mof_C 	C 	0.94042	0.80679	0.22189	0.171
Mof_H 	H 	0.9947	0.7811	0.2384	-0.005
Mof_C 	C 	0.86308	0.81429	0.26511	-0.251
Mof_C 	C 	0.7835	0.854	0.24013	0.158
Mof_H 	H 	0.7301	0.8578	0.2682	-0.017
Mof_C 	C 	0.02048	0.82084	0.10711	0.463
Mof_C 	C 	0.93879	0.83673	0.15445	-0.234
Mof_C 	C 	0.8597	0.8786	0.13105	0.152
Mof_H 	H 	0.8587	0.9005	0.0862	-0.033
Mof_C 	C 	0.12804	0.86227	0.49132	0.44
Mof_C 	C 	0.7825	0.8878	0.17427	-0.229
Mof_H 	H 	0.7298	0.9168	0.1589	0.112
_end
