data_functionalizedCrystal
_audit_creation_method	'EQeq! by Chris Wilmer'
_symmetry_space_group_name_H-M	'P1'
_symmetry_Int_Tables_number	1
_symmetry_cell_setting	triclinic
loop_
_symmetry_equiv_pos_as_xyz
  x,y,z
_cell_length_a	13.092
_cell_length_b	16.956
_cell_length_c	26.765
_cell_angle_alpha	90
_cell_angle_beta	90
_cell_angle_gamma	90
loop_
_atom_site_label
_atom_site_type_symbol
_atom_site_fract_x
_atom_site_fract_y
_atom_site_fract_z
_atom_site_charge
Mof_N 	N 	0.4114	0.5908	0.75031	-0.071
Mof_N 	N 	0.375	0.6623	0.7375	-0.096
Mof_N 	N 	0.5045	0.62748	0.6873	-0.156
Mof_C 	C 	0.4338	0.6824	0.7	0.093
Mof_H 	H 	0.4275	0.7315	0.6832	0.007
Mof_C 	C 	0.4877	0.5709	0.72044	0.079
Mof_H 	H 	0.525	0.523	0.7224	0.017
Mof_C 	C 	0.362	0.5429	0.7888	-0.182
Mof_C 	C 	0.2539	0.5217	0.7738	-0.15
Mof_C 	C 	0.293	0.4807	0.7652	0.185
Mof_H 	H 	0.352	0.57	0.817	0.104
Mof_H 	H 	0.41	0.513	0.8	0.095
Mof_N 	N 	0.4114	0.0908	0.25031	-0.072
Mof_N 	N 	0.375	0.1623	0.2375	-0.097
Mof_N 	N 	0.5045	0.12748	0.1873	-0.157
Mof_C 	C 	0.4338	0.1824	0.2	0.09
Mof_H 	H 	0.4275	0.2315	0.1832	0.007
Mof_C 	C 	0.4877	0.0709	0.22044	0.077
Mof_H 	H 	0.525	0.023	0.2224	0.015
Mof_C 	C 	0.362	0.0429	0.2888	-0.185
Mof_C 	C 	0.2539	0.0217	0.2738	-0.25
Mof_C 	C 	0.293	0.9807	0.2652	0.286
Mof_H 	H 	0.352	0.07	0.317	0.108
Mof_H 	H 	0.41	0.013	0.3	0.09
Mof_N 	N 	0.9114	0.5908	0.25031	-0.071
Mof_N 	N 	0.875	0.6623	0.2375	-0.097
Mof_N 	N 	0.0045	0.62748	0.1873	-0.154
Mof_C 	C 	0.9338	0.6824	0.2	0.088
Mof_H 	H 	0.9275	0.7315	0.1832	0.009
Mof_C 	C 	0.9877	0.5709	0.22044	0.074
Mof_H 	H 	0.025	0.523	0.2224	0.017
Mof_C 	C 	0.862	0.5429	0.2888	-0.182
Mof_C 	C 	0.7539	0.5217	0.2738	-0.151
Mof_C 	C 	0.793	0.4807	0.2652	0.184
Mof_H 	H 	0.852	0.57	0.317	0.103
Mof_H 	H 	0.91	0.513	0.3	0.094
Mof_N 	N 	0.9114	0.0908	0.75031	-0.075
Mof_N 	N 	0.875	0.1623	0.7375	-0.097
Mof_N 	N 	0.0045	0.12748	0.6873	-0.167
Mof_C 	C 	0.9338	0.1824	0.7	0.099
Mof_H 	H 	0.9275	0.2315	0.6832	0.005
Mof_C 	C 	0.9877	0.0709	0.72044	0.103
Mof_H 	H 	0.025	0.023	0.7224	0.002
Mof_C 	C 	0.862	0.0429	0.7888	-0.175
Mof_C 	C 	0.7539	0.0217	0.7738	-0.221
Mof_C 	C 	0.793	0.9807	0.7652	0.249
Mof_H 	H 	0.852	0.07	0.817	0.107
Mof_H 	H 	0.91	0.013	0.8	0.094
Mof_N 	N 	0.3386	0.1592	0.75031	-0.071
Mof_N 	N 	0.375	0.0877	0.7375	-0.097
Mof_N 	N 	0.2455	0.12252	0.6873	-0.157
Mof_C 	C 	0.3162	0.0676	0.7	0.092
Mof_H 	H 	0.3225	0.0185	0.6832	0.006
Mof_C 	C 	0.2623	0.1791	0.72044	0.078
Mof_H 	H 	0.225	0.227	0.7224	0.015
Mof_C 	C 	0.388	0.2071	0.7888	-0.185
Mof_C 	C 	0.4961	0.2283	0.7738	-0.158
Mof_C 	C 	0.457	0.2693	0.7652	0.191
Mof_H 	H 	0.398	0.18	0.817	0.105
Mof_H 	H 	0.34	0.237	0.8	0.096
Mof_N 	N 	0.3386	0.6592	0.25031	-0.072
Mof_N 	N 	0.375	0.5877	0.2375	-0.097
Mof_N 	N 	0.2455	0.62252	0.1873	-0.157
Mof_C 	C 	0.3162	0.5676	0.2	0.092
Mof_H 	H 	0.3225	0.5185	0.1832	0.007
Mof_C 	C 	0.2623	0.6791	0.22044	0.078
Mof_H 	H 	0.225	0.727	0.2224	0.016
Mof_C 	C 	0.388	0.7071	0.2888	-0.181
Mof_C 	C 	0.4961	0.7283	0.2738	-0.158
Mof_C 	C 	0.457	0.7693	0.2652	0.19
Mof_H 	H 	0.398	0.68	0.317	0.103
Mof_H 	H 	0.34	0.737	0.3	0.094
Mof_N 	N 	0.8386	0.1592	0.25031	-0.071
Mof_N 	N 	0.875	0.0877	0.2375	-0.095
Mof_N 	N 	0.7455	0.12252	0.1873	-0.156
Mof_C 	C 	0.8162	0.0676	0.2	0.091
Mof_H 	H 	0.8225	0.0185	0.1832	0.011
Mof_C 	C 	0.7623	0.1791	0.22044	0.078
Mof_H 	H 	0.725	0.227	0.2224	0.016
Mof_C 	C 	0.888	0.2071	0.2888	-0.189
Mof_C 	C 	0.9961	0.2283	0.2738	-0.189
Mof_C 	C 	0.957	0.2693	0.2652	0.233
Mof_H 	H 	0.898	0.18	0.317	0.108
Mof_H 	H 	0.84	0.237	0.3	0.095
Mof_N 	N 	0.8386	0.6592	0.75031	-0.074
Mof_N 	N 	0.875	0.5877	0.7375	-0.097
Mof_N 	N 	0.7455	0.62252	0.6873	-0.157
Mof_C 	C 	0.8162	0.5676	0.7	0.091
Mof_H 	H 	0.8225	0.5185	0.6832	0.006
Mof_C 	C 	0.7623	0.6791	0.72044	0.078
Mof_H 	H 	0.725	0.727	0.7224	0.015
Mof_C 	C 	0.888	0.7071	0.7888	-0.17
Mof_C 	C 	0.9961	0.7283	0.7738	-0.203
Mof_C 	C 	0.957	0.7693	0.7652	0.221
Mof_H 	H 	0.898	0.68	0.817	0.1
Mof_H 	H 	0.84	0.737	0.8	0.086
Mof_N 	N 	0.3386	0.5908	0.99969	-0.073
Mof_N 	N 	0.375	0.6623	0.0125	-0.097
Mof_N 	N 	0.2455	0.62748	0.0627	-0.157
Mof_C 	C 	0.3162	0.6824	0.05	0.092
Mof_H 	H 	0.3225	0.7315	0.0668	0.008
Mof_C 	C 	0.2623	0.5709	0.02956	0.08
Mof_H 	H 	0.225	0.523	0.0276	0.015
Mof_C 	C 	0.388	0.5429	0.9612	-0.181
Mof_C 	C 	0.4961	0.5217	0.9762	-0.161
Mof_C 	C 	0.457	0.4807	0.9848	0.193
Mof_H 	H 	0.398	0.57	0.933	0.103
Mof_H 	H 	0.34	0.513	0.95	0.093
Mof_N 	N 	0.3386	0.0908	0.49969	-0.072
Mof_N 	N 	0.375	0.1623	0.5125	-0.097
Mof_N 	N 	0.2455	0.12748	0.5627	-0.157
Mof_C 	C 	0.3162	0.1824	0.55	0.092
Mof_H 	H 	0.3225	0.2315	0.5668	0.006
Mof_C 	C 	0.2623	0.0709	0.52956	0.078
Mof_H 	H 	0.225	0.023	0.5276	0.014
Mof_C 	C 	0.388	0.0429	0.4612	-0.186
Mof_C 	C 	0.4961	0.0217	0.4762	-0.069
Mof_C 	C 	0.457	0.9807	0.4848	0.103
Mof_H 	H 	0.398	0.07	0.433	0.101
Mof_H 	H 	0.34	0.013	0.45	0.098
Mof_N 	N 	0.8386	0.5908	0.49969	-0.072
Mof_N 	N 	0.875	0.6623	0.5125	-0.098
Mof_N 	N 	0.7455	0.62748	0.5627	-0.157
Mof_C 	C 	0.8162	0.6824	0.55	0.092
Mof_H 	H 	0.8225	0.7315	0.5668	0.006
Mof_C 	C 	0.7623	0.5709	0.52956	0.078
Mof_H 	H 	0.725	0.523	0.5276	0.016
Mof_C 	C 	0.888	0.5429	0.4612	-0.185
Mof_C 	C 	0.9961	0.5217	0.4762	-0.103
Mof_C 	C 	0.957	0.4807	0.4848	0.136
Mof_H 	H 	0.898	0.57	0.433	0.102
Mof_H 	H 	0.84	0.513	0.45	0.098
Mof_N 	N 	0.8386	0.0908	0.99969	-0.077
Mof_N 	N 	0.875	0.1623	0.0125	-0.094
Mof_N 	N 	0.7455	0.12748	0.0627	-0.155
Mof_C 	C 	0.8162	0.1824	0.05	0.088
Mof_H 	H 	0.8225	0.2315	0.0668	0.007
Mof_C 	C 	0.7623	0.0709	0.02956	0.076
Mof_H 	H 	0.725	0.023	0.0276	0.01
Mof_C 	C 	0.888	0.0429	0.9612	-0.104
Mof_C 	C 	0.9961	0.0217	0.9762	-1.8
Mof_C 	C 	0.957	0.9807	0.9848	1.832
Mof_H 	H 	0.898	0.07	0.933	0.145
Mof_H 	H 	0.84	0.013	0.95	-0.007
Mof_N 	N 	0.4114	0.1592	0.99969	-0.067
Mof_N 	N 	0.375	0.0877	0.0125	-0.104
Mof_N 	N 	0.5045	0.12252	0.0627	-0.156
Mof_C 	C 	0.4338	0.0676	0.05	0.089
Mof_H 	H 	0.4275	0.0185	0.0668	0.004
Mof_C 	C 	0.4877	0.1791	0.02956	0.073
Mof_H 	H 	0.525	0.227	0.0276	0.016
Mof_C 	C 	0.362	0.2071	0.9612	-0.191
Mof_C 	C 	0.2539	0.2283	0.9762	-0.331
Mof_C 	C 	0.293	0.2693	0.9848	0.377
Mof_H 	H 	0.352	0.18	0.933	0.114
Mof_H 	H 	0.41	0.237	0.95	0.089
Mof_N 	N 	0.4114	0.6592	0.49969	-0.072
Mof_N 	N 	0.375	0.5877	0.5125	-0.097
Mof_N 	N 	0.5045	0.62252	0.5627	-0.157
Mof_C 	C 	0.4338	0.5676	0.55	0.092
Mof_H 	H 	0.4275	0.5185	0.5668	0.006
Mof_C 	C 	0.4877	0.6791	0.52956	0.078
Mof_H 	H 	0.525	0.727	0.5276	0.016
Mof_C 	C 	0.362	0.7071	0.4612	-0.184
Mof_C 	C 	0.2539	0.7283	0.4762	-0.133
Mof_C 	C 	0.293	0.7693	0.4848	0.167
Mof_H 	H 	0.352	0.68	0.433	0.103
Mof_H 	H 	0.41	0.737	0.45	0.097
Mof_N 	N 	0.9114	0.1592	0.49969	-0.074
Mof_N 	N 	0.875	0.0877	0.5125	-0.097
Mof_N 	N 	0.0045	0.12252	0.5627	-0.166
Mof_C 	C 	0.9338	0.0676	0.55	0.098
Mof_H 	H 	0.9275	0.0185	0.5668	0.008
Mof_C 	C 	0.9877	0.1791	0.52956	0.094
Mof_H 	H 	0.025	0.227	0.5276	0.007
Mof_C 	C 	0.862	0.2071	0.4612	-0.182
Mof_C 	C 	0.7539	0.2283	0.4762	-0.133
Mof_C 	C 	0.793	0.2693	0.4848	0.166
Mof_H 	H 	0.852	0.18	0.433	0.103
Mof_H 	H 	0.91	0.237	0.45	0.096
Mof_N 	N 	0.9114	0.6592	0.99969	-0.076
Mof_N 	N 	0.875	0.5877	0.0125	-0.096
Mof_N 	N 	0.0045	0.62252	0.0627	-0.153
Mof_C 	C 	0.9338	0.5676	0.05	0.089
Mof_H 	H 	0.9275	0.5185	0.0668	0.007
Mof_C 	C 	0.9877	0.6791	0.02956	0.071
Mof_H 	H 	0.025	0.727	0.0276	0.024
Mof_C 	C 	0.862	0.7071	0.9612	-0.153
Mof_C 	C 	0.7539	0.7283	0.9762	-0.338
Mof_C 	C 	0.793	0.7693	0.9848	0.346
Mof_H 	H 	0.852	0.68	0.933	0.1
Mof_H 	H 	0.91	0.737	0.95	0.068
Mof_N 	N 	0.5886	0.4092	0.24969	-0.072
Mof_N 	N 	0.625	0.3377	0.2625	-0.097
Mof_N 	N 	0.4955	0.37252	0.3127	-0.157
Mof_C 	C 	0.5662	0.3176	0.3	0.092
Mof_H 	H 	0.5725	0.2685	0.3168	0.006
Mof_C 	C 	0.5123	0.4291	0.27956	0.078
Mof_H 	H 	0.475	0.477	0.2776	0.016
Mof_C 	C 	0.638	0.4571	0.2112	-0.183
Mof_C 	C 	0.7461	0.4783	0.2262	-0.151
Mof_C 	C 	0.707	0.5193	0.2348	0.184
Mof_H 	H 	0.648	0.43	0.183	0.104
Mof_H 	H 	0.59	0.487	0.2	0.095
Mof_N 	N 	0.5886	0.9092	0.74969	-0.072
Mof_N 	N 	0.625	0.8377	0.7625	-0.097
Mof_N 	N 	0.4955	0.87252	0.8127	-0.157
Mof_C 	C 	0.5662	0.8176	0.8	0.09
Mof_H 	H 	0.5725	0.7685	0.8168	0.007
Mof_C 	C 	0.5123	0.9291	0.77956	0.077
Mof_H 	H 	0.475	0.977	0.7776	0.015
Mof_C 	C 	0.638	0.9571	0.7112	-0.185
Mof_C 	C 	0.7461	0.9783	0.7262	-0.25
Mof_C 	C 	0.707	0.0193	0.7348	0.286
Mof_H 	H 	0.648	0.93	0.683	0.108
Mof_H 	H 	0.59	0.987	0.7	0.09
Mof_N 	N 	0.0886	0.4092	0.74969	-0.071
Mof_N 	N 	0.125	0.3377	0.7625	-0.097
Mof_N 	N 	0.9955	0.37252	0.8127	-0.154
Mof_C 	C 	0.0662	0.3176	0.8	0.088
Mof_H 	H 	0.0725	0.2685	0.8168	0.009
Mof_C 	C 	0.0123	0.4291	0.77956	0.074
Mof_H 	H 	0.975	0.477	0.7776	0.017
Mof_C 	C 	0.138	0.4571	0.7112	-0.182
Mof_C 	C 	0.2461	0.4783	0.7262	-0.151
Mof_C 	C 	0.207	0.5193	0.7348	0.184
Mof_H 	H 	0.148	0.43	0.683	0.103
Mof_H 	H 	0.09	0.487	0.7	0.094
Mof_N 	N 	0.0886	0.9092	0.24969	-0.075
Mof_N 	N 	0.125	0.8377	0.2625	-0.097
Mof_N 	N 	0.9955	0.87252	0.3127	-0.167
Mof_C 	C 	0.0662	0.8176	0.3	0.099
Mof_H 	H 	0.0725	0.7685	0.3168	0.005
Mof_C 	C 	0.0123	0.9291	0.27956	0.103
Mof_H 	H 	0.975	0.977	0.2776	0.002
Mof_C 	C 	0.138	0.9571	0.2112	-0.175
Mof_C 	C 	0.2461	0.9783	0.2262	-0.221
Mof_C 	C 	0.207	0.0193	0.2348	0.249
Mof_H 	H 	0.148	0.93	0.183	0.107
Mof_H 	H 	0.09	0.987	0.2	0.094
Mof_N 	N 	0.6614	0.8408	0.24969	-0.071
Mof_N 	N 	0.625	0.9123	0.2625	-0.097
Mof_N 	N 	0.7545	0.87748	0.3127	-0.157
Mof_C 	C 	0.6838	0.9324	0.3	0.092
Mof_H 	H 	0.6775	0.9815	0.3168	0.006
Mof_C 	C 	0.7377	0.8209	0.27956	0.078
Mof_H 	H 	0.775	0.773	0.2776	0.015
Mof_C 	C 	0.612	0.7929	0.2112	-0.185
Mof_C 	C 	0.5039	0.7717	0.2262	-0.158
Mof_C 	C 	0.543	0.7307	0.2348	0.191
Mof_H 	H 	0.602	0.82	0.183	0.105
Mof_H 	H 	0.66	0.763	0.2	0.096
Mof_N 	N 	0.6614	0.3408	0.74969	-0.072
Mof_N 	N 	0.625	0.4123	0.7625	-0.097
Mof_N 	N 	0.7545	0.37748	0.8127	-0.157
Mof_C 	C 	0.6838	0.4324	0.8	0.092
Mof_H 	H 	0.6775	0.4815	0.8168	0.007
Mof_C 	C 	0.7377	0.3209	0.77956	0.078
Mof_H 	H 	0.775	0.273	0.7776	0.016
Mof_C 	C 	0.612	0.2929	0.7112	-0.181
Mof_C 	C 	0.5039	0.2717	0.7262	-0.158
Mof_C 	C 	0.543	0.2307	0.7348	0.19
Mof_H 	H 	0.602	0.32	0.683	0.103
Mof_H 	H 	0.66	0.263	0.7	0.094
Mof_N 	N 	0.1614	0.8408	0.74969	-0.071
Mof_N 	N 	0.125	0.9123	0.7625	-0.095
Mof_N 	N 	0.2545	0.87748	0.8127	-0.156
Mof_C 	C 	0.1838	0.9324	0.8	0.091
Mof_H 	H 	0.1775	0.9815	0.8168	0.011
Mof_C 	C 	0.2377	0.8209	0.77956	0.078
Mof_H 	H 	0.275	0.773	0.7776	0.016
Mof_C 	C 	0.112	0.7929	0.7112	-0.189
Mof_C 	C 	0.0039	0.7717	0.7262	-0.189
Mof_C 	C 	0.043	0.7307	0.7348	0.233
Mof_H 	H 	0.102	0.82	0.683	0.108
Mof_H 	H 	0.16	0.763	0.7	0.095
Mof_N 	N 	0.1614	0.3408	0.24969	-0.074
Mof_N 	N 	0.125	0.4123	0.2625	-0.097
Mof_N 	N 	0.2545	0.37748	0.3127	-0.157
Mof_C 	C 	0.1838	0.4324	0.3	0.091
Mof_H 	H 	0.1775	0.4815	0.3168	0.006
Mof_C 	C 	0.2377	0.3209	0.27956	0.078
Mof_H 	H 	0.275	0.273	0.2776	0.015
Mof_C 	C 	0.112	0.2929	0.2112	-0.17
Mof_C 	C 	0.0039	0.2717	0.2262	-0.203
Mof_C 	C 	0.043	0.2307	0.2348	0.221
Mof_H 	H 	0.102	0.32	0.183	0.1
Mof_H 	H 	0.16	0.263	0.2	0.086
Mof_N 	N 	0.6614	0.4092	0.00031	-0.073
Mof_N 	N 	0.625	0.3377	0.9875	-0.097
Mof_N 	N 	0.7545	0.37252	0.9373	-0.157
Mof_C 	C 	0.6838	0.3176	0.95	0.092
Mof_H 	H 	0.6775	0.2685	0.9332	0.008
Mof_C 	C 	0.7377	0.4291	0.97044	0.08
Mof_H 	H 	0.775	0.477	0.9724	0.015
Mof_C 	C 	0.612	0.4571	0.0388	-0.181
Mof_C 	C 	0.5039	0.4783	0.0238	-0.161
Mof_C 	C 	0.543	0.5193	0.0152	0.193
Mof_H 	H 	0.602	0.43	0.067	0.103
Mof_H 	H 	0.66	0.487	0.05	0.093
Mof_N 	N 	0.6614	0.9092	0.50031	-0.072
Mof_N 	N 	0.625	0.8377	0.4875	-0.097
Mof_N 	N 	0.7545	0.87252	0.4373	-0.157
Mof_C 	C 	0.6838	0.8176	0.45	0.092
Mof_H 	H 	0.6775	0.7685	0.4332	0.006
Mof_C 	C 	0.7377	0.9291	0.47044	0.078
Mof_H 	H 	0.775	0.977	0.4724	0.014
Mof_C 	C 	0.612	0.9571	0.5388	-0.186
Mof_C 	C 	0.5039	0.9783	0.5238	-0.069
Mof_C 	C 	0.543	0.0193	0.5152	0.103
Mof_H 	H 	0.602	0.93	0.567	0.101
Mof_H 	H 	0.66	0.987	0.55	0.098
Mof_N 	N 	0.1614	0.4092	0.50031	-0.072
Mof_N 	N 	0.125	0.3377	0.4875	-0.098
Mof_N 	N 	0.2545	0.37252	0.4373	-0.157
Mof_C 	C 	0.1838	0.3176	0.45	0.092
Mof_H 	H 	0.1775	0.2685	0.4332	0.006
Mof_C 	C 	0.2377	0.4291	0.47044	0.078
Mof_H 	H 	0.275	0.477	0.4724	0.016
Mof_C 	C 	0.112	0.4571	0.5388	-0.185
Mof_C 	C 	0.0039	0.4783	0.5238	-0.103
Mof_C 	C 	0.043	0.5193	0.5152	0.136
Mof_H 	H 	0.102	0.43	0.567	0.102
Mof_H 	H 	0.16	0.487	0.55	0.098
Mof_N 	N 	0.1614	0.9092	0.00031	-0.077
Mof_N 	N 	0.125	0.8377	0.9875	-0.094
Mof_N 	N 	0.2545	0.87252	0.9373	-0.155
Mof_C 	C 	0.1838	0.8176	0.95	0.088
Mof_H 	H 	0.1775	0.7685	0.9332	0.007
Mof_C 	C 	0.2377	0.9291	0.97044	0.076
Mof_H 	H 	0.275	0.977	0.9724	0.01
Mof_C 	C 	0.112	0.9571	0.0388	-0.104
Mof_C 	C 	0.0039	0.9783	0.0238	-1.8
Mof_C 	C 	0.043	0.0193	0.0152	1.832
Mof_H 	H 	0.102	0.93	0.067	0.145
Mof_H 	H 	0.16	0.987	0.05	-0.007
Mof_N 	N 	0.5886	0.8408	0.00031	-0.067
Mof_N 	N 	0.625	0.9123	0.9875	-0.104
Mof_N 	N 	0.4955	0.87748	0.9373	-0.156
Mof_C 	C 	0.5662	0.9324	0.95	0.089
Mof_H 	H 	0.5725	0.9815	0.9332	0.004
Mof_C 	C 	0.5123	0.8209	0.97044	0.073
Mof_H 	H 	0.475	0.773	0.9724	0.016
Mof_C 	C 	0.638	0.7929	0.0388	-0.191
Mof_C 	C 	0.7461	0.7717	0.0238	-0.331
Mof_C 	C 	0.707	0.7307	0.0152	0.377
Mof_H 	H 	0.648	0.82	0.067	0.114
Mof_H 	H 	0.59	0.763	0.05	0.089
Mof_N 	N 	0.5886	0.3408	0.50031	-0.072
Mof_N 	N 	0.625	0.4123	0.4875	-0.097
Mof_N 	N 	0.4955	0.37748	0.4373	-0.157
Mof_C 	C 	0.5662	0.4324	0.45	0.092
Mof_H 	H 	0.5725	0.4815	0.4332	0.006
Mof_C 	C 	0.5123	0.3209	0.47044	0.078
Mof_H 	H 	0.475	0.273	0.4724	0.016
Mof_C 	C 	0.638	0.2929	0.5388	-0.184
Mof_C 	C 	0.7461	0.2717	0.5238	-0.133
Mof_C 	C 	0.707	0.2307	0.5152	0.167
Mof_H 	H 	0.648	0.32	0.567	0.103
Mof_H 	H 	0.59	0.263	0.55	0.097
Mof_N 	N 	0.0886	0.8408	0.50031	-0.074
Mof_N 	N 	0.125	0.9123	0.4875	-0.097
Mof_N 	N 	0.9955	0.87748	0.4373	-0.166
Mof_C 	C 	0.0662	0.9324	0.45	0.098
Mof_H 	H 	0.0725	0.9815	0.4332	0.008
Mof_C 	C 	0.0123	0.8209	0.47044	0.094
Mof_H 	H 	0.975	0.773	0.4724	0.007
Mof_C 	C 	0.138	0.7929	0.5388	-0.182
Mof_C 	C 	0.2461	0.7717	0.5238	-0.133
Mof_C 	C 	0.207	0.7307	0.5152	0.166
Mof_H 	H 	0.148	0.82	0.567	0.103
Mof_H 	H 	0.09	0.763	0.55	0.096
Mof_N 	N 	0.0886	0.3408	0.00031	-0.076
Mof_N 	N 	0.125	0.4123	0.9875	-0.096
Mof_N 	N 	0.9955	0.37748	0.9373	-0.153
Mof_C 	C 	0.0662	0.4324	0.95	0.089
Mof_H 	H 	0.0725	0.4815	0.9332	0.007
Mof_C 	C 	0.0123	0.3209	0.97044	0.071
Mof_H 	H 	0.975	0.273	0.9724	0.024
Mof_C 	C 	0.138	0.2929	0.0388	-0.153
Mof_C 	C 	0.2461	0.2717	0.0238	-0.338
Mof_C 	C 	0.207	0.2307	0.0152	0.346
Mof_H 	H 	0.148	0.32	0.067	0.1
Mof_H 	H 	0.09	0.263	0.05	0.068
Mof_Cd	Cd	0.625	0.625	0.625	0.343
Mof_Cd	Cd	0.125	0.125	0.625	0.341
Mof_Cd	Cd	0.125	0.625	0.125	0.346
Mof_Cd	Cd	0.625	0.125	0.125	0.344
Mof_Cd	Cd	0.375	0.375	0.375	0.343
Mof_Cd	Cd	0.875	0.875	0.375	0.341
Mof_Cd	Cd	0.875	0.375	0.875	0.346
Mof_Cd	Cd	0.375	0.875	0.875	0.344
_end
