data_functionalizedCrystal
_audit_creation_method	'EQeq! by Chris Wilmer'
_symmetry_space_group_name_H-M	'P1'
_symmetry_Int_Tables_number	1
_symmetry_cell_setting	triclinic
loop_
_symmetry_equiv_pos_as_xyz
  x,y,z
_cell_length_a	12.877
_cell_length_b	12.17
_cell_length_c	12.159
_cell_angle_alpha	90
_cell_angle_beta	93.99
_cell_angle_gamma	90
loop_
_atom_site_label
_atom_site_type_symbol
_atom_site_fract_x
_atom_site_fract_y
_atom_site_fract_z
_atom_site_charge
Mof_Fe	Fe	0.24894	0.04067	0.20273	1.005
Mof_P 	P 	0.20235	0.77535	0.17633	0.468
Mof_H 	H 	0.202	0.721	0.075	-0.02
Mof_P 	P 	0.82489	0.97889	0.0559	0.475
Mof_H 	H 	0.865	0.074	0.025	0.016
Mof_F 	F 	0.0938	0.0283	0.202	-0.563
Mof_O 	O 	0.2647	0.8805	0.166	-0.341
Mof_O 	O 	0.7738	0.9181	0.957	-0.295
Mof_O 	O 	0.253	0.7012	0.265	-0.322
Mof_O 	O 	0.744	0.0059	0.1373	-0.338
Mof_O 	O 	0.0877	0.7967	0.1888	-0.376
Mof_O 	O 	0.9176	0.9133	0.1056	-0.237
Mof_Fe	Fe	0.74894	0.54067	0.20273	1.028
Mof_P 	P 	0.70235	0.27535	0.17633	0.472
Mof_H 	H 	0.702	0.221	0.075	-0.008
Mof_P 	P 	0.32489	0.47889	0.0559	0.487
Mof_H 	H 	0.365	0.574	0.025	-0.012
Mof_F 	F 	0.5938	0.5283	0.202	-0.555
Mof_O 	O 	0.7647	0.3805	0.166	-0.327
Mof_O 	O 	0.2738	0.4181	0.957	-0.316
Mof_O 	O 	0.753	0.2012	0.265	-0.308
Mof_O 	O 	0.244	0.5059	0.1373	-0.358
Mof_O 	O 	0.5877	0.2967	0.1888	-0.359
Mof_O 	O 	0.4176	0.4133	0.1056	-0.321
Mof_Fe	Fe	0.75106	0.04067	0.29727	1.012
Mof_P 	P 	0.79765	0.77535	0.32367	0.464
Mof_H 	H 	0.798	0.721	0.425	0
Mof_P 	P 	0.17511	0.97889	0.4441	0.483
Mof_H 	H 	0.135	0.074	0.475	-0.028
Mof_F 	F 	0.9062	0.0283	0.298	-0.489
Mof_O 	O 	0.7353	0.8805	0.334	-0.337
Mof_O 	O 	0.2262	0.9181	0.543	-0.314
Mof_O 	O 	0.747	0.7012	0.235	-0.312
Mof_O 	O 	0.256	0.0059	0.3627	-0.344
Mof_O 	O 	0.9123	0.7967	0.3112	-0.274
Mof_O 	O 	0.0824	0.9133	0.3944	-0.339
Mof_Fe	Fe	0.25106	0.54067	0.29727	0.986
Mof_P 	P 	0.29765	0.27535	0.32367	0.47
Mof_H 	H 	0.298	0.221	0.425	-0.014
Mof_P 	P 	0.67511	0.47889	0.4441	0.488
Mof_H 	H 	0.635	0.574	0.475	-0.012
Mof_F 	F 	0.4062	0.5283	0.298	-0.551
Mof_O 	O 	0.2353	0.3805	0.334	-0.354
Mof_O 	O 	0.7262	0.4181	0.543	-0.298
Mof_O 	O 	0.247	0.2012	0.235	-0.33
Mof_O 	O 	0.756	0.5059	0.3627	-0.334
Mof_O 	O 	0.4123	0.2967	0.3112	-0.357
Mof_O 	O 	0.5824	0.4133	0.3944	-0.32
Mof_Fe	Fe	0.75106	0.95933	0.79727	1.013
Mof_P 	P 	0.79765	0.22465	0.82367	0.464
Mof_H 	H 	0.798	0.279	0.925	-0
Mof_P 	P 	0.17511	0.02111	0.9441	0.477
Mof_H 	H 	0.135	0.926	0.975	-0.025
Mof_F 	F 	0.9062	0.9717	0.798	-0.488
Mof_O 	O 	0.7353	0.1195	0.834	-0.338
Mof_O 	O 	0.2262	0.0819	0.043	-0.31
Mof_O 	O 	0.747	0.2988	0.735	-0.312
Mof_O 	O 	0.256	0.9941	0.8627	-0.341
Mof_O 	O 	0.9123	0.2033	0.8112	-0.274
Mof_O 	O 	0.0824	0.0867	0.8944	-0.339
Mof_Fe	Fe	0.25106	0.45933	0.79727	0.986
Mof_P 	P 	0.29765	0.72465	0.82367	0.47
Mof_H 	H 	0.298	0.779	0.925	-0.013
Mof_P 	P 	0.67511	0.52111	0.9441	0.489
Mof_H 	H 	0.635	0.426	0.975	-0.012
Mof_F 	F 	0.4062	0.4717	0.798	-0.551
Mof_O 	O 	0.2353	0.6195	0.834	-0.354
Mof_O 	O 	0.7262	0.5819	0.043	-0.3
Mof_O 	O 	0.247	0.7988	0.735	-0.33
Mof_O 	O 	0.756	0.4941	0.8627	-0.334
Mof_O 	O 	0.4123	0.7033	0.8112	-0.357
Mof_O 	O 	0.5824	0.5867	0.8944	-0.32
Mof_Fe	Fe	0.24894	0.95933	0.70273	1.003
Mof_P 	P 	0.20235	0.22465	0.67633	0.467
Mof_H 	H 	0.202	0.279	0.575	-0.021
Mof_P 	P 	0.82489	0.02111	0.5559	0.481
Mof_H 	H 	0.865	0.926	0.525	0.013
Mof_F 	F 	0.0938	0.9717	0.702	-0.564
Mof_O 	O 	0.2647	0.1195	0.666	-0.34
Mof_O 	O 	0.7738	0.0819	0.457	-0.298
Mof_O 	O 	0.253	0.2988	0.765	-0.323
Mof_O 	O 	0.744	0.9941	0.6373	-0.34
Mof_O 	O 	0.0877	0.2033	0.6888	-0.376
Mof_O 	O 	0.9176	0.0867	0.6056	-0.235
Mof_Fe	Fe	0.74894	0.45933	0.70273	1.028
Mof_P 	P 	0.70235	0.72465	0.67633	0.473
Mof_H 	H 	0.702	0.779	0.575	-0.009
Mof_P 	P 	0.32489	0.52111	0.5559	0.487
Mof_H 	H 	0.365	0.426	0.525	-0.012
Mof_F 	F 	0.5938	0.4717	0.702	-0.555
Mof_O 	O 	0.7647	0.6195	0.666	-0.327
Mof_O 	O 	0.2738	0.5819	0.457	-0.315
Mof_O 	O 	0.753	0.7988	0.765	-0.308
Mof_O 	O 	0.244	0.4941	0.6373	-0.358
Mof_O 	O 	0.5877	0.7033	0.6888	-0.359
Mof_O 	O 	0.4176	0.5867	0.6056	-0.321
Mof_Fe	Fe	9.46671e-34	0.91157	0.25	1.006
Mof_Fe	Fe	0.5	0.41157	0.25	1.203
Mof_Fe	Fe	2.84001e-33	0.08843	0.75	1.005
Mof_Fe	Fe	0.5	0.58843	0.75	1.203
_end
