data_functionalizedCrystal
_audit_creation_method	'EQeq! by Chris Wilmer'
_symmetry_space_group_name_H-M	'P1'
_symmetry_Int_Tables_number	1
_symmetry_cell_setting	triclinic
loop_
_symmetry_equiv_pos_as_xyz
  x,y,z
_cell_length_a	6.9666
_cell_length_b	14.9145
_cell_length_c	14.9145
_cell_angle_alpha	62.378
_cell_angle_beta	81.0426
_cell_angle_gamma	98.9574
loop_
_atom_site_label
_atom_site_type_symbol
_atom_site_fract_x
_atom_site_fract_y
_atom_site_fract_z
_atom_site_charge
Mof_Fe	Fe	0.79508	0.25865	0.31651	0.966
Mof_Fe	Fe	0.20492	0.74135	0.68349	0.966
Mof_Fe	Fe	0.88841	0.68349	0.57516	0.966
Mof_Fe	Fe	0.11159	0.31651	0.42484	0.966
Mof_Fe	Fe	0.53643	0.42484	0.25865	0.966
Mof_Fe	Fe	0.46357	0.57516	0.74135	0.966
Mof_H 	H 	0.8159	0.4669	0.5457	0.089
Mof_H 	H 	0.6384	0.4543	0.0126	0.089
Mof_H 	H 	0.349	0.9874	0.4669	0.089
Mof_H 	H 	0.3616	0.5457	0.9874	0.089
Mof_H 	H 	0.1841	0.5331	0.4543	0.089
Mof_H 	H 	0.651	0.0126	0.5331	0.089
Mof_C 	C 	0.1575	0.0866	0.4481	-0.129
Mof_C 	C 	0.8615	0.4332	0.1004	0.223
Mof_C 	C 	0.0709	0.4653	0.0866	-0.128
Mof_C 	C 	0.2083	0.5318	0.99	-0.058
Mof_C 	C 	0.6765	0.4782	0.5318	-0.058
Mof_C 	C 	0.9619	0.1004	0.4664	0.224
Mof_C 	C 	0.3444	0.1789	0.3889	0.403
Mof_C 	C 	0.0381	0.8996	0.5336	0.224
Mof_C 	C 	0.2667	0.6111	0.5678	0.403
Mof_C 	C 	0.8017	0.01	0.5218	-0.058
Mof_C 	C 	0.7333	0.3889	0.4322	0.403
Mof_C 	C 	0.8425	0.9134	0.5519	-0.129
Mof_C 	C 	0.8345	0.5678	0.8211	0.403
Mof_C 	C 	0.5717	0.5336	0.5668	0.223
Mof_C 	C 	0.3944	0.5519	0.5347	-0.128
Mof_C 	C 	0.7917	0.4682	0.01	-0.058
Mof_C 	C 	0.3235	0.5218	0.4682	-0.058
Mof_C 	C 	0.9291	0.5347	0.9134	-0.128
Mof_C 	C 	0.6556	0.8211	0.6111	0.403
Mof_C 	C 	0.1983	0.99	0.4782	-0.058
Mof_C 	C 	0.4283	0.4664	0.4332	0.223
Mof_C 	C 	0.1655	0.4322	0.1789	0.403
Mof_C 	C 	0.6056	0.4481	0.4653	-0.128
Mof_C 	C 	0.1385	0.5668	0.8996	0.223
Mof_O 	O 	0.6424	0.5386	0.8432	-0.359
Mof_O 	O 	0.5144	0.1568	0.3818	-0.359
Mof_O 	O 	0.7634	0.5517	0.229	-0.157
Mof_O 	O 	0.7883	0.7807	0.4483	-0.157
Mof_O 	O 	0.8962	0.3818	0.4614	-0.359
Mof_O 	O 	0.8362	0.1553	0.2602	-0.135
Mof_O 	O 	0.2749	0.6303	0.8029	-0.425
Mof_O 	O 	0.6682	0.3413	0.3867	-0.419
Mof_O 	O 	0.3191	0.4155	0.8447	-0.135
Mof_O 	O 	0.4856	0.8432	0.6182	-0.359
Mof_O 	O 	0.1638	0.8447	0.7398	-0.135
Mof_O 	O 	0.3554	0.4332	0.3697	-0.425
Mof_O 	O 	0.0964	0.2602	0.5845	-0.135
Mof_O 	O 	0.9924	0.229	0.2193	-0.157
Mof_O 	O 	0.9036	0.7398	0.4155	-0.135
Mof_O 	O 	0.7251	0.3697	0.1971	-0.425
Mof_O 	O 	0.6731	0.728	0.6587	-0.419
Mof_O 	O 	0.0549	0.3867	0.272	-0.419
Mof_O 	O 	0.9451	0.6133	0.728	-0.419
Mof_O 	O 	0.6809	0.5845	0.1553	-0.135
Mof_O 	O 	0.2366	0.4483	0.771	-0.157
Mof_O 	O 	0.6446	0.5668	0.6303	-0.425
Mof_O 	O 	0.3576	0.4614	0.1568	-0.359
Mof_O 	O 	0.3318	0.6587	0.6133	-0.419
Mof_O 	O 	0.0076	0.771	0.7807	-0.157
Mof_O 	O 	0.2117	0.2193	0.5517	-0.157
Mof_O 	O 	0.3269	0.272	0.3413	-0.419
Mof_O 	O 	0.0778	0.8029	0.5668	-0.425
Mof_O 	O 	0.1038	0.6182	0.5386	-0.359
Mof_O 	O 	0.9222	0.1971	0.4332	-0.425
_end
