data_functionalizedCrystal
_audit_creation_method	'EQeq! by Chris Wilmer'
_symmetry_space_group_name_H-M	'P1'
_symmetry_Int_Tables_number	1
_symmetry_cell_setting	triclinic
loop_
_symmetry_equiv_pos_as_xyz
  x,y,z
_cell_length_a	9.9218
_cell_length_b	12.653
_cell_length_c	15.5131
_cell_angle_alpha	90
_cell_angle_beta	90.761
_cell_angle_gamma	90
loop_
_atom_site_label
_atom_site_type_symbol
_atom_site_fract_x
_atom_site_fract_y
_atom_site_fract_z
_atom_site_charge
Mof_O 	O 	0.08033	0.91261	0.33845	-0.48
Mof_O 	O 	0.24474	0.8263	0.27283	-0.266
Mof_O 	O 	0.42578	0.60225	0.33355	-0.414
Mof_O 	O 	0.20598	0.59379	0.30487	-0.278
Mof_C 	C 	0.21048	0.79261	0.41998	-0.059
Mof_C 	C 	0.28047	0.69662	0.4234	-0.032
Mof_C 	C 	0.31984	0.65644	0.50319	-0.009
Mof_H 	H 	0.368	0.5934	0.5053	0.067
Mof_C 	C 	0.17617	0.84669	0.33556	0.358
Mof_C 	C 	0.30448	0.62737	0.34556	0.347
Mof_O 	O 	0.58033	0.41261	0.33845	-0.423
Mof_O 	O 	0.74474	0.3263	0.27283	-0.218
Mof_O 	O 	0.92578	0.10225	0.33355	-0.334
Mof_O 	O 	0.70598	0.09379	0.30487	-0.224
Mof_C 	C 	0.71048	0.29261	0.41998	-0.036
Mof_C 	C 	0.78047	0.19662	0.4234	-0.003
Mof_C 	C 	0.81984	0.15644	0.50319	-0.013
Mof_H 	H 	0.868	0.0934	0.5053	0.099
Mof_C 	C 	0.67617	0.34669	0.33556	0.355
Mof_C 	C 	0.80448	0.12737	0.34556	0.333
Mof_O 	O 	0.91967	0.91261	0.16155	-0.348
Mof_O 	O 	0.75526	0.8263	0.22717	-0.219
Mof_O 	O 	0.57422	0.60225	0.16645	-0.414
Mof_O 	O 	0.79402	0.59379	0.19513	-0.202
Mof_C 	C 	0.78952	0.79261	0.08002	-0.01
Mof_C 	C 	0.71953	0.69662	0.0766	-0.028
Mof_C 	C 	0.68016	0.65644	0.99681	0.007
Mof_H 	H 	0.632	0.5934	0.9947	0.07
Mof_C 	C 	0.82383	0.84669	0.16444	0.342
Mof_C 	C 	0.69552	0.62737	0.15444	0.345
Mof_O 	O 	0.41967	0.41261	0.16155	-0.427
Mof_O 	O 	0.25526	0.3263	0.22717	-0.272
Mof_O 	O 	0.07422	0.10225	0.16645	-0.477
Mof_O 	O 	0.29402	0.09379	0.19513	-0.253
Mof_C 	C 	0.28952	0.29261	0.08002	-0.034
Mof_C 	C 	0.21953	0.19662	0.0766	-0.059
Mof_C 	C 	0.18016	0.15644	0.99681	0.015
Mof_H 	H 	0.132	0.0934	0.9947	0.038
Mof_C 	C 	0.32383	0.34669	0.16444	0.35
Mof_C 	C 	0.19552	0.12737	0.15444	0.356
Mof_O 	O 	0.91967	0.08739	0.66155	-0.348
Mof_O 	O 	0.75526	0.1737	0.72717	-0.219
Mof_O 	O 	0.57422	0.39775	0.66645	-0.414
Mof_O 	O 	0.79402	0.40621	0.69513	-0.202
Mof_C 	C 	0.78952	0.20739	0.58002	-0.009
Mof_C 	C 	0.71953	0.30338	0.5766	-0.029
Mof_C 	C 	0.68016	0.34356	0.49681	0.009
Mof_H 	H 	0.632	0.4066	0.4947	0.07
Mof_C 	C 	0.82383	0.15331	0.66444	0.342
Mof_C 	C 	0.69552	0.37263	0.65444	0.345
Mof_O 	O 	0.41967	0.58739	0.66155	-0.427
Mof_O 	O 	0.25526	0.6737	0.72717	-0.272
Mof_O 	O 	0.07422	0.89775	0.66645	-0.476
Mof_O 	O 	0.29402	0.90621	0.69513	-0.252
Mof_C 	C 	0.28952	0.70739	0.58002	-0.037
Mof_C 	C 	0.21953	0.80338	0.5766	-0.053
Mof_C 	C 	0.18016	0.84356	0.49681	0.009
Mof_H 	H 	0.132	0.9066	0.4947	0.039
Mof_C 	C 	0.32383	0.65331	0.66444	0.351
Mof_C 	C 	0.19552	0.87263	0.65444	0.355
Mof_O 	O 	0.08033	0.08739	0.83845	-0.481
Mof_O 	O 	0.24474	0.1737	0.77283	-0.266
Mof_O 	O 	0.42578	0.39775	0.83355	-0.414
Mof_O 	O 	0.20598	0.40621	0.80487	-0.278
Mof_C 	C 	0.21048	0.20739	0.91998	-0.062
Mof_C 	C 	0.28047	0.30338	0.9234	-0.028
Mof_C 	C 	0.31984	0.34356	0.00319	-0.015
Mof_H 	H 	0.368	0.4066	0.0053	0.068
Mof_C 	C 	0.17617	0.15331	0.83556	0.359
Mof_C 	C 	0.30448	0.37263	0.84556	0.346
Mof_O 	O 	0.58033	0.58739	0.83845	-0.422
Mof_O 	O 	0.74474	0.6737	0.77283	-0.217
Mof_O 	O 	0.92578	0.89775	0.83355	-0.334
Mof_O 	O 	0.70598	0.90621	0.80487	-0.224
Mof_C 	C 	0.71048	0.70739	0.91998	-0.035
Mof_C 	C 	0.78047	0.80338	0.9234	-0.006
Mof_C 	C 	0.81984	0.84356	0.00319	-0.011
Mof_H 	H 	0.868	0.9066	0.0053	0.099
Mof_C 	C 	0.67617	0.65331	0.83556	0.354
Mof_C 	C 	0.80448	0.87263	0.84556	0.333
Mof_Zn	Zn	1.48505e-33	0.00341	0.25	1.203
Mof_Zn	Zn	0.5	0.50341	0.25	1.248
Mof_Zn	Zn	1.82438e-18	0.99659	0.75	1.203
Mof_Zn	Zn	0.5	0.49659	0.75	1.248
_end
