data_functionalizedCrystal
_audit_creation_method	'EQeq! by Chris Wilmer'
_symmetry_space_group_name_H-M	'P1'
_symmetry_Int_Tables_number	1
_symmetry_cell_setting	triclinic
loop_
_symmetry_equiv_pos_as_xyz
  x,y,z
_cell_length_a	14.7854
_cell_length_b	14.7854
_cell_length_c	11.774
_cell_angle_alpha	90
_cell_angle_beta	90
_cell_angle_gamma	90
loop_
_atom_site_label
_atom_site_type_symbol
_atom_site_fract_x
_atom_site_fract_y
_atom_site_fract_z
_atom_site_charge
Mof_O 	O 	0.625	0.38016	0.59997	-1.647
Mof_O 	O 	0.60774	0.28648	0.74083	-1.747
Mof_C 	C 	0.59425	0.36275	0.697	1.385
Mof_C 	C 	0.54312	0.43076	0.75845	-0.564
Mof_C 	C 	0.54312	0.43076	0.87672	0.163
Mof_H 	H 	0.57563	0.37856	0.92131	0.006
Mof_O 	O 	0.125	0.88016	0.09997	-1.442
Mof_O 	O 	0.10774	0.78648	0.24083	-1.698
Mof_C 	C 	0.09425	0.86275	0.197	1.288
Mof_C 	C 	0.04312	0.93076	0.25845	-0.584
Mof_C 	C 	0.04312	0.93076	0.37672	0.328
Mof_H 	H 	0.07563	0.87856	0.42131	-0.116
Mof_O 	O 	0.875	0.11984	0.09997	-1.459
Mof_O 	O 	0.89226	0.21352	0.24083	-1.7
Mof_C 	C 	0.90575	0.13725	0.197	1.292
Mof_C 	C 	0.95688	0.06924	0.25845	-0.616
Mof_C 	C 	0.95688	0.06924	0.37672	0.294
Mof_H 	H 	0.92437	0.12144	0.42131	-0.113
Mof_O 	O 	0.375	0.61984	0.59997	-1.65
Mof_O 	O 	0.39226	0.71352	0.74083	-1.742
Mof_C 	C 	0.40575	0.63725	0.697	1.385
Mof_C 	C 	0.45688	0.56924	0.75845	-0.562
Mof_C 	C 	0.45688	0.56924	0.87672	0.164
Mof_H 	H 	0.42437	0.62144	0.92131	0.008
Mof_O 	O 	0.61984	0.125	0.84997	-1.707
Mof_O 	O 	0.71352	0.10774	0.99083	-1.451
Mof_C 	C 	0.63725	0.09425	0.947	1.758
Mof_C 	C 	0.56924	0.04312	0.00845	-1.485
Mof_C 	C 	0.56924	0.04312	0.12672	0.687
Mof_H 	H 	0.62144	0.07563	0.17131	-0.25
Mof_O 	O 	0.11984	0.625	0.34997	-1.645
Mof_O 	O 	0.21352	0.60774	0.49083	-1.777
Mof_C 	C 	0.13725	0.59425	0.447	1.418
Mof_C 	C 	0.06924	0.54312	0.50845	-0.699
Mof_C 	C 	0.06924	0.54312	0.62672	0.38
Mof_H 	H 	0.12144	0.57563	0.67131	-0.132
Mof_O 	O 	0.88016	0.375	0.34997	-1.641
Mof_O 	O 	0.78648	0.39226	0.49083	-1.773
Mof_C 	C 	0.86275	0.40575	0.447	1.416
Mof_C 	C 	0.93076	0.45688	0.50845	-0.689
Mof_C 	C 	0.93076	0.45688	0.62672	0.391
Mof_H 	H 	0.87856	0.42437	0.67131	-0.132
Mof_O 	O 	0.38016	0.875	0.84997	-1.691
Mof_O 	O 	0.28648	0.89226	0.99083	-1.435
Mof_C 	C 	0.36275	0.90575	0.947	1.761
Mof_C 	C 	0.43076	0.95688	0.00845	-1.451
Mof_C 	C 	0.43076	0.95688	0.12672	0.732
Mof_H 	H 	0.37856	0.92437	0.17131	-0.252
Mof_O 	O 	0.875	0.38016	0.15003	-1.47
Mof_O 	O 	0.89226	0.28648	0.00917	-1.455
Mof_C 	C 	0.90575	0.36275	0.053	0.749
Mof_C 	C 	0.95688	0.43076	0.99155	0.363
Mof_C 	C 	0.95688	0.43076	0.87328	-0.19
Mof_H 	H 	0.92437	0.37856	0.82869	0.06
Mof_O 	O 	0.375	0.88016	0.65003	-1.624
Mof_O 	O 	0.39226	0.78648	0.50917	-1.767
Mof_C 	C 	0.40575	0.86275	0.553	1.388
Mof_C 	C 	0.45688	0.93076	0.49155	-0.568
Mof_C 	C 	0.45688	0.93076	0.37328	0.272
Mof_H 	H 	0.42437	0.87856	0.32869	-0.103
Mof_O 	O 	0.625	0.11984	0.65003	-1.642
Mof_O 	O 	0.60774	0.21352	0.50917	-1.773
Mof_C 	C 	0.59425	0.13725	0.553	1.392
Mof_C 	C 	0.54312	0.06924	0.49155	-0.613
Mof_C 	C 	0.54312	0.06924	0.37328	0.228
Mof_H 	H 	0.57563	0.12144	0.32869	-0.1
Mof_O 	O 	0.125	0.61984	0.15003	-1.474
Mof_O 	O 	0.10774	0.71352	0.00917	-1.45
Mof_C 	C 	0.09425	0.63725	0.053	0.75
Mof_C 	C 	0.04312	0.56924	0.99155	0.354
Mof_C 	C 	0.04312	0.56924	0.87328	-0.2
Mof_H 	H 	0.07563	0.62144	0.82869	0.063
Mof_O 	O 	0.88016	0.125	0.90003	-1.262
Mof_O 	O 	0.78648	0.10774	0.75917	-1.705
Mof_C 	C 	0.86275	0.09425	0.803	1.259
Mof_C 	C 	0.93076	0.04312	0.74155	-0.538
Mof_C 	C 	0.93076	0.04312	0.62328	0.262
Mof_H 	H 	0.87856	0.07563	0.57869	-0.104
Mof_O 	O 	0.38016	0.625	0.40003	-1.667
Mof_O 	O 	0.28648	0.60774	0.25917	-1.766
Mof_C 	C 	0.36275	0.59425	0.303	1.428
Mof_C 	C 	0.43076	0.54312	0.24155	-0.744
Mof_C 	C 	0.43076	0.54312	0.12328	0.425
Mof_H 	H 	0.37856	0.57563	0.07869	-0.219
Mof_O 	O 	0.61984	0.375	0.40003	-1.668
Mof_O 	O 	0.71352	0.39226	0.25917	-1.763
Mof_C 	C 	0.63725	0.40575	0.303	1.428
Mof_C 	C 	0.56924	0.45688	0.24155	-0.743
Mof_C 	C 	0.56924	0.45688	0.12328	0.425
Mof_H 	H 	0.62144	0.42437	0.07869	-0.217
Mof_O 	O 	0.11984	0.875	0.90003	-1.243
Mof_O 	O 	0.21352	0.89226	0.75917	-1.694
Mof_C 	C 	0.13725	0.90575	0.803	1.254
Mof_C 	C 	0.06924	0.95688	0.74155	-0.5
Mof_C 	C 	0.06924	0.95688	0.62328	0.297
Mof_H 	H 	0.12144	0.92437	0.57869	-0.104
Mof_Al	Al	0.69243	0.30757	0.5	6.85
Mof_Al	Al	0.19243	0.80757	-0	5.273
Mof_Al	Al	0.80757	0.19243	-0	5.3
Mof_Al	Al	0.30757	0.69243	0.5	6.855
Mof_Al	Al	0.69243	0.19243	0.75	6.817
Mof_Al	Al	0.19243	0.69243	0.25	6.645
Mof_Al	Al	0.80757	0.30757	0.25	6.641
Mof_Al	Al	0.30757	0.80757	0.75	6.815
Mof_O 	O 	0.7525	0.25	0.625	-2.774
Mof_H 	H 	0.81494	0.25	0.625	0.7
Mof_O 	O 	0.2525	0.75	0.125	-2.478
Mof_H 	H 	0.31494	0.75	0.125	0.587
Mof_O 	O 	0.7475	0.25	0.125	-2.481
Mof_H 	H 	0.68506	0.25	0.125	0.587
Mof_O 	O 	0.2475	0.75	0.625	-2.774
Mof_H 	H 	0.18506	0.75	0.625	0.701
Mof_O 	O 	0.75	0.2525	0.875	-2.426
Mof_H 	H 	0.75	0.31494	0.875	0.67
Mof_O 	O 	0.25	0.7525	0.375	-2.742
Mof_H 	H 	0.25	0.81494	0.375	0.692
Mof_O 	O 	0.75	0.2475	0.375	-2.741
Mof_H 	H 	0.75	0.18506	0.375	0.687
Mof_O 	O 	0.25	0.7475	0.875	-2.42
Mof_H 	H 	0.25	0.68506	0.875	0.667
Mof_C 	C 	0.5	0.5	0.69931	0.436
Mof_C 	C 	0.5	0.5	0.93586	0.183
Mof_H 	H 	0.5	0.5	0.61013	-0.047
Mof_C 	C 	1.82103e-33	1.22594e-33	0.19931	0.38
Mof_C 	C 	-3.6024e-33	-2.45189e-33	0.43586	-0.246
Mof_H 	H 	-8.97123e-34	-6.12971e-34	0.11013	-0.116
Mof_C 	C 	0.5	-9.80754e-33	0.94931	1.423
Mof_C 	C 	0.5	0	0.18586	-0.552
Mof_H 	H 	0.5	0	0.86013	-0.298
Mof_C 	C 	1.34152e-33	0.5	0.44931	0.518
Mof_C 	C 	6.95157e-33	0.5	0.68586	-0.345
Mof_H 	H 	-1.37663e-33	0.5	0.36013	-0.094
Mof_C 	C 	5.05512e-33	0.5	0.05069	-0.638
Mof_C 	C 	7.33459e-33	0.5	0.81414	0.203
Mof_H 	H 	1.64356e-33	0.5	0.13987	0.208
Mof_C 	C 	0.5	-4.90377e-33	0.55069	0.399
Mof_C 	C 	0.5	2.45189e-33	0.31414	-0.116
Mof_H 	H 	0.5	-4.90377e-33	0.63987	-0.04
Mof_C 	C 	-2.51312e-33	-4.90377e-33	0.80069	0.338
Mof_C 	C 	1.68438e-33	0	0.56414	-0.213
Mof_H 	H 	-2.24685e-33	0	0.88987	0.009
Mof_C 	C 	0.5	0.5	0.30069	0.556
Mof_C 	C 	0.5	0.5	0.06414	-0.552
Mof_H 	H 	0.5	0.5	0.38987	-0.084
_end
