# CIF file generated by openbabel 3.1.0, see https://openbabel.org
data_I
_chemical_name_common 'image0'
_cell_length_a 13.419
_cell_length_b 17.125
_cell_length_c 9.252
_cell_angle_alpha 90
_cell_angle_beta 112.79
_cell_angle_gamma 90
_space_group_name_H-M_alt 'P 1'
_space_group_name_Hall 'P 1'
loop_
    _symmetry_equiv_pos_as_xyz
    x,y,z
loop_
    _atom_site_label
    _atom_site_type_symbol
    _atom_site_fract_x
    _atom_site_fract_y
    _atom_site_fract_z
    _atom_site_occupancy
    V1       V        0.03330    0.72930    0.54270    1.000
    P1       P        0.07190    0.87400    0.32210    1.000
    P2       P        0.37710    0.84420    0.69030    1.000
    O1       O        0.17710    0.91800    0.39460    1.000
    O2       O        0.05470    0.85230    0.15470    1.000
    O3       O        0.06740    0.80460    0.41970    1.000
    O4       O        0.33090    0.92260    0.70970    1.000
    O5       O        0.06050    0.64630    0.41560    1.000
    O6       O        0.03120    0.68120    0.14980    1.000
    O7       O        0.08320    0.69350    0.15510    1.000
    O8       O        0.15340    0.78610    0.97460    1.000
    O9       O        0.12130    0.75940    0.97420    1.000
    V2       V        0.53330    0.22930    0.54270    1.000
    P3       P        0.57190    0.37400    0.32210    1.000
    P4       P        0.87710    0.34420    0.69030    1.000
    O10      O        0.67710    0.41800    0.39460    1.000
    O11      O        0.55470    0.35230    0.15470    1.000
    O12      O        0.56740    0.30460    0.41970    1.000
    O13      O        0.83090    0.42260    0.70970    1.000
    O14      O        0.56050    0.14630    0.41560    1.000
    O15      O        0.53120    0.18120    0.14980    1.000
    O16      O        0.58320    0.19350    0.15510    1.000
    O17      O        0.65340    0.28610    0.97460    1.000
    O18      O        0.62130    0.25940    0.97420    1.000
    V3       V        0.96670    0.72930    0.45730    1.000
    P5       P        0.92810    0.87400    0.67790    1.000
    P6       P        0.62290    0.84420    0.30970    1.000
    O19      O        0.82290    0.91800    0.60540    1.000
    O20      O        0.94530    0.85230    0.84530    1.000
    O21      O        0.93260    0.80460    0.58030    1.000
    O22      O        0.66910    0.92260    0.29030    1.000
    O23      O        0.93950    0.64630    0.58440    1.000
    O24      O        0.96880    0.68120    0.85020    1.000
    O25      O        0.91680    0.69350    0.84490    1.000
    O26      O        0.84660    0.78610    0.02540    1.000
    O27      O        0.87870    0.75940    0.02580    1.000
    V4       V        0.46670    0.22930    0.45730    1.000
    P7       P        0.42810    0.37400    0.67790    1.000
    P8       P        0.12290    0.34420    0.30970    1.000
    O28      O        0.32290    0.41800    0.60540    1.000
    O29      O        0.44530    0.35230    0.84530    1.000
    O30      O        0.43260    0.30460    0.58030    1.000
    O31      O        0.16910    0.42260    0.29030    1.000
    O32      O        0.43950    0.14630    0.58440    1.000
    O33      O        0.46880    0.18120    0.85020    1.000
    O34      O        0.41680    0.19350    0.84490    1.000
    O35      O        0.34660    0.28610    0.02540    1.000
    O36      O        0.37870    0.25940    0.02580    1.000
    V5       V        0.96670    0.27070    0.45730    1.000
    P9       P        0.92810    0.12600    0.67790    1.000
    P10      P        0.62290    0.15580    0.30970    1.000
    O37      O        0.82290    0.08200    0.60540    1.000
    O38      O        0.94530    0.14770    0.84530    1.000
    O39      O        0.93260    0.19540    0.58030    1.000
    O40      O        0.66910    0.07740    0.29030    1.000
    O41      O        0.93950    0.35370    0.58440    1.000
    O42      O        0.96880    0.31880    0.85020    1.000
    O43      O        0.91680    0.30650    0.84490    1.000
    O44      O        0.84660    0.21390    0.02540    1.000
    O45      O        0.87870    0.24060    0.02580    1.000
    V6       V        0.46670    0.77070    0.45730    1.000
    P11      P        0.42810    0.62600    0.67790    1.000
    P12      P        0.12290    0.65580    0.30970    1.000
    O46      O        0.32290    0.58200    0.60540    1.000
    O47      O        0.44530    0.64770    0.84530    1.000
    O48      O        0.43260    0.69540    0.58030    1.000
    O49      O        0.16910    0.57740    0.29030    1.000
    O50      O        0.43950    0.85370    0.58440    1.000
    O51      O        0.46880    0.81880    0.85020    1.000
    O52      O        0.41680    0.80650    0.84490    1.000
    O53      O        0.34660    0.71390    0.02540    1.000
    O54      O        0.37870    0.74060    0.02580    1.000
    V7       V        0.03330    0.27070    0.54270    1.000
    P13      P        0.07190    0.12600    0.32210    1.000
    P14      P        0.37710    0.15580    0.69030    1.000
    O55      O        0.17710    0.08200    0.39460    1.000
    O56      O        0.05470    0.14770    0.15470    1.000
    O57      O        0.06740    0.19540    0.41970    1.000
    O58      O        0.33090    0.07740    0.70970    1.000
    O59      O        0.06050    0.35370    0.41560    1.000
    O60      O        0.03120    0.31880    0.14980    1.000
    O61      O        0.08320    0.30650    0.15510    1.000
    O62      O        0.15340    0.21390    0.97460    1.000
    O63      O        0.12130    0.24060    0.97420    1.000
    V8       V        0.53330    0.77070    0.54270    1.000
    P15      P        0.57190    0.62600    0.32210    1.000
    P16      P        0.87710    0.65580    0.69030    1.000
    O64      O        0.67710    0.58200    0.39460    1.000
    O65      O        0.55470    0.64770    0.15470    1.000
    O66      O        0.56740    0.69540    0.41970    1.000
    O67      O        0.83090    0.57740    0.70970    1.000
    O68      O        0.56050    0.85370    0.41560    1.000
    O69      O        0.53120    0.81880    0.14980    1.000
    O70      O        0.58320    0.80650    0.15510    1.000
    O71      O        0.65340    0.71390    0.97460    1.000
    O72      O        0.62130    0.74060    0.97420    1.000
    V9       V        0.23000    0.00000    0.56120    1.000
    V10      V        0.73000    0.50000    0.56120    1.000
    V11      V        0.77000    0.00000    0.43880    1.000
    V12      V        0.27000    0.50000    0.43880    1.000
    V13      V        0.00000    0.76890    0.00000    1.000
    V14      V        0.50000    0.26890    0.00000    1.000
    V15      V        0.00000    0.23110    0.00000    1.000
    V16      V        0.50000    0.73110    0.00000    1.000
