data_functionalizedCrystal
_audit_creation_method	'EQeq! by Chris Wilmer'
_symmetry_space_group_name_H-M	'P1'
_symmetry_Int_Tables_number	1
_symmetry_cell_setting	triclinic
loop_
_symmetry_equiv_pos_as_xyz
  x,y,z
_cell_length_a	14.907
_cell_length_b	18.608
_cell_length_c	32.92
_cell_angle_alpha	103.269
_cell_angle_beta	93.089
_cell_angle_gamma	108.97
loop_
_atom_site_label
_atom_site_type_symbol
_atom_site_fract_x
_atom_site_fract_y
_atom_site_fract_z
_atom_site_charge
Mof_Zn	Zn	0.20144	0.73505	0.0671	1.164
Mof_Zn	Zn	0.67197	0.16433	0.22129	1.162
Mof_Zn	Zn	0.29991	0.33012	0.89888	1.166
Mof_Zn	Zn	0.96467	0.14478	0.72896	1.16
Mof_Zn	Zn	0.48076	0.22937	0.42815	1.163
Mof_Zn	Zn	0.04417	0.73926	0.55287	1.164
Mof_H 	H 	0.3185	0.8805	0.1361	-0.014
Mof_H 	H 	0.3019	0.9822	0.1843	0.1
Mof_H 	H 	0.0277	0.9095	0.1322	0.086
Mof_H 	H 	0.0562	0.8122	0.0828	-0.003
Mof_H 	H 	0.2789	0.2174	0.3959	0.008
Mof_H 	H 	0.1756	0.1723	0.334	0.091
Mof_H 	H 	0.3883	0.1347	0.2722	0.075
Mof_H 	H 	0.4915	0.1866	0.3357	-0.006
Mof_H 	H 	0.7557	0.0532	0.1694	-0.016
Mof_H 	H 	0.8923	0.0228	0.1716	0.08
Mof_H 	H 	0.0159	0.2113	0.2702	0.085
Mof_H 	H 	0.8659	0.227	0.27	-0.014
Mof_H 	H 	0.7992	0.3117	0.209	-0.029
Mof_H 	H 	0.8238	0.3925	0.164	0.093
Mof_H 	H 	0.5832	0.2427	0.0938	0.099
Mof_H 	H 	0.5708	0.1634	0.138	-0.028
Mof_H 	H 	0.0321	0.6212	0.0039	-0.006
Mof_H 	H 	0.8847	0.5271	0.0025	0.073
Mof_H 	H 	0.9423	0.5604	0.1279	0.085
Mof_H 	H 	0.0896	0.6559	0.1261	-0.012
Mof_H 	H 	0.3587	0.2646	0.9664	-0.008
Mof_H 	H 	0.4912	0.2788	0.0108	0.078
Mof_H 	H 	0.6309	0.4826	0.9821	0.071
Mof_H 	H 	0.4997	0.4561	0.9317	-0.002
Mof_H 	H 	0.4625	0.2907	0.8707	-0.004
Mof_H 	H 	0.5074	0.2118	0.817	0.096
Mof_H 	H 	0.2265	0.0875	0.776	0.086
Mof_H 	H 	0.1911	0.1763	0.8298	-0.011
Mof_H 	H 	0.7813	0.0241	0.6726	-0.013
Mof_H 	H 	0.6173	0.9959	0.6698	0.08
Mof_H 	H 	0.6636	0.1672	0.7772	0.082
Mof_H 	H 	0.8236	0.1973	0.7765	-0.01
Mof_H 	H 	0.0614	0.8554	0.6367	-0.009
Mof_H 	H 	0.1726	0.9464	0.6902	0.095
Mof_H 	H 	0.3796	0.8954	0.6267	0.075
Mof_H 	H 	0.2562	0.7988	0.5747	-0.015
Mof_H 	H 	0.0828	0.1396	0.6581	-0.009
Mof_H 	H 	0.1501	0.2149	0.6142	0.078
Mof_H 	H 	0.006	0.3627	0.6568	0.074
Mof_H 	H 	0.9496	0.2842	0.7052	-0.013
Mof_H 	H 	0.45	0.3839	0.4637	-0.019
Mof_H 	H 	0.3586	0.4326	0.5052	0.086
Mof_H 	H 	0.247	0.2231	0.5305	0.083
Mof_H 	H 	0.3466	0.1778	0.4894	-0.012
Mof_H 	H 	0.0317	0.6381	0.6113	-0.019
Mof_H 	H 	0.0585	0.5262	0.6189	0.085
Mof_H 	H 	0.15	0.5056	0.5039	0.08
Mof_H 	H 	0.1098	0.6173	0.5001	-0.015
Mof_C 	C 	0.257	0.8853	0.1361	0.099
Mof_C 	C 	0.2484	0.9467	0.1645	-0.147
Mof_C 	C 	0.1626	0.957	0.1644	0.06
Mof_C 	C 	0.089	0.9044	0.1337	-0.129
Mof_C 	C 	0.1053	0.8451	0.1054	0.078
Mof_C 	C 	0.1488	0.0211	0.1954	0.089
Mof_C 	C 	0.2023	0.1143	0.2565	0.101
Mof_C 	C 	0.0612	0.0936	0.2218	0.107
Mof_C 	C 	0.302	0.2008	0.3704	0.055
Mof_C 	C 	0.2399	0.174	0.3336	-0.113
Mof_C 	C 	0.2714	0.1495	0.2963	0.052
Mof_C 	C 	0.3652	0.1527	0.2975	-0.112
Mof_C 	C 	0.4263	0.1825	0.3358	0.061
Mof_C 	C 	0.8072	0.0841	0.1913	0.075
Mof_C 	C 	0.8905	0.0678	0.1917	-0.125
Mof_C 	C 	0.9705	0.1129	0.2194	0.06
Mof_C 	C 	0.963	0.1763	0.2499	-0.121
Mof_C 	C 	0.8725	0.1856	0.2487	0.072
Mof_C 	C 	0.7545	0.297	0.1842	0.095
Mof_C 	C 	0.7693	0.3457	0.1578	-0.143
Mof_C 	C 	0.7042	0.3261	0.1222	0.093
Mof_C 	C 	0.6316	0.2588	0.1173	-0.163
Mof_C 	C 	0.6228	0.212	0.1442	0.126
Mof_C 	C 	0.7153	0.3718	0.0902	0.106
Mof_C 	C 	0.8077	0.4646	0.0638	0.1
Mof_C 	C 	0.6568	0.3988	0.0361	0.1
Mof_C 	C 	0.013	0.6096	0.0294	0.066
Mof_C 	C 	0.9268	0.5521	0.0283	-0.11
Mof_C 	C 	0.9007	0.5301	0.0651	0.046
Mof_C 	C 	0.9595	0.5711	0.102	-0.113
Mof_C 	C 	0.0463	0.6296	0.1008	0.07
Mof_C 	C 	0.4155	0.3083	0.9686	0.059
Mof_C 	C 	0.4929	0.3179	0.9964	-0.111
Mof_C 	C 	0.5728	0.3842	0.0033	0.045
Mof_C 	C 	0.5759	0.4369	0.9787	-0.107
Mof_C 	C 	0.4966	0.4211	0.949	0.06
Mof_C 	C 	0.4137	0.2497	0.8507	0.073
Mof_C 	C 	0.4415	0.2031	0.8191	-0.124
Mof_C 	C 	0.37	0.1425	0.7901	0.067
Mof_C 	C 	0.2765	0.1303	0.7946	-0.134
Mof_C 	C 	0.2563	0.1829	0.8274	0.077
Mof_C 	C 	0.3982	0.0906	0.7554	0.096
Mof_C 	C 	0.5162	0.0614	0.7235	0.103
Mof_C 	C 	0.3638	0.9903	0.6964	0.081
Mof_C 	C 	0.757	0.0545	0.6934	0.067
Mof_C 	C 	0.6594	0.0374	0.692	-0.114
Mof_C 	C 	0.6212	0.0801	0.723	0.053
Mof_C 	C 	0.6861	0.1385	0.7548	-0.113
Mof_C 	C 	0.7808	0.1553	0.7547	0.056
Mof_C 	C 	0.1271	0.8645	0.6342	0.078
Mof_C 	C 	0.1921	0.9187	0.6664	-0.133
Mof_C 	C 	0.2891	0.9321	0.663	0.058
Mof_C 	C 	0.3142	0.8882	0.6291	-0.114
Mof_C 	C 	0.2398	0.8314	0.5976	0.067
Mof_C 	C 	0.0677	0.1854	0.658	0.064
Mof_C 	C 	0.1065	0.2295	0.6315	-0.105
Mof_C 	C 	0.0837	0.2963	0.629	0.044
Mof_C 	C 	0.0234	0.3178	0.6567	-0.091
Mof_C 	C 	0.9882	0.2694	0.6852	0.048
Mof_C 	C 	0.1255	0.3414	0.6002	0.11
Mof_C 	C 	0.2232	0.3587	0.5501	0.09
Mof_C 	C 	0.1405	0.4408	0.5692	0.099
Mof_C 	C 	0.4072	0.3503	0.4775	0.086
Mof_C 	C 	0.354	0.3793	0.5017	-0.13
Mof_C 	C 	0.2884	0.3301	0.523	0.067
Mof_C 	C 	0.2889	0.2575	0.5169	-0.128
Mof_C 	C 	0.347	0.2298	0.4919	0.071
Mof_C 	C 	0.0557	0.6102	0.5892	0.082
Mof_C 	C 	0.0733	0.5448	0.5946	-0.122
Mof_C 	C 	0.1128	0.5074	0.5637	0.062
Mof_C 	C 	0.1262	0.5322	0.5266	-0.118
Mof_C 	C 	0.102	0.5994	0.5249	0.086
Mof_I 	I 	0.32843	0.7015	0.10322	-0.392
Mof_I 	I 	0.21229	0.75712	0.99385	-0.363
Mof_I 	I 	0.53017	0.03892	0.1894	-0.38
Mof_I 	I 	0.67843	0.25035	0.29478	-0.371
Mof_I 	I 	0.15581	0.27297	0.93257	-0.379
Mof_I 	I 	0.32759	0.44172	0.86321	-0.353
Mof_I 	I 	0.03527	0.24113	0.80167	-0.396
Mof_I 	I 	0.01394	0.02345	0.70947	-0.376
Mof_I 	I 	0.63914	0.33026	0.42521	-0.374
Mof_I 	I 	0.46911	0.09226	0.43642	-0.361
Mof_I 	I 	0.8827	0.72657	0.57748	-0.383
Mof_I 	I 	0.0797	0.76753	0.48241	-0.369
Mof_N 	N 	0.1874	0.8319	0.1085	-0.28
Mof_N 	N 	0.2189	0.059	0.2277	-0.141
Mof_N 	N 	0.1267	0.1373	0.2551	-0.135
Mof_N 	N 	0.068	0.0368	0.1907	-0.139
Mof_N 	N 	0.3963	0.2052	0.3722	-0.271
Mof_N 	N 	0.7961	0.142	0.2207	-0.284
Mof_N 	N 	0.6813	0.231	0.1769	-0.289
Mof_N 	N 	0.8041	0.428	0.0933	-0.132
Mof_N 	N 	0.7384	0.455	0.0334	-0.15
Mof_N 	N 	0.6424	0.3553	0.0629	-0.139
Mof_N 	N 	0.0703	0.6496	0.0656	-0.269
Mof_N 	N 	0.4156	0.3581	0.944	-0.268
Mof_N 	N 	0.3231	0.2415	0.8554	-0.275
Mof_N 	N 	0.4937	0.1088	0.7549	-0.133
Mof_N 	N 	0.4547	0.0028	0.6928	-0.138
Mof_N 	N 	0.329	0.0346	0.7277	-0.137
Mof_N 	N 	0.818	0.1142	0.7243	-0.272
Mof_N 	N 	0.1475	0.8226	0.5993	-0.276
Mof_N 	N 	0.0091	0.2048	0.6838	-0.267
Mof_N 	N 	0.1871	0.3168	0.5773	-0.137
Mof_N 	N 	0.2004	0.4205	0.5436	-0.136
Mof_N 	N 	0.103	0.4044	0.5977	-0.136
Mof_N 	N 	0.4048	0.2753	0.4708	-0.279
Mof_N 	N 	0.0701	0.6373	0.5551	-0.278
Mof_Zn	Zn	0.79856	0.26495	0.9329	1.165
Mof_Zn	Zn	0.32803	0.83567	0.77871	1.163
Mof_Zn	Zn	0.70009	0.66988	0.10112	1.167
Mof_Zn	Zn	0.03533	0.85522	0.27104	1.161
Mof_Zn	Zn	0.51924	0.77063	0.57185	1.163
Mof_Zn	Zn	0.95583	0.26074	0.44713	1.164
Mof_H 	H 	0.6815	0.1195	0.8639	-0.014
Mof_H 	H 	0.6981	0.0178	0.8157	0.1
Mof_H 	H 	0.9723	0.0905	0.8678	0.086
Mof_H 	H 	0.9438	0.1878	0.9172	-0.003
Mof_H 	H 	0.7211	0.7826	0.6041	0.008
Mof_H 	H 	0.8244	0.8277	0.666	0.091
Mof_H 	H 	0.6117	0.8653	0.7278	0.075
Mof_H 	H 	0.5085	0.8134	0.6643	-0.006
Mof_H 	H 	0.2443	0.9468	0.8306	-0.016
Mof_H 	H 	0.1077	0.9772	0.8284	0.08
Mof_H 	H 	0.9841	0.7887	0.7298	0.085
Mof_H 	H 	0.1341	0.773	0.73	-0.014
Mof_H 	H 	0.2008	0.6883	0.791	-0.029
Mof_H 	H 	0.1762	0.6075	0.836	0.093
Mof_H 	H 	0.4168	0.7573	0.9062	0.099
Mof_H 	H 	0.4292	0.8366	0.862	-0.028
Mof_H 	H 	0.9679	0.3788	0.9961	-0.006
Mof_H 	H 	0.1153	0.4729	0.9975	0.073
Mof_H 	H 	0.0577	0.4396	0.8721	0.085
Mof_H 	H 	0.9104	0.3441	0.8739	-0.012
Mof_H 	H 	0.6413	0.7354	0.0336	-0.008
Mof_H 	H 	0.5088	0.7212	0.9892	0.078
Mof_H 	H 	0.3691	0.5174	0.0179	0.071
Mof_H 	H 	0.5003	0.5439	0.0683	-0.002
Mof_H 	H 	0.5375	0.7093	0.1293	-0.004
Mof_H 	H 	0.4926	0.7882	0.183	0.096
Mof_H 	H 	0.7735	0.9125	0.224	0.086
Mof_H 	H 	0.8089	0.8237	0.1702	-0.011
Mof_H 	H 	0.2187	0.9759	0.3274	-0.013
Mof_H 	H 	0.3827	0.0041	0.3302	0.08
Mof_H 	H 	0.3364	0.8328	0.2228	0.082
Mof_H 	H 	0.1764	0.8027	0.2235	-0.01
Mof_H 	H 	0.9386	0.1446	0.3633	-0.009
Mof_H 	H 	0.8274	0.0536	0.3098	0.095
Mof_H 	H 	0.6204	0.1046	0.3733	0.075
Mof_H 	H 	0.7438	0.2012	0.4253	-0.015
Mof_H 	H 	0.9172	0.8604	0.3419	-0.009
Mof_H 	H 	0.8499	0.7851	0.3858	0.078
Mof_H 	H 	0.994	0.6373	0.3432	0.074
Mof_H 	H 	0.0504	0.7158	0.2948	-0.013
Mof_H 	H 	0.55	0.6161	0.5363	-0.019
Mof_H 	H 	0.6414	0.5674	0.4948	0.086
Mof_H 	H 	0.753	0.7769	0.4695	0.083
Mof_H 	H 	0.6534	0.8222	0.5106	-0.012
Mof_H 	H 	0.9683	0.3619	0.3887	-0.019
Mof_H 	H 	0.9415	0.4738	0.3811	0.085
Mof_H 	H 	0.85	0.4944	0.4961	0.08
Mof_H 	H 	0.8902	0.3827	0.4999	-0.015
Mof_C 	C 	0.743	0.1147	0.8639	0.099
Mof_C 	C 	0.7516	0.0533	0.8355	-0.147
Mof_C 	C 	0.8374	0.043	0.8356	0.06
Mof_C 	C 	0.911	0.0956	0.8663	-0.129
Mof_C 	C 	0.8947	0.1549	0.8946	0.078
Mof_C 	C 	0.8512	0.9789	0.8046	0.089
Mof_C 	C 	0.7977	0.8857	0.7435	0.101
Mof_C 	C 	0.9388	0.9064	0.7782	0.107
Mof_C 	C 	0.698	0.7992	0.6296	0.055
Mof_C 	C 	0.7601	0.826	0.6664	-0.113
Mof_C 	C 	0.7286	0.8505	0.7037	0.052
Mof_C 	C 	0.6348	0.8473	0.7025	-0.112
Mof_C 	C 	0.5737	0.8175	0.6642	0.061
Mof_C 	C 	0.1928	0.9159	0.8087	0.075
Mof_C 	C 	0.1095	0.9322	0.8083	-0.125
Mof_C 	C 	0.0295	0.8871	0.7806	0.06
Mof_C 	C 	0.037	0.8237	0.7501	-0.121
Mof_C 	C 	0.1275	0.8144	0.7513	0.072
Mof_C 	C 	0.2455	0.703	0.8158	0.095
Mof_C 	C 	0.2307	0.6543	0.8422	-0.143
Mof_C 	C 	0.2958	0.6739	0.8778	0.093
Mof_C 	C 	0.3684	0.7412	0.8827	-0.163
Mof_C 	C 	0.3772	0.788	0.8558	0.126
Mof_C 	C 	0.2847	0.6282	0.9098	0.106
Mof_C 	C 	0.1923	0.5354	0.9362	0.1
Mof_C 	C 	0.3432	0.6012	0.9639	0.1
Mof_C 	C 	0.987	0.3904	0.9706	0.066
Mof_C 	C 	0.0732	0.4479	0.9717	-0.11
Mof_C 	C 	0.0993	0.4699	0.9349	0.046
Mof_C 	C 	0.0405	0.4289	0.898	-0.113
Mof_C 	C 	0.9537	0.3704	0.8992	0.07
Mof_C 	C 	0.5845	0.6917	0.0314	0.059
Mof_C 	C 	0.5071	0.6821	0.0036	-0.111
Mof_C 	C 	0.4272	0.6158	0.9967	0.045
Mof_C 	C 	0.4241	0.5631	0.0213	-0.107
Mof_C 	C 	0.5034	0.5789	0.051	0.06
Mof_C 	C 	0.5863	0.7503	0.1493	0.073
Mof_C 	C 	0.5585	0.7969	0.1809	-0.124
Mof_C 	C 	0.63	0.8575	0.2099	0.067
Mof_C 	C 	0.7235	0.8697	0.2054	-0.134
Mof_C 	C 	0.7437	0.8171	0.1726	0.077
Mof_C 	C 	0.6018	0.9094	0.2446	0.096
Mof_C 	C 	0.4838	0.9386	0.2765	0.103
Mof_C 	C 	0.6362	0.0097	0.3036	0.081
Mof_C 	C 	0.243	0.9455	0.3066	0.067
Mof_C 	C 	0.3406	0.9626	0.308	-0.114
Mof_C 	C 	0.3788	0.9199	0.277	0.053
Mof_C 	C 	0.3139	0.8615	0.2452	-0.113
Mof_C 	C 	0.2192	0.8447	0.2453	0.056
Mof_C 	C 	0.8729	0.1355	0.3658	0.078
Mof_C 	C 	0.8079	0.0813	0.3336	-0.133
Mof_C 	C 	0.7109	0.0679	0.337	0.058
Mof_C 	C 	0.6858	0.1118	0.3709	-0.114
Mof_C 	C 	0.7602	0.1686	0.4024	0.067
Mof_C 	C 	0.9323	0.8146	0.342	0.064
Mof_C 	C 	0.8935	0.7705	0.3685	-0.105
Mof_C 	C 	0.9163	0.7037	0.371	0.044
Mof_C 	C 	0.9766	0.6822	0.3433	-0.091
Mof_C 	C 	0.0118	0.7306	0.3148	0.048
Mof_C 	C 	0.8745	0.6586	0.3998	0.11
Mof_C 	C 	0.7768	0.6413	0.4499	0.09
Mof_C 	C 	0.8595	0.5592	0.4308	0.099
Mof_C 	C 	0.5928	0.6497	0.5225	0.086
Mof_C 	C 	0.646	0.6207	0.4983	-0.13
Mof_C 	C 	0.7116	0.6699	0.477	0.067
Mof_C 	C 	0.7111	0.7425	0.4831	-0.128
Mof_C 	C 	0.653	0.7702	0.5081	0.071
Mof_C 	C 	0.9443	0.3898	0.4108	0.082
Mof_C 	C 	0.9267	0.4552	0.4054	-0.122
Mof_C 	C 	0.8872	0.4926	0.4363	0.062
Mof_C 	C 	0.8738	0.4678	0.4734	-0.118
Mof_C 	C 	0.898	0.4006	0.4751	0.086
Mof_I 	I 	0.67157	0.2985	0.89678	-0.392
Mof_I 	I 	0.78771	0.24288	0.00615	-0.363
Mof_I 	I 	0.46983	0.96108	0.8106	-0.38
Mof_I 	I 	0.32157	0.74965	0.70522	-0.371
Mof_I 	I 	0.84419	0.72703	0.06743	-0.379
Mof_I 	I 	0.67241	0.55828	0.13679	-0.353
Mof_I 	I 	0.96473	0.75887	0.19833	-0.396
Mof_I 	I 	0.98606	0.97655	0.29053	-0.376
Mof_I 	I 	0.36086	0.66974	0.57479	-0.374
Mof_I 	I 	0.53089	0.90774	0.56358	-0.361
Mof_I 	I 	0.1173	0.27343	0.42252	-0.383
Mof_I 	I 	0.9203	0.23247	0.51759	-0.369
Mof_N 	N 	0.8126	0.1681	0.8915	-0.28
Mof_N 	N 	0.7811	0.941	0.7723	-0.141
Mof_N 	N 	0.8733	0.8627	0.7449	-0.135
Mof_N 	N 	0.932	0.9632	0.8093	-0.139
Mof_N 	N 	0.6037	0.7948	0.6278	-0.271
Mof_N 	N 	0.2039	0.858	0.7793	-0.284
Mof_N 	N 	0.3187	0.769	0.8231	-0.289
Mof_N 	N 	0.1959	0.572	0.9067	-0.132
Mof_N 	N 	0.2616	0.545	0.9666	-0.15
Mof_N 	N 	0.3576	0.6447	0.9371	-0.139
Mof_N 	N 	0.9297	0.3504	0.9344	-0.269
Mof_N 	N 	0.5844	0.6419	0.056	-0.268
Mof_N 	N 	0.6769	0.7585	0.1446	-0.275
Mof_N 	N 	0.5063	0.8912	0.2451	-0.133
Mof_N 	N 	0.5453	0.9972	0.3072	-0.138
Mof_N 	N 	0.671	0.9654	0.2723	-0.137
Mof_N 	N 	0.182	0.8858	0.2757	-0.272
Mof_N 	N 	0.8525	0.1774	0.4007	-0.276
Mof_N 	N 	0.9909	0.7952	0.3162	-0.267
Mof_N 	N 	0.8129	0.6832	0.4227	-0.137
Mof_N 	N 	0.7996	0.5795	0.4564	-0.136
Mof_N 	N 	0.897	0.5956	0.4023	-0.136
Mof_N 	N 	0.5952	0.7247	0.5292	-0.279
Mof_N 	N 	0.9299	0.3627	0.4449	-0.278
_end
