data_functionalizedCrystal
_audit_creation_method	'EQeq! by Chris Wilmer'
_symmetry_space_group_name_H-M	'P1'
_symmetry_Int_Tables_number	1
_symmetry_cell_setting	triclinic
loop_
_symmetry_equiv_pos_as_xyz
  x,y,z
_cell_length_a	12.4035
_cell_length_b	14.7004
_cell_length_c	12.6916
_cell_angle_alpha	90
_cell_angle_beta	114.475
_cell_angle_gamma	90
loop_
_atom_site_label
_atom_site_type_symbol
_atom_site_fract_x
_atom_site_fract_y
_atom_site_fract_z
_atom_site_charge
Mof_Mn	Mn	0.74606	0.63966	0.5002	0.838
Mof_O 	O 	0.69176	0.67483	0.63304	-0.403
Mof_O 	O 	0.56148	0.59023	0.38927	-0.308
Mof_O 	O 	0.31393	0.86895	0.87099	-0.325
Mof_O 	O 	0.70806	0.99725	0.97387	-0.323
Mof_C 	C 	0.59671	0.67199	0.64544	0.397
Mof_N 	N 	0.54338	0.56492	0.28119	-0.066
Mof_C 	C 	0.57361	0.74643	0.71453	-0.134
Mof_O 	O 	0.51718	0.61235	0.60548	-0.397
Mof_O 	O 	0.82309	0.94899	0.88794	-0.327
Mof_C 	C 	0.46764	0.61232	0.19036	0.033
Mof_C 	C 	0.60286	0.49352	0.26615	0.04
Mof_C 	C 	0.46658	0.74694	0.72578	0.059
Mof_C 	C 	0.65782	0.81307	0.76929	0.067
Mof_H 	H 	0.4273	0.6617	0.2024	0.011
Mof_C 	C 	0.4493	0.58817	0.07945	-0.075
Mof_C 	C 	0.58713	0.4672	0.15657	-0.073
Mof_H 	H 	0.6551	0.4615	0.3302	0.047
Mof_H 	H 	0.4106	0.7021	0.6894	0.039
Mof_C 	C 	0.4423	0.81357	0.79073	-0.105
Mof_C 	C 	0.63549	0.87936	0.83659	-0.112
Mof_H 	H 	0.729	0.8135	0.7611	0.029
Mof_H 	H 	0.3966	0.6214	0.0171	0.037
Mof_C 	C 	0.50937	0.51402	0.05965	-0.015
Mof_H 	H 	0.6289	0.4176	0.1473	0.061
Mof_C 	C 	0.52709	0.88014	0.84544	0.051
Mof_C 	C 	0.32911	0.80942	0.80759	0.33
Mof_C 	C 	0.72995	0.94735	0.90375	0.358
Mof_H 	H 	0.5113	0.9255	0.8882	0.053
Mof_O 	O 	0.25912	0.74463	0.76013	-0.265
Mof_H 	H 	0.52	0.645	0.377	0.028
Mof_H 	H 	0.5038	0.645	0.377	0.312
Mof_H 	H 	0.5338	0.645	0.377	-0.232
Mof_Mn	Mn	0.75394	0.13966	0.9998	0.844
Mof_O 	O 	0.80824	0.17483	0.86696	-0.403
Mof_O 	O 	0.93852	0.09023	0.11073	-0.314
Mof_O 	O 	0.18607	0.36895	0.62901	-0.359
Mof_O 	O 	0.79194	0.49725	0.52613	-0.359
Mof_C 	C 	0.90329	0.17199	0.85456	0.382
Mof_N 	N 	0.95662	0.06492	0.21881	-0.069
Mof_C 	C 	0.92639	0.24643	0.78547	-0.104
Mof_O 	O 	0.98282	0.11235	0.89452	-0.356
Mof_O 	O 	0.67691	0.44899	0.61206	-0.375
Mof_C 	C 	0.03236	0.11232	0.30964	0.017
Mof_C 	C 	0.89714	0.99352	0.23385	0.086
Mof_C 	C 	0.03342	0.24694	0.77422	0.028
Mof_C 	C 	0.84218	0.31307	0.73071	0.065
Mof_H 	H 	0.0727	0.1617	0.2976	0.007
Mof_C 	C 	0.0507	0.08817	0.42055	-0.125
Mof_C 	C 	0.91287	0.9672	0.34343	-0.068
Mof_H 	H 	0.8449	0.9615	0.1698	0.035
Mof_H 	H 	0.0894	0.2021	0.8106	0.046
Mof_C 	C 	0.0577	0.31357	0.70927	-0.14
Mof_C 	C 	0.86451	0.37936	0.66341	-0.132
Mof_H 	H 	0.771	0.3135	0.7389	0.024
Mof_H 	H 	0.1034	0.1214	0.4829	0.059
Mof_C 	C 	0.99063	0.01402	0.44035	0.029
Mof_H 	H 	0.8711	0.9176	0.3527	0.071
Mof_C 	C 	0.97291	0.38014	0.65456	0.095
Mof_C 	C 	0.17089	0.30942	0.69241	0.339
Mof_C 	C 	0.77005	0.44735	0.59625	0.372
Mof_H 	H 	0.9887	0.4255	0.6118	0.035
Mof_O 	O 	0.24088	0.24463	0.73987	-0.27
Mof_H 	H 	0.98	0.145	0.123	0.034
Mof_H 	H 	0.9962	0.145	0.123	0.285
Mof_H 	H 	0.9662	0.145	0.123	-0.202
Mof_Mn	Mn	0.25394	0.36034	0.4998	0.821
Mof_O 	O 	0.30824	0.32517	0.36696	-0.413
Mof_O 	O 	0.43852	0.40977	0.61073	-0.305
Mof_O 	O 	0.68607	0.13105	0.12901	-0.376
Mof_O 	O 	0.29194	0.00275	0.02613	-0.386
Mof_C 	C 	0.40329	0.32801	0.35456	0.399
Mof_N 	N 	0.45662	0.43508	0.71881	-0.082
Mof_C 	C 	0.42639	0.25357	0.28547	-0.152
Mof_O 	O 	0.48282	0.38765	0.39452	-0.4
Mof_O 	O 	0.17691	0.05101	0.11206	-0.382
Mof_C 	C 	0.53236	0.38768	0.80964	0.08
Mof_C 	C 	0.39714	0.50648	0.73385	0.083
Mof_C 	C 	0.53342	0.25306	0.27422	0.069
Mof_C 	C 	0.34218	0.18693	0.23071	0.077
Mof_H 	H 	0.5727	0.3383	0.7976	-0.003
Mof_C 	C 	0.5507	0.41183	0.92055	-0.146
Mof_C 	C 	0.41287	0.5328	0.84343	-0.146
Mof_H 	H 	0.3449	0.5385	0.6698	0.032
Mof_H 	H 	0.5894	0.2979	0.3106	0.034
Mof_C 	C 	0.5577	0.18643	0.20927	-0.132
Mof_C 	C 	0.36451	0.12064	0.16341	-0.145
Mof_H 	H 	0.271	0.1865	0.2389	0.013
Mof_H 	H 	0.6034	0.3786	0.9829	0.087
Mof_C 	C 	0.49063	0.48598	0.94035	0.116
Mof_H 	H 	0.3711	0.5824	0.8527	0.101
Mof_C 	C 	0.47291	0.11986	0.15456	0.066
Mof_C 	C 	0.67089	0.19058	0.19241	0.338
Mof_C 	C 	0.27005	0.05265	0.09625	0.367
Mof_H 	H 	0.4887	0.0745	0.1118	0.022
Mof_O 	O 	0.74088	0.25537	0.23987	-0.271
Mof_H 	H 	0.48	0.355	0.623	0.028
Mof_H 	H 	0.4962	0.355	0.623	0.309
Mof_H 	H 	0.4662	0.355	0.623	-0.231
Mof_Mn	Mn	0.24606	0.86034	0.0002	0.806
Mof_O 	O 	0.19176	0.82517	0.13304	-0.404
Mof_O 	O 	0.06148	0.90977	0.88927	-0.272
Mof_O 	O 	0.81393	0.63105	0.37099	-0.347
Mof_O 	O 	0.20806	0.50275	0.47387	-0.363
Mof_C 	C 	0.09671	0.82801	0.14544	0.399
Mof_N 	N 	0.04338	0.93508	0.78119	-0.069
Mof_C 	C 	0.07361	0.75357	0.21453	-0.178
Mof_O 	O 	0.01718	0.88765	0.10548	-0.392
Mof_O 	O 	0.32309	0.55101	0.38794	-0.377
Mof_C 	C 	0.96764	0.88768	0.69036	0.09
Mof_C 	C 	0.10286	0.00648	0.76615	0.032
Mof_C 	C 	0.96658	0.75306	0.22578	0.099
Mof_C 	C 	0.15782	0.68693	0.26929	0.079
Mof_H 	H 	0.9273	0.8383	0.7024	0.002
Mof_C 	C 	0.9493	0.91183	0.57945	-0.104
Mof_C 	C 	0.08713	0.0328	0.65657	-0.16
Mof_H 	H 	0.1551	0.0385	0.8302	0.047
Mof_H 	H 	0.9106	0.7979	0.1894	0.028
Mof_C 	C 	0.9423	0.68643	0.29073	-0.098
Mof_C 	C 	0.13549	0.62064	0.33659	-0.131
Mof_H 	H 	0.229	0.6865	0.2611	0.016
Mof_H 	H 	0.8966	0.8786	0.5171	0.067
Mof_C 	C 	0.00937	0.98598	0.55965	0.084
Mof_H 	H 	0.1289	0.0824	0.6473	0.091
Mof_C 	C 	0.02709	0.61986	0.34544	0.024
Mof_C 	C 	0.82911	0.69058	0.30759	0.331
Mof_C 	C 	0.22995	0.55265	0.40375	0.366
Mof_H 	H 	0.0113	0.5745	0.3882	0.038
Mof_O 	O 	0.75912	0.75537	0.26013	-0.269
Mof_H 	H 	0.02	0.855	0.877	0.029
Mof_H 	H 	0.0038	0.855	0.877	0.283
Mof_H 	H 	0.0338	0.855	0.877	-0.207
Mof_Mn	Mn	0.5	0.5	0.5	0.959
Mof_Mn	Mn	-0	0	-0	0.822
_end
