# CIF file generated by openbabel 3.1.0, see https://openbabel.org
data_I
_chemical_name_common 'image0'
_cell_length_a 6.5677
_cell_length_b 16.3984
_cell_length_c 13.164
_cell_angle_alpha 90
_cell_angle_beta 90
_cell_angle_gamma 90
_space_group_name_H-M_alt 'P 1'
_space_group_name_Hall 'P 1'
loop_
    _symmetry_equiv_pos_as_xyz
    x,y,z
loop_
    _atom_site_label
    _atom_site_type_symbol
    _atom_site_fract_x
    _atom_site_fract_y
    _atom_site_fract_z
    _atom_site_occupancy
    O1       O        0.16900    0.16818    0.83997    1.000
    C1       C        0.80710    0.02650    0.95430    1.000
    O2       O        0.66900    0.66818    0.33997    1.000
    C2       C        0.30710    0.52650    0.45430    1.000
    O3       O        0.83100    0.33182    0.83997    1.000
    C3       C        0.19290    0.47350    0.95430    1.000
    O4       O        0.33100    0.83182    0.33997    1.000
    C4       C        0.69290    0.97350    0.45430    1.000
    O5       O        0.83100    0.66818    0.16003    1.000
    C5       C        0.19290    0.52650    0.04570    1.000
    O6       O        0.33100    0.16818    0.66003    1.000
    C6       C        0.69290    0.02650    0.54570    1.000
    O7       O        0.16900    0.83182    0.16003    1.000
    C7       C        0.80710    0.97350    0.04570    1.000
    O8       O        0.66900    0.33182    0.66003    1.000
    C8       C        0.30710    0.47350    0.54570    1.000
    O9       O        0.83100    0.83182    0.16003    1.000
    C9       C        0.19290    0.97350    0.04570    1.000
    O10      O        0.33100    0.33182    0.66003    1.000
    C10      C        0.69290    0.47350    0.54570    1.000
    O11      O        0.16900    0.66818    0.16003    1.000
    C11      C        0.80710    0.52650    0.04570    1.000
    O12      O        0.66900    0.16818    0.66003    1.000
    C12      C        0.30710    0.02650    0.54570    1.000
    O13      O        0.16900    0.33182    0.83997    1.000
    C13      C        0.80710    0.47350    0.95430    1.000
    O14      O        0.66900    0.83182    0.33997    1.000
    C14      C        0.30710    0.97350    0.45430    1.000
    O15      O        0.83100    0.16818    0.83997    1.000
    C15      C        0.19290    0.02650    0.95430    1.000
    O16      O        0.33100    0.66818    0.33997    1.000
    C16      C        0.69290    0.52650    0.45430    1.000
    Al1      Al       0.25000    0.25000    0.75000    1.000
    Al2      Al       0.75000    0.25000    0.75000    1.000
    Al3      Al       0.75000    0.75000    0.25000    1.000
    Al4      Al       0.25000    0.75000    0.25000    1.000
    F1       F        0.00000    0.25000    0.69370    1.000
    F2       F        0.50000    0.75000    0.19370    1.000
    F3       F        0.00000    0.75000    0.30630    1.000
    F4       F        0.50000    0.25000    0.80630    1.000
    C17      C        0.00000    0.06410    0.94980    1.000
    C18      C        0.00000    0.13890    0.87050    1.000
    C19      C        0.50000    0.56410    0.44980    1.000
    C20      C        0.50000    0.63890    0.37050    1.000
    C21      C        0.00000    0.43590    0.94980    1.000
    C22      C        0.00000    0.36110    0.87050    1.000
    C23      C        0.50000    0.93590    0.44980    1.000
    C24      C        0.50000    0.86110    0.37050    1.000
    C25      C        0.00000    0.56410    0.05020    1.000
    C26      C        0.00000    0.63890    0.12950    1.000
    C27      C        0.50000    0.06410    0.55020    1.000
    C28      C        0.50000    0.13890    0.62950    1.000
    C29      C        0.00000    0.93590    0.05020    1.000
    C30      C        0.00000    0.86110    0.12950    1.000
    C31      C        0.50000    0.43590    0.55020    1.000
    C32      C        0.50000    0.36110    0.62950    1.000
