# CIF file generated by openbabel 3.1.0, see https://openbabel.org
data_I
_chemical_name_common 'image0'
_cell_length_a 6.605
_cell_length_b 8.787
_cell_length_c 11.499
_cell_angle_alpha 93.07
_cell_angle_beta 90.42
_cell_angle_gamma 104.66
_space_group_name_H-M_alt 'P 1'
_space_group_name_Hall 'P 1'
loop_
    _symmetry_equiv_pos_as_xyz
    x,y,z
loop_
    _atom_site_label
    _atom_site_type_symbol
    _atom_site_fract_x
    _atom_site_fract_y
    _atom_site_fract_z
    _atom_site_occupancy
    Zr1      Zr       0.18050    0.77440    0.40620    1.000
    Zr2      Zr       0.22810    0.94140    0.85130    1.000
    P1       P        0.28560    0.11900    0.58370    1.000
    P2       P        0.23920    0.95680    0.14170    1.000
    P3       P        0.87080    0.40600    0.32200    1.000
    F1       F        0.30370    0.16310    0.92370    1.000
    O1       O        0.25060    0.00720    0.47270    1.000
    O2       O        0.13610    0.22310    0.58310    1.000
    O3       O        0.51680    0.22670    0.59110    1.000
    O4       O        0.24330    0.02030    0.68920    1.000
    O5       O        0.45060    0.06520    0.16520    1.000
    O6       O        0.08020    0.05980    0.15890    1.000
    O7       O        0.21060    0.86190    0.02240    1.000
    O8       O        0.19800    0.84220    0.23750    1.000
    O9       O        0.87170    0.29980    0.21040    1.000
    O10      O        0.07210    0.54130    0.33240    1.000
    O11      O        0.83810    0.31370    0.43050    1.000
    O12      O        0.67620    0.47900    0.30080    1.000
    H1       H        0.65000    0.56800    0.33300    1.000
    Zr3      Zr       0.81950    0.22560    0.59380    1.000
    Zr4      Zr       0.77190    0.05860    0.14870    1.000
    P4       P        0.71440    0.88100    0.41630    1.000
    P5       P        0.76080    0.04320    0.85830    1.000
    P6       P        0.12920    0.59400    0.67800    1.000
    F2       F        0.69630    0.83690    0.07630    1.000
    O13      O        0.74940    0.99280    0.52730    1.000
    O14      O        0.86390    0.77690    0.41690    1.000
    O15      O        0.48320    0.77330    0.40890    1.000
    O16      O        0.75670    0.97970    0.31080    1.000
    O17      O        0.54940    0.93480    0.83480    1.000
    O18      O        0.91980    0.94020    0.84110    1.000
    O19      O        0.78940    0.13810    0.97760    1.000
    O20      O        0.80200    0.15780    0.76250    1.000
    O21      O        0.12830    0.70020    0.78960    1.000
    O22      O        0.92790    0.45870    0.66760    1.000
    O23      O        0.16190    0.68630    0.56950    1.000
    O24      O        0.32380    0.52100    0.69920    1.000
    H2       H        0.35000    0.43200    0.66700    1.000
