data_functionalizedCrystal
_audit_creation_method	'EQeq! by Chris Wilmer'
_symmetry_space_group_name_H-M	'P1'
_symmetry_Int_Tables_number	1
_symmetry_cell_setting	triclinic
loop_
_symmetry_equiv_pos_as_xyz
  x,y,z
_cell_length_a	9.73
_cell_length_b	11.755
_cell_length_c	12.509
_cell_angle_alpha	62.698
_cell_angle_beta	71.906
_cell_angle_gamma	75.299
loop_
_atom_site_label
_atom_site_type_symbol
_atom_site_fract_x
_atom_site_fract_y
_atom_site_fract_z
_atom_site_charge
Mof_Mn	Mn	0.91354	0.83195	0.86195	1.026
Mof_O 	O 	0.691	0.811	0.8916	-0.359
Mof_O 	O 	0.7915	0.6197	0.0027	-0.386
Mof_O 	O 	0.1417	0.8705	0.9137	-0.362
Mof_O 	O 	0.0621	0.6868	0.972	-0.449
Mof_O 	O 	0.8961	0.0252	0.7495	-0.395
Mof_O 	O 	0.9451	0.1414	0.8297	-0.305
Mof_O 	O 	0.9904	0.2197	0.2886	-0.3
Mof_O 	O 	0.9544	0.4359	0.1926	-0.311
Mof_O 	O 	0.3651	0.3688	0.2735	-0.445
Mof_H 	H 	0.443	0.3219	0.2812	0.252
Mof_O 	O 	0.7901	0.5996	0.5142	-0.414
Mof_H 	H 	0.7451	0.5961	0.5828	0.291
Mof_C 	C 	0.682	0.6961	0.9683	0.397
Mof_C 	C 	0.1562	0.7496	0.9658	0.392
Mof_C 	C 	0.9115	0.1289	0.7467	0.343
Mof_C 	C 	0.9568	0.3302	0.2875	0.323
Mof_C 	C 	0.5363	0.6489	0.0233	-0.12
Mof_C 	C 	0.5218	0.529	0.1229	-0.114
Mof_H 	H 	0.6018	0.48	0.1562	0.083
Mof_C 	C 	0.3885	0.4831	0.1723	0.201
Mof_C 	C 	0.2695	0.5546	0.1197	-0.091
Mof_H 	H 	0.1811	0.5217	0.1504	0.061
Mof_C 	C 	0.2836	0.6749	0.0213	-0.154
Mof_C 	C 	0.4162	0.7239	0.9739	0.109
Mof_H 	H 	0.4247	0.8057	0.91	0.028
Mof_C 	C 	0.8934	0.2471	0.6292	0.03
Mof_C 	C 	0.9214	0.2325	0.5197	-0.061
Mof_H 	H 	0.944	0.1505	0.5202	0.093
Mof_C 	C 	0.9155	0.3416	0.4092	0.033
Mof_C 	C 	0.8746	0.4629	0.4105	-0.185
Mof_H 	H 	0.873	0.5358	0.3365	0.147
Mof_C 	C 	0.836	0.4768	0.5205	0.3
Mof_C 	C 	0.8494	0.368	0.6311	-0.189
Mof_H 	H 	0.829	0.3769	0.7048	0.125
Mof_Mn	Mn	0.08646	0.16805	0.13805	0.711
Mof_O 	O 	0.309	0.189	0.1084	-0.333
Mof_O 	O 	0.2085	0.3803	0.9973	-0.309
Mof_O 	O 	0.8583	0.1295	0.0863	-0.308
Mof_O 	O 	0.9379	0.3132	0.028	-0.339
Mof_O 	O 	0.1039	0.9748	0.2505	-0.339
Mof_O 	O 	0.0549	0.8586	0.1703	-0.342
Mof_O 	O 	0.0096	0.7803	0.7114	-0.393
Mof_O 	O 	0.0456	0.5641	0.8074	-0.377
Mof_O 	O 	0.6349	0.6312	0.7265	-0.469
Mof_H 	H 	0.557	0.6781	0.7188	0.274
Mof_O 	O 	0.2099	0.4004	0.4858	-0.456
Mof_H 	H 	0.2549	0.4039	0.4172	0.286
Mof_C 	C 	0.318	0.3039	0.0317	0.183
Mof_C 	C 	0.8438	0.2504	0.0342	0.234
Mof_C 	C 	0.0885	0.8711	0.2533	0.325
Mof_C 	C 	0.0432	0.6698	0.7125	0.338
Mof_C 	C 	0.4637	0.3511	0.9767	0.18
Mof_C 	C 	0.4782	0.471	0.8771	-0.312
Mof_H 	H 	0.3982	0.52	0.8438	0.154
Mof_C 	C 	0.6115	0.5169	0.8277	0.356
Mof_C 	C 	0.7305	0.4454	0.8803	-0.289
Mof_H 	H 	0.8189	0.4783	0.8496	0.175
Mof_C 	C 	0.7164	0.3251	0.9787	0.151
Mof_C 	C 	0.5838	0.2761	0.0261	-0.263
Mof_H 	H 	0.5753	0.1943	0.09	0.13
Mof_C 	C 	0.1066	0.7529	0.3708	0.013
Mof_C 	C 	0.0786	0.7675	0.4803	-0.059
Mof_H 	H 	0.056	0.8495	0.4798	0.08
Mof_C 	C 	0.0845	0.6584	0.5908	-0.004
Mof_C 	C 	0.1254	0.5371	0.5895	-0.187
Mof_H 	H 	0.127	0.4642	0.6635	0.116
Mof_C 	C 	0.164	0.5232	0.4795	0.275
Mof_C 	C 	0.1506	0.632	0.3689	-0.199
Mof_H 	H 	0.171	0.6231	0.2952	0.11
Mof_Mn	Mn	-0	0.5	-0	0.785
Mof_Mn	Mn	-0	0	-0	0.508
_end
