# CIF file generated by openbabel 3.1.0, see https://openbabel.org
data_I
_chemical_name_common 'image0'
_cell_length_a 26.3205
_cell_length_b 12.2748
_cell_length_c 19.6085
_cell_angle_alpha 90
_cell_angle_beta 122.972
_cell_angle_gamma 90
_space_group_name_H-M_alt 'P 1'
_space_group_name_Hall 'P 1'
loop_
    _symmetry_equiv_pos_as_xyz
    x,y,z
loop_
    _atom_site_label
    _atom_site_type_symbol
    _atom_site_fract_x
    _atom_site_fract_y
    _atom_site_fract_z
    _atom_site_occupancy
    Er1      Er       0.99936    0.52458    0.12599    1.000
    O1       O        0.06098    0.42300    0.10300    1.000
    O2       O        0.04844    0.37250    0.98790    1.000
    O3       O        0.40078    0.05970    0.25120    1.000
    O4       O        0.42225    0.14380    0.36210    1.000
    O5       O        0.99010    0.67480    0.18730    1.000
    O6       O        0.01210    0.37960    0.20490    1.000
    S1       S        0.18090    0.35310    0.21680    1.000
    S2       S        0.31200    0.25340    0.30990    1.000
    S3       S        0.00560    0.90430    0.17590    1.000
    S4       S        0.01010    0.15740    0.18430    1.000
    C1       C        0.07740    0.37670    0.06210    1.000
    C2       C        0.38580    0.12370    0.28730    1.000
    C3       C        0.13690    0.32400    0.10930    1.000
    C4       C        0.16790    0.25960    0.08740    1.000
    C5       C        0.22720    0.22810    0.14750    1.000
    C6       C        0.23860    0.27420    0.22180    1.000
    C7       C        0.32640    0.17180    0.24710    1.000
    C8       C        0.27900    0.16840    0.16800    1.000
    C9       C        0.14410    0.22250    0.00590    1.000
    H1       H        0.12230    0.15570    0.99680    1.000
    H2       H        0.17680    0.21020    0.99860    1.000
    H3       H        0.11730    0.27660    0.96800    1.000
    C10      C        0.27820    0.10830    0.10590    1.000
    H4       H        0.29530    0.15160    0.08240    1.000
    H5       H        0.23720    0.08960    0.06460    1.000
    H6       H        0.30160    0.04300    0.12850    1.000
    C11      C        0.99390    0.91700    0.29840    1.000
    C12      C        0.99600    0.02900    0.28600    1.000
    C13      C        0.00300    0.02800    0.21900    1.000
    C14      C        0.99600    0.14000    0.30200    1.000
    C15      C        0.98740    0.88550    0.36770    1.000
    H7       H        0.98810    0.80740    0.37150    1.000
    H8       H        0.94950    0.91240    0.35700    1.000
    H9       H        0.01990    0.91540    0.41800    1.000
    C16      C        0.98750    0.15850    0.37200    1.000
    H10      H        0.02100    0.12710    0.42070    1.000
    H11      H        0.95040    0.12630    0.36080    1.000
    H12      H        0.98640    0.23560    0.37930    1.000
    S5       S        0.15370    0.24960    0.04250    1.000
    S6       S        0.28190    0.14380    0.13640    1.000
    C17      C        0.18200    0.32900    0.19300    1.000
    C18      C        0.29900    0.23400    0.27900    1.000
    C19      C        0.17550    0.38800    0.25500    1.000
    H13      H        0.18750    0.46250    0.25820    1.000
    H14      H        0.20090    0.35390    0.30720    1.000
    H15      H        0.13410    0.38510    0.23980    1.000
    C20      C        0.31620    0.27600    0.36000    1.000
    H16      H        0.33850    0.22090    0.40100    1.000
    H17      H        0.28020    0.29370    0.35920    1.000
    H18      H        0.34080    0.33970    0.37340    1.000
    Er2      Er       0.49936    0.02458    0.12599    1.000
    O7       O        0.56098    0.92300    0.10300    1.000
    O8       O        0.54844    0.87250    0.98790    1.000
    O9       O        0.90078    0.55970    0.25120    1.000
    O10      O        0.92225    0.64380    0.36210    1.000
    O11      O        0.49010    0.17480    0.18730    1.000
    O12      O        0.51210    0.87960    0.20490    1.000
    S7       S        0.68090    0.85310    0.21680    1.000
    S8       S        0.81200    0.75340    0.30990    1.000
    S9       S        0.50560    0.40430    0.17590    1.000
    S10      S        0.51010    0.65740    0.18430    1.000
    C21      C        0.57740    0.87670    0.06210    1.000
    C22      C        0.88580    0.62370    0.28730    1.000
    C23      C        0.63690    0.82400    0.10930    1.000
    C24      C        0.66790    0.75960    0.08740    1.000
    C25      C        0.72720    0.72810    0.14750    1.000
    C26      C        0.73860    0.77420    0.22180    1.000
    C27      C        0.82640    0.67180    0.24710    1.000
    C28      C        0.77900    0.66840    0.16800    1.000
    C29      C        0.64410    0.72250    0.00590    1.000
    H19      H        0.62230    0.65570    0.99680    1.000
    H20      H        0.67680    0.71020    0.99860    1.000
    H21      H        0.61730    0.77660    0.96800    1.000
    C30      C        0.77820    0.60830    0.10590    1.000
    H22      H        0.79530    0.65160    0.08240    1.000
    H23      H        0.73720    0.58960    0.06460    1.000
    H24      H        0.80160    0.54300    0.12850    1.000
    C31      C        0.49390    0.41700    0.29840    1.000
    C32      C        0.49600    0.52900    0.28600    1.000
    C33      C        0.50300    0.52800    0.21900    1.000
    C34      C        0.49600    0.64000    0.30200    1.000
    C35      C        0.48740    0.38550    0.36770    1.000
    H25      H        0.48810    0.30740    0.37150    1.000
    H26      H        0.44950    0.41240    0.35700    1.000
    H27      H        0.51990    0.41540    0.41800    1.000
    C36      C        0.48750    0.65850    0.37200    1.000
    H28      H        0.52100    0.62710    0.42070    1.000
    H29      H        0.45040    0.62630    0.36080    1.000
    H30      H        0.48640    0.73560    0.37930    1.000
    S11      S        0.65370    0.74960    0.04250    1.000
    S12      S        0.78190    0.64380    0.13640    1.000
    C37      C        0.68200    0.82900    0.19300    1.000
    C38      C        0.79900    0.73400    0.27900    1.000
    C39      C        0.67550    0.88800    0.25500    1.000
    H31      H        0.68750    0.96250    0.25820    1.000
    H32      H        0.70090    0.85390    0.30720    1.000
    H33      H        0.63410    0.88510    0.23980    1.000
    C40      C        0.81620    0.77600    0.36000    1.000
    H34      H        0.83850    0.72090    0.40100    1.000
    H35      H        0.78020    0.79370    0.35920    1.000
    H36      H        0.84080    0.83970    0.37340    1.000
    Er3      Er       0.00064    0.52458    0.37401    1.000
    O13      O        0.93902    0.42300    0.39700    1.000
    O14      O        0.95156    0.37250    0.51210    1.000
    O15      O        0.59922    0.05970    0.24880    1.000
    O16      O        0.57775    0.14380    0.13790    1.000
    O17      O        0.00990    0.67480    0.31270    1.000
    O18      O        0.98790    0.37960    0.29510    1.000
    S13      S        0.81910    0.35310    0.28320    1.000
    S14      S        0.68800    0.25340    0.19010    1.000
    S15      S        0.99440    0.90430    0.32410    1.000
    S16      S        0.98990    0.15740    0.31570    1.000
    C41      C        0.92260    0.37670    0.43790    1.000
    C42      C        0.61420    0.12370    0.21270    1.000
    C43      C        0.86310    0.32400    0.39070    1.000
    C44      C        0.83210    0.25960    0.41260    1.000
    C45      C        0.77280    0.22810    0.35250    1.000
    C46      C        0.76140    0.27420    0.27820    1.000
    C47      C        0.67360    0.17180    0.25290    1.000
    C48      C        0.72100    0.16840    0.33200    1.000
    C49      C        0.85590    0.22250    0.49410    1.000
    H37      H        0.87770    0.15570    0.50320    1.000
    H38      H        0.82320    0.21020    0.50140    1.000
    H39      H        0.88270    0.27660    0.53200    1.000
    C50      C        0.72180    0.10830    0.39410    1.000
    H40      H        0.70470    0.15160    0.41760    1.000
    H41      H        0.76280    0.08960    0.43540    1.000
    H42      H        0.69840    0.04300    0.37150    1.000
    C51      C        0.00610    0.91700    0.20160    1.000
    C52      C        0.00400    0.02900    0.21400    1.000
    C53      C        0.99700    0.02800    0.28100    1.000
    C54      C        0.00400    0.14000    0.19800    1.000
    C55      C        0.01260    0.88550    0.13230    1.000
    H43      H        0.01190    0.80740    0.12850    1.000
    H44      H        0.05050    0.91240    0.14300    1.000
    H45      H        0.98010    0.91540    0.08200    1.000
    C56      C        0.01250    0.15850    0.12800    1.000
    H46      H        0.97900    0.12710    0.07930    1.000
    H47      H        0.04960    0.12630    0.13920    1.000
    H48      H        0.01360    0.23560    0.12070    1.000
    S17      S        0.84630    0.24960    0.45750    1.000
    S18      S        0.71810    0.14380    0.36360    1.000
    C57      C        0.81800    0.32900    0.30700    1.000
    C58      C        0.70100    0.23400    0.22100    1.000
    C59      C        0.82450    0.38800    0.24500    1.000
    H49      H        0.81250    0.46250    0.24180    1.000
    H50      H        0.79910    0.35390    0.19280    1.000
    H51      H        0.86590    0.38510    0.26020    1.000
    C60      C        0.68380    0.27600    0.14000    1.000
    H52      H        0.66150    0.22090    0.09900    1.000
    H53      H        0.71980    0.29370    0.14080    1.000
    H54      H        0.65920    0.33970    0.12660    1.000
    Er4      Er       0.50064    0.02458    0.37401    1.000
    O19      O        0.43902    0.92300    0.39700    1.000
    O20      O        0.45156    0.87250    0.51210    1.000
    O21      O        0.09922    0.55970    0.24880    1.000
    O22      O        0.07775    0.64380    0.13790    1.000
    O23      O        0.50990    0.17480    0.31270    1.000
    O24      O        0.48790    0.87960    0.29510    1.000
    S19      S        0.31910    0.85310    0.28320    1.000
    S20      S        0.18800    0.75340    0.19010    1.000
    S21      S        0.49440    0.40430    0.32410    1.000
    S22      S        0.48990    0.65740    0.31570    1.000
    C61      C        0.42260    0.87670    0.43790    1.000
    C62      C        0.11420    0.62370    0.21270    1.000
    C63      C        0.36310    0.82400    0.39070    1.000
    C64      C        0.33210    0.75960    0.41260    1.000
    C65      C        0.27280    0.72810    0.35250    1.000
    C66      C        0.26140    0.77420    0.27820    1.000
    C67      C        0.17360    0.67180    0.25290    1.000
    C68      C        0.22100    0.66840    0.33200    1.000
    C69      C        0.35590    0.72250    0.49410    1.000
    H55      H        0.37770    0.65570    0.50320    1.000
    H56      H        0.32320    0.71020    0.50140    1.000
    H57      H        0.38270    0.77660    0.53200    1.000
    C70      C        0.22180    0.60830    0.39410    1.000
    H58      H        0.20470    0.65160    0.41760    1.000
    H59      H        0.26280    0.58960    0.43540    1.000
    H60      H        0.19840    0.54300    0.37150    1.000
    C71      C        0.50610    0.41700    0.20160    1.000
    C72      C        0.50400    0.52900    0.21400    1.000
    C73      C        0.49700    0.52800    0.28100    1.000
    C74      C        0.50400    0.64000    0.19800    1.000
    C75      C        0.51260    0.38550    0.13230    1.000
    H61      H        0.51190    0.30740    0.12850    1.000
    H62      H        0.55050    0.41240    0.14300    1.000
    H63      H        0.48010    0.41540    0.08200    1.000
    C76      C        0.51250    0.65850    0.12800    1.000
    H64      H        0.47900    0.62710    0.07930    1.000
    H65      H        0.54960    0.62630    0.13920    1.000
    H66      H        0.51360    0.73560    0.12070    1.000
    S23      S        0.34630    0.74960    0.45750    1.000
    S24      S        0.21810    0.64380    0.36360    1.000
    C77      C        0.31800    0.82900    0.30700    1.000
    C78      C        0.20100    0.73400    0.22100    1.000
    C79      C        0.32450    0.88800    0.24500    1.000
    H67      H        0.31250    0.96250    0.24180    1.000
    H68      H        0.29910    0.85390    0.19280    1.000
    H69      H        0.36590    0.88510    0.26020    1.000
    C80      C        0.18380    0.77600    0.14000    1.000
    H70      H        0.16150    0.72090    0.09900    1.000
    H71      H        0.21980    0.79370    0.14080    1.000
    H72      H        0.15920    0.83970    0.12660    1.000
    Er5      Er       0.00064    0.47542    0.87401    1.000
    O25      O        0.93902    0.57700    0.89700    1.000
    O26      O        0.95156    0.62750    0.01210    1.000
    O27      O        0.59922    0.94030    0.74880    1.000
    O28      O        0.57775    0.85620    0.63790    1.000
    O29      O        0.00990    0.32520    0.81270    1.000
    O30      O        0.98790    0.62040    0.79510    1.000
    S25      S        0.81910    0.64690    0.78320    1.000
    S26      S        0.68800    0.74660    0.69010    1.000
    S27      S        0.99440    0.09570    0.82410    1.000
    S28      S        0.98990    0.84260    0.81570    1.000
    C81      C        0.92260    0.62330    0.93790    1.000
    C82      C        0.61420    0.87630    0.71270    1.000
    C83      C        0.86310    0.67600    0.89070    1.000
    C84      C        0.83210    0.74040    0.91260    1.000
    C85      C        0.77280    0.77190    0.85250    1.000
    C86      C        0.76140    0.72580    0.77820    1.000
    C87      C        0.67360    0.82820    0.75290    1.000
    C88      C        0.72100    0.83160    0.83200    1.000
    C89      C        0.85590    0.77750    0.99410    1.000
    H73      H        0.87770    0.84430    0.00320    1.000
    H74      H        0.82320    0.78980    0.00140    1.000
    H75      H        0.88270    0.72340    0.03200    1.000
    C90      C        0.72180    0.89170    0.89410    1.000
    H76      H        0.70470    0.84840    0.91760    1.000
    H77      H        0.76280    0.91040    0.93540    1.000
    H78      H        0.69840    0.95700    0.87150    1.000
    C91      C        0.00610    0.08300    0.70160    1.000
    C92      C        0.00400    0.97100    0.71400    1.000
    C93      C        0.99700    0.97200    0.78100    1.000
    C94      C        0.00400    0.86000    0.69800    1.000
    C95      C        0.01260    0.11450    0.63230    1.000
    H79      H        0.01190    0.19260    0.62850    1.000
    H80      H        0.05050    0.08760    0.64300    1.000
    H81      H        0.98010    0.08460    0.58200    1.000
    C96      C        0.01250    0.84150    0.62800    1.000
    H82      H        0.97900    0.87290    0.57930    1.000
    H83      H        0.04960    0.87370    0.63920    1.000
    H84      H        0.01360    0.76440    0.62070    1.000
    S29      S        0.84630    0.75040    0.95750    1.000
    S30      S        0.71810    0.85620    0.86360    1.000
    C97      C        0.81800    0.67100    0.80700    1.000
    C98      C        0.70100    0.76600    0.72100    1.000
    C99      C        0.82450    0.61200    0.74500    1.000
    H85      H        0.81250    0.53750    0.74180    1.000
    H86      H        0.79910    0.64610    0.69280    1.000
    H87      H        0.86590    0.61490    0.76020    1.000
    C100     C        0.68380    0.72400    0.64000    1.000
    H88      H        0.66150    0.77910    0.59900    1.000
    H89      H        0.71980    0.70630    0.64080    1.000
    H90      H        0.65920    0.66030    0.62660    1.000
    Er6      Er       0.50064    0.97542    0.87401    1.000
    O31      O        0.43902    0.07700    0.89700    1.000
    O32      O        0.45156    0.12750    0.01210    1.000
    O33      O        0.09922    0.44030    0.74880    1.000
    O34      O        0.07775    0.35620    0.63790    1.000
    O35      O        0.50990    0.82520    0.81270    1.000
    O36      O        0.48790    0.12040    0.79510    1.000
    S31      S        0.31910    0.14690    0.78320    1.000
    S32      S        0.18800    0.24660    0.69010    1.000
    S33      S        0.49440    0.59570    0.82410    1.000
    S34      S        0.48990    0.34260    0.81570    1.000
    C101     C        0.42260    0.12330    0.93790    1.000
    C102     C        0.11420    0.37630    0.71270    1.000
    C103     C        0.36310    0.17600    0.89070    1.000
    C104     C        0.33210    0.24040    0.91260    1.000
    C105     C        0.27280    0.27190    0.85250    1.000
    C106     C        0.26140    0.22580    0.77820    1.000
    C107     C        0.17360    0.32820    0.75290    1.000
    C108     C        0.22100    0.33160    0.83200    1.000
    C109     C        0.35590    0.27750    0.99410    1.000
    H91      H        0.37770    0.34430    0.00320    1.000
    H92      H        0.32320    0.28980    0.00140    1.000
    H93      H        0.38270    0.22340    0.03200    1.000
    C110     C        0.22180    0.39170    0.89410    1.000
    H94      H        0.20470    0.34840    0.91760    1.000
    H95      H        0.26280    0.41040    0.93540    1.000
    H96      H        0.19840    0.45700    0.87150    1.000
    C111     C        0.50610    0.58300    0.70160    1.000
    C112     C        0.50400    0.47100    0.71400    1.000
    C113     C        0.49700    0.47200    0.78100    1.000
    C114     C        0.50400    0.36000    0.69800    1.000
    C115     C        0.51260    0.61450    0.63230    1.000
    H97      H        0.51190    0.69260    0.62850    1.000
    H98      H        0.55050    0.58760    0.64300    1.000
    H99      H        0.48010    0.58460    0.58200    1.000
    C116     C        0.51250    0.34150    0.62800    1.000
    H100     H        0.47900    0.37290    0.57930    1.000
    H101     H        0.54960    0.37370    0.63920    1.000
    H102     H        0.51360    0.26440    0.62070    1.000
    S35      S        0.34630    0.25040    0.95750    1.000
    S36      S        0.21810    0.35620    0.86360    1.000
    C117     C        0.31800    0.17100    0.80700    1.000
    C118     C        0.20100    0.26600    0.72100    1.000
    C119     C        0.32450    0.11200    0.74500    1.000
    H103     H        0.31250    0.03750    0.74180    1.000
    H104     H        0.29910    0.14610    0.69280    1.000
    H105     H        0.36590    0.11490    0.76020    1.000
    C120     C        0.18380    0.22400    0.64000    1.000
    H106     H        0.16150    0.27910    0.59900    1.000
    H107     H        0.21980    0.20630    0.64080    1.000
    H108     H        0.15920    0.16030    0.62660    1.000
    Er7      Er       0.99936    0.47542    0.62599    1.000
    O37      O        0.06098    0.57700    0.60300    1.000
    O38      O        0.04844    0.62750    0.48790    1.000
    O39      O        0.40078    0.94030    0.75120    1.000
    O40      O        0.42225    0.85620    0.86210    1.000
    O41      O        0.99010    0.32520    0.68730    1.000
    O42      O        0.01210    0.62040    0.70490    1.000
    S37      S        0.18090    0.64690    0.71680    1.000
    S38      S        0.31200    0.74660    0.80990    1.000
    S39      S        0.00560    0.09570    0.67590    1.000
    S40      S        0.01010    0.84260    0.68430    1.000
    C121     C        0.07740    0.62330    0.56210    1.000
    C122     C        0.38580    0.87630    0.78730    1.000
    C123     C        0.13690    0.67600    0.60930    1.000
    C124     C        0.16790    0.74040    0.58740    1.000
    C125     C        0.22720    0.77190    0.64750    1.000
    C126     C        0.23860    0.72580    0.72180    1.000
    C127     C        0.32640    0.82820    0.74710    1.000
    C128     C        0.27900    0.83160    0.66800    1.000
    C129     C        0.14410    0.77750    0.50590    1.000
    H109     H        0.12230    0.84430    0.49680    1.000
    H110     H        0.17680    0.78980    0.49860    1.000
    H111     H        0.11730    0.72340    0.46800    1.000
    C130     C        0.27820    0.89170    0.60590    1.000
    H112     H        0.29530    0.84840    0.58240    1.000
    H113     H        0.23720    0.91040    0.56460    1.000
    H114     H        0.30160    0.95700    0.62850    1.000
    C131     C        0.99390    0.08300    0.79840    1.000
    C132     C        0.99600    0.97100    0.78600    1.000
    C133     C        0.00300    0.97200    0.71900    1.000
    C134     C        0.99600    0.86000    0.80200    1.000
    C135     C        0.98740    0.11450    0.86770    1.000
    H115     H        0.98810    0.19260    0.87150    1.000
    H116     H        0.94950    0.08760    0.85700    1.000
    H117     H        0.01990    0.08460    0.91800    1.000
    C136     C        0.98750    0.84150    0.87200    1.000
    H118     H        0.02100    0.87290    0.92070    1.000
    H119     H        0.95040    0.87370    0.86080    1.000
    H120     H        0.98640    0.76440    0.87930    1.000
    S41      S        0.15370    0.75040    0.54250    1.000
    S42      S        0.28190    0.85620    0.63640    1.000
    C137     C        0.18200    0.67100    0.69300    1.000
    C138     C        0.29900    0.76600    0.77900    1.000
    C139     C        0.17550    0.61200    0.75500    1.000
    H121     H        0.18750    0.53750    0.75820    1.000
    H122     H        0.20090    0.64610    0.80720    1.000
    H123     H        0.13410    0.61490    0.73980    1.000
    C140     C        0.31620    0.72400    0.86000    1.000
    H124     H        0.33850    0.77910    0.90100    1.000
    H125     H        0.28020    0.70630    0.85920    1.000
    H126     H        0.34080    0.66030    0.87340    1.000
    Er8      Er       0.49936    0.97542    0.62599    1.000
    O43      O        0.56098    0.07700    0.60300    1.000
    O44      O        0.54844    0.12750    0.48790    1.000
    O45      O        0.90078    0.44030    0.75120    1.000
    O46      O        0.92225    0.35620    0.86210    1.000
    O47      O        0.49010    0.82520    0.68730    1.000
    O48      O        0.51210    0.12040    0.70490    1.000
    S43      S        0.68090    0.14690    0.71680    1.000
    S44      S        0.81200    0.24660    0.80990    1.000
    S45      S        0.50560    0.59570    0.67590    1.000
    S46      S        0.51010    0.34260    0.68430    1.000
    C141     C        0.57740    0.12330    0.56210    1.000
    C142     C        0.88580    0.37630    0.78730    1.000
    C143     C        0.63690    0.17600    0.60930    1.000
    C144     C        0.66790    0.24040    0.58740    1.000
    C145     C        0.72720    0.27190    0.64750    1.000
    C146     C        0.73860    0.22580    0.72180    1.000
    C147     C        0.82640    0.32820    0.74710    1.000
    C148     C        0.77900    0.33160    0.66800    1.000
    C149     C        0.64410    0.27750    0.50590    1.000
    H127     H        0.62230    0.34430    0.49680    1.000
    H128     H        0.67680    0.28980    0.49860    1.000
    H129     H        0.61730    0.22340    0.46800    1.000
    C150     C        0.77820    0.39170    0.60590    1.000
    H130     H        0.79530    0.34840    0.58240    1.000
    H131     H        0.73720    0.41040    0.56460    1.000
    H132     H        0.80160    0.45700    0.62850    1.000
    C151     C        0.49390    0.58300    0.79840    1.000
    C152     C        0.49600    0.47100    0.78600    1.000
    C153     C        0.50300    0.47200    0.71900    1.000
    C154     C        0.49600    0.36000    0.80200    1.000
    C155     C        0.48740    0.61450    0.86770    1.000
    H133     H        0.48810    0.69260    0.87150    1.000
    H134     H        0.44950    0.58760    0.85700    1.000
    H135     H        0.51990    0.58460    0.91800    1.000
    C156     C        0.48750    0.34150    0.87200    1.000
    H136     H        0.52100    0.37290    0.92070    1.000
    H137     H        0.45040    0.37370    0.86080    1.000
    H138     H        0.48640    0.26440    0.87930    1.000
    S47      S        0.65370    0.25040    0.54250    1.000
    S48      S        0.78190    0.35620    0.63640    1.000
    C157     C        0.68200    0.17100    0.69300    1.000
    C158     C        0.79900    0.26600    0.77900    1.000
    C159     C        0.67550    0.11200    0.75500    1.000
    H139     H        0.68750    0.03750    0.75820    1.000
    H140     H        0.70090    0.14610    0.80720    1.000
    H141     H        0.63410    0.11490    0.73980    1.000
    C160     C        0.81620    0.22400    0.86000    1.000
    H142     H        0.83850    0.27910    0.90100    1.000
    H143     H        0.78020    0.20630    0.85920    1.000
    H144     H        0.84080    0.16030    0.87340    1.000
    C161     C        0.00000    0.72170    0.25000    1.000
    C162     C        0.00000    0.33320    0.25000    1.000
    C163     C        0.00000    0.84160    0.25000    1.000
    C164     C        0.00000    0.21320    0.25000    1.000
    C165     C        0.50000    0.22170    0.25000    1.000
    C166     C        0.50000    0.83320    0.25000    1.000
    C167     C        0.50000    0.34160    0.25000    1.000
    C168     C        0.50000    0.71320    0.25000    1.000
    C169     C        0.00000    0.27830    0.75000    1.000
    C170     C        0.00000    0.66680    0.75000    1.000
    C171     C        0.00000    0.15840    0.75000    1.000
    C172     C        0.00000    0.78680    0.75000    1.000
    C173     C        0.50000    0.77830    0.75000    1.000
    C174     C        0.50000    0.16680    0.75000    1.000
    C175     C        0.50000    0.65840    0.75000    1.000
    C176     C        0.50000    0.28680    0.75000    1.000
