data_functionalizedCrystal
_audit_creation_method	'EQeq! by Chris Wilmer'
_symmetry_space_group_name_H-M	'P1'
_symmetry_Int_Tables_number	1
_symmetry_cell_setting	triclinic
loop_
_symmetry_equiv_pos_as_xyz
  x,y,z
_cell_length_a	13.8757
_cell_length_b	16.1949
_cell_length_c	16.1949
_cell_angle_alpha	112.639
_cell_angle_beta	113.88
_cell_angle_gamma	66.12
loop_
_atom_site_label
_atom_site_type_symbol
_atom_site_fract_x
_atom_site_fract_y
_atom_site_fract_z
_atom_site_charge
Mof_Na	Na	0.8293	0.1284	0.8716	1.796
Mof_Na	Na	0.1707	0.8716	0.1284	1.796
Mof_Na	Na	0.0584	0.3636	0.6364	1.968
Mof_Na	Na	0.9416	0.6364	0.3636	1.968
Mof_Dy	Dy	0.58693	0.63278	0.36722	2.1
Mof_Dy	Dy	0.33995	0.52257	0.47743	2.048
Mof_Dy	Dy	0.96341	0.34336	0.18714	2.253
Mof_Dy	Dy	0.41307	0.36722	0.63278	2.1
Mof_Dy	Dy	0.03659	0.65664	0.81286	2.253
Mof_Dy	Dy	0.15881	0.58146	0.6271	2.03
Mof_Dy	Dy	0.15881	0.3729	0.41854	2.03
Mof_Dy	Dy	0.03659	0.18714	0.34336	2.253
Mof_Dy	Dy	0.96341	0.81286	0.65664	2.253
Mof_Dy	Dy	0.66005	0.47743	0.52257	2.048
Mof_Dy	Dy	0.84119	0.41854	0.3729	2.03
Mof_Dy	Dy	0.84119	0.6271	0.58146	2.03
Mof_H 	H 	0.1452	0.0627	0.6875	0.014
Mof_H 	H 	0.387	0.1063	0.6415	0.009
Mof_H 	H 	0.5614	0.0454	0.3498	0.062
Mof_H 	H 	0.1528	0.2155	0.2571	0.376
Mof_H 	H 	0.387	0.3585	0.8937	0.009
Mof_H 	H 	0.4866	0.6356	0.5792	0.423
Mof_H 	H 	0.4386	0.9546	0.6502	0.062
Mof_H 	H 	0.8324	0.1995	0.5711	-0.013
Mof_H 	H 	0.1452	0.3125	0.9373	0.014
Mof_H 	H 	0.0346	0.5001	0.6541	-0.012
Mof_H 	H 	0.8472	0.2571	0.2155	0.376
Mof_H 	H 	0.6186	0.441	0.3284	0.355
Mof_H 	H 	0.1261	0.5868	0.05	-0.019
Mof_H 	H 	0.1528	0.7429	0.7845	0.376
Mof_H 	H 	0.818	0.6038	0.3962	0.073
Mof_H 	H 	0.613	0.6415	0.1063	0.009
Mof_H 	H 	0.8324	0.4289	0.8005	-0.013
Mof_H 	H 	0.5134	0.5792	0.6356	0.423
Mof_H 	H 	0.8472	0.7845	0.7429	0.376
Mof_H 	H 	0.8739	0.05	0.5868	-0.019
Mof_H 	H 	0.1676	0.8005	0.4289	-0.013
Mof_H 	H 	0.3814	0.3284	0.441	0.355
Mof_H 	H 	0.6186	0.6716	0.559	0.355
Mof_H 	H 	0.3582	0.6321	0.1351	-0.029
Mof_H 	H 	0.8739	0.4132	0.95	-0.019
Mof_H 	H 	0.8548	0.6875	0.0627	0.014
Mof_H 	H 	0.1261	0.95	0.4132	-0.019
Mof_H 	H 	0.5134	0.3644	0.4208	0.423
Mof_H 	H 	0.3582	0.8649	0.3679	-0.029
Mof_H 	H 	0.613	0.8937	0.3585	0.009
Mof_H 	H 	0.1046	0.5637	0.4363	0.03
Mof_H 	H 	0.4386	0.3498	0.0454	0.062
Mof_H 	H 	0.3814	0.559	0.6716	0.355
Mof_H 	H 	0.5614	0.6502	0.9546	0.062
Mof_H 	H 	0.0346	0.3459	0.4999	-0.012
Mof_H 	H 	0.1676	0.5711	0.1995	-0.013
Mof_H 	H 	0.4866	0.4208	0.3644	0.423
Mof_H 	H 	0.6418	0.1351	0.6321	-0.029
Mof_H 	H 	0.8954	0.4363	0.5637	0.03
Mof_H 	H 	0.6418	0.3679	0.8649	-0.029
Mof_H 	H 	0.9654	0.6541	0.5001	-0.012
Mof_H 	H 	0.9654	0.4999	0.3459	-0.012
Mof_H 	H 	0.182	0.3962	0.6038	0.073
Mof_H 	H 	0.8548	0.9373	0.3125	0.014
Mof_C 	C 	0.5537	0.5126	0.7932	0.382
Mof_C 	C 	0.4132	0.967	0.591	-0.014
Mof_C 	C 	0.3658	0.5761	0.0859	0.053
Mof_C 	C 	0.6651	0.4192	0.007	-0.097
Mof_C 	C 	0.1609	0.5193	0.1461	-0.044
Mof_C 	C 	0.8391	0.1461	0.5193	-0.044
Mof_C 	C 	0.3658	0.9141	0.4239	0.053
Mof_C 	C 	0.5926	0.1055	0.4899	-0.113
Mof_C 	C 	0.3115	0.1799	0.5037	0.502
Mof_C 	C 	0.174	0.8452	0.5676	-0.1
Mof_C 	C 	0.1319	0.0199	0.5481	-0.187
Mof_C 	C 	0.5537	0.2068	0.4874	0.382
Mof_C 	C 	0.6342	0.0859	0.5761	0.053
Mof_C 	C 	0.4463	0.7932	0.5126	0.382
Mof_C 	C 	0.1041	0.1167	0.5407	0.531
Mof_C 	C 	0.4074	0.8945	0.5101	-0.113
Mof_C 	C 	0.8959	0.5407	0.1167	0.531
Mof_C 	C 	0.8391	0.4807	0.8539	-0.044
Mof_C 	C 	0.5868	0.033	0.409	-0.014
Mof_C 	C 	0.5868	0.591	0.967	-0.014
Mof_C 	C 	0.1975	0.429	0.254	0.48
Mof_C 	C 	0.3432	0.0803	0.5017	-0.127
Mof_C 	C 	0.1684	0.3561	0.0787	-0.09
Mof_C 	C 	0.148	0.3653	0.9903	0.059
Mof_C 	C 	0.1379	0.5277	0.0575	0.054
Mof_C 	C 	0.6885	0.5037	0.1799	0.502
Mof_C 	C 	0.8621	0.4723	0.9425	0.054
Mof_C 	C 	0.852	0.6347	0.0097	0.059
Mof_C 	C 	0.6342	0.4239	0.9141	0.053
Mof_C 	C 	0.826	0.1548	0.4324	-0.1
Mof_C 	C 	0.8959	0.8833	0.4593	0.531
Mof_C 	C 	0.8025	0.571	0.746	0.48
Mof_C 	C 	0.1684	0.9213	0.6439	-0.09
Mof_C 	C 	0.6183	0.9427	0.4149	0.012
Mof_C 	C 	0.148	0.0097	0.6347	0.059
Mof_C 	C 	0.4074	0.4899	0.1055	-0.113
Mof_C 	C 	0.5926	0.5101	0.8945	-0.113
Mof_C 	C 	0.1975	0.746	0.571	0.48
Mof_C 	C 	0.174	0.4324	0.1548	-0.1
Mof_C 	C 	0.8316	0.0787	0.3561	-0.09
Mof_C 	C 	0.6568	0.5017	0.0803	-0.127
Mof_C 	C 	0.8316	0.6439	0.9213	-0.09
Mof_C 	C 	0.826	0.5676	0.8452	-0.1
Mof_C 	C 	0.8681	0.5481	0.0199	-0.187
Mof_C 	C 	0.1041	0.4593	0.8833	0.531
Mof_C 	C 	0.8621	0.0575	0.5277	0.054
Mof_C 	C 	0.3817	0.0573	0.5851	0.012
Mof_C 	C 	0.1609	0.8539	0.4807	-0.044
Mof_C 	C 	0.8681	0.9801	0.4519	-0.187
Mof_C 	C 	0.3432	0.4983	0.9197	-0.127
Mof_C 	C 	0.3349	0.5808	0.993	-0.097
Mof_C 	C 	0.3817	0.4149	0.9427	0.012
Mof_C 	C 	0.3115	0.4963	0.8201	0.502
Mof_C 	C 	0.4463	0.4874	0.2068	0.382
Mof_C 	C 	0.3349	0.007	0.4192	-0.097
Mof_C 	C 	0.6568	0.9197	0.4983	-0.127
Mof_C 	C 	0.1379	0.9425	0.4723	0.054
Mof_C 	C 	0.6183	0.5851	0.0573	0.012
Mof_C 	C 	0.8025	0.254	0.429	0.48
Mof_C 	C 	0.6651	0.993	0.5808	-0.097
Mof_C 	C 	0.6885	0.8201	0.4963	0.502
Mof_C 	C 	0.1319	0.4519	0.9801	-0.187
Mof_C 	C 	0.4132	0.409	0.033	-0.014
Mof_C 	C 	0.852	0.9903	0.3653	0.059
Mof_S 	S 	0.1808	0.91517	0.75543	0.561
Mof_S 	S 	0.2865	0.69504	0.97816	0.587
Mof_S 	S 	0.2865	0.02184	0.30496	0.587
Mof_S 	S 	0.7135	0.97816	0.69504	0.587
Mof_S 	S 	0.1808	0.24457	0.08483	0.561
Mof_S 	S 	0.8192	0.08483	0.24457	0.561
Mof_S 	S 	0.8192	0.75543	0.91517	0.561
Mof_S 	S 	0.7135	0.30496	0.02184	0.587
Mof_O 	O 	0.7887	0.5825	0.4175	-0.923
Mof_O 	O 	0.328	0.0914	0.3064	-0.329
Mof_O 	O 	0.6776	0.0679	0.7547	-0.547
Mof_O 	O 	0.3752	0.2254	0.5676	-0.612
Mof_O 	O 	0.8944	0.817	0.3872	-0.579
Mof_O 	O 	0.672	0.9086	0.6936	-0.329
Mof_O 	O 	0.5	0.5796	0.5796	-1.164
Mof_O 	O 	0.8942	0.2849	0.2559	-1.084
Mof_O 	O 	0.7334	0.1707	0.2283	-0.31
Mof_O 	O 	0.9295	0.7458	0.913	-0.593
Mof_O 	O 	0.1633	0.7185	0.9479	-0.662
Mof_O 	O 	0.558	0.2685	0.5665	-0.538
Mof_O 	O 	0.2238	0.214	0.4464	-0.658
Mof_O 	O 	0.558	0.4335	0.7315	-0.538
Mof_O 	O 	0.5	0.4204	0.4204	-1.164
Mof_O 	O 	0.1365	0.7313	0.6021	-0.659
Mof_O 	O 	0.2113	0.4175	0.5825	-0.923
Mof_O 	O 	0.3434	0.5255	0.6263	-1.022
Mof_O 	O 	0.2666	0.2283	0.1707	-0.31
Mof_O 	O 	0.0705	0.2542	0.087	-0.593
Mof_O 	O 	0.442	0.5665	0.2685	-0.538
Mof_O 	O 	0.328	0.6936	0.9086	-0.329
Mof_O 	O 	0.7334	0.7717	0.8293	-0.31
Mof_O 	O 	0.0705	0.913	0.7458	-0.593
Mof_O 	O 	0.7966	0.8218	0.9998	-0.306
Mof_O 	O 	0.8944	0.6128	0.183	-0.579
Mof_O 	O 	0.3752	0.4324	0.7746	-0.612
Mof_O 	O 	0.6776	0.2453	0.9321	-0.547
Mof_O 	O 	0.8942	0.7441	0.7151	-1.084
Mof_O 	O 	0.7762	0.786	0.5536	-0.658
Mof_O 	O 	0.6248	0.5676	0.2254	-0.612
Mof_O 	O 	0.0241	0.5575	0.6613	-0.914
Mof_O 	O 	0.672	0.3064	0.0914	-0.329
Mof_O 	O 	0.6566	0.4745	0.3737	-1.022
Mof_O 	O 	0.6566	0.6263	0.5255	-1.022
Mof_O 	O 	0.2238	0.5536	0.786	-0.658
Mof_O 	O 	0.2728	0.4603	0.3161	-0.604
Mof_O 	O 	0.9295	0.087	0.2542	-0.593
Mof_O 	O 	0.3434	0.3737	0.4745	-1.022
Mof_O 	O 	0.7272	0.3161	0.4603	-0.604
Mof_O 	O 	0.7966	0.0002	0.1782	-0.306
Mof_O 	O 	0.1585	0.53	0.47	-0.912
Mof_O 	O 	0.5198	0.5879	0.7741	-0.348
Mof_O 	O 	0.1058	0.7151	0.7441	-1.084
Mof_O 	O 	0.8635	0.2687	0.3979	-0.659
Mof_O 	O 	0.9176	0.8754	0.5392	-0.641
Mof_O 	O 	0.1365	0.3979	0.2687	-0.659
Mof_O 	O 	0.3224	0.7547	0.0679	-0.547
Mof_O 	O 	0.6248	0.7746	0.4324	-0.612
Mof_O 	O 	0.7762	0.4464	0.214	-0.658
Mof_O 	O 	0.3224	0.9321	0.2453	-0.547
Mof_O 	O 	0.9759	0.6613	0.5575	-0.914
Mof_O 	O 	0.2034	0.9998	0.8218	-0.306
Mof_O 	O 	0.8635	0.6021	0.7313	-0.659
Mof_O 	O 	0.9759	0.4425	0.3387	-0.914
Mof_O 	O 	0.8415	0.47	0.53	-0.912
Mof_O 	O 	0.9176	0.4608	0.1246	-0.641
Mof_O 	O 	0.442	0.7315	0.4335	-0.538
Mof_O 	O 	0.2666	0.8293	0.7717	-0.31
Mof_O 	O 	0.1633	0.0521	0.2815	-0.662
Mof_O 	O 	0.1056	0.183	0.6128	-0.579
Mof_O 	O 	0.5198	0.2259	0.4121	-0.348
Mof_O 	O 	0.4802	0.4121	0.2259	-0.348
Mof_O 	O 	0.1056	0.3872	0.817	-0.579
Mof_O 	O 	0.8367	0.2815	0.0521	-0.662
Mof_O 	O 	0.0824	0.1246	0.4608	-0.641
Mof_O 	O 	0.4802	0.7741	0.5879	-0.348
Mof_O 	O 	0.2034	0.1782	0.0002	-0.306
Mof_O 	O 	0.8367	0.9479	0.7185	-0.662
Mof_O 	O 	0.1058	0.2559	0.2849	-1.084
Mof_O 	O 	0.2728	0.6839	0.5397	-0.604
Mof_O 	O 	0.7272	0.5397	0.6839	-0.604
Mof_O 	O 	0.0241	0.3387	0.4425	-0.914
Mof_O 	O 	0.0824	0.5392	0.8754	-0.641
_end
