# CIF file generated by openbabel 3.1.0, see https://openbabel.org
data_I
_chemical_name_common 'CODRUJ_clean'
_cell_length_a 9.1304
_cell_length_b 9.1304
_cell_length_c 14.7099
_cell_angle_alpha 100.169
_cell_angle_beta 100.169
_cell_angle_gamma 115.539
_space_group_name_H-M_alt 'P 1'
_space_group_name_Hall 'P 1'
loop_
    _symmetry_equiv_pos_as_xyz
    x,y,z
loop_
    _atom_site_label
    _atom_site_type_symbol
    _atom_site_fract_x
    _atom_site_fract_y
    _atom_site_fract_z
    _atom_site_occupancy
    Nd1      Nd       0.74060    0.99060    0.98120    1.000
    Nd2      Nd       0.50940    0.75940    0.51880    1.000
    Nd3      Nd       0.25940    0.00940    0.01880    1.000
    Nd4      Nd       0.49060    0.24060    0.48120    1.000
    H1       H        0.30200    0.36400    0.92600    1.000
    H2       H        0.12400    0.56200    0.92600    1.000
    H3       H        0.13600    0.19800    0.57400    1.000
    H4       H        0.93800    0.37600    0.57400    1.000
    H5       H        0.69800    0.63600    0.07400    1.000
    H6       H        0.87600    0.43800    0.07400    1.000
    H7       H        0.86400    0.80200    0.42600    1.000
    H8       H        0.06200    0.62400    0.42600    1.000
    C1       C        0.06092    0.24792    0.94164    1.000
    C2       C        0.21371    0.39411    0.93502    1.000
    C3       C        0.38072    0.69372    0.94164    1.000
    C4       C        0.22131    0.54091    0.93502    1.000
    C5       C        0.25208    0.43908    0.55836    1.000
    C6       C        0.10589    0.28629    0.56498    1.000
    C7       C        0.80628    0.11928    0.55836    1.000
    C8       C        0.95909    0.27869    0.56498    1.000
    C9       C        0.93908    0.75208    0.05836    1.000
    C10      C        0.78629    0.60589    0.06498    1.000
    C11      C        0.61928    0.30628    0.05836    1.000
    C12      C        0.77869    0.45909    0.06498    1.000
    C13      C        0.74792    0.56092    0.44164    1.000
    C14      C        0.89411    0.71371    0.43502    1.000
    C15      C        0.19372    0.88072    0.44164    1.000
    C16      C        0.04091    0.72131    0.43502    1.000
    C17      C        0.67530    0.82470    0.75000    1.000
    C18      C        0.57470    0.92530    0.75000    1.000
    C19      C        0.32470    0.17530    0.25000    1.000
    C20      C        0.42530    0.07470    0.25000    1.000
    O1       O        0.76229    0.83907    0.82996    1.000
    O2       O        0.91736    0.23942    0.92398    1.000
    O3       O        0.08431    0.13427    0.96738    1.000
    O4       O        0.56767    0.99089    0.82996    1.000
    O5       O        0.50662    0.68456    0.92398    1.000
    O6       O        0.38307    0.83311    0.96738    1.000
    O7       O        0.66093    0.73771    0.67004    1.000
    O8       O        0.26058    0.58264    0.57602    1.000
    O9       O        0.36573    0.41569    0.53262    1.000
    O10      O        0.50911    0.93233    0.67004    1.000
    O11      O        0.81544    0.99338    0.57602    1.000
    O12      O        0.66689    0.11693    0.53262    1.000
    O13      O        0.23771    0.16093    0.17004    1.000
    O14      O        0.08264    0.76058    0.07602    1.000
    O15      O        0.91569    0.86573    0.03262    1.000
    O16      O        0.43233    0.00911    0.17004    1.000
    O17      O        0.49338    0.31544    0.07602    1.000
    O18      O        0.61693    0.16689    0.03262    1.000
    O19      O        0.33907    0.26229    0.32996    1.000
    O20      O        0.73942    0.41736    0.42398    1.000
    O21      O        0.63427    0.58431    0.46738    1.000
    O22      O        0.49089    0.06767    0.32996    1.000
    O23      O        0.18456    0.00662    0.42398    1.000
    O24      O        0.33311    0.88307    0.46738    1.000
