data_functionalizedCrystal
_audit_creation_method	'EQeq! by Chris Wilmer'
_symmetry_space_group_name_H-M	'P1'
_symmetry_Int_Tables_number	1
_symmetry_cell_setting	triclinic
loop_
_symmetry_equiv_pos_as_xyz
  x,y,z
_cell_length_a	14.075
_cell_length_b	27.026
_cell_length_c	7.612
_cell_angle_alpha	90
_cell_angle_beta	90
_cell_angle_gamma	89.82
loop_
_atom_site_label
_atom_site_type_symbol
_atom_site_fract_x
_atom_site_fract_y
_atom_site_fract_z
_atom_site_charge
Mof_Cd	Cd	0.28403	0.13462	0.87387	0.363
Mof_N 	N 	0.2614	0.0786	0.0868	-0.081
Mof_N 	N 	0.2592	0.0786	0.6447	-0.077
Mof_N 	N 	0.1327	0.1692	0.867	-0.076
Mof_N 	N 	0.3242	0.1932	0.6516	-0.113
Mof_N 	N 	0.4508	0.1247	0.8314	-0.129
Mof_C 	C 	0.2563	0.0487	0.1925	-0.258
Mof_C 	C 	0.2555	0.0486	0.5384	-0.262
Mof_C 	C 	0.0812	0.1995	0.8234	-0.25
Mof_C 	C 	0.4262	0.192	0.629	-0.022
Mof_C 	C 	0.4829	0.1586	0.696	0.037
Mof_C 	C 	0.5888	0.159	0.6611	-0.03
Mof_N 	N 	0.3325	0.6974	0.5884	-0.066
Mof_C 	C 	0.3955	0.7174	0.6521	-0.216
Mof_Cd	Cd	0.21597	0.86538	0.87387	0.372
Mof_N 	N 	0.2386	0.9214	0.0868	-0.082
Mof_N 	N 	0.2408	0.9214	0.6447	-0.077
Mof_N 	N 	0.3673	0.8308	0.867	-0.071
Mof_N 	N 	0.1758	0.8068	0.6516	-0.115
Mof_N 	N 	0.0492	0.8753	0.8314	-0.131
Mof_C 	C 	0.2437	0.9513	0.1925	-0.204
Mof_C 	C 	0.2445	0.9514	0.5384	-0.207
Mof_C 	C 	0.4188	0.8005	0.8234	-0.218
Mof_C 	C 	0.0738	0.808	0.629	-0.024
Mof_C 	C 	0.0171	0.8414	0.696	-0.034
Mof_C 	C 	0.9112	0.841	0.6611	0.045
Mof_N 	N 	0.1675	0.3026	0.5884	-0.064
Mof_C 	C 	0.1045	0.2826	0.6521	-0.239
Mof_N 	N 	0.6675	0.8026	0.9116	-0.065
Mof_C 	C 	0.6045	0.7826	0.8479	-0.215
Mof_Cd	Cd	0.71597	0.36538	0.62613	0.378
Mof_N 	N 	0.7386	0.4214	0.4132	-0.076
Mof_N 	N 	0.7408	0.4214	0.8553	-0.072
Mof_N 	N 	0.8673	0.3308	0.633	-0.074
Mof_N 	N 	0.6758	0.3068	0.8484	-0.112
Mof_N 	N 	0.5492	0.3753	0.6686	-0.125
Mof_C 	C 	0.7437	0.4513	0.3075	-0.224
Mof_C 	C 	0.7445	0.4514	0.9616	-0.227
Mof_C 	C 	0.9188	0.3005	0.6766	-0.169
Mof_C 	C 	0.5738	0.308	0.871	-0.022
Mof_C 	C 	0.5171	0.3414	0.804	0.039
Mof_C 	C 	0.4112	0.341	0.8389	-0.029
Mof_N 	N 	0.8325	0.1974	0.9116	-0.071
Mof_C 	C 	0.8955	0.2174	0.8479	-0.174
Mof_Cd	Cd	0.78403	0.63462	0.62613	0.38
Mof_N 	N 	0.7614	0.5786	0.4132	-0.076
Mof_N 	N 	0.7592	0.5786	0.8553	-0.073
Mof_N 	N 	0.6327	0.6692	0.633	-0.072
Mof_N 	N 	0.8242	0.6932	0.8484	-0.11
Mof_N 	N 	0.9508	0.6247	0.6686	-0.113
Mof_C 	C 	0.7563	0.5487	0.3075	-0.223
Mof_C 	C 	0.7555	0.5486	0.9616	-0.226
Mof_C 	C 	0.5812	0.6995	0.6766	-0.218
Mof_C 	C 	0.9262	0.692	0.871	-0.017
Mof_C 	C 	0.9829	0.6586	0.804	0.112
Mof_C 	C 	0.0888	0.659	0.8389	-0.098
Mof_Ni	Ni	0.25	0	0.3653	1.037
Mof_Ni	Ni	0.75	0.5	0.1347	1.064
Mof_Ni	Ni	0.5	0.75	0.75	1.066
Mof_Ni	Ni	8.7273e-20	0.25	0.75	1.033
Mof_N 	N 	0.3325	0.1974	0.0884	-0.066
Mof_C 	C 	0.3955	0.2174	0.1521	-0.216
Mof_Cd	Cd	0.28403	0.63462	0.37387	0.368
Mof_N 	N 	0.2614	0.5786	0.5868	-0.08
Mof_N 	N 	0.2592	0.5786	0.1447	-0.076
Mof_N 	N 	0.1327	0.6692	0.367	-0.074
Mof_N 	N 	0.3242	0.6932	0.1516	-0.112
Mof_N 	N 	0.4508	0.6247	0.3314	-0.124
Mof_C 	C 	0.2563	0.5487	0.6925	-0.238
Mof_C 	C 	0.2555	0.5486	0.0384	-0.24
Mof_C 	C 	0.0812	0.6995	0.3234	-0.248
Mof_C 	C 	0.4262	0.692	0.129	-0.022
Mof_C 	C 	0.4829	0.6586	0.196	0.038
Mof_C 	C 	0.5888	0.659	0.1611	-0.028
Mof_N 	N 	0.1675	0.8026	0.0884	-0.064
Mof_C 	C 	0.1045	0.7826	0.1521	-0.237
Mof_Cd	Cd	0.21597	0.36538	0.37387	0.367
Mof_N 	N 	0.2386	0.4214	0.5868	-0.081
Mof_N 	N 	0.2408	0.4214	0.1447	-0.075
Mof_N 	N 	0.3673	0.3308	0.367	-0.072
Mof_N 	N 	0.1758	0.3068	0.1516	-0.115
Mof_N 	N 	0.0492	0.3753	0.3314	-0.136
Mof_C 	C 	0.2437	0.4513	0.6925	-0.239
Mof_C 	C 	0.2445	0.4514	0.0384	-0.241
Mof_C 	C 	0.4188	0.3005	0.3234	-0.218
Mof_C 	C 	0.0738	0.308	0.129	-0.024
Mof_C 	C 	0.0171	0.3414	0.196	-0.033
Mof_C 	C 	0.9112	0.341	0.1611	0.039
Mof_Cd	Cd	0.71597	0.86538	0.12613	0.384
Mof_N 	N 	0.7386	0.9214	0.9132	-0.078
Mof_N 	N 	0.7408	0.9214	0.3553	-0.074
Mof_N 	N 	0.8673	0.8308	0.133	-0.073
Mof_N 	N 	0.6758	0.8068	0.3484	-0.112
Mof_N 	N 	0.5492	0.8753	0.1686	-0.12
Mof_C 	C 	0.7437	0.9513	0.8075	-0.189
Mof_C 	C 	0.7445	0.9514	0.4616	-0.193
Mof_C 	C 	0.9188	0.8005	0.1766	-0.17
Mof_C 	C 	0.5738	0.808	0.371	-0.022
Mof_C 	C 	0.5171	0.8414	0.304	0.04
Mof_C 	C 	0.4112	0.841	0.3389	-0.025
Mof_N 	N 	0.6675	0.3026	0.4116	-0.065
Mof_C 	C 	0.6045	0.2826	0.3479	-0.216
Mof_Cd	Cd	0.78403	0.13462	0.12613	0.373
Mof_N 	N 	0.7614	0.0786	0.9132	-0.077
Mof_N 	N 	0.7592	0.0786	0.3553	-0.074
Mof_N 	N 	0.6327	0.1692	0.133	-0.073
Mof_N 	N 	0.8242	0.1932	0.3484	-0.11
Mof_N 	N 	0.9508	0.1247	0.1686	-0.118
Mof_C 	C 	0.7563	0.0487	0.8075	-0.243
Mof_C 	C 	0.7555	0.0486	0.4616	-0.247
Mof_C 	C 	0.5812	0.1995	0.1766	-0.219
Mof_C 	C 	0.9262	0.192	0.371	-0.017
Mof_C 	C 	0.9829	0.1586	0.304	0.109
Mof_C 	C 	0.0888	0.159	0.3389	-0.098
Mof_N 	N 	0.8325	0.6974	0.4116	-0.071
Mof_C 	C 	0.8955	0.7174	0.3479	-0.175
Mof_Ni	Ni	0.25	0.5	0.8653	1.06
Mof_Ni	Ni	0.75	0	0.6347	1.041
Mof_Ni	Ni	0.5	0.25	0.25	1.066
Mof_Ni	Ni	-2.77651e-19	0.75	0.25	1.034
_end
