# CIF file generated by openbabel 3.1.0, see https://openbabel.org
data_I
_chemical_name_common 'image0'
_cell_length_a 17.0712
_cell_length_b 16.981
_cell_length_c 20.3832
_cell_angle_alpha 90
_cell_angle_beta 108.073
_cell_angle_gamma 90
_space_group_name_H-M_alt 'P 1'
_space_group_name_Hall 'P 1'
loop_
    _symmetry_equiv_pos_as_xyz
    x,y,z
loop_
    _atom_site_label
    _atom_site_type_symbol
    _atom_site_fract_x
    _atom_site_fract_y
    _atom_site_fract_z
    _atom_site_occupancy
    Eu1      Eu       0.49446    0.06227    0.58259    1.000
    C1       C        0.51280    0.30930    0.63880    1.000
    C2       C        0.44210    0.35280    0.62610    1.000
    H1       H        0.39110    0.33030    0.60350    1.000
    C3       C        0.44750    0.43060    0.64730    1.000
    C4       C        0.58860    0.42120    0.69510    1.000
    H2       H        0.63860    0.44440    0.71900    1.000
    C5       C        0.58870    0.34450    0.67220    1.000
    H3       H        0.63780    0.31720    0.67880    1.000
    C6       C        0.37340    0.48210    0.63440    1.000
    C7       C        0.30110    0.46870    0.58180    1.000
    H4       H        0.29690    0.42520    0.55320    1.000
    C8       C        0.23600    0.51840    0.57130    1.000
    C9       C        0.24510    0.58620    0.61230    1.000
    H5       H        0.20240    0.62250    0.60500    1.000
    C10      C        0.31840    0.59790    0.66340    1.000
    H6       H        0.32480    0.64260    0.69080    1.000
    C11      C        0.54810    0.65280    0.63660    1.000
    H7       H        0.56120    0.60410    0.62200    1.000
    C12      C        0.54960    0.71860    0.59710    1.000
    H8       H        0.56220    0.71440    0.55600    1.000
    C13      C        0.53190    0.79010    0.62030    1.000
    C14      C        0.51170    0.79520    0.68130    1.000
    H9       H        0.49890    0.84350    0.69700    1.000
    C15      C        0.51130    0.72790    0.71750    1.000
    C16      C        0.52770    0.86430    0.57800    1.000
    C17      C        0.15490    0.49990    0.51760    1.000
    C18      C        0.50920    0.22420    0.61960    1.000
    N1       N        0.51960    0.46340    0.68440    1.000
    N2       N        0.38110    0.54690    0.67500    1.000
    N3       N        0.52840    0.65670    0.69580    1.000
    O1       O        0.57100    0.18990    0.61210    1.000
    O2       O        0.44210    0.18830    0.61080    1.000
    O3       O        0.15510    0.45700    0.46730    1.000
    O4       O        0.08980    0.52570    0.52520    1.000
    O5       O        0.51160    0.92690    0.60490    1.000
    O6       O        0.54050    0.85890    0.52080    1.000
    Eu2      Eu       0.99446    0.56227    0.58259    1.000
    C19      C        0.01280    0.80930    0.63880    1.000
    C20      C        0.94210    0.85280    0.62610    1.000
    H10      H        0.89110    0.83030    0.60350    1.000
    C21      C        0.94750    0.93060    0.64730    1.000
    C22      C        0.08860    0.92120    0.69510    1.000
    H11      H        0.13860    0.94440    0.71900    1.000
    C23      C        0.08870    0.84450    0.67220    1.000
    H12      H        0.13780    0.81720    0.67880    1.000
    C24      C        0.87340    0.98210    0.63440    1.000
    C25      C        0.80110    0.96870    0.58180    1.000
    H13      H        0.79690    0.92520    0.55320    1.000
    C26      C        0.73600    0.01840    0.57130    1.000
    C27      C        0.74510    0.08620    0.61230    1.000
    H14      H        0.70240    0.12250    0.60500    1.000
    C28      C        0.81840    0.09790    0.66340    1.000
    H15      H        0.82480    0.14260    0.69080    1.000
    C29      C        0.04810    0.15280    0.63660    1.000
    H16      H        0.06120    0.10410    0.62200    1.000
    C30      C        0.04960    0.21860    0.59710    1.000
    H17      H        0.06220    0.21440    0.55600    1.000
    C31      C        0.03190    0.29010    0.62030    1.000
    C32      C        0.01170    0.29520    0.68130    1.000
    H18      H        0.99890    0.34350    0.69700    1.000
    C33      C        0.01130    0.22790    0.71750    1.000
    C34      C        0.02770    0.36430    0.57800    1.000
    C35      C        0.65490    0.99990    0.51760    1.000
    C36      C        0.00920    0.72420    0.61960    1.000
    N4       N        0.01960    0.96340    0.68440    1.000
    N5       N        0.88110    0.04690    0.67500    1.000
    N6       N        0.02840    0.15670    0.69580    1.000
    O7       O        0.07100    0.68990    0.61210    1.000
    O8       O        0.94210    0.68830    0.61080    1.000
    O9       O        0.65510    0.95700    0.46730    1.000
    O10      O        0.58980    0.02570    0.52520    1.000
    O11      O        0.01160    0.42690    0.60490    1.000
    O12      O        0.04050    0.35890    0.52080    1.000
    Eu3      Eu       0.50554    0.06227    0.91741    1.000
    C37      C        0.48720    0.30930    0.86120    1.000
    C38      C        0.55790    0.35280    0.87390    1.000
    H19      H        0.60890    0.33030    0.89650    1.000
    C39      C        0.55250    0.43060    0.85270    1.000
    C40      C        0.41140    0.42120    0.80490    1.000
    H20      H        0.36140    0.44440    0.78100    1.000
    C41      C        0.41130    0.34450    0.82780    1.000
    H21      H        0.36220    0.31720    0.82120    1.000
    C42      C        0.62660    0.48210    0.86560    1.000
    C43      C        0.69890    0.46870    0.91820    1.000
    H22      H        0.70310    0.42520    0.94680    1.000
    C44      C        0.76400    0.51840    0.92870    1.000
    C45      C        0.75490    0.58620    0.88770    1.000
    H23      H        0.79760    0.62250    0.89500    1.000
    C46      C        0.68160    0.59790    0.83660    1.000
    H24      H        0.67520    0.64260    0.80920    1.000
    C47      C        0.45190    0.65280    0.86340    1.000
    H25      H        0.43880    0.60410    0.87800    1.000
    C48      C        0.45040    0.71860    0.90290    1.000
    H26      H        0.43780    0.71440    0.94400    1.000
    C49      C        0.46810    0.79010    0.87970    1.000
    C50      C        0.48830    0.79520    0.81870    1.000
    H27      H        0.50110    0.84350    0.80300    1.000
    C51      C        0.48870    0.72790    0.78250    1.000
    C52      C        0.47230    0.86430    0.92200    1.000
    C53      C        0.84510    0.49990    0.98240    1.000
    C54      C        0.49080    0.22420    0.88040    1.000
    N7       N        0.48040    0.46340    0.81560    1.000
    N8       N        0.61890    0.54690    0.82500    1.000
    N9       N        0.47160    0.65670    0.80420    1.000
    O13      O        0.42900    0.18990    0.88790    1.000
    O14      O        0.55790    0.18830    0.88920    1.000
    O15      O        0.84490    0.45700    0.03270    1.000
    O16      O        0.91020    0.52570    0.97480    1.000
    O17      O        0.48840    0.92690    0.89510    1.000
    O18      O        0.45950    0.85890    0.97920    1.000
    Eu4      Eu       0.00554    0.56227    0.91741    1.000
    C55      C        0.98720    0.80930    0.86120    1.000
    C56      C        0.05790    0.85280    0.87390    1.000
    H28      H        0.10890    0.83030    0.89650    1.000
    C57      C        0.05250    0.93060    0.85270    1.000
    C58      C        0.91140    0.92120    0.80490    1.000
    H29      H        0.86140    0.94440    0.78100    1.000
    C59      C        0.91130    0.84450    0.82780    1.000
    H30      H        0.86220    0.81720    0.82120    1.000
    C60      C        0.12660    0.98210    0.86560    1.000
    C61      C        0.19890    0.96870    0.91820    1.000
    H31      H        0.20310    0.92520    0.94680    1.000
    C62      C        0.26400    0.01840    0.92870    1.000
    C63      C        0.25490    0.08620    0.88770    1.000
    H32      H        0.29760    0.12250    0.89500    1.000
    C64      C        0.18160    0.09790    0.83660    1.000
    H33      H        0.17520    0.14260    0.80920    1.000
    C65      C        0.95190    0.15280    0.86340    1.000
    H34      H        0.93880    0.10410    0.87800    1.000
    C66      C        0.95040    0.21860    0.90290    1.000
    H35      H        0.93780    0.21440    0.94400    1.000
    C67      C        0.96810    0.29010    0.87970    1.000
    C68      C        0.98830    0.29520    0.81870    1.000
    H36      H        0.00110    0.34350    0.80300    1.000
    C69      C        0.98870    0.22790    0.78250    1.000
    C70      C        0.97230    0.36430    0.92200    1.000
    C71      C        0.34510    0.99990    0.98240    1.000
    C72      C        0.99080    0.72420    0.88040    1.000
    N10      N        0.98040    0.96340    0.81560    1.000
    N11      N        0.11890    0.04690    0.82500    1.000
    N12      N        0.97160    0.15670    0.80420    1.000
    O19      O        0.92900    0.68990    0.88790    1.000
    O20      O        0.05790    0.68830    0.88920    1.000
    O21      O        0.34490    0.95700    0.03270    1.000
    O22      O        0.41020    0.02570    0.97480    1.000
    O23      O        0.98840    0.42690    0.89510    1.000
    O24      O        0.95950    0.35890    0.97920    1.000
    Eu5      Eu       0.50554    0.93773    0.41741    1.000
    C73      C        0.48720    0.69070    0.36120    1.000
    C74      C        0.55790    0.64720    0.37390    1.000
    H37      H        0.60890    0.66970    0.39650    1.000
    C75      C        0.55250    0.56940    0.35270    1.000
    C76      C        0.41140    0.57880    0.30490    1.000
    H38      H        0.36140    0.55560    0.28100    1.000
    C77      C        0.41130    0.65550    0.32780    1.000
    H39      H        0.36220    0.68280    0.32120    1.000
    C78      C        0.62660    0.51790    0.36560    1.000
    C79      C        0.69890    0.53130    0.41820    1.000
    H40      H        0.70310    0.57480    0.44680    1.000
    C80      C        0.76400    0.48160    0.42870    1.000
    C81      C        0.75490    0.41380    0.38770    1.000
    H41      H        0.79760    0.37750    0.39500    1.000
    C82      C        0.68160    0.40210    0.33660    1.000
    H42      H        0.67520    0.35740    0.30920    1.000
    C83      C        0.45190    0.34720    0.36340    1.000
    H43      H        0.43880    0.39590    0.37800    1.000
    C84      C        0.45040    0.28140    0.40290    1.000
    H44      H        0.43780    0.28560    0.44400    1.000
    C85      C        0.46810    0.20990    0.37970    1.000
    C86      C        0.48830    0.20480    0.31870    1.000
    H45      H        0.50110    0.15650    0.30300    1.000
    C87      C        0.48870    0.27210    0.28250    1.000
    C88      C        0.47230    0.13570    0.42200    1.000
    C89      C        0.84510    0.50010    0.48240    1.000
    C90      C        0.49080    0.77580    0.38040    1.000
    N13      N        0.48040    0.53660    0.31560    1.000
    N14      N        0.61890    0.45310    0.32500    1.000
    N15      N        0.47160    0.34330    0.30420    1.000
    O25      O        0.42900    0.81010    0.38790    1.000
    O26      O        0.55790    0.81170    0.38920    1.000
    O27      O        0.84490    0.54300    0.53270    1.000
    O28      O        0.91020    0.47430    0.47480    1.000
    O29      O        0.48840    0.07310    0.39510    1.000
    O30      O        0.45950    0.14110    0.47920    1.000
    Eu6      Eu       0.00554    0.43773    0.41741    1.000
    C91      C        0.98720    0.19070    0.36120    1.000
    C92      C        0.05790    0.14720    0.37390    1.000
    H46      H        0.10890    0.16970    0.39650    1.000
    C93      C        0.05250    0.06940    0.35270    1.000
    C94      C        0.91140    0.07880    0.30490    1.000
    H47      H        0.86140    0.05560    0.28100    1.000
    C95      C        0.91130    0.15550    0.32780    1.000
    H48      H        0.86220    0.18280    0.32120    1.000
    C96      C        0.12660    0.01790    0.36560    1.000
    C97      C        0.19890    0.03130    0.41820    1.000
    H49      H        0.20310    0.07480    0.44680    1.000
    C98      C        0.26400    0.98160    0.42870    1.000
    C99      C        0.25490    0.91380    0.38770    1.000
    H50      H        0.29760    0.87750    0.39500    1.000
    C100     C        0.18160    0.90210    0.33660    1.000
    H51      H        0.17520    0.85740    0.30920    1.000
    C101     C        0.95190    0.84720    0.36340    1.000
    H52      H        0.93880    0.89590    0.37800    1.000
    C102     C        0.95040    0.78140    0.40290    1.000
    H53      H        0.93780    0.78560    0.44400    1.000
    C103     C        0.96810    0.70990    0.37970    1.000
    C104     C        0.98830    0.70480    0.31870    1.000
    H54      H        0.00110    0.65650    0.30300    1.000
    C105     C        0.98870    0.77210    0.28250    1.000
    C106     C        0.97230    0.63570    0.42200    1.000
    C107     C        0.34510    0.00010    0.48240    1.000
    C108     C        0.99080    0.27580    0.38040    1.000
    N16      N        0.98040    0.03660    0.31560    1.000
    N17      N        0.11890    0.95310    0.32500    1.000
    N18      N        0.97160    0.84330    0.30420    1.000
    O31      O        0.92900    0.31010    0.38790    1.000
    O32      O        0.05790    0.31170    0.38920    1.000
    O33      O        0.34490    0.04300    0.53270    1.000
    O34      O        0.41020    0.97430    0.47480    1.000
    O35      O        0.98840    0.57310    0.39510    1.000
    O36      O        0.95950    0.64110    0.47920    1.000
    Eu7      Eu       0.49446    0.93773    0.08259    1.000
    C109     C        0.51280    0.69070    0.13880    1.000
    C110     C        0.44210    0.64720    0.12610    1.000
    H55      H        0.39110    0.66970    0.10350    1.000
    C111     C        0.44750    0.56940    0.14730    1.000
    C112     C        0.58860    0.57880    0.19510    1.000
    H56      H        0.63860    0.55560    0.21900    1.000
    C113     C        0.58870    0.65550    0.17220    1.000
    H57      H        0.63780    0.68280    0.17880    1.000
    C114     C        0.37340    0.51790    0.13440    1.000
    C115     C        0.30110    0.53130    0.08180    1.000
    H58      H        0.29690    0.57480    0.05320    1.000
    C116     C        0.23600    0.48160    0.07130    1.000
    C117     C        0.24510    0.41380    0.11230    1.000
    H59      H        0.20240    0.37750    0.10500    1.000
    C118     C        0.31840    0.40210    0.16340    1.000
    H60      H        0.32480    0.35740    0.19080    1.000
    C119     C        0.54810    0.34720    0.13660    1.000
    H61      H        0.56120    0.39590    0.12200    1.000
    C120     C        0.54960    0.28140    0.09710    1.000
    H62      H        0.56220    0.28560    0.05600    1.000
    C121     C        0.53190    0.20990    0.12030    1.000
    C122     C        0.51170    0.20480    0.18130    1.000
    H63      H        0.49890    0.15650    0.19700    1.000
    C123     C        0.51130    0.27210    0.21750    1.000
    C124     C        0.52770    0.13570    0.07800    1.000
    C125     C        0.15490    0.50010    0.01760    1.000
    C126     C        0.50920    0.77580    0.11960    1.000
    N19      N        0.51960    0.53660    0.18440    1.000
    N20      N        0.38110    0.45310    0.17500    1.000
    N21      N        0.52840    0.34330    0.19580    1.000
    O37      O        0.57100    0.81010    0.11210    1.000
    O38      O        0.44210    0.81170    0.11080    1.000
    O39      O        0.15510    0.54300    0.96730    1.000
    O40      O        0.08980    0.47430    0.02520    1.000
    O41      O        0.51160    0.07310    0.10490    1.000
    O42      O        0.54050    0.14110    0.02080    1.000
    Eu8      Eu       0.99446    0.43773    0.08259    1.000
    C127     C        0.01280    0.19070    0.13880    1.000
    C128     C        0.94210    0.14720    0.12610    1.000
    H64      H        0.89110    0.16970    0.10350    1.000
    C129     C        0.94750    0.06940    0.14730    1.000
    C130     C        0.08860    0.07880    0.19510    1.000
    H65      H        0.13860    0.05560    0.21900    1.000
    C131     C        0.08870    0.15550    0.17220    1.000
    H66      H        0.13780    0.18280    0.17880    1.000
    C132     C        0.87340    0.01790    0.13440    1.000
    C133     C        0.80110    0.03130    0.08180    1.000
    H67      H        0.79690    0.07480    0.05320    1.000
    C134     C        0.73600    0.98160    0.07130    1.000
    C135     C        0.74510    0.91380    0.11230    1.000
    H68      H        0.70240    0.87750    0.10500    1.000
    C136     C        0.81840    0.90210    0.16340    1.000
    H69      H        0.82480    0.85740    0.19080    1.000
    C137     C        0.04810    0.84720    0.13660    1.000
    H70      H        0.06120    0.89590    0.12200    1.000
    C138     C        0.04960    0.78140    0.09710    1.000
    H71      H        0.06220    0.78560    0.05600    1.000
    C139     C        0.03190    0.70990    0.12030    1.000
    C140     C        0.01170    0.70480    0.18130    1.000
    H72      H        0.99890    0.65650    0.19700    1.000
    C141     C        0.01130    0.77210    0.21750    1.000
    C142     C        0.02770    0.63570    0.07800    1.000
    C143     C        0.65490    0.00010    0.01760    1.000
    C144     C        0.00920    0.27580    0.11960    1.000
    N22      N        0.01960    0.03660    0.18440    1.000
    N23      N        0.88110    0.95310    0.17500    1.000
    N24      N        0.02840    0.84330    0.19580    1.000
    O43      O        0.07100    0.31010    0.11210    1.000
    O44      O        0.94210    0.31170    0.11080    1.000
    O45      O        0.65510    0.04300    0.96730    1.000
    O46      O        0.58980    0.97430    0.02520    1.000
    O47      O        0.01160    0.57310    0.10490    1.000
    O48      O        0.04050    0.64110    0.02080    1.000
    Zn1      Zn       0.50000    0.55994    0.75000    1.000
    Zn2      Zn       0.00000    0.05994    0.75000    1.000
    Zn3      Zn       0.50000    0.44006    0.25000    1.000
    Zn4      Zn       0.00000    0.94006    0.25000    1.000
