data_functionalizedCrystal
_audit_creation_method	'EQeq! by Chris Wilmer'
_symmetry_space_group_name_H-M	'P1'
_symmetry_Int_Tables_number	1
_symmetry_cell_setting	triclinic
loop_
_symmetry_equiv_pos_as_xyz
  x,y,z
_cell_length_a	28.691
_cell_length_b	29.061
_cell_length_c	12.4918
_cell_angle_alpha	90
_cell_angle_beta	90
_cell_angle_gamma	90
loop_
_atom_site_label
_atom_site_type_symbol
_atom_site_fract_x
_atom_site_fract_y
_atom_site_fract_z
_atom_site_charge
Mof_O 	O 	0.69617	0.4907	0.81062	-1.005
Mof_O 	O 	0.74503	0.44708	0.44129	-1.017
Mof_O 	O 	0.65472	0.44146	0.9013	-0.586
Mof_O 	O 	0.69651	0.40637	0.34515	-0.701
Mof_C 	C 	0.66367	0.42836	0.7147	-0.288
Mof_C 	C 	0.62114	0.36951	0.62046	-0.057
Mof_C 	C 	0.68921	0.43755	0.6235	0.251
Mof_H 	H 	0.7124	0.4609	0.6245	-0.185
Mof_C 	C 	0.68126	0.41316	0.53169	-0.286
Mof_C 	C 	0.53792	0.34678	0.61942	0.07
Mof_C 	C 	0.598	0.28754	0.61641	0.07
Mof_C 	C 	0.5842	0.3329	0.61844	-0.09
Mof_C 	C 	0.62989	0.39408	0.71296	0.074
Mof_H 	H 	0.6126	0.3875	0.776	0.013
Mof_C 	C 	0.64689	0.37907	0.52918	0.068
Mof_H 	H 	0.6412	0.3625	0.465	-0.004
Mof_C 	C 	0.64588	0.2731	0.61814	-0.077
Mof_H 	H 	0.6725	0.2925	0.6191	0.046
Mof_C 	C 	0.52343	0.39367	0.62003	-0.079
Mof_H 	H 	0.5431	0.4199	0.6204	0.045
Mof_C 	C 	0.67219	0.45531	0.81713	0.577
Mof_C 	C 	0.7094	0.42301	0.43197	0.545
Mof_O 	O 	0.19617	0.9907	0.31062	-0.945
Mof_O 	O 	0.24503	0.94708	0.94129	-0.873
Mof_O 	O 	0.15472	0.94146	0.4013	-0.608
Mof_O 	O 	0.19651	0.90637	0.84515	-0.697
Mof_C 	C 	0.16367	0.92836	0.2147	-0.227
Mof_C 	C 	0.12114	0.86951	0.12046	0.046
Mof_C 	C 	0.18921	0.93755	0.1235	0.183
Mof_H 	H 	0.2124	0.9609	0.1245	-0.136
Mof_C 	C 	0.18126	0.91316	0.03169	-0.248
Mof_C 	C 	0.03792	0.84678	0.11942	0.083
Mof_C 	C 	0.098	0.78754	0.11641	0.076
Mof_C 	C 	0.0842	0.8329	0.11844	-0.145
Mof_C 	C 	0.12989	0.89408	0.21296	0
Mof_H 	H 	0.1126	0.8875	0.276	0.03
Mof_C 	C 	0.14689	0.87907	0.02918	-0.168
Mof_H 	H 	0.1412	0.8625	0.965	0.162
Mof_C 	C 	0.14588	0.7731	0.11814	-0.094
Mof_H 	H 	0.1725	0.7925	0.1191	0.038
Mof_C 	C 	0.02343	0.89367	0.12003	-0.112
Mof_H 	H 	0.0431	0.9199	0.1204	0.048
Mof_C 	C 	0.17219	0.95531	0.31713	0.535
Mof_C 	C 	0.2094	0.92301	0.93197	0.557
Mof_O 	O 	0.30383	0.0093	0.81062	-1.052
Mof_O 	O 	0.25497	0.05292	0.44129	-0.967
Mof_O 	O 	0.34528	0.05854	0.9013	-0.567
Mof_O 	O 	0.30349	0.09363	0.34515	-0.678
Mof_C 	C 	0.33633	0.07164	0.7147	-0.311
Mof_C 	C 	0.37886	0.13049	0.62046	-0.063
Mof_C 	C 	0.31079	0.06245	0.6235	0.257
Mof_H 	H 	0.2876	0.0391	0.6245	-0.202
Mof_C 	C 	0.31874	0.08684	0.53169	-0.29
Mof_C 	C 	0.46208	0.15322	0.61942	0.067
Mof_C 	C 	0.402	0.21246	0.61641	0.07
Mof_C 	C 	0.4158	0.1671	0.61844	-0.089
Mof_C 	C 	0.37011	0.10592	0.71296	0.083
Mof_H 	H 	0.3874	0.1125	0.776	0.007
Mof_C 	C 	0.35311	0.12093	0.52918	0.069
Mof_H 	H 	0.3588	0.1375	0.465	-0.006
Mof_C 	C 	0.35412	0.2269	0.61814	-0.077
Mof_H 	H 	0.3275	0.2075	0.6191	0.047
Mof_C 	C 	0.47657	0.10633	0.62003	-0.081
Mof_H 	H 	0.4569	0.0801	0.6204	0.035
Mof_C 	C 	0.32781	0.04469	0.81713	0.603
Mof_C 	C 	0.2906	0.07699	0.43197	0.521
Mof_O 	O 	0.80383	0.5093	0.31062	-1.068
Mof_O 	O 	0.75497	0.55292	0.94129	-0.923
Mof_O 	O 	0.84528	0.55854	0.4013	-0.678
Mof_O 	O 	0.80349	0.59363	0.84515	-0.684
Mof_C 	C 	0.83633	0.57164	0.2147	-0.268
Mof_C 	C 	0.87886	0.63049	0.12046	0.026
Mof_C 	C 	0.81079	0.56245	0.1235	0.221
Mof_H 	H 	0.7876	0.5391	0.1245	-0.181
Mof_C 	C 	0.81874	0.58684	0.03169	-0.294
Mof_C 	C 	0.96208	0.65322	0.11942	0.077
Mof_C 	C 	0.902	0.71246	0.11641	0.074
Mof_C 	C 	0.9158	0.6671	0.11844	-0.136
Mof_C 	C 	0.87011	0.60592	0.21296	0.023
Mof_H 	H 	0.8874	0.6125	0.276	0.018
Mof_C 	C 	0.85311	0.62093	0.02918	-0.149
Mof_H 	H 	0.8588	0.6375	0.965	0.154
Mof_C 	C 	0.85412	0.7269	0.11814	-0.09
Mof_H 	H 	0.8275	0.7075	0.1191	0.037
Mof_C 	C 	0.97657	0.60633	0.12003	-0.073
Mof_H 	H 	0.9569	0.5801	0.1204	0.025
Mof_C 	C 	0.82781	0.54469	0.31713	0.569
Mof_C 	C 	0.7906	0.57699	0.93197	0.591
Mof_O 	O 	0.30383	0.9907	0.18938	-0.906
Mof_O 	O 	0.25497	0.94708	0.55871	-0.97
Mof_O 	O 	0.34528	0.94146	0.0987	-0.594
Mof_O 	O 	0.30349	0.90637	0.65485	-0.694
Mof_C 	C 	0.33633	0.92836	0.2853	-0.261
Mof_C 	C 	0.37886	0.86951	0.37954	-0.039
Mof_C 	C 	0.31079	0.93755	0.3765	0.213
Mof_H 	H 	0.2876	0.9609	0.3755	-0.14
Mof_C 	C 	0.31874	0.91316	0.46831	-0.236
Mof_C 	C 	0.46208	0.84678	0.38058	0.073
Mof_C 	C 	0.402	0.78754	0.38359	0.071
Mof_C 	C 	0.4158	0.8329	0.38156	-0.097
Mof_C 	C 	0.37011	0.89408	0.28704	0.054
Mof_H 	H 	0.3874	0.8875	0.224	0.002
Mof_C 	C 	0.35311	0.87907	0.47082	0.046
Mof_H 	H 	0.3588	0.8625	0.535	0.021
Mof_C 	C 	0.35412	0.7731	0.38186	-0.081
Mof_H 	H 	0.3275	0.7925	0.3809	0.045
Mof_C 	C 	0.47657	0.89367	0.37997	-0.078
Mof_H 	H 	0.4569	0.9199	0.3796	0.053
Mof_C 	C 	0.32781	0.95531	0.18287	0.547
Mof_C 	C 	0.2906	0.92301	0.56803	0.51
Mof_O 	O 	0.80383	0.4907	0.68938	-1.078
Mof_O 	O 	0.75497	0.44708	0.05871	-0.974
Mof_O 	O 	0.84528	0.44146	0.5987	-0.688
Mof_O 	O 	0.80349	0.40637	0.15485	-0.685
Mof_C 	C 	0.83633	0.42836	0.7853	-0.306
Mof_C 	C 	0.87886	0.36951	0.87954	-0.133
Mof_C 	C 	0.81079	0.43755	0.8765	0.245
Mof_H 	H 	0.7876	0.4609	0.8755	-0.152
Mof_C 	C 	0.81874	0.41316	0.96831	-0.229
Mof_C 	C 	0.96208	0.34678	0.88058	0.067
Mof_C 	C 	0.902	0.28754	0.88359	0.067
Mof_C 	C 	0.9158	0.3329	0.88156	-0.05
Mof_C 	C 	0.87011	0.39408	0.78704	0.116
Mof_H 	H 	0.8874	0.3875	0.724	-0.016
Mof_C 	C 	0.85311	0.37907	0.97082	0.267
Mof_H 	H 	0.8588	0.3625	0.035	-0.144
Mof_C 	C 	0.85412	0.2731	0.88186	-0.066
Mof_H 	H 	0.8275	0.2925	0.8809	0.054
Mof_C 	C 	0.97657	0.39367	0.87997	-0.05
Mof_H 	H 	0.9569	0.4199	0.8796	0.047
Mof_C 	C 	0.82781	0.45531	0.68287	0.594
Mof_C 	C 	0.7906	0.42301	0.06803	0.431
Mof_O 	O 	0.69617	0.5093	0.18938	-1.032
Mof_O 	O 	0.74503	0.55292	0.55871	-1.021
Mof_O 	O 	0.65472	0.55854	0.0987	-0.669
Mof_O 	O 	0.69651	0.59363	0.65485	-0.683
Mof_C 	C 	0.66367	0.57164	0.2853	-0.304
Mof_C 	C 	0.62114	0.63049	0.37954	-0.061
Mof_C 	C 	0.68921	0.56245	0.3765	0.251
Mof_H 	H 	0.7124	0.5391	0.3755	-0.184
Mof_C 	C 	0.68126	0.58684	0.46831	-0.28
Mof_C 	C 	0.53792	0.65322	0.38058	0.067
Mof_C 	C 	0.598	0.71246	0.38359	0.068
Mof_C 	C 	0.5842	0.6671	0.38156	-0.091
Mof_C 	C 	0.62989	0.60592	0.28704	0.077
Mof_H 	H 	0.6126	0.6125	0.224	-0.011
Mof_C 	C 	0.64689	0.62093	0.47082	0.068
Mof_H 	H 	0.6412	0.6375	0.535	0.01
Mof_C 	C 	0.64588	0.7269	0.38186	-0.078
Mof_H 	H 	0.6725	0.7075	0.3809	0.044
Mof_C 	C 	0.52343	0.60633	0.37997	-0.081
Mof_H 	H 	0.5431	0.5801	0.3796	0.04
Mof_C 	C 	0.67219	0.54469	0.18287	0.581
Mof_C 	C 	0.7094	0.57699	0.56803	0.541
Mof_O 	O 	0.19617	0.0093	0.68938	-1.125
Mof_O 	O 	0.24503	0.05292	0.05871	-0.922
Mof_O 	O 	0.15472	0.05854	0.5987	-0.672
Mof_O 	O 	0.19651	0.09363	0.15485	-0.664
Mof_C 	C 	0.16367	0.07164	0.7853	-0.331
Mof_C 	C 	0.12114	0.13049	0.87954	-0.14
Mof_C 	C 	0.18921	0.06245	0.8765	0.252
Mof_H 	H 	0.2124	0.0391	0.8755	-0.168
Mof_C 	C 	0.18126	0.08684	0.96831	-0.232
Mof_C 	C 	0.03792	0.15322	0.88058	0.066
Mof_C 	C 	0.098	0.21246	0.88359	0.065
Mof_C 	C 	0.0842	0.1671	0.88156	-0.051
Mof_C 	C 	0.12989	0.10592	0.78704	0.125
Mof_H 	H 	0.1126	0.1125	0.724	-0.023
Mof_C 	C 	0.14689	0.12093	0.97082	0.269
Mof_H 	H 	0.1412	0.1375	0.035	-0.149
Mof_C 	C 	0.14588	0.2269	0.88186	-0.066
Mof_H 	H 	0.1725	0.2075	0.8809	0.055
Mof_C 	C 	0.02343	0.10633	0.87997	-0.094
Mof_H 	H 	0.0431	0.0801	0.8796	0.047
Mof_C 	C 	0.17219	0.04469	0.68287	0.621
Mof_C 	C 	0.2094	0.07699	0.06803	0.406
Mof_O 	O 	0.30383	0.5093	0.18938	-1.032
Mof_O 	O 	0.25497	0.55292	0.55871	-1.021
Mof_O 	O 	0.34528	0.55854	0.0987	-0.669
Mof_O 	O 	0.30349	0.59363	0.65485	-0.683
Mof_C 	C 	0.33633	0.57164	0.2853	-0.303
Mof_C 	C 	0.37886	0.63049	0.37954	-0.061
Mof_C 	C 	0.31079	0.56245	0.3765	0.251
Mof_H 	H 	0.2876	0.5391	0.3755	-0.183
Mof_C 	C 	0.31874	0.58684	0.46831	-0.28
Mof_C 	C 	0.46208	0.65322	0.38058	0.067
Mof_C 	C 	0.402	0.71246	0.38359	0.068
Mof_C 	C 	0.4158	0.6671	0.38156	-0.091
Mof_C 	C 	0.37011	0.60592	0.28704	0.077
Mof_H 	H 	0.3874	0.6125	0.224	-0.011
Mof_C 	C 	0.35311	0.62093	0.47082	0.068
Mof_H 	H 	0.3588	0.6375	0.535	0.01
Mof_C 	C 	0.35412	0.7269	0.38186	-0.078
Mof_H 	H 	0.3275	0.7075	0.3809	0.044
Mof_C 	C 	0.47657	0.60633	0.37997	-0.081
Mof_H 	H 	0.4569	0.5801	0.3796	0.04
Mof_C 	C 	0.32781	0.54469	0.18287	0.581
Mof_C 	C 	0.2906	0.57699	0.56803	0.54
Mof_O 	O 	0.80383	0.0093	0.68938	-1.125
Mof_O 	O 	0.75497	0.05292	0.05871	-0.922
Mof_O 	O 	0.84528	0.05854	0.5987	-0.671
Mof_O 	O 	0.80349	0.09363	0.15485	-0.663
Mof_C 	C 	0.83633	0.07164	0.7853	-0.329
Mof_C 	C 	0.87886	0.13049	0.87954	-0.14
Mof_C 	C 	0.81079	0.06245	0.8765	0.252
Mof_H 	H 	0.7876	0.0391	0.8755	-0.168
Mof_C 	C 	0.81874	0.08684	0.96831	-0.232
Mof_C 	C 	0.96208	0.15322	0.88058	0.065
Mof_C 	C 	0.902	0.21246	0.88359	0.066
Mof_C 	C 	0.9158	0.1671	0.88156	-0.048
Mof_C 	C 	0.87011	0.10592	0.78704	0.126
Mof_H 	H 	0.8874	0.1125	0.724	-0.022
Mof_C 	C 	0.85311	0.12093	0.97082	0.269
Mof_H 	H 	0.8588	0.1375	0.035	-0.147
Mof_C 	C 	0.85412	0.2269	0.88186	-0.066
Mof_H 	H 	0.8275	0.2075	0.8809	0.055
Mof_C 	C 	0.97657	0.10633	0.87997	-0.052
Mof_H 	H 	0.9569	0.0801	0.8796	0.038
Mof_C 	C 	0.82781	0.04469	0.68287	0.621
Mof_C 	C 	0.7906	0.07699	0.06803	0.406
Mof_O 	O 	0.69617	0.9907	0.18938	-0.906
Mof_O 	O 	0.74503	0.94708	0.55871	-0.971
Mof_O 	O 	0.65472	0.94146	0.0987	-0.595
Mof_O 	O 	0.69651	0.90637	0.65485	-0.694
Mof_C 	C 	0.66367	0.92836	0.2853	-0.261
Mof_C 	C 	0.62114	0.86951	0.37954	-0.039
Mof_C 	C 	0.68921	0.93755	0.3765	0.214
Mof_H 	H 	0.7124	0.9609	0.3755	-0.14
Mof_C 	C 	0.68126	0.91316	0.46831	-0.236
Mof_C 	C 	0.53792	0.84678	0.38058	0.073
Mof_C 	C 	0.598	0.78754	0.38359	0.071
Mof_C 	C 	0.5842	0.8329	0.38156	-0.097
Mof_C 	C 	0.62989	0.89408	0.28704	0.055
Mof_H 	H 	0.6126	0.8875	0.224	0.002
Mof_C 	C 	0.64689	0.87907	0.47082	0.046
Mof_H 	H 	0.6412	0.8625	0.535	0.021
Mof_C 	C 	0.64588	0.7731	0.38186	-0.081
Mof_H 	H 	0.6725	0.7925	0.3809	0.045
Mof_C 	C 	0.52343	0.89367	0.37997	-0.078
Mof_H 	H 	0.5431	0.9199	0.3796	0.053
Mof_C 	C 	0.67219	0.95531	0.18287	0.547
Mof_C 	C 	0.7094	0.92301	0.56803	0.51
Mof_O 	O 	0.19617	0.4907	0.68938	-1.078
Mof_O 	O 	0.24503	0.44708	0.05871	-0.974
Mof_O 	O 	0.15472	0.44146	0.5987	-0.69
Mof_O 	O 	0.19651	0.40637	0.15485	-0.686
Mof_C 	C 	0.16367	0.42836	0.7853	-0.307
Mof_C 	C 	0.12114	0.36951	0.87954	-0.133
Mof_C 	C 	0.18921	0.43755	0.8765	0.245
Mof_H 	H 	0.2124	0.4609	0.8755	-0.152
Mof_C 	C 	0.18126	0.41316	0.96831	-0.23
Mof_C 	C 	0.03792	0.34678	0.88058	0.068
Mof_C 	C 	0.098	0.28754	0.88359	0.066
Mof_C 	C 	0.0842	0.3329	0.88156	-0.053
Mof_C 	C 	0.12989	0.39408	0.78704	0.116
Mof_H 	H 	0.1126	0.3875	0.724	-0.017
Mof_C 	C 	0.14689	0.37907	0.97082	0.267
Mof_H 	H 	0.1412	0.3625	0.035	-0.145
Mof_C 	C 	0.14588	0.2731	0.88186	-0.067
Mof_H 	H 	0.1725	0.2925	0.8809	0.054
Mof_C 	C 	0.02343	0.39367	0.87997	-0.092
Mof_H 	H 	0.0431	0.4199	0.8796	0.057
Mof_C 	C 	0.17219	0.45531	0.68287	0.594
Mof_C 	C 	0.2094	0.42301	0.06803	0.431
Mof_O 	O 	0.69617	0.0093	0.81062	-1.052
Mof_O 	O 	0.74503	0.05292	0.44129	-0.967
Mof_O 	O 	0.65472	0.05854	0.9013	-0.567
Mof_O 	O 	0.69651	0.09363	0.34515	-0.679
Mof_C 	C 	0.66367	0.07164	0.7147	-0.312
Mof_C 	C 	0.62114	0.13049	0.62046	-0.063
Mof_C 	C 	0.68921	0.06245	0.6235	0.258
Mof_H 	H 	0.7124	0.0391	0.6245	-0.202
Mof_C 	C 	0.68126	0.08684	0.53169	-0.29
Mof_C 	C 	0.53792	0.15322	0.61942	0.067
Mof_C 	C 	0.598	0.21246	0.61641	0.07
Mof_C 	C 	0.5842	0.1671	0.61844	-0.089
Mof_C 	C 	0.62989	0.10592	0.71296	0.084
Mof_H 	H 	0.6126	0.1125	0.776	0.007
Mof_C 	C 	0.64689	0.12093	0.52918	0.069
Mof_H 	H 	0.6412	0.1375	0.465	-0.006
Mof_C 	C 	0.64588	0.2269	0.61814	-0.077
Mof_H 	H 	0.6725	0.2075	0.6191	0.047
Mof_C 	C 	0.52343	0.10633	0.62003	-0.081
Mof_H 	H 	0.5431	0.0801	0.6204	0.035
Mof_C 	C 	0.67219	0.04469	0.81713	0.604
Mof_C 	C 	0.7094	0.07699	0.43197	0.522
Mof_O 	O 	0.19617	0.5093	0.31062	-1.068
Mof_O 	O 	0.24503	0.55292	0.94129	-0.923
Mof_O 	O 	0.15472	0.55854	0.4013	-0.68
Mof_O 	O 	0.19651	0.59363	0.84515	-0.685
Mof_C 	C 	0.16367	0.57164	0.2147	-0.269
Mof_C 	C 	0.12114	0.63049	0.12046	0.026
Mof_C 	C 	0.18921	0.56245	0.1235	0.221
Mof_H 	H 	0.2124	0.5391	0.1245	-0.181
Mof_C 	C 	0.18126	0.58684	0.03169	-0.295
Mof_C 	C 	0.03792	0.65322	0.11942	0.077
Mof_C 	C 	0.098	0.71246	0.11641	0.073
Mof_C 	C 	0.0842	0.6671	0.11844	-0.139
Mof_C 	C 	0.12989	0.60592	0.21296	0.023
Mof_H 	H 	0.1126	0.6125	0.276	0.017
Mof_C 	C 	0.14689	0.62093	0.02918	-0.149
Mof_H 	H 	0.1412	0.6375	0.965	0.153
Mof_C 	C 	0.14588	0.7269	0.11814	-0.091
Mof_H 	H 	0.1725	0.7075	0.1191	0.037
Mof_C 	C 	0.02343	0.60633	0.12003	-0.115
Mof_H 	H 	0.0431	0.5801	0.1204	0.035
Mof_C 	C 	0.17219	0.54469	0.31713	0.569
Mof_C 	C 	0.2094	0.57699	0.93197	0.591
Mof_O 	O 	0.30383	0.4907	0.81062	-1.006
Mof_O 	O 	0.25497	0.44708	0.44129	-1.018
Mof_O 	O 	0.34528	0.44146	0.9013	-0.587
Mof_O 	O 	0.30349	0.40637	0.34515	-0.701
Mof_C 	C 	0.33633	0.42836	0.7147	-0.287
Mof_C 	C 	0.37886	0.36951	0.62046	-0.057
Mof_C 	C 	0.31079	0.43755	0.6235	0.25
Mof_H 	H 	0.2876	0.4609	0.6245	-0.185
Mof_C 	C 	0.31874	0.41316	0.53169	-0.286
Mof_C 	C 	0.46208	0.34678	0.61942	0.07
Mof_C 	C 	0.402	0.28754	0.61641	0.07
Mof_C 	C 	0.4158	0.3329	0.61844	-0.091
Mof_C 	C 	0.37011	0.39408	0.71296	0.074
Mof_H 	H 	0.3874	0.3875	0.776	0.013
Mof_C 	C 	0.35311	0.37907	0.52918	0.068
Mof_H 	H 	0.3588	0.3625	0.465	-0.004
Mof_C 	C 	0.35412	0.2731	0.61814	-0.077
Mof_H 	H 	0.3275	0.2925	0.6191	0.046
Mof_C 	C 	0.47657	0.39367	0.62003	-0.079
Mof_H 	H 	0.4569	0.4199	0.6204	0.045
Mof_C 	C 	0.32781	0.45531	0.81713	0.577
Mof_C 	C 	0.2906	0.42301	0.43197	0.544
Mof_O 	O 	0.80383	0.9907	0.31062	-0.945
Mof_O 	O 	0.75497	0.94708	0.94129	-0.873
Mof_O 	O 	0.84528	0.94146	0.4013	-0.607
Mof_O 	O 	0.80349	0.90637	0.84515	-0.695
Mof_C 	C 	0.83633	0.92836	0.2147	-0.225
Mof_C 	C 	0.87886	0.86951	0.12046	0.046
Mof_C 	C 	0.81079	0.93755	0.1235	0.183
Mof_H 	H 	0.7876	0.9609	0.1245	-0.136
Mof_C 	C 	0.81874	0.91316	0.03169	-0.247
Mof_C 	C 	0.96208	0.84678	0.11942	0.082
Mof_C 	C 	0.902	0.78754	0.11641	0.078
Mof_C 	C 	0.9158	0.8329	0.11844	-0.142
Mof_C 	C 	0.87011	0.89408	0.21296	0.001
Mof_H 	H 	0.8874	0.8875	0.276	0.031
Mof_C 	C 	0.85311	0.87907	0.02918	-0.168
Mof_H 	H 	0.8588	0.8625	0.965	0.163
Mof_C 	C 	0.85412	0.7731	0.11814	-0.093
Mof_H 	H 	0.8275	0.7925	0.1191	0.038
Mof_C 	C 	0.97657	0.89367	0.12003	-0.07
Mof_H 	H 	0.9569	0.9199	0.1204	0.039
Mof_C 	C 	0.82781	0.95531	0.31713	0.535
Mof_C 	C 	0.7906	0.92301	0.93197	0.556
Mof_Co	Co	0.5	0.25	0.61796	1.099
Mof_Co	Co	-5.26064e-33	0.75	0.11796	1.091
Mof_Co	Co	0.5	0.75	0.38204	1.099
Mof_Co	Co	-8.25469e-33	0.25	0.88204	1.099
Mof_Na	Na	0.80072	0.5	0.5	2.724
Mof_Na	Na	0.30072	0	-0	1.933
Mof_Na	Na	0.19928	0	0.5	2.371
Mof_Na	Na	0.69928	0.5	-0	2.29
Mof_Na	Na	0.19928	0.5	0.5	2.719
Mof_Na	Na	0.69928	0	-0	1.933
Mof_Na	Na	0.80072	0	0.5	2.376
Mof_Na	Na	0.30072	0.5	-0	2.291
Mof_Na	Na	0.75	0.54295	0.75	2.976
Mof_Na	Na	0.25	0.95705	0.75	3.314
Mof_Na	Na	0.25	0.04295	0.25	2.673
Mof_Na	Na	0.75	0.45705	0.25	2.887
Mof_Na	Na	0.25	0.45705	0.25	2.886
Mof_Na	Na	0.75	0.04295	0.25	2.674
Mof_Na	Na	0.75	0.95705	0.75	3.315
Mof_Na	Na	0.25	0.54295	0.75	2.975
Mof_N 	N 	0.5	0.31795	0.62002	-0.282
Mof_N 	N 	-2.83363e-33	0.81795	0.12002	-0.298
Mof_N 	N 	0.5	0.18205	0.62002	-0.282
Mof_N 	N 	-2.83363e-33	0.68205	0.12002	-0.297
Mof_N 	N 	0.5	0.81795	0.37998	-0.284
Mof_N 	N 	-3.41076e-33	0.31795	0.87998	-0.283
Mof_N 	N 	0.5	0.68205	0.37998	-0.283
Mof_N 	N 	-8.25806e-33	0.18205	0.87998	-0.283
Mof_N 	N 	0.56891	0.25	0.61572	-0.282
Mof_N 	N 	0.06891	0.75	0.11572	-0.292
Mof_N 	N 	0.43109	0.25	0.61572	-0.282
Mof_N 	N 	0.93109	0.75	0.11572	-0.288
Mof_N 	N 	0.43109	0.75	0.38428	-0.283
Mof_N 	N 	0.93109	0.25	0.88428	-0.273
Mof_N 	N 	0.56891	0.75	0.38428	-0.283
Mof_N 	N 	0.06891	0.25	0.88428	-0.277
_end
