data_functionalizedCrystal
_audit_creation_method	'EQeq! by Chris Wilmer'
_symmetry_space_group_name_H-M	'P1'
_symmetry_Int_Tables_number	1
_symmetry_cell_setting	triclinic
loop_
_symmetry_equiv_pos_as_xyz
  x,y,z
_cell_length_a	11.6525
_cell_length_b	18.3554
_cell_length_c	18.3554
_cell_angle_alpha	84.2176
_cell_angle_beta	71.4934
_cell_angle_gamma	71.4935
loop_
_atom_site_label
_atom_site_type_symbol
_atom_site_fract_x
_atom_site_fract_y
_atom_site_fract_z
_atom_site_charge
Mof_Cu	Cu	0.41496	0.59523	0.25743	0.863
Mof_Cu	Cu	0.76762	0.90477	0.24257	0.877
Mof_Cu	Cu	0.67239	0.74257	0.09523	0.862
Mof_Cu	Cu	0.01019	0.75743	0.40477	0.846
Mof_Cu	Cu	0.58504	0.40477	0.74257	0.874
Mof_Cu	Cu	0.23238	0.09523	0.75743	0.86
Mof_Cu	Cu	0.32761	0.25743	0.90477	0.877
Mof_Cu	Cu	0.98981	0.24257	0.59523	0.892
Mof_Cu	Cu	0.5	0.5	0.5	0.918
Mof_Cu	Cu	-0	0	-0	0.835
Mof_Cu	Cu	3.2202e-17	0.5	-0	0.861
Mof_Cu	Cu	2.95432e-17	0	0.5	0.866
Mof_H 	H 	0.9726	0.756	0.5698	0.114
Mof_H 	H 	0.9662	0.7273	0.6961	0.107
Mof_H 	H 	0.1298	0.631	0.7278	0.025
Mof_H 	H 	0.311	0.5675	0.6305	0.054
Mof_H 	H 	0.7984	0.744	0.9302	0.086
Mof_H 	H 	0.8896	0.7727	0.8039	0.018
Mof_H 	H 	0.9886	0.869	0.7722	0.11
Mof_H 	H 	0.009	0.9325	0.8695	-0.02
Mof_H 	H 	0.5424	0.4302	0.256	0.04
Mof_H 	H 	0.6623	0.3039	0.2273	0.032
Mof_H 	H 	0.8576	0.2722	0.131	0.067
Mof_H 	H 	0.9415	0.3695	0.0675	0.059
Mof_H 	H 	0.7286	0.0698	0.244	0.021
Mof_H 	H 	0.6935	0.1961	0.2727	0.037
Mof_H 	H 	0.7608	0.2278	0.369	0.049
Mof_H 	H 	0.8785	0.1305	0.4325	0.051
Mof_H 	H 	0.0274	0.244	0.4302	-0.028
Mof_H 	H 	0.0338	0.2727	0.3039	-0.042
Mof_H 	H 	0.8702	0.369	0.2722	0.08
Mof_H 	H 	0.689	0.4325	0.3695	0.042
Mof_H 	H 	0.2016	0.256	0.0698	-0.003
Mof_H 	H 	0.1104	0.2273	0.1961	0.057
Mof_H 	H 	0.0114	0.131	0.2278	-0.015
Mof_H 	H 	0.991	0.0675	0.1305	0.139
Mof_H 	H 	0.4576	0.5698	0.744	0.047
Mof_H 	H 	0.3377	0.6961	0.7727	0.039
Mof_H 	H 	0.1424	0.7278	0.869	0.038
Mof_H 	H 	0.0585	0.6305	0.9325	0.047
Mof_H 	H 	0.2714	0.9302	0.756	0.066
Mof_H 	H 	0.3065	0.8039	0.7273	0.034
Mof_H 	H 	0.2392	0.7722	0.631	0.053
Mof_H 	H 	0.1215	0.8695	0.5675	0.052
Mof_C 	C 	0.36044	0.60145	0.41087	0.135
Mof_C 	C 	0.25047	0.65764	0.39182	0.131
Mof_C 	C 	0.14563	0.67712	0.52222	0.068
Mof_C 	C 	0.04081	0.71714	0.58144	-0.165
Mof_C 	C 	0.03748	0.69992	0.65612	-0.101
Mof_C 	C 	0.13589	0.64316	0.67546	0.008
Mof_C 	C 	0.24227	0.60489	0.61797	-0.098
Mof_C 	C 	0.24803	0.6217	0.54064	0.055
Mof_C 	C 	0.87276	0.89855	0.08913	0.136
Mof_C 	C 	0.79993	0.84236	0.10818	0.134
Mof_C 	C 	0.84497	0.82288	0.97778	0.146
Mof_C 	C 	0.83939	0.78286	0.91856	-0.156
Mof_C 	C 	0.89352	0.80008	0.84388	0.078
Mof_C 	C 	0.95451	0.85684	0.82454	-0.121
Mof_C 	C 	0.96513	0.89511	0.88203	0.084
Mof_C 	C 	0.91037	0.8783	0.95936	0.05
Mof_C 	C 	0.77131	0.58913	0.10145	0.138
Mof_C 	C 	0.64229	0.60818	0.15764	0.128
Mof_C 	C 	0.66785	0.47778	0.17712	0.051
Mof_C 	C 	0.62225	0.41856	0.21714	-0.101
Mof_C 	C 	0.6936	0.34388	0.19992	-0.01
Mof_C 	C 	0.81135	0.32454	0.14316	-0.037
Mof_C 	C 	0.86024	0.38203	0.10489	-0.072
Mof_C 	C 	0.78867	0.45936	0.1217	0.053
Mof_C 	C 	0.96189	0.91087	0.39855	0.224
Mof_C 	C 	0.90811	0.89182	0.34236	0.123
Mof_C 	C 	0.82275	0.02222	0.32288	0.006
Mof_C 	C 	0.75795	0.08144	0.28286	-0.075
Mof_C 	C 	0.7374	0.15612	0.30008	-0.021
Mof_C 	C 	0.77905	0.17546	0.35684	-0.024
Mof_C 	C 	0.84716	0.11797	0.39511	-0.066
Mof_C 	C 	0.86973	0.04064	0.3783	0.029
Mof_C 	C 	0.63956	0.39855	0.58913	0.141
Mof_C 	C 	0.74953	0.34236	0.60818	0.131
Mof_C 	C 	0.85437	0.32288	0.47778	0.04
Mof_C 	C 	0.95919	0.28286	0.41856	-0.03
Mof_C 	C 	0.96252	0.30008	0.34388	0.088
Mof_C 	C 	0.86411	0.35684	0.32454	-0.079
Mof_C 	C 	0.75773	0.39511	0.38203	-0.052
Mof_C 	C 	0.75197	0.3783	0.45936	0.052
Mof_C 	C 	0.12724	0.10145	0.91087	0.144
Mof_C 	C 	0.20007	0.15764	0.89182	0.129
Mof_C 	C 	0.15503	0.17712	0.02222	-0.05
Mof_C 	C 	0.16061	0.21714	0.08144	-0.029
Mof_C 	C 	0.10648	0.19992	0.15612	-0.115
Mof_C 	C 	0.04549	0.14316	0.17546	0.07
Mof_C 	C 	0.03487	0.10489	0.11797	-0.261
Mof_C 	C 	0.08963	0.1217	0.04064	0.062
Mof_C 	C 	0.22869	0.41087	0.89855	0.14
Mof_C 	C 	0.35771	0.39182	0.84236	0.134
Mof_C 	C 	0.33215	0.52222	0.82288	0.054
Mof_C 	C 	0.37775	0.58144	0.78286	-0.093
Mof_C 	C 	0.3064	0.65612	0.80008	-0.015
Mof_C 	C 	0.18865	0.67546	0.85684	-0.027
Mof_C 	C 	0.13976	0.61797	0.89511	-0.08
Mof_C 	C 	0.21133	0.54064	0.8783	0.058
Mof_C 	C 	0.03811	0.08913	0.60145	0.052
Mof_C 	C 	0.09189	0.10818	0.65764	0.14
Mof_C 	C 	0.17725	0.97778	0.67712	0.101
Mof_C 	C 	0.24205	0.91856	0.71714	-0.118
Mof_C 	C 	0.2626	0.84388	0.69992	-0.003
Mof_C 	C 	0.22095	0.82454	0.64316	-0.039
Mof_C 	C 	0.15284	0.88203	0.60489	-0.087
Mof_C 	C 	0.13027	0.95936	0.6217	0.083
Mof_N 	N 	0.35549	0.58373	0.48283	-0.215
Mof_N 	N 	0.1473	0.69241	0.44657	-0.249
Mof_N 	N 	0.92205	0.91627	0.01717	-0.21
Mof_N 	N 	0.78628	0.80759	0.05343	-0.276
Mof_N 	N 	0.83832	0.51717	0.08373	-0.207
Mof_N 	N 	0.59387	0.55343	0.19241	-0.242
Mof_N 	N 	0.93922	0.98283	0.41627	-0.172
Mof_N 	N 	0.83971	0.94657	0.30759	-0.203
Mof_N 	N 	0.64451	0.41627	0.51717	-0.214
Mof_N 	N 	0.8527	0.30759	0.55343	-0.231
Mof_N 	N 	0.07795	0.08373	0.98283	-0.194
Mof_N 	N 	0.21372	0.19241	0.94657	-0.198
Mof_N 	N 	0.16168	0.48283	0.91627	-0.205
Mof_N 	N 	0.40613	0.44657	0.80759	-0.238
Mof_N 	N 	0.06078	0.01717	0.58373	-0.244
Mof_N 	N 	0.16029	0.05343	0.69241	-0.277
Mof_Cl	Cl	0.59644	0.588	0.50752	-0.443
Mof_Cl	Cl	0.19196	0.912	0.99248	-0.387
Mof_Cl	Cl	0.10396	0.49248	0.088	-0.524
Mof_Cl	Cl	0.18444	0.00752	0.412	-0.521
Mof_Cl	Cl	0.40356	0.412	0.49248	-0.471
Mof_Cl	Cl	0.80804	0.088	0.00752	-0.49
Mof_Cl	Cl	0.89604	0.50752	0.912	-0.373
Mof_Cl	Cl	0.81556	0.99248	0.588	-0.375
Mof_O 	O 	0.45737	0.57013	0.35423	-0.357
Mof_O 	O 	0.25987	0.6693	0.32064	-0.407
Mof_O 	O 	0.88173	0.92987	0.14577	-0.33
Mof_O 	O 	0.74981	0.8307	0.17936	-0.388
Mof_O 	O 	0.8116	0.64577	0.07013	-0.362
Mof_O 	O 	0.58051	0.67936	0.1693	-0.399
Mof_O 	O 	0.0275	0.85423	0.42987	-0.416
Mof_O 	O 	0.92917	0.82064	0.3307	-0.362
Mof_O 	O 	0.54263	0.42987	0.64577	-0.359
Mof_O 	O 	0.74013	0.3307	0.67936	-0.383
Mof_O 	O 	0.11827	0.07013	0.85423	-0.377
Mof_O 	O 	0.25019	0.1693	0.82064	-0.401
Mof_O 	O 	0.1884	0.35423	0.92987	-0.346
Mof_O 	O 	0.41949	0.32064	0.8307	-0.391
Mof_O 	O 	0.9725	0.14577	0.57013	-0.293
Mof_O 	O 	0.07083	0.17936	0.6693	-0.428
_end
