# CIF file generated by openbabel 3.1.0, see https://openbabel.org
data_I
_chemical_name_common 'image0'
_cell_length_a 29.074
_cell_length_b 29.074
_cell_length_c 13.854
_cell_angle_alpha 90
_cell_angle_beta 90
_cell_angle_gamma 90
_space_group_name_H-M_alt 'P 1'
_space_group_name_Hall 'P 1'
loop_
    _symmetry_equiv_pos_as_xyz
    x,y,z
loop_
    _atom_site_label
    _atom_site_type_symbol
    _atom_site_fract_x
    _atom_site_fract_y
    _atom_site_fract_z
    _atom_site_occupancy
    C1       C        0.76710    0.13220    0.49610    1.000
    C2       C        0.77650    0.42770    0.69520    1.000
    C3       C        0.77000    0.18310    0.50540    1.000
    C4       C        0.78490    0.20820    0.42690    1.000
    H1       H        0.79410    0.19270    0.37140    1.000
    C5       C        0.78660    0.25680    0.42820    1.000
    H2       H        0.79840    0.27330    0.37640    1.000
    C6       C        0.76970    0.27910    0.51020    1.000
    C7       C        0.75660    0.25440    0.58930    1.000
    H3       H        0.74770    0.27000    0.64480    1.000
    C8       C        0.75640    0.20690    0.58930    1.000
    C9       C        0.76780    0.33080    0.51280    1.000
    C10      C        0.75480    0.35450    0.43180    1.000
    H4       H        0.75060    0.33890    0.37380    1.000
    C11      C        0.74790    0.40270    0.43610    1.000
    C12      C        0.75410    0.42440    0.52210    1.000
    H5       H        0.74860    0.45580    0.52510    1.000
    C13      C        0.76800    0.40240    0.60420    1.000
    C14      C        0.77550    0.35470    0.59940    1.000
    H6       H        0.78570    0.33890    0.65370    1.000
    C15      C        0.73500    0.42630    0.34630    1.000
    O1       O        0.74920    0.11050    0.56850    1.000
    O2       O        0.78140    0.11230    0.42330    1.000
    O3       O        0.74600    0.41090    0.26680    1.000
    O4       O        0.71400    0.46570    0.34870    1.000
    O5       O        0.77310    0.47060    0.69700    1.000
    O6       O        0.79060    0.40580    0.76920    1.000
    O7       O        0.74000    0.18540    0.67160    1.000
    H7       H        0.73970    0.15750    0.66320    1.000
    Tb1      Tb       0.70515    0.04455    0.59524    1.000
    C16      C        0.26710    0.63220    0.99610    1.000
    C17      C        0.27650    0.92770    0.19520    1.000
    C18      C        0.27000    0.68310    0.00540    1.000
    C19      C        0.28490    0.70820    0.92690    1.000
    H8       H        0.29410    0.69270    0.87140    1.000
    C20      C        0.28660    0.75680    0.92820    1.000
    H9       H        0.29840    0.77330    0.87640    1.000
    C21      C        0.26970    0.77910    0.01020    1.000
    C22      C        0.25660    0.75440    0.08930    1.000
    H10      H        0.24770    0.77000    0.14480    1.000
    C23      C        0.25640    0.70690    0.08930    1.000
    C24      C        0.26780    0.83080    0.01280    1.000
    C25      C        0.25480    0.85450    0.93180    1.000
    H11      H        0.25060    0.83890    0.87380    1.000
    C26      C        0.24790    0.90270    0.93610    1.000
    C27      C        0.25410    0.92440    0.02210    1.000
    H12      H        0.24860    0.95580    0.02510    1.000
    C28      C        0.26800    0.90240    0.10420    1.000
    C29      C        0.27550    0.85470    0.09940    1.000
    H13      H        0.28570    0.83890    0.15370    1.000
    C30      C        0.23500    0.92630    0.84630    1.000
    O8       O        0.24920    0.61050    0.06850    1.000
    O9       O        0.28140    0.61230    0.92330    1.000
    O10      O        0.24600    0.91090    0.76680    1.000
    O11      O        0.21400    0.96570    0.84870    1.000
    O12      O        0.27310    0.97060    0.19700    1.000
    O13      O        0.29060    0.90580    0.26920    1.000
    O14      O        0.24000    0.68540    0.17160    1.000
    H14      H        0.23970    0.65750    0.16320    1.000
    Tb2      Tb       0.20515    0.54455    0.09524    1.000
    C31      C        0.73290    0.86780    0.99610    1.000
    C32      C        0.72350    0.57230    0.19520    1.000
    C33      C        0.73000    0.81690    0.00540    1.000
    C34      C        0.71510    0.79180    0.92690    1.000
    H15      H        0.70590    0.80730    0.87140    1.000
    C35      C        0.71340    0.74320    0.92820    1.000
    H16      H        0.70160    0.72670    0.87640    1.000
    C36      C        0.73030    0.72090    0.01020    1.000
    C37      C        0.74340    0.74560    0.08930    1.000
    H17      H        0.75230    0.73000    0.14480    1.000
    C38      C        0.74360    0.79310    0.08930    1.000
    C39      C        0.73220    0.66920    0.01280    1.000
    C40      C        0.74520    0.64550    0.93180    1.000
    H18      H        0.74940    0.66110    0.87380    1.000
    C41      C        0.75210    0.59730    0.93610    1.000
    C42      C        0.74590    0.57560    0.02210    1.000
    H19      H        0.75140    0.54420    0.02510    1.000
    C43      C        0.73200    0.59760    0.10420    1.000
    C44      C        0.72450    0.64530    0.09940    1.000
    H20      H        0.71430    0.66110    0.15370    1.000
    C45      C        0.76500    0.57370    0.84630    1.000
    O15      O        0.75080    0.88950    0.06850    1.000
    O16      O        0.71860    0.88770    0.92330    1.000
    O17      O        0.75400    0.58910    0.76680    1.000
    O18      O        0.78600    0.53430    0.84870    1.000
    O19      O        0.72690    0.52940    0.19700    1.000
    O20      O        0.70940    0.59420    0.26920    1.000
    O21      O        0.76000    0.81460    0.17160    1.000
    H21      H        0.76030    0.84250    0.16320    1.000
    Tb3      Tb       0.79485    0.95545    0.09524    1.000
    C46      C        0.23290    0.36780    0.49610    1.000
    C47      C        0.22350    0.07230    0.69520    1.000
    C48      C        0.23000    0.31690    0.50540    1.000
    C49      C        0.21510    0.29180    0.42690    1.000
    H22      H        0.20590    0.30730    0.37140    1.000
    C50      C        0.21340    0.24320    0.42820    1.000
    H23      H        0.20160    0.22670    0.37640    1.000
    C51      C        0.23030    0.22090    0.51020    1.000
    C52      C        0.24340    0.24560    0.58930    1.000
    H24      H        0.25230    0.23000    0.64480    1.000
    C53      C        0.24360    0.29310    0.58930    1.000
    C54      C        0.23220    0.16920    0.51280    1.000
    C55      C        0.24520    0.14550    0.43180    1.000
    H25      H        0.24940    0.16110    0.37380    1.000
    C56      C        0.25210    0.09730    0.43610    1.000
    C57      C        0.24590    0.07560    0.52210    1.000
    H26      H        0.25140    0.04420    0.52510    1.000
    C58      C        0.23200    0.09760    0.60420    1.000
    C59      C        0.22450    0.14530    0.59940    1.000
    H27      H        0.21430    0.16110    0.65370    1.000
    C60      C        0.26500    0.07370    0.34630    1.000
    O22      O        0.25080    0.38950    0.56850    1.000
    O23      O        0.21860    0.38770    0.42330    1.000
    O24      O        0.25400    0.08910    0.26680    1.000
    O25      O        0.28600    0.03430    0.34870    1.000
    O26      O        0.22690    0.02940    0.69700    1.000
    O27      O        0.20940    0.09420    0.76920    1.000
    O28      O        0.26000    0.31460    0.67160    1.000
    H28      H        0.26030    0.34250    0.66320    1.000
    Tb4      Tb       0.29485    0.45545    0.59524    1.000
    C61      C        0.61780    0.01710    0.74610    1.000
    C62      C        0.32230    0.02650    0.94520    1.000
    C63      C        0.56690    0.02000    0.75540    1.000
    C64      C        0.54180    0.03490    0.67690    1.000
    H29      H        0.55730    0.04410    0.62140    1.000
    C65      C        0.49320    0.03660    0.67820    1.000
    H30      H        0.47670    0.04840    0.62640    1.000
    C66      C        0.47090    0.01970    0.76020    1.000
    C67      C        0.49560    0.00660    0.83930    1.000
    H31      H        0.48000    0.99770    0.89480    1.000
    C68      C        0.54310    0.00640    0.83930    1.000
    C69      C        0.41920    0.01780    0.76280    1.000
    C70      C        0.39550    0.00480    0.68180    1.000
    H32      H        0.41110    0.00060    0.62380    1.000
    C71      C        0.34730    0.99790    0.68610    1.000
    C72      C        0.32560    0.00410    0.77210    1.000
    H33      H        0.29420    0.99860    0.77510    1.000
    C73      C        0.34760    0.01800    0.85420    1.000
    C74      C        0.39530    0.02550    0.84940    1.000
    H34      H        0.41110    0.03570    0.90370    1.000
    C75      C        0.32370    0.98500    0.59630    1.000
    O29      O        0.63950    0.99920    0.81850    1.000
    O30      O        0.63770    0.03140    0.67330    1.000
    O31      O        0.33910    0.99600    0.51680    1.000
    O32      O        0.28430    0.96400    0.59870    1.000
    O33      O        0.27940    0.02310    0.94700    1.000
    O34      O        0.34420    0.04060    0.01920    1.000
    O35      O        0.56460    0.99000    0.92160    1.000
    H35      H        0.59250    0.98970    0.91320    1.000
    Tb5      Tb       0.70545    0.95515    0.84524    1.000
    C76      C        0.11780    0.51710    0.24610    1.000
    C77      C        0.82230    0.52650    0.44520    1.000
    C78      C        0.06690    0.52000    0.25540    1.000
    C79      C        0.04180    0.53490    0.17690    1.000
    H36      H        0.05730    0.54410    0.12140    1.000
    C80      C        0.99320    0.53660    0.17820    1.000
    H37      H        0.97670    0.54840    0.12640    1.000
    C81      C        0.97090    0.51970    0.26020    1.000
    C82      C        0.99560    0.50660    0.33930    1.000
    H38      H        0.98000    0.49770    0.39480    1.000
    C83      C        0.04310    0.50640    0.33930    1.000
    C84      C        0.91920    0.51780    0.26280    1.000
    C85      C        0.89550    0.50480    0.18180    1.000
    H39      H        0.91110    0.50060    0.12380    1.000
    C86      C        0.84730    0.49790    0.18610    1.000
    C87      C        0.82560    0.50410    0.27210    1.000
    H40      H        0.79420    0.49860    0.27510    1.000
    C88      C        0.84760    0.51800    0.35420    1.000
    C89      C        0.89530    0.52550    0.34940    1.000
    H41      H        0.91110    0.53570    0.40370    1.000
    C90      C        0.82370    0.48500    0.09630    1.000
    O36      O        0.13950    0.49920    0.31850    1.000
    O37      O        0.13770    0.53140    0.17330    1.000
    O38      O        0.83910    0.49600    0.01680    1.000
    O39      O        0.78430    0.46400    0.09870    1.000
    O40      O        0.77940    0.52310    0.44700    1.000
    O41      O        0.84420    0.54060    0.51920    1.000
    O42      O        0.06460    0.49000    0.42160    1.000
    H42      H        0.09250    0.48970    0.41320    1.000
    Tb6      Tb       0.20545    0.45515    0.34524    1.000
    C91      C        0.88220    0.98290    0.24610    1.000
    C92      C        0.17770    0.97350    0.44520    1.000
    C93      C        0.93310    0.98000    0.25540    1.000
    C94      C        0.95820    0.96510    0.17690    1.000
    H43      H        0.94270    0.95590    0.12140    1.000
    C95      C        0.00680    0.96340    0.17820    1.000
    H44      H        0.02330    0.95160    0.12640    1.000
    C96      C        0.02910    0.98030    0.26020    1.000
    C97      C        0.00440    0.99340    0.33930    1.000
    H45      H        0.02000    0.00230    0.39480    1.000
    C98      C        0.95690    0.99360    0.33930    1.000
    C99      C        0.08080    0.98220    0.26280    1.000
    C100     C        0.10450    0.99520    0.18180    1.000
    H46      H        0.08890    0.99940    0.12380    1.000
    C101     C        0.15270    0.00210    0.18610    1.000
    C102     C        0.17440    0.99590    0.27210    1.000
    H47      H        0.20580    0.00140    0.27510    1.000
    C103     C        0.15240    0.98200    0.35420    1.000
    C104     C        0.10470    0.97450    0.34940    1.000
    H48      H        0.08890    0.96430    0.40370    1.000
    C105     C        0.17630    0.01500    0.09630    1.000
    O43      O        0.86050    0.00080    0.31850    1.000
    O44      O        0.86230    0.96860    0.17330    1.000
    O45      O        0.16090    0.00400    0.01680    1.000
    O46      O        0.21570    0.03600    0.09870    1.000
    O47      O        0.22060    0.97690    0.44700    1.000
    O48      O        0.15580    0.95940    0.51920    1.000
    O49      O        0.93540    0.01000    0.42160    1.000
    H49      H        0.90750    0.01030    0.41320    1.000
    Tb7      Tb       0.79455    0.04485    0.34524    1.000
    C106     C        0.38220    0.48290    0.74610    1.000
    C107     C        0.67770    0.47350    0.94520    1.000
    C108     C        0.43310    0.48000    0.75540    1.000
    C109     C        0.45820    0.46510    0.67690    1.000
    H50      H        0.44270    0.45590    0.62140    1.000
    C110     C        0.50680    0.46340    0.67820    1.000
    H51      H        0.52330    0.45160    0.62640    1.000
    C111     C        0.52910    0.48030    0.76020    1.000
    C112     C        0.50440    0.49340    0.83930    1.000
    H52      H        0.52000    0.50230    0.89480    1.000
    C113     C        0.45690    0.49360    0.83930    1.000
    C114     C        0.58080    0.48220    0.76280    1.000
    C115     C        0.60450    0.49520    0.68180    1.000
    H53      H        0.58890    0.49940    0.62380    1.000
    C116     C        0.65270    0.50210    0.68610    1.000
    C117     C        0.67440    0.49590    0.77210    1.000
    H54      H        0.70580    0.50140    0.77510    1.000
    C118     C        0.65240    0.48200    0.85420    1.000
    C119     C        0.60470    0.47450    0.84940    1.000
    H55      H        0.58890    0.46430    0.90370    1.000
    C120     C        0.67630    0.51500    0.59630    1.000
    O50      O        0.36050    0.50080    0.81850    1.000
    O51      O        0.36230    0.46860    0.67330    1.000
    O52      O        0.66090    0.50400    0.51680    1.000
    O53      O        0.71570    0.53600    0.59870    1.000
    O54      O        0.72060    0.47690    0.94700    1.000
    O55      O        0.65580    0.45940    0.01920    1.000
    O56      O        0.43540    0.51000    0.92160    1.000
    H56      H        0.40750    0.51030    0.91320    1.000
    Tb8      Tb       0.29455    0.54485    0.84524    1.000
    C121     C        0.23290    0.86780    0.50390    1.000
    C122     C        0.22350    0.57230    0.30480    1.000
    C123     C        0.23000    0.81690    0.49460    1.000
    C124     C        0.21510    0.79180    0.57310    1.000
    H57      H        0.20590    0.80730    0.62860    1.000
    C125     C        0.21340    0.74320    0.57180    1.000
    H58      H        0.20160    0.72670    0.62360    1.000
    C126     C        0.23030    0.72090    0.48980    1.000
    C127     C        0.24340    0.74560    0.41070    1.000
    H59      H        0.25230    0.73000    0.35520    1.000
    C128     C        0.24360    0.79310    0.41070    1.000
    C129     C        0.23220    0.66920    0.48720    1.000
    C130     C        0.24520    0.64550    0.56820    1.000
    H60      H        0.24940    0.66110    0.62620    1.000
    C131     C        0.25210    0.59730    0.56390    1.000
    C132     C        0.24590    0.57560    0.47790    1.000
    H61      H        0.25140    0.54420    0.47490    1.000
    C133     C        0.23200    0.59760    0.39580    1.000
    C134     C        0.22450    0.64530    0.40060    1.000
    H62      H        0.21430    0.66110    0.34630    1.000
    C135     C        0.26500    0.57370    0.65370    1.000
    O57      O        0.25080    0.88950    0.43150    1.000
    O58      O        0.21860    0.88770    0.57670    1.000
    O59      O        0.25400    0.58910    0.73320    1.000
    O60      O        0.28600    0.53430    0.65130    1.000
    O61      O        0.22690    0.52940    0.30300    1.000
    O62      O        0.20940    0.59420    0.23080    1.000
    O63      O        0.26000    0.81460    0.32840    1.000
    H63      H        0.26030    0.84250    0.33680    1.000
    Tb9      Tb       0.29485    0.95545    0.40476    1.000
    C136     C        0.73290    0.36780    0.00390    1.000
    C137     C        0.72350    0.07230    0.80480    1.000
    C138     C        0.73000    0.31690    0.99460    1.000
    C139     C        0.71510    0.29180    0.07310    1.000
    H64      H        0.70590    0.30730    0.12860    1.000
    C140     C        0.71340    0.24320    0.07180    1.000
    H65      H        0.70160    0.22670    0.12360    1.000
    C141     C        0.73030    0.22090    0.98980    1.000
    C142     C        0.74340    0.24560    0.91070    1.000
    H66      H        0.75230    0.23000    0.85520    1.000
    C143     C        0.74360    0.29310    0.91070    1.000
    C144     C        0.73220    0.16920    0.98720    1.000
    C145     C        0.74520    0.14550    0.06820    1.000
    H67      H        0.74940    0.16110    0.12620    1.000
    C146     C        0.75210    0.09730    0.06390    1.000
    C147     C        0.74590    0.07560    0.97790    1.000
    H68      H        0.75140    0.04420    0.97490    1.000
    C148     C        0.73200    0.09760    0.89580    1.000
    C149     C        0.72450    0.14530    0.90060    1.000
    H69      H        0.71430    0.16110    0.84630    1.000
    C150     C        0.76500    0.07370    0.15370    1.000
    O64      O        0.75080    0.38950    0.93150    1.000
    O65      O        0.71860    0.38770    0.07670    1.000
    O66      O        0.75400    0.08910    0.23320    1.000
    O67      O        0.78600    0.03430    0.15130    1.000
    O68      O        0.72690    0.02940    0.80300    1.000
    O69      O        0.70940    0.09420    0.73080    1.000
    O70      O        0.76000    0.31460    0.82840    1.000
    H70      H        0.76030    0.34250    0.83680    1.000
    Tb10     Tb       0.79485    0.45545    0.90476    1.000
    C151     C        0.26710    0.13220    0.00390    1.000
    C152     C        0.27650    0.42770    0.80480    1.000
    C153     C        0.27000    0.18310    0.99460    1.000
    C154     C        0.28490    0.20820    0.07310    1.000
    H71      H        0.29410    0.19270    0.12860    1.000
    C155     C        0.28660    0.25680    0.07180    1.000
    H72      H        0.29840    0.27330    0.12360    1.000
    C156     C        0.26970    0.27910    0.98980    1.000
    C157     C        0.25660    0.25440    0.91070    1.000
    H73      H        0.24770    0.27000    0.85520    1.000
    C158     C        0.25640    0.20690    0.91070    1.000
    C159     C        0.26780    0.33080    0.98720    1.000
    C160     C        0.25480    0.35450    0.06820    1.000
    H74      H        0.25060    0.33890    0.12620    1.000
    C161     C        0.24790    0.40270    0.06390    1.000
    C162     C        0.25410    0.42440    0.97790    1.000
    H75      H        0.24860    0.45580    0.97490    1.000
    C163     C        0.26800    0.40240    0.89580    1.000
    C164     C        0.27550    0.35470    0.90060    1.000
    H76      H        0.28570    0.33890    0.84630    1.000
    C165     C        0.23500    0.42630    0.15370    1.000
    O71      O        0.24920    0.11050    0.93150    1.000
    O72      O        0.28140    0.11230    0.07670    1.000
    O73      O        0.24600    0.41090    0.23320    1.000
    O74      O        0.21400    0.46570    0.15130    1.000
    O75      O        0.27310    0.47060    0.80300    1.000
    O76      O        0.29060    0.40580    0.73080    1.000
    O77      O        0.24000    0.18540    0.82840    1.000
    H77      H        0.23970    0.15750    0.83680    1.000
    Tb11     Tb       0.20515    0.04455    0.90476    1.000
    C166     C        0.76710    0.63220    0.50390    1.000
    C167     C        0.77650    0.92770    0.30480    1.000
    C168     C        0.77000    0.68310    0.49460    1.000
    C169     C        0.78490    0.70820    0.57310    1.000
    H78      H        0.79410    0.69270    0.62860    1.000
    C170     C        0.78660    0.75680    0.57180    1.000
    H79      H        0.79840    0.77330    0.62360    1.000
    C171     C        0.76970    0.77910    0.48980    1.000
    C172     C        0.75660    0.75440    0.41070    1.000
    H80      H        0.74770    0.77000    0.35520    1.000
    C173     C        0.75640    0.70690    0.41070    1.000
    C174     C        0.76780    0.83080    0.48720    1.000
    C175     C        0.75480    0.85450    0.56820    1.000
    H81      H        0.75060    0.83890    0.62620    1.000
    C176     C        0.74790    0.90270    0.56390    1.000
    C177     C        0.75410    0.92440    0.47790    1.000
    H82      H        0.74860    0.95580    0.47490    1.000
    C178     C        0.76800    0.90240    0.39580    1.000
    C179     C        0.77550    0.85470    0.40060    1.000
    H83      H        0.78570    0.83890    0.34630    1.000
    C180     C        0.73500    0.92630    0.65370    1.000
    O78      O        0.74920    0.61050    0.43150    1.000
    O79      O        0.78140    0.61230    0.57670    1.000
    O80      O        0.74600    0.91090    0.73320    1.000
    O81      O        0.71400    0.96570    0.65130    1.000
    O82      O        0.77310    0.97060    0.30300    1.000
    O83      O        0.79060    0.90580    0.23080    1.000
    O84      O        0.74000    0.68540    0.32840    1.000
    H84      H        0.73970    0.65750    0.33680    1.000
    Tb12     Tb       0.70515    0.54455    0.40476    1.000
    C181     C        0.38220    0.98290    0.25390    1.000
    C182     C        0.67770    0.97350    0.05480    1.000
    C183     C        0.43310    0.98000    0.24460    1.000
    C184     C        0.45820    0.96510    0.32310    1.000
    H85      H        0.44270    0.95590    0.37860    1.000
    C185     C        0.50680    0.96340    0.32180    1.000
    H86      H        0.52330    0.95160    0.37360    1.000
    C186     C        0.52910    0.98030    0.23980    1.000
    C187     C        0.50440    0.99340    0.16070    1.000
    H87      H        0.52000    0.00230    0.10520    1.000
    C188     C        0.45690    0.99360    0.16070    1.000
    C189     C        0.58080    0.98220    0.23720    1.000
    C190     C        0.60450    0.99520    0.31820    1.000
    H88      H        0.58890    0.99940    0.37620    1.000
    C191     C        0.65270    0.00210    0.31390    1.000
    C192     C        0.67440    0.99590    0.22790    1.000
    H89      H        0.70580    0.00140    0.22490    1.000
    C193     C        0.65240    0.98200    0.14580    1.000
    C194     C        0.60470    0.97450    0.15060    1.000
    H90      H        0.58890    0.96430    0.09630    1.000
    C195     C        0.67630    0.01500    0.40370    1.000
    O85      O        0.36050    0.00080    0.18150    1.000
    O86      O        0.36230    0.96860    0.32670    1.000
    O87      O        0.66090    0.00400    0.48320    1.000
    O88      O        0.71570    0.03600    0.40130    1.000
    O89      O        0.72060    0.97690    0.05300    1.000
    O90      O        0.65580    0.95940    0.98080    1.000
    O91      O        0.43540    0.01000    0.07840    1.000
    H91      H        0.40750    0.01030    0.08680    1.000
    Tb13     Tb       0.29455    0.04485    0.15476    1.000
    C196     C        0.88220    0.48290    0.75390    1.000
    C197     C        0.17770    0.47350    0.55480    1.000
    C198     C        0.93310    0.48000    0.74460    1.000
    C199     C        0.95820    0.46510    0.82310    1.000
    H92      H        0.94270    0.45590    0.87860    1.000
    C200     C        0.00680    0.46340    0.82180    1.000
    H93      H        0.02330    0.45160    0.87360    1.000
    C201     C        0.02910    0.48030    0.73980    1.000
    C202     C        0.00440    0.49340    0.66070    1.000
    H94      H        0.02000    0.50230    0.60520    1.000
    C203     C        0.95690    0.49360    0.66070    1.000
    C204     C        0.08080    0.48220    0.73720    1.000
    C205     C        0.10450    0.49520    0.81820    1.000
    H95      H        0.08890    0.49940    0.87620    1.000
    C206     C        0.15270    0.50210    0.81390    1.000
    C207     C        0.17440    0.49590    0.72790    1.000
    H96      H        0.20580    0.50140    0.72490    1.000
    C208     C        0.15240    0.48200    0.64580    1.000
    C209     C        0.10470    0.47450    0.65060    1.000
    H97      H        0.08890    0.46430    0.59630    1.000
    C210     C        0.17630    0.51500    0.90370    1.000
    O92      O        0.86050    0.50080    0.68150    1.000
    O93      O        0.86230    0.46860    0.82670    1.000
    O94      O        0.16090    0.50400    0.98320    1.000
    O95      O        0.21570    0.53600    0.90130    1.000
    O96      O        0.22060    0.47690    0.55300    1.000
    O97      O        0.15580    0.45940    0.48080    1.000
    O98      O        0.93540    0.51000    0.57840    1.000
    H98      H        0.90750    0.51030    0.58680    1.000
    Tb14     Tb       0.79455    0.54485    0.65476    1.000
    C211     C        0.11780    0.01710    0.75390    1.000
    C212     C        0.82230    0.02650    0.55480    1.000
    C213     C        0.06690    0.02000    0.74460    1.000
    C214     C        0.04180    0.03490    0.82310    1.000
    H99      H        0.05730    0.04410    0.87860    1.000
    C215     C        0.99320    0.03660    0.82180    1.000
    H100     H        0.97670    0.04840    0.87360    1.000
    C216     C        0.97090    0.01970    0.73980    1.000
    C217     C        0.99560    0.00660    0.66070    1.000
    H101     H        0.98000    0.99770    0.60520    1.000
    C218     C        0.04310    0.00640    0.66070    1.000
    C219     C        0.91920    0.01780    0.73720    1.000
    C220     C        0.89550    0.00480    0.81820    1.000
    H102     H        0.91110    0.00060    0.87620    1.000
    C221     C        0.84730    0.99790    0.81390    1.000
    C222     C        0.82560    0.00410    0.72790    1.000
    H103     H        0.79420    0.99860    0.72490    1.000
    C223     C        0.84760    0.01800    0.64580    1.000
    C224     C        0.89530    0.02550    0.65060    1.000
    H104     H        0.91110    0.03570    0.59630    1.000
    C225     C        0.82370    0.98500    0.90370    1.000
    O99      O        0.13950    0.99920    0.68150    1.000
    O100     O        0.13770    0.03140    0.82670    1.000
    O101     O        0.83910    0.99600    0.98320    1.000
    O102     O        0.78430    0.96400    0.90130    1.000
    O103     O        0.77940    0.02310    0.55300    1.000
    O104     O        0.84420    0.04060    0.48080    1.000
    O105     O        0.06460    0.99000    0.57840    1.000
    H105     H        0.09250    0.98970    0.58680    1.000
    Tb15     Tb       0.20545    0.95515    0.65476    1.000
    C226     C        0.61780    0.51710    0.25390    1.000
    C227     C        0.32230    0.52650    0.05480    1.000
    C228     C        0.56690    0.52000    0.24460    1.000
    C229     C        0.54180    0.53490    0.32310    1.000
    H106     H        0.55730    0.54410    0.37860    1.000
    C230     C        0.49320    0.53660    0.32180    1.000
    H107     H        0.47670    0.54840    0.37360    1.000
    C231     C        0.47090    0.51970    0.23980    1.000
    C232     C        0.49560    0.50660    0.16070    1.000
    H108     H        0.48000    0.49770    0.10520    1.000
    C233     C        0.54310    0.50640    0.16070    1.000
    C234     C        0.41920    0.51780    0.23720    1.000
    C235     C        0.39550    0.50480    0.31820    1.000
    H109     H        0.41110    0.50060    0.37620    1.000
    C236     C        0.34730    0.49790    0.31390    1.000
    C237     C        0.32560    0.50410    0.22790    1.000
    H110     H        0.29420    0.49860    0.22490    1.000
    C238     C        0.34760    0.51800    0.14580    1.000
    C239     C        0.39530    0.52550    0.15060    1.000
    H111     H        0.41110    0.53570    0.09630    1.000
    C240     C        0.32370    0.48500    0.40370    1.000
    O106     O        0.63950    0.49920    0.18150    1.000
    O107     O        0.63770    0.53140    0.32670    1.000
    O108     O        0.33910    0.49600    0.48320    1.000
    O109     O        0.28430    0.46400    0.40130    1.000
    O110     O        0.27940    0.52310    0.05300    1.000
    O111     O        0.34420    0.54060    0.98080    1.000
    O112     O        0.56460    0.49000    0.07840    1.000
    H112     H        0.59250    0.48970    0.08680    1.000
    Tb16     Tb       0.70545    0.45515    0.15476    1.000
