data_functionalizedCrystal
_audit_creation_method	'EQeq! by Chris Wilmer'
_symmetry_space_group_name_H-M	'P1'
_symmetry_Int_Tables_number	1
_symmetry_cell_setting	triclinic
loop_
_symmetry_equiv_pos_as_xyz
  x,y,z
_cell_length_a	18.6178
_cell_length_b	19.754
_cell_length_c	23.1423
_cell_angle_alpha	66.0857
_cell_angle_beta	66.2813
_cell_angle_gamma	61.8852
loop_
_atom_site_label
_atom_site_type_symbol
_atom_site_fract_x
_atom_site_fract_y
_atom_site_fract_z
_atom_site_charge
Mof_Cd	Cd	0.33217	0.88532	0.69552	0.506
Mof_Cd	Cd	0.46125	0.68077	0.67747	0.458
Mof_Cd	Cd	0.73979	0.69001	0.95887	0.426
Mof_Cd	Cd	0.91301	0.61468	0.80448	0.506
Mof_Cd	Cd	0.81949	0.81923	0.82253	0.458
Mof_Cd	Cd	0.38867	0.80999	0.54113	0.426
Mof_Cd	Cd	0.66783	0.11468	0.30448	0.507
Mof_Cd	Cd	0.53875	0.31923	0.32253	0.459
Mof_Cd	Cd	0.26021	0.30999	0.04113	0.427
Mof_Cd	Cd	0.08699	0.38532	0.19552	0.507
Mof_Cd	Cd	0.18051	0.18077	0.17747	0.459
Mof_Cd	Cd	0.61133	0.19001	0.45887	0.427
Mof_H 	H 	0.6559	0.6887	0.7521	0.082
Mof_H 	H 	0.4237	0.8403	0.8169	0.112
Mof_H 	H 	0.6225	0.8264	0.8566	0.093
Mof_H 	H 	0.3595	0.9246	0.9858	0.123
Mof_H 	H 	0.4984	0.0593	0.8879	0.122
Mof_H 	H 	0.2851	0.9978	0.0616	0.011
Mof_H 	H 	0.4232	0.1319	0.9659	-0.001
Mof_H 	H 	0.4455	0.036	0.4508	0.075
Mof_H 	H 	0.2438	0.0927	0.6003	0.102
Mof_H 	H 	0.3682	0.2426	0.4924	0.094
Mof_H 	H 	0.1145	0.2766	0.6808	0.131
Mof_H 	H 	0.2381	0.4197	0.5741	0.129
Mof_H 	H 	0.0203	0.3679	0.7421	-0
Mof_H 	H 	0.1447	0.5125	0.6323	0.003
Mof_H 	H 	0.0967	0.8113	0.7479	0.081
Mof_H 	H 	0.0809	0.6597	0.6831	0.111
Mof_H 	H 	0.3055	0.6736	0.6434	0.093
Mof_H 	H 	0.2699	0.5754	0.5142	0.123
Mof_H 	H 	0.4456	0.4407	0.6121	0.122
Mof_H 	H 	0.3445	0.5022	0.4384	0.01
Mof_H 	H 	0.521	0.3681	0.5341	-0.001
Mof_H 	H 	0.9323	0.464	0.0492	0.076
Mof_H 	H 	0.9368	0.4073	0.8997	0.102
Mof_H 	H 	0.1032	0.2574	0.0076	0.094
Mof_H 	H 	0.0719	0.2234	0.8192	0.131
Mof_H 	H 	0.2319	0.0803	0.9259	0.13
Mof_H 	H 	0.1303	0.1321	0.7579	-0
Mof_H 	H 	0.2895	0.9875	0.8677	0.002
Mof_H 	H 	0.3441	0.3113	0.2479	0.082
Mof_H 	H 	0.5763	0.1597	0.1831	0.112
Mof_H 	H 	0.3775	0.1736	0.1434	0.093
Mof_H 	H 	0.6405	0.0754	0.0142	0.123
Mof_H 	H 	0.5016	0.9407	0.1121	0.122
Mof_H 	H 	0.7149	0.0022	0.9384	0.011
Mof_H 	H 	0.5768	0.8681	0.0341	-0.001
Mof_H 	H 	0.5545	0.964	0.5492	0.075
Mof_H 	H 	0.7562	0.9073	0.3997	0.102
Mof_H 	H 	0.6318	0.7574	0.5076	0.094
Mof_H 	H 	0.8855	0.7234	0.3192	0.131
Mof_H 	H 	0.7619	0.5803	0.4259	0.129
Mof_H 	H 	0.9797	0.6321	0.2579	-0
Mof_H 	H 	0.8553	0.4875	0.3677	0.003
Mof_H 	H 	0.9033	0.1887	0.2521	0.081
Mof_H 	H 	0.9191	0.3403	0.3169	0.111
Mof_H 	H 	0.6945	0.3264	0.3566	0.093
Mof_H 	H 	0.7301	0.4246	0.4858	0.123
Mof_H 	H 	0.5544	0.5593	0.3879	0.122
Mof_H 	H 	0.6555	0.4978	0.5616	0.01
Mof_H 	H 	0.479	0.6319	0.4659	-0.001
Mof_H 	H 	0.0677	0.536	0.9508	0.076
Mof_H 	H 	0.0632	0.5927	0.1003	0.102
Mof_H 	H 	0.8968	0.7426	0.9924	0.094
Mof_H 	H 	0.9281	0.7766	0.1808	0.131
Mof_H 	H 	0.7681	0.9197	0.0741	0.13
Mof_H 	H 	0.8697	0.8679	0.2421	-0
Mof_H 	H 	0.7105	0.0125	0.1323	0.002
Mof_C 	C 	0.6202	0.7275	0.7747	-0.038
Mof_C 	C 	0.5006	0.7326	0.748	0.291
Mof_C 	C 	0.53469	0.76072	0.7789	-0.008
Mof_C 	C 	0.65315	0.7519	0.8042	-0.022
Mof_C 	C 	0.74377	0.71126	0.8036	0.289
Mof_C 	C 	0.4813	0.8185	0.8131	-0.111
Mof_C 	C 	0.6007	0.8098	0.8372	-0.105
Mof_C 	C 	0.5145	0.8433	0.8411	0.128
Mof_C 	C 	0.4349	0.986	0.9288	0.198
Mof_C 	C 	0.372	0.9673	0.9809	-0.221
Mof_C 	C 	0.4549	0.047	0.9226	-0.221
Mof_C 	C 	0.3274	0.011	0.026	0.119
Mof_C 	C 	0.4089	0.0909	0.9695	0.135
Mof_C 	C 	0.3463	0.0755	0.0181	-0.178
Mof_C 	C 	0.2982	0.1195	0.0703	0.365
Mof_C 	C 	0.40859	0.07092	0.4767	-0.035
Mof_C 	C 	0.3364	0.9746	0.5432	0.289
Mof_C 	C 	0.34382	0.05206	0.5283	-0.014
Mof_C 	C 	0.41884	0.14142	0.4633	-0.02
Mof_C 	C 	0.49362	0.15816	0.4114	0.302
Mof_C 	C 	0.2875	0.1048	0.5658	-0.103
Mof_C 	C 	0.36206	0.19498	0.5011	-0.096
Mof_C 	C 	0.29662	0.17646	0.5515	0.123
Mof_C 	C 	0.1798	0.3433	0.6177	0.223
Mof_C 	C 	0.1196	0.3253	0.6695	-0.238
Mof_C 	C 	0.1917	0.4103	0.6067	-0.237
Mof_C 	C 	0.0636	0.3802	0.707	0.146
Mof_C 	C 	0.1371	0.4653	0.6425	0.145
Mof_C 	C 	0.0715	0.4492	0.6932	-0.184
Mof_C 	C 	0.0124	0.5077	0.7345	0.389
Mof_C 	C 	0.1224	0.7725	0.7253	-0.038
Mof_C 	C 	0.9812	0.7674	0.752	0.292
Mof_C 	C 	0.07431	0.73928	0.7211	-0.009
Mof_C 	C 	0.20925	0.7481	0.6958	-0.022
Mof_C 	C 	0.25863	0.78874	0.6964	0.289
Mof_C 	C 	0.1129	0.6815	0.6869	-0.11
Mof_C 	C 	0.2477	0.6902	0.6628	-0.104
Mof_C 	C 	0.1989	0.6567	0.6589	0.127
Mof_C 	C 	0.3497	0.514	0.5712	0.199
Mof_C 	C 	0.3202	0.5327	0.5191	-0.221
Mof_C 	C 	0.4245	0.453	0.5774	-0.221
Mof_C 	C 	0.3644	0.489	0.474	0.118
Mof_C 	C 	0.4693	0.4091	0.5305	0.135
Mof_C 	C 	0.4399	0.4245	0.4819	-0.177
Mof_C 	C 	0.488	0.3805	0.4297	0.365
Mof_C 	C 	0.95621	0.42908	0.0233	-0.036
Mof_C 	C 	0.8542	0.5254	0.9568	0.289
Mof_C 	C 	0.92418	0.44794	0.9717	-0.014
Mof_C 	C 	0.02356	0.35858	0.0367	-0.019
Mof_C 	C 	0.06318	0.34184	0.0886	0.302
Mof_C 	C 	0.9581	0.3952	0.9342	-0.103
Mof_C 	C 	0.05814	0.30502	0.9989	-0.096
Mof_C 	C 	0.02458	0.32354	0.9485	0.123
Mof_C 	C 	0.1408	0.1567	0.8823	0.224
Mof_C 	C 	0.1144	0.1747	0.8305	-0.238
Mof_C 	C 	0.2087	0.0897	0.8933	-0.238
Mof_C 	C 	0.1508	0.1198	0.793	0.146
Mof_C 	C 	0.2449	0.0347	0.8575	0.146
Mof_C 	C 	0.2139	0.0508	0.8068	-0.184
Mof_C 	C 	0.2546	0.9923	0.7655	0.388
Mof_C 	C 	0.3798	0.2725	0.2253	-0.038
Mof_C 	C 	0.4994	0.2674	0.252	0.291
Mof_C 	C 	0.46531	0.23928	0.2211	-0.008
Mof_C 	C 	0.34685	0.2481	0.1958	-0.022
Mof_C 	C 	0.25623	0.28874	0.1964	0.289
Mof_C 	C 	0.5187	0.1815	0.1869	-0.111
Mof_C 	C 	0.3993	0.1902	0.1628	-0.105
Mof_C 	C 	0.4855	0.1567	0.1589	0.128
Mof_C 	C 	0.5651	0.014	0.0712	0.198
Mof_C 	C 	0.628	0.0327	0.0191	-0.221
Mof_C 	C 	0.5451	0.953	0.0774	-0.221
Mof_C 	C 	0.6726	0.989	0.974	0.119
Mof_C 	C 	0.5911	0.9091	0.0305	0.135
Mof_C 	C 	0.6537	0.9245	0.9819	-0.178
Mof_C 	C 	0.7018	0.8805	0.9297	0.365
Mof_C 	C 	0.59141	0.92908	0.5233	-0.035
Mof_C 	C 	0.6636	0.0254	0.4568	0.289
Mof_C 	C 	0.65618	0.94794	0.4717	-0.014
Mof_C 	C 	0.58116	0.85858	0.5367	-0.02
Mof_C 	C 	0.50638	0.84184	0.5886	0.302
Mof_C 	C 	0.7125	0.8952	0.4342	-0.103
Mof_C 	C 	0.63794	0.80502	0.4989	-0.096
Mof_C 	C 	0.70338	0.82354	0.4485	0.123
Mof_C 	C 	0.8202	0.6567	0.3823	0.223
Mof_C 	C 	0.8804	0.6747	0.3305	-0.238
Mof_C 	C 	0.8083	0.5897	0.3933	-0.237
Mof_C 	C 	0.9364	0.6198	0.293	0.146
Mof_C 	C 	0.8629	0.5347	0.3575	0.145
Mof_C 	C 	0.9285	0.5508	0.3068	-0.184
Mof_C 	C 	0.9876	0.4923	0.2655	0.389
Mof_C 	C 	0.8776	0.2275	0.2747	-0.038
Mof_C 	C 	0.0188	0.2326	0.248	0.292
Mof_C 	C 	0.92569	0.26072	0.2789	-0.009
Mof_C 	C 	0.79075	0.2519	0.3042	-0.022
Mof_C 	C 	0.74137	0.21126	0.3036	0.289
Mof_C 	C 	0.8871	0.3185	0.3131	-0.11
Mof_C 	C 	0.7523	0.3098	0.3372	-0.104
Mof_C 	C 	0.8011	0.3433	0.3411	0.127
Mof_C 	C 	0.6503	0.486	0.4288	0.199
Mof_C 	C 	0.6798	0.4673	0.4809	-0.221
Mof_C 	C 	0.5755	0.547	0.4226	-0.221
Mof_C 	C 	0.6356	0.511	0.526	0.118
Mof_C 	C 	0.5307	0.5909	0.4695	0.135
Mof_C 	C 	0.5601	0.5755	0.5181	-0.177
Mof_C 	C 	0.512	0.6195	0.5703	0.365
Mof_C 	C 	0.04379	0.57092	0.9767	-0.036
Mof_C 	C 	0.1458	0.4746	0.0432	0.289
Mof_C 	C 	0.07582	0.55206	0.0283	-0.014
Mof_C 	C 	0.97644	0.64142	0.9633	-0.019
Mof_C 	C 	0.93682	0.65816	0.9114	0.302
Mof_C 	C 	0.0419	0.6048	0.0658	-0.103
Mof_C 	C 	0.94186	0.69498	0.0011	-0.096
Mof_C 	C 	0.97542	0.67646	0.0515	0.123
Mof_C 	C 	0.8592	0.8433	0.1177	0.224
Mof_C 	C 	0.8856	0.8253	0.1695	-0.238
Mof_C 	C 	0.7913	0.9103	0.1067	-0.238
Mof_C 	C 	0.8492	0.8802	0.207	0.146
Mof_C 	C 	0.7551	0.9653	0.1425	0.146
Mof_C 	C 	0.7861	0.9492	0.1932	-0.184
Mof_C 	C 	0.7454	0.0077	0.2345	0.388
Mof_N 	N 	0.45643	0.89844	0.8793	-0.088
Mof_N 	N 	0.48821	0.93838	0.8836	-0.1
Mof_N 	N 	0.23443	0.22704	0.5929	-0.086
Mof_N 	N 	0.2412	0.2918	0.5766	-0.103
Mof_N 	N 	0.23417	0.60156	0.6207	-0.088
Mof_N 	N 	0.31019	0.56162	0.6164	-0.1
Mof_N 	N 	0.05437	0.27296	0.9071	-0.086
Mof_N 	N 	0.1096	0.2082	0.9234	-0.103
Mof_N 	N 	0.54357	0.10156	0.1207	-0.088
Mof_N 	N 	0.51179	0.06162	0.1164	-0.1
Mof_N 	N 	0.76557	0.77296	0.4071	-0.086
Mof_N 	N 	0.7588	0.7082	0.4234	-0.103
Mof_N 	N 	0.76583	0.39844	0.3793	-0.088
Mof_N 	N 	0.68981	0.43838	0.3836	-0.1
Mof_N 	N 	0.94563	0.72704	0.0929	-0.086
Mof_N 	N 	0.8904	0.7918	0.0766	-0.103
Mof_O 	O 	0.42312	0.76356	0.7506	-0.276
Mof_O 	O 	0.55117	0.67936	0.7201	-0.267
Mof_O 	O 	0.76808	0.72304	0.842	-0.302
Mof_O 	O 	0.79401	0.66788	0.7669	-0.254
Mof_O 	O 	0.31737	0.17456	0.0647	-0.315
Mof_O 	O 	0.2426	0.0986	0.1164	-0.3
Mof_O 	O 	0.29058	0.94914	0.5975	-0.26
Mof_O 	O 	0.38068	0.93544	0.5012	-0.277
Mof_O 	O 	0.53874	0.11432	0.3736	-0.273
Mof_O 	O 	0.50807	0.21486	0.4112	-0.289
Mof_O 	O 	0.0246	0.5613	0.7291	-0.327
Mof_O 	O 	0.9456	0.4942	0.7762	-0.262
Mof_O 	O 	0.93728	0.73644	0.7494	-0.276
Mof_O 	O 	0.95063	0.82064	0.7799	-0.267
Mof_O 	O 	0.33312	0.77696	0.658	-0.302
Mof_O 	O 	0.22879	0.83212	0.7331	-0.254
Mof_O 	O 	0.55663	0.32544	0.4353	-0.315
Mof_O 	O 	0.4576	0.4014	0.3836	-0.3
Mof_O 	O 	0.83722	0.55086	0.9025	-0.26
Mof_O 	O 	0.81732	0.56456	0.9988	-0.277
Mof_O 	O 	0.02666	0.38568	0.1264	-0.273
Mof_O 	O 	0.13413	0.28514	0.0888	-0.289
Mof_O 	O 	0.315	0.9387	0.7709	-0.327
Mof_O 	O 	0.216	0.0058	0.7238	-0.261
Mof_O 	O 	0.57688	0.23644	0.2494	-0.276
Mof_O 	O 	0.44883	0.32064	0.2799	-0.267
Mof_O 	O 	0.23192	0.27696	0.158	-0.302
Mof_O 	O 	0.20599	0.33212	0.2331	-0.254
Mof_O 	O 	0.68263	0.82544	0.9353	-0.315
Mof_O 	O 	0.7574	0.9014	0.8836	-0.3
Mof_O 	O 	0.70942	0.05086	0.4025	-0.26
Mof_O 	O 	0.61932	0.06456	0.4988	-0.277
Mof_O 	O 	0.46126	0.88568	0.6264	-0.273
Mof_O 	O 	0.49193	0.78514	0.5888	-0.289
Mof_O 	O 	0.9754	0.4387	0.2709	-0.327
Mof_O 	O 	0.0544	0.5058	0.2238	-0.262
Mof_O 	O 	0.06272	0.26356	0.2506	-0.276
Mof_O 	O 	0.04937	0.17936	0.2201	-0.267
Mof_O 	O 	0.66688	0.22304	0.342	-0.302
Mof_O 	O 	0.77121	0.16788	0.2669	-0.254
Mof_O 	O 	0.44337	0.67456	0.5647	-0.315
Mof_O 	O 	0.5424	0.5986	0.6164	-0.3
Mof_O 	O 	0.16278	0.44914	0.0975	-0.26
Mof_O 	O 	0.18268	0.43544	0.0012	-0.277
Mof_O 	O 	0.97334	0.61432	0.8736	-0.273
Mof_O 	O 	0.86587	0.71486	0.9112	-0.289
Mof_O 	O 	0.685	0.0613	0.2291	-0.327
Mof_O 	O 	0.784	0.9942	0.2762	-0.261
_end
