data_functionalizedCrystal
_audit_creation_method	'EQeq! by Chris Wilmer'
_symmetry_space_group_name_H-M	'P1'
_symmetry_Int_Tables_number	1
_symmetry_cell_setting	triclinic
loop_
_symmetry_equiv_pos_as_xyz
  x,y,z
_cell_length_a	7.1874
_cell_length_b	16.086
_cell_length_c	16.086
_cell_angle_alpha	62.178
_cell_angle_beta	81.4346
_cell_angle_gamma	98.5654
loop_
_atom_site_label
_atom_site_type_symbol
_atom_site_fract_x
_atom_site_fract_y
_atom_site_fract_z
_atom_site_charge
Mof_Fe	Fe	0.42258	0.41087	0.33158	0.683
Mof_Fe	Fe	0.75416	0.33158	0.25755	0.683
Mof_Fe	Fe	0.24584	0.66842	0.74245	0.683
Mof_Fe	Fe	0.01171	0.25755	0.41087	0.683
Mof_Fe	Fe	0.98829	0.74245	0.58913	0.684
Mof_Fe	Fe	0.57742	0.58913	0.66842	0.684
Mof_H 	H 	0.7354	0.545	0.4434	0.064
Mof_H 	H 	0.8212	0.5566	0.9884	0.064
Mof_H 	H 	0.8096	0.9884	0.455	0.064
Mof_H 	H 	0.2646	0.455	0.5566	0.064
Mof_H 	H 	0.1788	0.4434	0.0116	0.064
Mof_H 	H 	0.1904	0.0116	0.545	0.064
Mof_C 	C 	0.8004	0.5986	0.8176	0.38
Mof_C 	C 	0.0919	0.5461	0.5456	-0.121
Mof_C 	C 	0.3115	0.467	0.0067	-0.045
Mof_C 	C 	0.5607	0.4887	0.0843	0.062
Mof_C 	C 	0.645	0.0843	0.427	0.062
Mof_C 	C 	0.1996	0.4014	0.1824	0.38
Mof_C 	C 	0.4393	0.5113	0.9157	0.062
Mof_C 	C 	0.8445	0.5263	0.467	-0.045
Mof_C 	C 	0.4542	0.0917	0.4539	-0.121
Mof_C 	C 	0.2018	0.5838	0.5986	0.38
Mof_C 	C 	0.382	0.1824	0.4162	0.38
Mof_C 	C 	0.5458	0.9083	0.5461	-0.121
Mof_C 	C 	0.928	0.573	0.5113	0.062
Mof_C 	C 	0.6818	0.9933	0.4737	-0.046
Mof_C 	C 	0.072	0.427	0.4887	0.062
Mof_C 	C 	0.355	0.9157	0.573	0.062
Mof_C 	C 	0.3182	0.0067	0.5263	-0.046
Mof_C 	C 	0.1555	0.4737	0.533	-0.045
Mof_C 	C 	0.9081	0.4539	0.4544	-0.121
Mof_C 	C 	0.6885	0.533	0.9933	-0.045
Mof_C 	C 	0.7982	0.4162	0.4014	0.38
Mof_C 	C 	0.618	0.8176	0.5838	0.38
Mof_C 	C 	0.6375	0.5456	0.9083	-0.121
Mof_C 	C 	0.3625	0.4544	0.0917	-0.121
Mof_S 	S 	0.81897	0.664	0.51329	-0.215
Mof_S 	S 	0.84503	0.17729	0.336	-0.215
Mof_S 	S 	0.66774	0.48671	0.17729	-0.215
Mof_S 	S 	0.15497	0.82271	0.664	-0.215
Mof_S 	S 	0.33226	0.51329	0.82271	-0.215
Mof_S 	S 	0.18103	0.336	0.48671	-0.215
Mof_O 	O 	0.79817	0.83004	0.55763	-0.379
Mof_O 	O 	0.23059	0.36929	0.26642	-0.429
Mof_O 	O 	0.49701	0.26642	0.36429	-0.429
Mof_O 	O 	0.8613	0.36429	0.36929	-0.429
Mof_O 	O 	0.03187	0.38767	0.16996	-0.379
Mof_O 	O 	0.96813	0.61233	0.83004	-0.379
Mof_O 	O 	0.76941	0.63071	0.73358	-0.429
Mof_O 	O 	0.1387	0.63571	0.63071	-0.429
Mof_O 	O 	0.50299	0.73358	0.63571	-0.429
Mof_O 	O 	0.6442	0.44237	0.38767	-0.379
Mof_O 	O 	0.20183	0.16996	0.44237	-0.379
Mof_O 	O 	0.3558	0.55763	0.61233	-0.379
_end
