# CIF file generated by openbabel 3.1.0, see https://openbabel.org
data_I
_chemical_name_common 'ENITAX_clean'
_cell_length_a 12.371
_cell_length_b 12.371
_cell_length_c 24.0689
_cell_angle_alpha 90
_cell_angle_beta 90
_cell_angle_gamma 90
_space_group_name_H-M_alt 'P 1'
_space_group_name_Hall 'P 1'
loop_
    _symmetry_equiv_pos_as_xyz
    x,y,z
loop_
    _atom_site_label
    _atom_site_type_symbol
    _atom_site_fract_x
    _atom_site_fract_y
    _atom_site_fract_z
    _atom_site_occupancy
    Cu1      Cu       0.89260    0.50000    0.00000    1.000
    Cu2      Cu       0.10740    0.50000    0.00000    1.000
    Cu3      Cu       0.50000    0.89260    0.50000    1.000
    Cu4      Cu       0.50000    0.10740    0.50000    1.000
    Si1      Si       0.00000    0.00000    0.75000    1.000
    Si2      Si       0.00000    0.00000    0.25000    1.000
    H1       H        0.83740    0.87000    0.80490    1.000
    H2       H        0.84060    0.73350    0.87270    1.000
    H3       H        0.16260    0.13000    0.80490    1.000
    H4       H        0.15940    0.26650    0.87270    1.000
    H5       H        0.13000    0.83740    0.30490    1.000
    H6       H        0.26650    0.84060    0.37270    1.000
    H7       H        0.87000    0.16260    0.30490    1.000
    H8       H        0.73350    0.15940    0.37270    1.000
    H9       H        0.16260    0.87000    0.19510    1.000
    H10      H        0.15940    0.73350    0.12730    1.000
    H11      H        0.83740    0.13000    0.19510    1.000
    H12      H        0.84060    0.26650    0.12730    1.000
    H13      H        0.87000    0.83740    0.69510    1.000
    H14      H        0.73350    0.84060    0.62730    1.000
    H15      H        0.13000    0.16260    0.69510    1.000
    H16      H        0.26650    0.15940    0.62730    1.000
    H17      H        0.16260    0.13000    0.19510    1.000
    H18      H        0.15940    0.26650    0.12730    1.000
    H19      H        0.83740    0.87000    0.19510    1.000
    H20      H        0.84060    0.73350    0.12730    1.000
    H21      H        0.87000    0.16260    0.69510    1.000
    H22      H        0.73350    0.15940    0.62730    1.000
    H23      H        0.13000    0.83740    0.69510    1.000
    H24      H        0.26650    0.84060    0.62730    1.000
    H25      H        0.83740    0.13000    0.80490    1.000
    H26      H        0.84060    0.26650    0.87270    1.000
    H27      H        0.16260    0.87000    0.80490    1.000
    H28      H        0.15940    0.73350    0.87270    1.000
    H29      H        0.13000    0.16260    0.30490    1.000
    H30      H        0.26650    0.15940    0.37270    1.000
    H31      H        0.87000    0.83740    0.30490    1.000
    H32      H        0.73350    0.84060    0.37270    1.000
    C1       C        0.90440    0.84320    0.81830    1.000
    C2       C        0.90680    0.76290    0.85950    1.000
    C3       C        0.09560    0.15680    0.81830    1.000
    C4       C        0.09320    0.23710    0.85950    1.000
    C5       C        0.15680    0.90440    0.31830    1.000
    C6       C        0.23710    0.90680    0.35950    1.000
    C7       C        0.84320    0.09560    0.31830    1.000
    C8       C        0.76290    0.09320    0.35950    1.000
    C9       C        0.09560    0.84320    0.18170    1.000
    C10      C        0.09320    0.76290    0.14050    1.000
    C11      C        0.90440    0.15680    0.18170    1.000
    C12      C        0.90680    0.23710    0.14050    1.000
    C13      C        0.84320    0.90440    0.68170    1.000
    C14      C        0.76290    0.90680    0.64050    1.000
    C15      C        0.15680    0.09560    0.68170    1.000
    C16      C        0.23710    0.09320    0.64050    1.000
    C17      C        0.09560    0.15680    0.18170    1.000
    C18      C        0.09320    0.23710    0.14050    1.000
    C19      C        0.90440    0.84320    0.18170    1.000
    C20      C        0.90680    0.76290    0.14050    1.000
    C21      C        0.84320    0.09560    0.68170    1.000
    C22      C        0.76290    0.09320    0.64050    1.000
    C23      C        0.15680    0.90440    0.68170    1.000
    C24      C        0.23710    0.90680    0.64050    1.000
    C25      C        0.90440    0.15680    0.81830    1.000
    C26      C        0.90680    0.23710    0.85950    1.000
    C27      C        0.09560    0.84320    0.81830    1.000
    C28      C        0.09320    0.76290    0.85950    1.000
    C29      C        0.15680    0.09560    0.31830    1.000
    C30      C        0.23710    0.09320    0.35950    1.000
    C31      C        0.84320    0.90440    0.31830    1.000
    C32      C        0.76290    0.90680    0.35950    1.000
    C33      C        0.00000    0.88260    0.79770    1.000
    C34      C        0.00000    0.72680    0.88060    1.000
    C35      C        0.00000    0.64190    0.92680    1.000
    C36      C        0.00000    0.11740    0.79770    1.000
    C37      C        0.00000    0.27320    0.88060    1.000
    C38      C        0.00000    0.35810    0.92680    1.000
    C39      C        0.11740    0.00000    0.29770    1.000
    C40      C        0.27320    0.00000    0.38060    1.000
    C41      C        0.35810    0.00000    0.42680    1.000
    C42      C        0.88260    0.00000    0.29770    1.000
    C43      C        0.72680    0.00000    0.38060    1.000
    C44      C        0.64190    0.00000    0.42680    1.000
    C45      C        0.00000    0.88260    0.20230    1.000
    C46      C        0.00000    0.72680    0.11940    1.000
    C47      C        0.00000    0.64190    0.07320    1.000
    C48      C        0.00000    0.11740    0.20230    1.000
    C49      C        0.00000    0.27320    0.11940    1.000
    C50      C        0.00000    0.35810    0.07320    1.000
    C51      C        0.88260    0.00000    0.70230    1.000
    C52      C        0.72680    0.00000    0.61940    1.000
    C53      C        0.64190    0.00000    0.57320    1.000
    C54      C        0.11740    0.00000    0.70230    1.000
    C55      C        0.27320    0.00000    0.61940    1.000
    C56      C        0.35810    0.00000    0.57320    1.000
    O1       O        0.90920    0.61220    0.94317    1.000
    O2       O        0.09080    0.38780    0.94317    1.000
    O3       O        0.38780    0.90920    0.44317    1.000
    O4       O        0.61220    0.09080    0.44317    1.000
    O5       O        0.09080    0.61220    0.05683    1.000
    O6       O        0.90920    0.38780    0.05683    1.000
    O7       O        0.61220    0.90920    0.55683    1.000
    O8       O        0.38780    0.09080    0.55683    1.000
    O9       O        0.09080    0.38780    0.05683    1.000
    O10      O        0.90920    0.61220    0.05683    1.000
    O11      O        0.61220    0.09080    0.55683    1.000
    O12      O        0.38780    0.90920    0.55683    1.000
    O13      O        0.90920    0.38780    0.94317    1.000
    O14      O        0.09080    0.61220    0.94317    1.000
    O15      O        0.38780    0.09080    0.44317    1.000
    O16      O        0.61220    0.90920    0.44317    1.000
