data_functionalizedCrystal
_audit_creation_method	'EQeq! by Chris Wilmer'
_symmetry_space_group_name_H-M	'P1'
_symmetry_Int_Tables_number	1
_symmetry_cell_setting	triclinic
loop_
_symmetry_equiv_pos_as_xyz
  x,y,z
_cell_length_a	15.1777
_cell_length_b	15.1777
_cell_length_c	22.5094
_cell_angle_alpha	90
_cell_angle_beta	90
_cell_angle_gamma	90
loop_
_atom_site_label
_atom_site_type_symbol
_atom_site_fract_x
_atom_site_fract_y
_atom_site_fract_z
_atom_site_charge
Mof_O 	O 	0.59052	0.2184	0.29594	-0.322
Mof_O 	O 	0.53202	0.39323	0.3444	-0.307
Mof_N 	N 	0.66916	0.2339	0.27491	-0.028
Mof_N 	N 	0.52617	0.44427	0.29795	-0.032
Mof_C 	C 	0.70908	0.17164	0.24123	0.001
Mof_H 	H 	0.681	0.1164	0.2351	0.051
Mof_C 	C 	0.78967	0.18759	0.21586	0.004
Mof_H 	H 	0.8168	0.1438	0.1918	0.057
Mof_C 	C 	0.52531	0.41139	0.2421	-0.001
Mof_H 	H 	0.5249	0.3494	0.2361	0.051
Mof_C 	C 	0.52504	0.46718	0.19415	0.002
Mof_H 	H 	0.524	0.4436	0.1551	0.05
Mof_O 	O 	0.09052	0.7184	0.79594	-0.334
Mof_O 	O 	0.03202	0.89323	0.8444	-0.314
Mof_N 	N 	0.16916	0.7339	0.77491	-0.033
Mof_N 	N 	0.02617	0.94427	0.79795	-0.043
Mof_C 	C 	0.20908	0.67164	0.74123	-0.003
Mof_H 	H 	0.181	0.6164	0.7351	0.028
Mof_C 	C 	0.28967	0.68759	0.71586	-0.007
Mof_H 	H 	0.3168	0.6438	0.6918	0.053
Mof_C 	C 	0.02531	0.91139	0.7421	-0.019
Mof_H 	H 	0.0249	0.8494	0.7361	0.026
Mof_C 	C 	0.02504	0.96718	0.69415	-0.017
Mof_H 	H 	0.024	0.9436	0.6551	0.03
Mof_O 	O 	0.90948	0.7816	0.79594	-0.224
Mof_O 	O 	0.96798	0.60677	0.8444	-0.219
Mof_N 	N 	0.83084	0.7661	0.77491	-0.037
Mof_N 	N 	0.97383	0.55573	0.79795	-0.032
Mof_C 	C 	0.79092	0.82836	0.74123	0.011
Mof_H 	H 	0.819	0.8836	0.7351	0.071
Mof_C 	C 	0.71033	0.81241	0.71586	-0.003
Mof_H 	H 	0.6832	0.8562	0.6918	0.058
Mof_C 	C 	0.97469	0.58861	0.7421	0.018
Mof_H 	H 	0.9751	0.6506	0.7361	0.083
Mof_C 	C 	0.97496	0.53282	0.69415	0.022
Mof_H 	H 	0.976	0.5564	0.6551	0.07
Mof_O 	O 	0.40948	0.2816	0.29594	-0.324
Mof_O 	O 	0.46798	0.10677	0.3444	-0.31
Mof_N 	N 	0.33084	0.2661	0.27491	-0.031
Mof_N 	N 	0.47383	0.05573	0.29795	-0.033
Mof_C 	C 	0.29092	0.32836	0.24123	0.003
Mof_H 	H 	0.319	0.3836	0.2351	0.049
Mof_C 	C 	0.21033	0.31241	0.21586	-0.008
Mof_H 	H 	0.1832	0.3562	0.1918	0.059
Mof_C 	C 	0.47469	0.08861	0.2421	-0.003
Mof_H 	H 	0.4751	0.1506	0.2361	0.051
Mof_C 	C 	0.47496	0.03282	0.19415	-0
Mof_H 	H 	0.476	0.0564	0.1551	0.05
Mof_O 	O 	0.0316	0.34052	0.54594	-0.334
Mof_O 	O 	0.85677	0.28202	0.5944	-0.247
Mof_N 	N 	0.0161	0.41916	0.52491	-0.129
Mof_N 	N 	0.80573	0.27617	0.54795	-0.036
Mof_C 	C 	0.07836	0.45908	0.49123	0.051
Mof_H 	H 	0.1336	0.431	0.4851	0.028
Mof_C 	C 	0.06241	0.53967	0.46586	-0.171
Mof_H 	H 	0.1062	0.5668	0.4418	0.1
Mof_C 	C 	0.83861	0.27531	0.4921	-0.002
Mof_H 	H 	0.9006	0.2749	0.4861	0.085
Mof_C 	C 	0.78282	0.27504	0.44415	0.007
Mof_H 	H 	0.8064	0.274	0.4051	0.061
Mof_O 	O 	0.5316	0.84052	0.04594	-0.324
Mof_O 	O 	0.35677	0.78202	0.0944	-0.311
Mof_N 	N 	0.5161	0.91916	0.02491	-0.03
Mof_N 	N 	0.30573	0.77617	0.04795	-0.033
Mof_C 	C 	0.57836	0.95908	0.99123	0.002
Mof_H 	H 	0.6336	0.931	0.9851	0.051
Mof_C 	C 	0.56241	0.03967	0.96586	-0.005
Mof_H 	H 	0.6062	0.0668	0.9418	0.057
Mof_C 	C 	0.33861	0.77531	0.9921	-0.003
Mof_H 	H 	0.4006	0.7749	0.9861	0.052
Mof_C 	C 	0.28282	0.77504	0.94415	0.001
Mof_H 	H 	0.3064	0.774	0.9051	0.049
Mof_O 	O 	0.4684	0.65948	0.04594	-0.324
Mof_O 	O 	0.64323	0.71798	0.0944	-0.308
Mof_N 	N 	0.4839	0.58084	0.02491	-0.03
Mof_N 	N 	0.69427	0.72383	0.04795	-0.033
Mof_C 	C 	0.42164	0.54092	0.99123	0.001
Mof_H 	H 	0.3664	0.569	0.9851	0.049
Mof_C 	C 	0.43759	0.46033	0.96586	-0.005
Mof_H 	H 	0.3938	0.4332	0.9418	0.054
Mof_C 	C 	0.66139	0.72469	0.9921	-0.002
Mof_H 	H 	0.5994	0.7251	0.9861	0.051
Mof_C 	C 	0.71718	0.72496	0.94415	0.004
Mof_H 	H 	0.6936	0.726	0.9051	0.05
Mof_O 	O 	0.9684	0.15948	0.54594	-0.223
Mof_O 	O 	0.14323	0.21798	0.5944	-0.286
Mof_N 	N 	0.9839	0.08084	0.52491	0.058
Mof_N 	N 	0.19427	0.22383	0.54795	-0.039
Mof_C 	C 	0.92164	0.04092	0.49123	-0.044
Mof_H 	H 	0.8664	0.069	0.4851	0.072
Mof_C 	C 	0.93759	0.96033	0.46586	0.163
Mof_H 	H 	0.8938	0.9332	0.4418	0.016
Mof_C 	C 	0.16139	0.22469	0.4921	0.001
Mof_H 	H 	0.0994	0.2251	0.4861	0.024
Mof_C 	C 	0.21718	0.22496	0.44415	-0.006
Mof_H 	H 	0.1936	0.226	0.4051	0.04
Mof_O 	O 	0.90948	0.2184	0.70406	-0.223
Mof_O 	O 	0.96798	0.39323	0.6556	-0.218
Mof_N 	N 	0.83084	0.2339	0.72509	-0.037
Mof_N 	N 	0.97383	0.44427	0.70205	-0.032
Mof_C 	C 	0.79092	0.17164	0.75877	0.011
Mof_H 	H 	0.819	0.1164	0.7649	0.071
Mof_C 	C 	0.71033	0.18759	0.78414	-0.003
Mof_H 	H 	0.6832	0.1438	0.8082	0.058
Mof_C 	C 	0.97469	0.41139	0.7579	0.018
Mof_H 	H 	0.9751	0.3494	0.7639	0.083
Mof_C 	C 	0.97496	0.46718	0.80585	0.022
Mof_H 	H 	0.976	0.4436	0.8449	0.07
Mof_O 	O 	0.40948	0.7184	0.20406	-0.324
Mof_O 	O 	0.46798	0.89323	0.1556	-0.31
Mof_N 	N 	0.33084	0.7339	0.22509	-0.031
Mof_N 	N 	0.47383	0.94427	0.20205	-0.033
Mof_C 	C 	0.29092	0.67164	0.25877	0.003
Mof_H 	H 	0.319	0.6164	0.2649	0.049
Mof_C 	C 	0.21033	0.68759	0.28414	-0.008
Mof_H 	H 	0.1832	0.6438	0.3082	0.059
Mof_C 	C 	0.47469	0.91139	0.2579	-0.003
Mof_H 	H 	0.4751	0.8494	0.2639	0.051
Mof_C 	C 	0.47496	0.96718	0.30585	-0
Mof_H 	H 	0.476	0.9436	0.3449	0.05
Mof_O 	O 	0.59052	0.7816	0.20406	-0.323
Mof_O 	O 	0.53202	0.60677	0.1556	-0.308
Mof_N 	N 	0.66916	0.7661	0.22509	-0.029
Mof_N 	N 	0.52617	0.55573	0.20205	-0.033
Mof_C 	C 	0.70908	0.82836	0.25877	0
Mof_H 	H 	0.681	0.8836	0.2649	0.05
Mof_C 	C 	0.78967	0.81241	0.28414	0.003
Mof_H 	H 	0.8168	0.8562	0.3082	0.056
Mof_C 	C 	0.52531	0.58861	0.2579	-0.001
Mof_H 	H 	0.5249	0.6506	0.2639	0.051
Mof_C 	C 	0.52504	0.53282	0.30585	0.002
Mof_H 	H 	0.524	0.5564	0.3449	0.05
Mof_O 	O 	0.09052	0.2816	0.70406	-0.334
Mof_O 	O 	0.03202	0.10677	0.6556	-0.314
Mof_N 	N 	0.16916	0.2661	0.72509	-0.033
Mof_N 	N 	0.02617	0.05573	0.70205	-0.043
Mof_C 	C 	0.20908	0.32836	0.75877	-0.003
Mof_H 	H 	0.181	0.3836	0.7649	0.028
Mof_C 	C 	0.28967	0.31241	0.78414	-0.007
Mof_H 	H 	0.3168	0.3562	0.8082	0.053
Mof_C 	C 	0.02531	0.08861	0.7579	-0.019
Mof_H 	H 	0.0249	0.1506	0.7639	0.026
Mof_C 	C 	0.02504	0.03282	0.80585	-0.017
Mof_H 	H 	0.024	0.0564	0.8449	0.03
Mof_O 	O 	0.4684	0.34052	0.45406	-0.324
Mof_O 	O 	0.64323	0.28202	0.4056	-0.307
Mof_N 	N 	0.4839	0.41916	0.47509	-0.03
Mof_N 	N 	0.69427	0.27617	0.45205	-0.033
Mof_C 	C 	0.42164	0.45908	0.50877	0.002
Mof_H 	H 	0.3664	0.431	0.5149	0.049
Mof_C 	C 	0.43759	0.53967	0.53414	-0.005
Mof_H 	H 	0.3938	0.5668	0.5582	0.054
Mof_C 	C 	0.66139	0.27531	0.5079	-0.001
Mof_H 	H 	0.5994	0.2749	0.5139	0.051
Mof_C 	C 	0.71718	0.27504	0.55585	0.004
Mof_H 	H 	0.6936	0.274	0.5949	0.05
Mof_O 	O 	0.9684	0.84052	0.95406	-0.224
Mof_O 	O 	0.14323	0.78202	0.9056	-0.287
Mof_N 	N 	0.9839	0.91916	0.97509	0.057
Mof_N 	N 	0.19427	0.77617	0.95205	-0.039
Mof_C 	C 	0.92164	0.95908	0.00877	-0.044
Mof_H 	H 	0.8664	0.931	0.0149	0.071
Mof_C 	C 	0.93759	0.03967	0.03414	0.161
Mof_H 	H 	0.8938	0.0668	0.0582	0.017
Mof_C 	C 	0.16139	0.77531	0.0079	0.001
Mof_H 	H 	0.0994	0.7749	0.0139	0.024
Mof_C 	C 	0.21718	0.77504	0.05585	-0.006
Mof_H 	H 	0.1936	0.774	0.0949	0.04
Mof_O 	O 	0.0316	0.65948	0.95406	-0.334
Mof_O 	O 	0.85677	0.71798	0.9056	-0.247
Mof_N 	N 	0.0161	0.58084	0.97509	-0.128
Mof_N 	N 	0.80573	0.72383	0.95205	-0.036
Mof_C 	C 	0.07836	0.54092	0.00877	0.051
Mof_H 	H 	0.1336	0.569	0.0149	0.028
Mof_C 	C 	0.06241	0.46033	0.03414	-0.169
Mof_H 	H 	0.1062	0.4332	0.0582	0.1
Mof_C 	C 	0.83861	0.72469	0.0079	-0.002
Mof_H 	H 	0.9006	0.7251	0.0139	0.085
Mof_C 	C 	0.78282	0.72496	0.05585	0.007
Mof_H 	H 	0.8064	0.726	0.0949	0.06
Mof_O 	O 	0.5316	0.15948	0.45406	-0.324
Mof_O 	O 	0.35677	0.21798	0.4056	-0.311
Mof_N 	N 	0.5161	0.08084	0.47509	-0.03
Mof_N 	N 	0.30573	0.22383	0.45205	-0.033
Mof_C 	C 	0.57836	0.04092	0.50877	0.002
Mof_H 	H 	0.6336	0.069	0.5149	0.051
Mof_C 	C 	0.56241	0.96033	0.53414	-0.005
Mof_H 	H 	0.6062	0.9332	0.5582	0.057
Mof_C 	C 	0.33861	0.22469	0.5079	-0.003
Mof_H 	H 	0.4006	0.2251	0.5139	0.052
Mof_C 	C 	0.28282	0.22496	0.55585	0.001
Mof_H 	H 	0.3064	0.226	0.5949	0.049
Mof_O 	O 	0.40948	0.7816	0.70406	-0.324
Mof_O 	O 	0.46798	0.60677	0.6556	-0.31
Mof_N 	N 	0.33084	0.7661	0.72509	-0.031
Mof_N 	N 	0.47383	0.55573	0.70205	-0.033
Mof_C 	C 	0.29092	0.82836	0.75877	0.003
Mof_H 	H 	0.319	0.8836	0.7649	0.049
Mof_C 	C 	0.21033	0.81241	0.78414	-0.008
Mof_H 	H 	0.1832	0.8562	0.8082	0.059
Mof_C 	C 	0.47469	0.58861	0.7579	-0.003
Mof_H 	H 	0.4751	0.6506	0.7639	0.051
Mof_C 	C 	0.47496	0.53282	0.80585	0
Mof_H 	H 	0.476	0.5564	0.8449	0.05
Mof_O 	O 	0.90948	0.2816	0.20406	-0.224
Mof_O 	O 	0.96798	0.10677	0.1556	-0.219
Mof_N 	N 	0.83084	0.2661	0.22509	-0.037
Mof_N 	N 	0.97383	0.05573	0.20205	-0.032
Mof_C 	C 	0.79092	0.32836	0.25877	0.011
Mof_H 	H 	0.819	0.3836	0.2649	0.072
Mof_C 	C 	0.71033	0.31241	0.28414	-0.003
Mof_H 	H 	0.6832	0.3562	0.3082	0.059
Mof_C 	C 	0.97469	0.08861	0.2579	0.018
Mof_H 	H 	0.9751	0.1506	0.2639	0.083
Mof_C 	C 	0.97496	0.03282	0.30585	0.021
Mof_H 	H 	0.976	0.0564	0.3449	0.07
Mof_O 	O 	0.09052	0.2184	0.20406	-0.334
Mof_O 	O 	0.03202	0.39323	0.1556	-0.315
Mof_N 	N 	0.16916	0.2339	0.22509	-0.033
Mof_N 	N 	0.02617	0.44427	0.20205	-0.043
Mof_C 	C 	0.20908	0.17164	0.25877	-0.003
Mof_H 	H 	0.181	0.1164	0.2649	0.029
Mof_C 	C 	0.28967	0.18759	0.28414	-0.007
Mof_H 	H 	0.3168	0.1438	0.3082	0.053
Mof_C 	C 	0.02531	0.41139	0.2579	-0.019
Mof_H 	H 	0.0249	0.3494	0.2639	0.026
Mof_C 	C 	0.02504	0.46718	0.30585	-0.017
Mof_H 	H 	0.024	0.4436	0.3449	0.03
Mof_O 	O 	0.59052	0.7184	0.70406	-0.323
Mof_O 	O 	0.53202	0.89323	0.6556	-0.309
Mof_N 	N 	0.66916	0.7339	0.72509	-0.029
Mof_N 	N 	0.52617	0.94427	0.70205	-0.033
Mof_C 	C 	0.70908	0.67164	0.75877	0
Mof_H 	H 	0.681	0.6164	0.7649	0.051
Mof_C 	C 	0.78967	0.68759	0.78414	0.003
Mof_H 	H 	0.8168	0.6438	0.8082	0.056
Mof_C 	C 	0.52531	0.91139	0.7579	-0.001
Mof_H 	H 	0.5249	0.8494	0.7639	0.051
Mof_C 	C 	0.52504	0.96718	0.80585	0.002
Mof_H 	H 	0.524	0.9436	0.8449	0.05
Mof_O 	O 	0.9684	0.65948	0.45406	-0.223
Mof_O 	O 	0.14323	0.71798	0.4056	-0.287
Mof_N 	N 	0.9839	0.58084	0.47509	0.059
Mof_N 	N 	0.19427	0.72383	0.45205	-0.039
Mof_C 	C 	0.92164	0.54092	0.50877	-0.044
Mof_H 	H 	0.8664	0.569	0.5149	0.072
Mof_C 	C 	0.93759	0.46033	0.53414	0.165
Mof_H 	H 	0.8938	0.4332	0.5582	0.016
Mof_C 	C 	0.16139	0.72469	0.5079	0.001
Mof_H 	H 	0.0994	0.7251	0.5139	0.024
Mof_C 	C 	0.21718	0.72496	0.55585	-0.006
Mof_H 	H 	0.1936	0.726	0.5949	0.04
Mof_O 	O 	0.4684	0.15948	0.95406	-0.324
Mof_O 	O 	0.64323	0.21798	0.9056	-0.308
Mof_N 	N 	0.4839	0.08084	0.97509	-0.03
Mof_N 	N 	0.69427	0.22383	0.95205	-0.033
Mof_C 	C 	0.42164	0.04092	0.00877	0.002
Mof_H 	H 	0.3664	0.069	0.0149	0.049
Mof_C 	C 	0.43759	0.96033	0.03414	-0.005
Mof_H 	H 	0.3938	0.9332	0.0582	0.054
Mof_C 	C 	0.66139	0.22469	0.0079	-0.002
Mof_H 	H 	0.5994	0.2251	0.0139	0.051
Mof_C 	C 	0.71718	0.22496	0.05585	0.004
Mof_H 	H 	0.6936	0.226	0.0949	0.05
Mof_O 	O 	0.5316	0.34052	0.95406	-0.324
Mof_O 	O 	0.35677	0.28202	0.9056	-0.311
Mof_N 	N 	0.5161	0.41916	0.97509	-0.03
Mof_N 	N 	0.30573	0.27617	0.95205	-0.033
Mof_C 	C 	0.57836	0.45908	0.00877	0.002
Mof_H 	H 	0.6336	0.431	0.0149	0.051
Mof_C 	C 	0.56241	0.53967	0.03414	-0.005
Mof_H 	H 	0.6062	0.5668	0.0582	0.057
Mof_C 	C 	0.33861	0.27531	0.0079	-0.003
Mof_H 	H 	0.4006	0.2749	0.0139	0.052
Mof_C 	C 	0.28282	0.27504	0.05585	0.001
Mof_H 	H 	0.3064	0.274	0.0949	0.05
Mof_O 	O 	0.0316	0.84052	0.45406	-0.334
Mof_O 	O 	0.85677	0.78202	0.4056	-0.247
Mof_N 	N 	0.0161	0.91916	0.47509	-0.127
Mof_N 	N 	0.80573	0.77617	0.45205	-0.036
Mof_C 	C 	0.07836	0.95908	0.50877	0.051
Mof_H 	H 	0.1336	0.931	0.5149	0.028
Mof_C 	C 	0.06241	0.03967	0.53414	-0.169
Mof_H 	H 	0.1062	0.0668	0.5582	0.099
Mof_C 	C 	0.83861	0.77531	0.5079	-0.002
Mof_H 	H 	0.9006	0.7749	0.5139	0.085
Mof_C 	C 	0.78282	0.77504	0.55585	0.007
Mof_H 	H 	0.8064	0.774	0.5949	0.06
Mof_O 	O 	0.09052	0.7816	0.29594	-0.333
Mof_O 	O 	0.03202	0.60677	0.3444	-0.315
Mof_N 	N 	0.16916	0.7661	0.27491	-0.033
Mof_N 	N 	0.02617	0.55573	0.29795	-0.043
Mof_C 	C 	0.20908	0.82836	0.24123	-0.003
Mof_H 	H 	0.181	0.8836	0.2351	0.029
Mof_C 	C 	0.28967	0.81241	0.21586	-0.007
Mof_H 	H 	0.3168	0.8562	0.1918	0.053
Mof_C 	C 	0.02531	0.58861	0.2421	-0.019
Mof_H 	H 	0.0249	0.6506	0.2361	0.026
Mof_C 	C 	0.02504	0.53282	0.19415	-0.017
Mof_H 	H 	0.024	0.5564	0.1551	0.03
Mof_O 	O 	0.59052	0.2816	0.79594	-0.323
Mof_O 	O 	0.53202	0.10677	0.8444	-0.309
Mof_N 	N 	0.66916	0.2661	0.77491	-0.029
Mof_N 	N 	0.52617	0.05573	0.79795	-0.033
Mof_C 	C 	0.70908	0.32836	0.74123	0
Mof_H 	H 	0.681	0.3836	0.7351	0.051
Mof_C 	C 	0.78967	0.31241	0.71586	0.003
Mof_H 	H 	0.8168	0.3562	0.6918	0.056
Mof_C 	C 	0.52531	0.08861	0.7421	-0.001
Mof_H 	H 	0.5249	0.1506	0.7361	0.051
Mof_C 	C 	0.52504	0.03282	0.69415	0.002
Mof_H 	H 	0.524	0.0564	0.6551	0.05
Mof_O 	O 	0.40948	0.2184	0.79594	-0.324
Mof_O 	O 	0.46798	0.39323	0.8444	-0.31
Mof_N 	N 	0.33084	0.2339	0.77491	-0.031
Mof_N 	N 	0.47383	0.44427	0.79795	-0.033
Mof_C 	C 	0.29092	0.17164	0.74123	0.003
Mof_H 	H 	0.319	0.1164	0.7351	0.049
Mof_C 	C 	0.21033	0.18759	0.71586	-0.008
Mof_H 	H 	0.1832	0.1438	0.6918	0.059
Mof_C 	C 	0.47469	0.41139	0.7421	-0.003
Mof_H 	H 	0.4751	0.3494	0.7361	0.051
Mof_C 	C 	0.47496	0.46718	0.69415	0
Mof_H 	H 	0.476	0.4436	0.6551	0.05
Mof_O 	O 	0.90948	0.7184	0.29594	-0.223
Mof_O 	O 	0.96798	0.89323	0.3444	-0.219
Mof_N 	N 	0.83084	0.7339	0.27491	-0.037
Mof_N 	N 	0.97383	0.94427	0.29795	-0.032
Mof_C 	C 	0.79092	0.67164	0.24123	0.011
Mof_H 	H 	0.819	0.6164	0.2351	0.072
Mof_C 	C 	0.71033	0.68759	0.21586	-0.003
Mof_H 	H 	0.6832	0.6438	0.1918	0.059
Mof_C 	C 	0.97469	0.91139	0.2421	0.018
Mof_H 	H 	0.9751	0.8494	0.2361	0.083
Mof_C 	C 	0.97496	0.96718	0.19415	0.021
Mof_H 	H 	0.976	0.9436	0.1551	0.07
Mof_O 	O 	0.5316	0.65948	0.54594	-0.323
Mof_O 	O 	0.35677	0.71798	0.5944	-0.311
Mof_N 	N 	0.5161	0.58084	0.52491	-0.03
Mof_N 	N 	0.30573	0.72383	0.54795	-0.033
Mof_C 	C 	0.57836	0.54092	0.49123	0.002
Mof_H 	H 	0.6336	0.569	0.4851	0.052
Mof_C 	C 	0.56241	0.46033	0.46586	-0.005
Mof_H 	H 	0.6062	0.4332	0.4418	0.057
Mof_C 	C 	0.33861	0.72469	0.4921	-0.003
Mof_H 	H 	0.4006	0.7251	0.4861	0.052
Mof_C 	C 	0.28282	0.72496	0.44415	0.001
Mof_H 	H 	0.3064	0.726	0.4051	0.05
Mof_O 	O 	0.0316	0.15948	0.04594	-0.334
Mof_O 	O 	0.85677	0.21798	0.0944	-0.247
Mof_N 	N 	0.0161	0.08084	0.02491	-0.126
Mof_N 	N 	0.80573	0.22383	0.04795	-0.036
Mof_C 	C 	0.07836	0.04092	0.99123	0.05
Mof_H 	H 	0.1336	0.069	0.9851	0.028
Mof_C 	C 	0.06241	0.96033	0.96586	-0.167
Mof_H 	H 	0.1062	0.9332	0.9418	0.099
Mof_C 	C 	0.83861	0.22469	0.9921	-0.002
Mof_H 	H 	0.9006	0.2251	0.9861	0.084
Mof_C 	C 	0.78282	0.22496	0.94415	0.007
Mof_H 	H 	0.8064	0.226	0.9051	0.06
Mof_O 	O 	0.9684	0.34052	0.04594	-0.223
Mof_O 	O 	0.14323	0.28202	0.0944	-0.287
Mof_N 	N 	0.9839	0.41916	0.02491	0.058
Mof_N 	N 	0.19427	0.27617	0.04795	-0.039
Mof_C 	C 	0.92164	0.45908	0.99123	-0.044
Mof_H 	H 	0.8664	0.431	0.9851	0.072
Mof_C 	C 	0.93759	0.53967	0.96586	0.163
Mof_H 	H 	0.8938	0.5668	0.9418	0.016
Mof_C 	C 	0.16139	0.27531	0.9921	0.001
Mof_H 	H 	0.0994	0.2749	0.9861	0.024
Mof_C 	C 	0.21718	0.27504	0.94415	-0.006
Mof_H 	H 	0.1936	0.274	0.9051	0.04
Mof_O 	O 	0.4684	0.84052	0.54594	-0.324
Mof_O 	O 	0.64323	0.78202	0.5944	-0.308
Mof_N 	N 	0.4839	0.91916	0.52491	-0.03
Mof_N 	N 	0.69427	0.77617	0.54795	-0.033
Mof_C 	C 	0.42164	0.95908	0.49123	0.001
Mof_H 	H 	0.3664	0.931	0.4851	0.049
Mof_C 	C 	0.43759	0.03967	0.46586	-0.005
Mof_H 	H 	0.3938	0.0668	0.4418	0.054
Mof_C 	C 	0.66139	0.77531	0.4921	-0.001
Mof_H 	H 	0.5994	0.7749	0.4861	0.051
Mof_C 	C 	0.71718	0.77504	0.44415	0.004
Mof_H 	H 	0.6936	0.774	0.4051	0.05
Mof_Er	Er	0.5	0.25	0.375	1.976
Mof_Er	Er	1.4602e-32	0.75	0.875	1.61
Mof_Er	Er	3.47536e-33	0.25	0.625	1.608
Mof_Er	Er	0.5	0.75	0.125	1.976
Mof_Er	Er	0.5	0.75	0.625	1.976
Mof_Er	Er	3.12921e-33	0.25	0.125	1.611
Mof_Er	Er	1.18218e-32	0.75	0.375	1.609
Mof_Er	Er	0.5	0.25	0.875	1.976
_end
