data_functionalizedCrystal
_audit_creation_method	'EQeq! by Chris Wilmer'
_symmetry_space_group_name_H-M	'P1'
_symmetry_Int_Tables_number	1
_symmetry_cell_setting	triclinic
loop_
_symmetry_equiv_pos_as_xyz
  x,y,z
_cell_length_a	33.463
_cell_length_b	18.874
_cell_length_c	20.335
_cell_angle_alpha	90
_cell_angle_beta	92.333
_cell_angle_gamma	90
loop_
_atom_site_label
_atom_site_type_symbol
_atom_site_fract_x
_atom_site_fract_y
_atom_site_fract_z
_atom_site_charge
Mof_Ag	Ag	0.07408	0.87922	0.22528	0.669
Mof_Ag	Ag	0.5958	0.6331	0.7554	0.677
Mof_Ag	Ag	0.81958	0.86509	0.48227	0.555
Mof_Ag	Ag	0.66292	0.17132	0.53828	0.604
Mof_C 	C 	0.8654	0.1672	0.412	0.42
Mof_C 	C 	0.8968	0.1854	0.4535	-0.46
Mof_H 	H 	0.9196	0.1559	0.4606	0.194
Mof_C 	C 	0.8928	0.2498	0.4843	0.408
Mof_C 	C 	0.8616	0.2959	0.4735	-0.451
Mof_H 	H 	0.8607	0.341	0.4941	0.21
Mof_C 	C 	0.8321	0.2726	0.4312	0.411
Mof_C 	C 	0.8333	0.2094	0.397	-0.457
Mof_H 	H 	0.8131	0.1963	0.3651	0.197
Mof_C 	C 	0.8975	0.0781	0.3474	0.212
Mof_C 	C 	0.9236	0.1196	0.3128	-0.128
Mof_C 	C 	0.9565	0.0899	0.2826	0.011
Mof_H 	H 	0.9746	0.1187	0.2595	0.027
Mof_C 	C 	0.9622	0.0157	0.2875	-0.061
Mof_C 	C 	0.9353	0.9734	0.3177	0.01
Mof_H 	H 	0.9387	0.9234	0.3185	0.023
Mof_C 	C 	0.9025	0.0047	0.3476	-0.122
Mof_C 	C 	0.9192	0.1947	0.2992	0.129
Mof_C 	C 	0.9974	0.9858	0.2604	0.093
Mof_C 	C 	0.8742	0.9624	0.3788	0.127
Mof_C 	C 	0.9613	0.2551	0.5221	0.187
Mof_C 	C 	0.9822	0.2842	0.4692	-0.115
Mof_C 	C 	0.0219	0.267	0.4619	0.006
Mof_H 	H 	0.0356	0.2848	0.4253	0.026
Mof_C 	C 	0.0417	0.224	0.5075	-0.058
Mof_C 	C 	0.0215	0.1974	0.5618	0.004
Mof_H 	H 	0.0354	0.1689	0.5937	0.025
Mof_C 	C 	0.9819	0.2126	0.5689	-0.113
Mof_C 	C 	0.9626	0.3367	0.4264	0.129
Mof_C 	C 	0.0832	0.2079	0.4993	0.089
Mof_C 	C 	0.9599	0.1849	0.6235	0.128
Mof_C 	C 	0.7763	0.3129	0.3658	0.2
Mof_C 	C 	0.7894	0.3391	0.3055	-0.125
Mof_C 	C 	0.7656	0.3354	0.2497	0.018
Mof_H 	H 	0.7747	0.3541	0.2096	0.02
Mof_C 	C 	0.7282	0.3043	0.2518	-0.065
Mof_C 	C 	0.7138	0.2786	0.3092	0.012
Mof_H 	H 	0.6878	0.2584	0.3098	0.022
Mof_C 	C 	0.7378	0.2825	0.3668	-0.12
Mof_C 	C 	0.8285	0.3723	0.3034	0.135
Mof_C 	C 	0.7037	0.2997	0.1913	0.099
Mof_C 	C 	0.7236	0.2543	0.4278	0.135
Mof_C 	C 	0.6815	0.7607	0.6132	0.439
Mof_C 	C 	0.6725	0.8173	0.6495	-0.493
Mof_H 	H 	0.6897	0.8333	0.6848	0.216
Mof_C 	C 	0.6372	0.8511	0.6329	0.449
Mof_C 	C 	0.6099	0.8265	0.5874	-0.502
Mof_H 	H 	0.5846	0.8485	0.5799	0.205
Mof_C 	C 	0.6211	0.7687	0.5532	0.43
Mof_C 	C 	0.6565	0.7327	0.5649	-0.476
Mof_H 	H 	0.6631	0.6913	0.5411	0.206
Mof_C 	C 	0.7264	0.6628	0.6054	0.188
Mof_C 	C 	0.7545	0.6563	0.5558	-0.117
Mof_C 	C 	0.7641	0.5878	0.5329	0.002
Mof_H 	H 	0.7832	0.5823	0.4999	0.033
Mof_C 	C 	0.7458	0.529	0.5587	-0.046
Mof_C 	C 	0.7189	0.5376	0.6098	0.009
Mof_H 	H 	0.7073	0.4969	0.629	0.027
Mof_C 	C 	0.7092	0.6024	0.6317	-0.124
Mof_C 	C 	0.7718	0.7177	0.5296	0.135
Mof_C 	C 	0.7525	0.4598	0.5335	0.084
Mof_C 	C 	0.6816	0.6085	0.6834	0.131
Mof_C 	C 	0.5914	0.931	0.6816	0.203
Mof_C 	C 	0.5813	0.9995	0.6651	-0.125
Mof_C 	C 	0.5438	0.027	0.6815	0.012
Mof_H 	H 	0.5374	0.0751	0.672	0.021
Mof_C 	C 	0.5165	0.9839	0.7114	-0.066
Mof_C 	C 	0.5261	0.9142	0.7265	0.018
Mof_H 	H 	0.507	0.8843	0.7458	0.024
Mof_C 	C 	0.5625	0.889	0.7139	-0.122
Mof_C 	C 	0.6094	0.0429	0.6315	0.138
Mof_C 	C 	0.4789	0.0132	0.7274	0.092
Mof_C 	C 	0.573	0.8159	0.7344	0.13
Mof_C 	C 	0.5558	0.7493	0.5027	0.193
Mof_C 	C 	0.5334	0.7166	0.5507	-0.117
Mof_C 	C 	0.4925	0.7228	0.5482	0.01
Mof_H 	H 	0.4769	0.6995	0.5797	0.026
Mof_C 	C 	0.474	0.7645	0.4979	-0.065
Mof_C 	C 	0.4962	0.7918	0.4478	0.015
Mof_H 	H 	0.4834	0.8145	0.411	0.019
Mof_C 	C 	0.5366	0.7854	0.4525	-0.124
Mof_C 	C 	0.5519	0.6673	0.5985	0.128
Mof_C 	C 	0.4316	0.7721	0.4947	0.093
Mof_C 	C 	0.561	0.8156	0.4023	0.131
Mof_N 	N 	0.9149	0.2542	0.2938	-0.191
Mof_N 	N 	0.0254	0.9615	0.2393	-0.202
Mof_N 	N 	0.8512	0.9278	0.4067	-0.208
Mof_N 	N 	0.9465	0.3746	0.3937	-0.189
Mof_N 	N 	0.1158	0.1975	0.4929	-0.183
Mof_N 	N 	0.9434	0.1636	0.6668	-0.196
Mof_N 	N 	0.8593	0.3948	0.2993	-0.208
Mof_N 	N 	0.6874	0.2987	0.142	-0.197
Mof_N 	N 	0.7102	0.2304	0.4725	-0.203
Mof_N 	N 	0.786	0.7656	0.5067	-0.213
Mof_N 	N 	0.7543	0.4055	0.5089	-0.113
Mof_N 	N 	0.6583	0.6175	0.7215	-0.215
Mof_N 	N 	0.6316	0.0725	0.6031	-0.196
Mof_N 	N 	0.449	0.0385	0.7394	-0.197
Mof_N 	N 	0.5829	0.7596	0.7411	-0.192
Mof_N 	N 	0.5691	0.6373	0.6378	-0.186
Mof_N 	N 	0.3979	0.7788	0.4937	-0.199
Mof_N 	N 	0.5813	0.8382	0.3638	-0.203
Mof_O 	O 	0.8656	0.1017	0.3781	-0.322
Mof_O 	O 	0.9225	0.272	0.5319	-0.302
Mof_O 	O 	0.799	0.3188	0.4217	-0.301
Mof_O 	O 	0.7191	0.73	0.6291	-0.317
Mof_O 	O 	0.6294	0.9105	0.6715	-0.323
Mof_O 	O 	0.5965	0.7388	0.5012	-0.306
Mof_Ag	Ag	0.92592	0.37922	0.27472	0.668
Mof_Ag	Ag	0.4042	0.1331	0.7446	0.676
Mof_Ag	Ag	0.18042	0.36509	0.01773	0.553
Mof_Ag	Ag	0.33708	0.67132	0.96172	0.603
Mof_C 	C 	0.1346	0.6672	0.088	0.419
Mof_C 	C 	0.1032	0.6854	0.0465	-0.461
Mof_H 	H 	0.0804	0.6559	0.0394	0.193
Mof_C 	C 	0.1072	0.7498	0.0157	0.407
Mof_C 	C 	0.1384	0.7959	0.0265	-0.451
Mof_H 	H 	0.1393	0.841	0.0059	0.21
Mof_C 	C 	0.1679	0.7726	0.0688	0.411
Mof_C 	C 	0.1667	0.7094	0.103	-0.457
Mof_H 	H 	0.1869	0.6963	0.1349	0.197
Mof_C 	C 	0.1025	0.5781	0.1526	0.212
Mof_C 	C 	0.0764	0.6196	0.1872	-0.128
Mof_C 	C 	0.0435	0.5899	0.2174	0.011
Mof_H 	H 	0.0254	0.6187	0.2405	0.026
Mof_C 	C 	0.0378	0.5157	0.2125	-0.062
Mof_C 	C 	0.0647	0.4734	0.1823	0.011
Mof_H 	H 	0.0613	0.4234	0.1815	0.022
Mof_C 	C 	0.0975	0.5047	0.1524	-0.123
Mof_C 	C 	0.0808	0.6947	0.2008	0.129
Mof_C 	C 	0.0026	0.4858	0.2396	0.093
Mof_C 	C 	0.1258	0.4624	0.1212	0.128
Mof_C 	C 	0.0387	0.7551	0.9779	0.188
Mof_C 	C 	0.0178	0.7842	0.0308	-0.115
Mof_C 	C 	0.9781	0.767	0.0381	0.007
Mof_H 	H 	0.9644	0.7848	0.0747	0.026
Mof_C 	C 	0.9583	0.724	0.9925	-0.059
Mof_C 	C 	0.9785	0.6974	0.9382	0.005
Mof_H 	H 	0.9646	0.6689	0.9063	0.025
Mof_C 	C 	0.0181	0.7126	0.9311	-0.113
Mof_C 	C 	0.0374	0.8367	0.0736	0.129
Mof_C 	C 	0.9168	0.7079	0.0007	0.09
Mof_C 	C 	0.0401	0.6849	0.8765	0.128
Mof_C 	C 	0.2237	0.8129	0.1342	0.2
Mof_C 	C 	0.2106	0.8391	0.1945	-0.125
Mof_C 	C 	0.2344	0.8354	0.2503	0.018
Mof_H 	H 	0.2253	0.8541	0.2904	0.02
Mof_C 	C 	0.2718	0.8043	0.2482	-0.065
Mof_C 	C 	0.2862	0.7786	0.1908	0.012
Mof_H 	H 	0.3122	0.7584	0.1902	0.022
Mof_C 	C 	0.2622	0.7825	0.1332	-0.12
Mof_C 	C 	0.1715	0.8723	0.1966	0.135
Mof_C 	C 	0.2963	0.7997	0.3087	0.099
Mof_C 	C 	0.2764	0.7543	0.0722	0.135
Mof_C 	C 	0.3185	0.2607	0.8868	0.439
Mof_C 	C 	0.3275	0.3173	0.8505	-0.493
Mof_H 	H 	0.3103	0.3333	0.8152	0.216
Mof_C 	C 	0.3628	0.3511	0.8671	0.449
Mof_C 	C 	0.3901	0.3265	0.9126	-0.502
Mof_H 	H 	0.4154	0.3485	0.9201	0.205
Mof_C 	C 	0.3789	0.2687	0.9468	0.43
Mof_C 	C 	0.3435	0.2327	0.9351	-0.476
Mof_H 	H 	0.3369	0.1913	0.9589	0.206
Mof_C 	C 	0.2736	0.1628	0.8946	0.188
Mof_C 	C 	0.2455	0.1563	0.9442	-0.117
Mof_C 	C 	0.2359	0.0878	0.9671	0.003
Mof_H 	H 	0.2168	0.0823	0.0001	0.033
Mof_C 	C 	0.2542	0.029	0.9413	-0.046
Mof_C 	C 	0.2811	0.0376	0.8902	0.01
Mof_H 	H 	0.2927	0.9969	0.871	0.027
Mof_C 	C 	0.2908	0.1024	0.8683	-0.125
Mof_C 	C 	0.2282	0.2177	0.9704	0.135
Mof_C 	C 	0.2475	0.9598	0.9665	0.084
Mof_C 	C 	0.3184	0.1085	0.8166	0.131
Mof_C 	C 	0.4086	0.431	0.8184	0.203
Mof_C 	C 	0.4187	0.4995	0.8349	-0.125
Mof_C 	C 	0.4562	0.527	0.8185	0.012
Mof_H 	H 	0.4626	0.5751	0.828	0.021
Mof_C 	C 	0.4835	0.4839	0.7886	-0.066
Mof_C 	C 	0.4739	0.4142	0.7735	0.018
Mof_H 	H 	0.493	0.3843	0.7542	0.024
Mof_C 	C 	0.4375	0.389	0.7861	-0.121
Mof_C 	C 	0.3906	0.5429	0.8685	0.138
Mof_C 	C 	0.5211	0.5132	0.7726	0.092
Mof_C 	C 	0.427	0.3159	0.7656	0.13
Mof_C 	C 	0.4442	0.2493	0.9973	0.193
Mof_C 	C 	0.4666	0.2166	0.9493	-0.117
Mof_C 	C 	0.5075	0.2228	0.9518	0.01
Mof_H 	H 	0.5231	0.1995	0.9203	0.026
Mof_C 	C 	0.526	0.2645	0.0021	-0.065
Mof_C 	C 	0.5038	0.2918	0.0522	0.016
Mof_H 	H 	0.5166	0.3145	0.089	0.019
Mof_C 	C 	0.4634	0.2854	0.0475	-0.125
Mof_C 	C 	0.4481	0.1673	0.9015	0.128
Mof_C 	C 	0.5684	0.2721	0.0053	0.093
Mof_C 	C 	0.439	0.3156	0.0977	0.131
Mof_N 	N 	0.0851	0.7542	0.2062	-0.191
Mof_N 	N 	0.9746	0.4615	0.2607	-0.202
Mof_N 	N 	0.1488	0.4278	0.0933	-0.208
Mof_N 	N 	0.0535	0.8746	0.1063	-0.189
Mof_N 	N 	0.8842	0.6975	0.0071	-0.183
Mof_N 	N 	0.0566	0.6636	0.8332	-0.196
Mof_N 	N 	0.1407	0.8948	0.2007	-0.208
Mof_N 	N 	0.3126	0.7987	0.358	-0.197
Mof_N 	N 	0.2898	0.7304	0.0275	-0.203
Mof_N 	N 	0.214	0.2656	0.9933	-0.213
Mof_N 	N 	0.2457	0.9055	0.9911	-0.113
Mof_N 	N 	0.3417	0.1175	0.7785	-0.215
Mof_N 	N 	0.3684	0.5725	0.8969	-0.196
Mof_N 	N 	0.551	0.5385	0.7606	-0.197
Mof_N 	N 	0.4171	0.2596	0.7589	-0.192
Mof_N 	N 	0.4309	0.1373	0.8622	-0.186
Mof_N 	N 	0.6021	0.2788	0.0063	-0.199
Mof_N 	N 	0.4187	0.3382	0.1362	-0.203
Mof_O 	O 	0.1344	0.6017	0.1219	-0.322
Mof_O 	O 	0.0775	0.772	0.9681	-0.302
Mof_O 	O 	0.201	0.8188	0.0783	-0.301
Mof_O 	O 	0.2809	0.23	0.8709	-0.317
Mof_O 	O 	0.3706	0.4105	0.8285	-0.323
Mof_O 	O 	0.4035	0.2388	0.9988	-0.306
Mof_Ag	Ag	0.92592	0.12078	0.77472	0.668
Mof_Ag	Ag	0.4042	0.3669	0.2446	0.676
Mof_Ag	Ag	0.18042	0.13491	0.51773	0.554
Mof_Ag	Ag	0.33708	0.82868	0.46172	0.603
Mof_C 	C 	0.1346	0.8328	0.588	0.419
Mof_C 	C 	0.1032	0.8146	0.5465	-0.461
Mof_H 	H 	0.0804	0.8441	0.5394	0.193
Mof_C 	C 	0.1072	0.7502	0.5157	0.407
Mof_C 	C 	0.1384	0.7041	0.5265	-0.451
Mof_H 	H 	0.1393	0.659	0.5059	0.21
Mof_C 	C 	0.1679	0.7274	0.5688	0.411
Mof_C 	C 	0.1667	0.7906	0.603	-0.457
Mof_H 	H 	0.1869	0.8037	0.6349	0.197
Mof_C 	C 	0.1025	0.9219	0.6526	0.212
Mof_C 	C 	0.0764	0.8804	0.6872	-0.128
Mof_C 	C 	0.0435	0.9101	0.7174	0.011
Mof_H 	H 	0.0254	0.8813	0.7405	0.027
Mof_C 	C 	0.0378	0.9843	0.7125	-0.061
Mof_C 	C 	0.0647	0.0266	0.6823	0.01
Mof_H 	H 	0.0613	0.0766	0.6815	0.023
Mof_C 	C 	0.0975	0.9953	0.6524	-0.122
Mof_C 	C 	0.0808	0.8053	0.7008	0.129
Mof_C 	C 	0.0026	0.0142	0.7396	0.093
Mof_C 	C 	0.1258	0.0376	0.6212	0.127
Mof_C 	C 	0.0387	0.7449	0.4779	0.187
Mof_C 	C 	0.0178	0.7158	0.5308	-0.115
Mof_C 	C 	0.9781	0.733	0.5381	0.006
Mof_H 	H 	0.9644	0.7152	0.5747	0.026
Mof_C 	C 	0.9583	0.776	0.4925	-0.058
Mof_C 	C 	0.9785	0.8026	0.4382	0.004
Mof_H 	H 	0.9646	0.8311	0.4063	0.025
Mof_C 	C 	0.0181	0.7874	0.4311	-0.113
Mof_C 	C 	0.0374	0.6633	0.5736	0.129
Mof_C 	C 	0.9168	0.7921	0.5007	0.089
Mof_C 	C 	0.0401	0.8151	0.3765	0.128
Mof_C 	C 	0.2237	0.6871	0.6342	0.2
Mof_C 	C 	0.2106	0.6609	0.6945	-0.125
Mof_C 	C 	0.2344	0.6646	0.7503	0.018
Mof_H 	H 	0.2253	0.6459	0.7904	0.02
Mof_C 	C 	0.2718	0.6957	0.7482	-0.065
Mof_C 	C 	0.2862	0.7214	0.6908	0.012
Mof_H 	H 	0.3122	0.7416	0.6902	0.022
Mof_C 	C 	0.2622	0.7175	0.6332	-0.12
Mof_C 	C 	0.1715	0.6277	0.6966	0.135
Mof_C 	C 	0.2963	0.7003	0.8087	0.099
Mof_C 	C 	0.2764	0.7457	0.5722	0.135
Mof_C 	C 	0.3185	0.2393	0.3868	0.439
Mof_C 	C 	0.3275	0.1827	0.3505	-0.493
Mof_H 	H 	0.3103	0.1667	0.3152	0.216
Mof_C 	C 	0.3628	0.1489	0.3671	0.449
Mof_C 	C 	0.3901	0.1735	0.4126	-0.502
Mof_H 	H 	0.4154	0.1515	0.4201	0.205
Mof_C 	C 	0.3789	0.2313	0.4468	0.43
Mof_C 	C 	0.3435	0.2673	0.4351	-0.476
Mof_H 	H 	0.3369	0.3087	0.4589	0.206
Mof_C 	C 	0.2736	0.3372	0.3946	0.188
Mof_C 	C 	0.2455	0.3437	0.4442	-0.117
Mof_C 	C 	0.2359	0.4122	0.4671	0.002
Mof_H 	H 	0.2168	0.4177	0.5001	0.033
Mof_C 	C 	0.2542	0.471	0.4413	-0.046
Mof_C 	C 	0.2811	0.4624	0.3902	0.009
Mof_H 	H 	0.2927	0.5031	0.371	0.027
Mof_C 	C 	0.2908	0.3976	0.3683	-0.124
Mof_C 	C 	0.2282	0.2823	0.4704	0.135
Mof_C 	C 	0.2475	0.5402	0.4665	0.084
Mof_C 	C 	0.3184	0.3915	0.3166	0.131
Mof_C 	C 	0.4086	0.069	0.3184	0.203
Mof_C 	C 	0.4187	0.0005	0.3349	-0.125
Mof_C 	C 	0.4562	0.973	0.3185	0.012
Mof_H 	H 	0.4626	0.9249	0.328	0.021
Mof_C 	C 	0.4835	0.0161	0.2886	-0.066
Mof_C 	C 	0.4739	0.0858	0.2735	0.018
Mof_H 	H 	0.493	0.1157	0.2542	0.024
Mof_C 	C 	0.4375	0.111	0.2861	-0.122
Mof_C 	C 	0.3906	0.9571	0.3685	0.138
Mof_C 	C 	0.5211	0.9868	0.2726	0.092
Mof_C 	C 	0.427	0.1841	0.2656	0.13
Mof_C 	C 	0.4442	0.2507	0.4973	0.193
Mof_C 	C 	0.4666	0.2834	0.4493	-0.117
Mof_C 	C 	0.5075	0.2772	0.4518	0.01
Mof_H 	H 	0.5231	0.3005	0.4203	0.026
Mof_C 	C 	0.526	0.2355	0.5021	-0.065
Mof_C 	C 	0.5038	0.2082	0.5522	0.015
Mof_H 	H 	0.5166	0.1855	0.589	0.019
Mof_C 	C 	0.4634	0.2146	0.5475	-0.124
Mof_C 	C 	0.4481	0.3327	0.4015	0.128
Mof_C 	C 	0.5684	0.2279	0.5053	0.093
Mof_C 	C 	0.439	0.1844	0.5977	0.131
Mof_N 	N 	0.0851	0.7458	0.7062	-0.191
Mof_N 	N 	0.9746	0.0385	0.7607	-0.202
Mof_N 	N 	0.1488	0.0722	0.5933	-0.208
Mof_N 	N 	0.0535	0.6254	0.6063	-0.189
Mof_N 	N 	0.8842	0.8025	0.5071	-0.183
Mof_N 	N 	0.0566	0.8364	0.3332	-0.196
Mof_N 	N 	0.1407	0.6052	0.7007	-0.208
Mof_N 	N 	0.3126	0.7013	0.858	-0.197
Mof_N 	N 	0.2898	0.7696	0.5275	-0.203
Mof_N 	N 	0.214	0.2344	0.4933	-0.213
Mof_N 	N 	0.2457	0.5945	0.4911	-0.113
Mof_N 	N 	0.3417	0.3825	0.2785	-0.215
Mof_N 	N 	0.3684	0.9275	0.3969	-0.196
Mof_N 	N 	0.551	0.9615	0.2606	-0.197
Mof_N 	N 	0.4171	0.2404	0.2589	-0.192
Mof_N 	N 	0.4309	0.3627	0.3622	-0.186
Mof_N 	N 	0.6021	0.2212	0.5063	-0.199
Mof_N 	N 	0.4187	0.1618	0.6362	-0.203
Mof_O 	O 	0.1344	0.8983	0.6219	-0.322
Mof_O 	O 	0.0775	0.728	0.4681	-0.302
Mof_O 	O 	0.201	0.6812	0.5783	-0.301
Mof_O 	O 	0.2809	0.27	0.3709	-0.317
Mof_O 	O 	0.3706	0.0895	0.3285	-0.323
Mof_O 	O 	0.4035	0.2612	0.4988	-0.306
Mof_Ag	Ag	0.07408	0.62078	0.72528	0.668
Mof_Ag	Ag	0.5958	0.8669	0.2554	0.676
Mof_Ag	Ag	0.81958	0.63491	0.98227	0.553
Mof_Ag	Ag	0.66292	0.32868	0.03828	0.603
Mof_C 	C 	0.8654	0.3328	0.912	0.419
Mof_C 	C 	0.8968	0.3146	0.9535	-0.461
Mof_H 	H 	0.9196	0.3441	0.9606	0.193
Mof_C 	C 	0.8928	0.2502	0.9843	0.407
Mof_C 	C 	0.8616	0.2041	0.9735	-0.451
Mof_H 	H 	0.8607	0.159	0.9941	0.21
Mof_C 	C 	0.8321	0.2274	0.9312	0.411
Mof_C 	C 	0.8333	0.2906	0.897	-0.457
Mof_H 	H 	0.8131	0.3037	0.8651	0.197
Mof_C 	C 	0.8975	0.4219	0.8474	0.212
Mof_C 	C 	0.9236	0.3804	0.8128	-0.128
Mof_C 	C 	0.9565	0.4101	0.7826	0.011
Mof_H 	H 	0.9746	0.3813	0.7595	0.026
Mof_C 	C 	0.9622	0.4843	0.7875	-0.062
Mof_C 	C 	0.9353	0.5266	0.8177	0.011
Mof_H 	H 	0.9387	0.5766	0.8185	0.022
Mof_C 	C 	0.9025	0.4953	0.8476	-0.123
Mof_C 	C 	0.9192	0.3053	0.7992	0.129
Mof_C 	C 	0.9974	0.5142	0.7604	0.093
Mof_C 	C 	0.8742	0.5376	0.8788	0.128
Mof_C 	C 	0.9613	0.2449	0.0221	0.188
Mof_C 	C 	0.9822	0.2158	0.9692	-0.115
Mof_C 	C 	0.0219	0.233	0.9619	0.007
Mof_H 	H 	0.0356	0.2152	0.9253	0.026
Mof_C 	C 	0.0417	0.276	0.0075	-0.059
Mof_C 	C 	0.0215	0.3026	0.0618	0.005
Mof_H 	H 	0.0354	0.3311	0.0937	0.025
Mof_C 	C 	0.9819	0.2874	0.0689	-0.113
Mof_C 	C 	0.9626	0.1633	0.9264	0.129
Mof_C 	C 	0.0832	0.2921	0.9993	0.09
Mof_C 	C 	0.9599	0.3151	0.1235	0.128
Mof_C 	C 	0.7763	0.1871	0.8658	0.2
Mof_C 	C 	0.7894	0.1609	0.8055	-0.125
Mof_C 	C 	0.7656	0.1646	0.7497	0.018
Mof_H 	H 	0.7747	0.1459	0.7096	0.02
Mof_C 	C 	0.7282	0.1957	0.7518	-0.065
Mof_C 	C 	0.7138	0.2214	0.8092	0.012
Mof_H 	H 	0.6878	0.2416	0.8098	0.022
Mof_C 	C 	0.7378	0.2175	0.8668	-0.12
Mof_C 	C 	0.8285	0.1277	0.8034	0.135
Mof_C 	C 	0.7037	0.2003	0.6913	0.099
Mof_C 	C 	0.7236	0.2457	0.9278	0.135
Mof_C 	C 	0.6815	0.7393	0.1132	0.439
Mof_C 	C 	0.6725	0.6827	0.1495	-0.493
Mof_H 	H 	0.6897	0.6667	0.1848	0.216
Mof_C 	C 	0.6372	0.6489	0.1329	0.449
Mof_C 	C 	0.6099	0.6735	0.0874	-0.502
Mof_H 	H 	0.5846	0.6515	0.0799	0.205
Mof_C 	C 	0.6211	0.7313	0.0532	0.43
Mof_C 	C 	0.6565	0.7673	0.0649	-0.476
Mof_H 	H 	0.6631	0.8087	0.0411	0.206
Mof_C 	C 	0.7264	0.8372	0.1054	0.188
Mof_C 	C 	0.7545	0.8437	0.0558	-0.117
Mof_C 	C 	0.7641	0.9122	0.0329	0.003
Mof_H 	H 	0.7832	0.9177	0.9999	0.033
Mof_C 	C 	0.7458	0.971	0.0587	-0.046
Mof_C 	C 	0.7189	0.9624	0.1098	0.01
Mof_H 	H 	0.7073	0.0031	0.129	0.027
Mof_C 	C 	0.7092	0.8976	0.1317	-0.125
Mof_C 	C 	0.7718	0.7823	0.0296	0.135
Mof_C 	C 	0.7525	0.0402	0.0335	0.084
Mof_C 	C 	0.6816	0.8915	0.1834	0.131
Mof_C 	C 	0.5914	0.569	0.1816	0.203
Mof_C 	C 	0.5813	0.5005	0.1651	-0.125
Mof_C 	C 	0.5438	0.473	0.1815	0.012
Mof_H 	H 	0.5374	0.4249	0.172	0.021
Mof_C 	C 	0.5165	0.5161	0.2114	-0.066
Mof_C 	C 	0.5261	0.5858	0.2265	0.018
Mof_H 	H 	0.507	0.6157	0.2458	0.024
Mof_C 	C 	0.5625	0.611	0.2139	-0.121
Mof_C 	C 	0.6094	0.4571	0.1315	0.138
Mof_C 	C 	0.4789	0.4868	0.2274	0.092
Mof_C 	C 	0.573	0.6841	0.2344	0.13
Mof_C 	C 	0.5558	0.7507	0.0027	0.193
Mof_C 	C 	0.5334	0.7834	0.0507	-0.117
Mof_C 	C 	0.4925	0.7772	0.0482	0.01
Mof_H 	H 	0.4769	0.8005	0.0797	0.026
Mof_C 	C 	0.474	0.7355	0.9979	-0.065
Mof_C 	C 	0.4962	0.7082	0.9478	0.016
Mof_H 	H 	0.4834	0.6855	0.911	0.019
Mof_C 	C 	0.5366	0.7146	0.9525	-0.125
Mof_C 	C 	0.5519	0.8327	0.0985	0.128
Mof_C 	C 	0.4316	0.7279	0.9947	0.093
Mof_C 	C 	0.561	0.6844	0.9023	0.131
Mof_N 	N 	0.9149	0.2458	0.7938	-0.191
Mof_N 	N 	0.0254	0.5385	0.7393	-0.202
Mof_N 	N 	0.8512	0.5722	0.9067	-0.208
Mof_N 	N 	0.9465	0.1254	0.8937	-0.189
Mof_N 	N 	0.1158	0.3025	0.9929	-0.183
Mof_N 	N 	0.9434	0.3364	0.1668	-0.196
Mof_N 	N 	0.8593	0.1052	0.7993	-0.208
Mof_N 	N 	0.6874	0.2013	0.642	-0.197
Mof_N 	N 	0.7102	0.2696	0.9725	-0.203
Mof_N 	N 	0.786	0.7344	0.0067	-0.213
Mof_N 	N 	0.7543	0.0945	0.0089	-0.113
Mof_N 	N 	0.6583	0.8825	0.2215	-0.215
Mof_N 	N 	0.6316	0.4275	0.1031	-0.196
Mof_N 	N 	0.449	0.4615	0.2394	-0.197
Mof_N 	N 	0.5829	0.7404	0.2411	-0.192
Mof_N 	N 	0.5691	0.8627	0.1378	-0.186
Mof_N 	N 	0.3979	0.7212	0.9937	-0.199
Mof_N 	N 	0.5813	0.6618	0.8638	-0.203
Mof_O 	O 	0.8656	0.3983	0.8781	-0.322
Mof_O 	O 	0.9225	0.228	0.0319	-0.302
Mof_O 	O 	0.799	0.1812	0.9217	-0.301
Mof_O 	O 	0.7191	0.77	0.1291	-0.317
Mof_O 	O 	0.6294	0.5895	0.1715	-0.323
Mof_O 	O 	0.5965	0.7612	0.0012	-0.306
_end
