# CIF file generated by openbabel 3.1.0, see https://openbabel.org
data_I
_chemical_name_common 'image0'
_cell_length_a 23.6108
_cell_length_b 15.7288
_cell_length_c 16.1612
_cell_angle_alpha 90
_cell_angle_beta 124.291
_cell_angle_gamma 90
_space_group_name_H-M_alt 'P 1'
_space_group_name_Hall 'P 1'
loop_
    _symmetry_equiv_pos_as_xyz
    x,y,z
loop_
    _atom_site_label
    _atom_site_type_symbol
    _atom_site_fract_x
    _atom_site_fract_y
    _atom_site_fract_z
    _atom_site_occupancy
    Sm1      Sm       0.81046    0.82814    0.12169    1.000
    C1       C        0.09830    0.72340    0.53030    1.000
    C2       C        0.08440    0.68840    0.59640    1.000
    H1       H        0.12010    0.66260    0.65690    1.000
    C3       C        0.01870    0.69120    0.57350    1.000
    C4       C        0.96570    0.72770    0.48570    1.000
    H2       H        0.92080    0.72970    0.47130    1.000
    C5       C        0.97900    0.76160    0.41820    1.000
    C6       C        0.04490    0.75810    0.43950    1.000
    H3       H        0.05350    0.77920    0.39260    1.000
    C7       C        0.04560    0.59520    0.70180    1.000
    C8       C        0.09990    0.61020    0.80010    1.000
    C9       C        0.14090    0.54460    0.86040    1.000
    H4       H        0.17750    0.55580    0.92780    1.000
    C10      C        0.12930    0.46270    0.82390    1.000
    C11      C        0.07390    0.44680    0.72670    1.000
    H5       H        0.06460    0.39040    0.70150    1.000
    C12      C        0.03200    0.51270    0.66620    1.000
    H6       H        0.99390    0.50110    0.60000    1.000
    C13      C        0.17050    0.72230    0.55900    1.000
    C14      C        0.17710    0.39090    0.88770    1.000
    C15      C        0.92080    0.79770    0.32100    1.000
    N1       N        0.11610    0.69590    0.84330    1.000
    O1       O        0.18694    0.76150    0.50780    1.000
    O2       O        0.21358    0.68160    0.63640    1.000
    O3       O        0.09370    0.75720    0.78760    1.000
    O4       O        0.15240    0.70220    0.93440    1.000
    O5       O        0.22096    0.40770    0.97890    1.000
    O6       O        0.16829    0.32210    0.84420    1.000
    O7       O        0.86215    0.80050    0.30460    1.000
    O8       O        0.93235    0.82270    0.25750    1.000
    O9       O        0.00225    0.65840    0.63690    1.000
    Sm2      Sm       0.31046    0.32814    0.12169    1.000
    C16      C        0.59830    0.22340    0.53030    1.000
    C17      C        0.58440    0.18840    0.59640    1.000
    H7       H        0.62010    0.16260    0.65690    1.000
    C18      C        0.51870    0.19120    0.57350    1.000
    C19      C        0.46570    0.22770    0.48570    1.000
    H8       H        0.42080    0.22970    0.47130    1.000
    C20      C        0.47900    0.26160    0.41820    1.000
    C21      C        0.54490    0.25810    0.43950    1.000
    H9       H        0.55350    0.27920    0.39260    1.000
    C22      C        0.54560    0.09520    0.70180    1.000
    C23      C        0.59990    0.11020    0.80010    1.000
    C24      C        0.64090    0.04460    0.86040    1.000
    H10      H        0.67750    0.05580    0.92780    1.000
    C25      C        0.62930    0.96270    0.82390    1.000
    C26      C        0.57390    0.94680    0.72670    1.000
    H11      H        0.56460    0.89040    0.70150    1.000
    C27      C        0.53200    0.01270    0.66620    1.000
    H12      H        0.49390    0.00110    0.60000    1.000
    C28      C        0.67050    0.22230    0.55900    1.000
    C29      C        0.67710    0.89090    0.88770    1.000
    C30      C        0.42080    0.29770    0.32100    1.000
    N2       N        0.61610    0.19590    0.84330    1.000
    O10      O        0.68694    0.26150    0.50780    1.000
    O11      O        0.71358    0.18160    0.63640    1.000
    O12      O        0.59370    0.25720    0.78760    1.000
    O13      O        0.65240    0.20220    0.93440    1.000
    O14      O        0.72096    0.90770    0.97890    1.000
    O15      O        0.66829    0.82210    0.84420    1.000
    O16      O        0.36215    0.30050    0.30460    1.000
    O17      O        0.43235    0.32270    0.25750    1.000
    O18      O        0.50225    0.15840    0.63690    1.000
    Sm3      Sm       0.18954    0.82814    0.37831    1.000
    C31      C        0.90170    0.72340    0.96970    1.000
    C32      C        0.91560    0.68840    0.90360    1.000
    H13      H        0.87990    0.66260    0.84310    1.000
    C33      C        0.98130    0.69120    0.92650    1.000
    C34      C        0.03430    0.72770    0.01430    1.000
    H14      H        0.07920    0.72970    0.02870    1.000
    C35      C        0.02100    0.76160    0.08180    1.000
    C36      C        0.95510    0.75810    0.06050    1.000
    H15      H        0.94650    0.77920    0.10740    1.000
    C37      C        0.95440    0.59520    0.79820    1.000
    C38      C        0.90010    0.61020    0.69990    1.000
    C39      C        0.85910    0.54460    0.63960    1.000
    H16      H        0.82250    0.55580    0.57220    1.000
    C40      C        0.87070    0.46270    0.67610    1.000
    C41      C        0.92610    0.44680    0.77330    1.000
    H17      H        0.93540    0.39040    0.79850    1.000
    C42      C        0.96800    0.51270    0.83380    1.000
    H18      H        0.00610    0.50110    0.90000    1.000
    C43      C        0.82950    0.72230    0.94100    1.000
    C44      C        0.82290    0.39090    0.61230    1.000
    C45      C        0.07920    0.79770    0.17900    1.000
    N3       N        0.88390    0.69590    0.65670    1.000
    O19      O        0.81306    0.76150    0.99220    1.000
    O20      O        0.78642    0.68160    0.86360    1.000
    O21      O        0.90630    0.75720    0.71240    1.000
    O22      O        0.84760    0.70220    0.56560    1.000
    O23      O        0.77904    0.40770    0.52110    1.000
    O24      O        0.83171    0.32210    0.65580    1.000
    O25      O        0.13785    0.80050    0.19540    1.000
    O26      O        0.06765    0.82270    0.24250    1.000
    O27      O        0.99775    0.65840    0.86310    1.000
    Sm4      Sm       0.68954    0.32814    0.37831    1.000
    C46      C        0.40170    0.22340    0.96970    1.000
    C47      C        0.41560    0.18840    0.90360    1.000
    H19      H        0.37990    0.16260    0.84310    1.000
    C48      C        0.48130    0.19120    0.92650    1.000
    C49      C        0.53430    0.22770    0.01430    1.000
    H20      H        0.57920    0.22970    0.02870    1.000
    C50      C        0.52100    0.26160    0.08180    1.000
    C51      C        0.45510    0.25810    0.06050    1.000
    H21      H        0.44650    0.27920    0.10740    1.000
    C52      C        0.45440    0.09520    0.79820    1.000
    C53      C        0.40010    0.11020    0.69990    1.000
    C54      C        0.35910    0.04460    0.63960    1.000
    H22      H        0.32250    0.05580    0.57220    1.000
    C55      C        0.37070    0.96270    0.67610    1.000
    C56      C        0.42610    0.94680    0.77330    1.000
    H23      H        0.43540    0.89040    0.79850    1.000
    C57      C        0.46800    0.01270    0.83380    1.000
    H24      H        0.50610    0.00110    0.90000    1.000
    C58      C        0.32950    0.22230    0.94100    1.000
    C59      C        0.32290    0.89090    0.61230    1.000
    C60      C        0.57920    0.29770    0.17900    1.000
    N4       N        0.38390    0.19590    0.65670    1.000
    O28      O        0.31306    0.26150    0.99220    1.000
    O29      O        0.28642    0.18160    0.86360    1.000
    O30      O        0.40630    0.25720    0.71240    1.000
    O31      O        0.34760    0.20220    0.56560    1.000
    O32      O        0.27904    0.90770    0.52110    1.000
    O33      O        0.33171    0.82210    0.65580    1.000
    O34      O        0.63785    0.30050    0.19540    1.000
    O35      O        0.56765    0.32270    0.24250    1.000
    O36      O        0.49775    0.15840    0.86310    1.000
    Sm5      Sm       0.18954    0.17186    0.87831    1.000
    C61      C        0.90170    0.27660    0.46970    1.000
    C62      C        0.91560    0.31160    0.40360    1.000
    H25      H        0.87990    0.33740    0.34310    1.000
    C63      C        0.98130    0.30880    0.42650    1.000
    C64      C        0.03430    0.27230    0.51430    1.000
    H26      H        0.07920    0.27030    0.52870    1.000
    C65      C        0.02100    0.23840    0.58180    1.000
    C66      C        0.95510    0.24190    0.56050    1.000
    H27      H        0.94650    0.22080    0.60740    1.000
    C67      C        0.95440    0.40480    0.29820    1.000
    C68      C        0.90010    0.38980    0.19990    1.000
    C69      C        0.85910    0.45540    0.13960    1.000
    H28      H        0.82250    0.44420    0.07220    1.000
    C70      C        0.87070    0.53730    0.17610    1.000
    C71      C        0.92610    0.55320    0.27330    1.000
    H29      H        0.93540    0.60960    0.29850    1.000
    C72      C        0.96800    0.48730    0.33380    1.000
    H30      H        0.00610    0.49890    0.40000    1.000
    C73      C        0.82950    0.27770    0.44100    1.000
    C74      C        0.82290    0.60910    0.11230    1.000
    C75      C        0.07920    0.20230    0.67900    1.000
    N5       N        0.88390    0.30410    0.15670    1.000
    O37      O        0.81306    0.23850    0.49220    1.000
    O38      O        0.78642    0.31840    0.36360    1.000
    O39      O        0.90630    0.24280    0.21240    1.000
    O40      O        0.84760    0.29780    0.06560    1.000
    O41      O        0.77904    0.59230    0.02110    1.000
    O42      O        0.83171    0.67790    0.15580    1.000
    O43      O        0.13785    0.19950    0.69540    1.000
    O44      O        0.06765    0.17730    0.74250    1.000
    O45      O        0.99775    0.34160    0.36310    1.000
    Sm6      Sm       0.68954    0.67186    0.87831    1.000
    C76      C        0.40170    0.77660    0.46970    1.000
    C77      C        0.41560    0.81160    0.40360    1.000
    H31      H        0.37990    0.83740    0.34310    1.000
    C78      C        0.48130    0.80880    0.42650    1.000
    C79      C        0.53430    0.77230    0.51430    1.000
    H32      H        0.57920    0.77030    0.52870    1.000
    C80      C        0.52100    0.73840    0.58180    1.000
    C81      C        0.45510    0.74190    0.56050    1.000
    H33      H        0.44650    0.72080    0.60740    1.000
    C82      C        0.45440    0.90480    0.29820    1.000
    C83      C        0.40010    0.88980    0.19990    1.000
    C84      C        0.35910    0.95540    0.13960    1.000
    H34      H        0.32250    0.94420    0.07220    1.000
    C85      C        0.37070    0.03730    0.17610    1.000
    C86      C        0.42610    0.05320    0.27330    1.000
    H35      H        0.43540    0.10960    0.29850    1.000
    C87      C        0.46800    0.98730    0.33380    1.000
    H36      H        0.50610    0.99890    0.40000    1.000
    C88      C        0.32950    0.77770    0.44100    1.000
    C89      C        0.32290    0.10910    0.11230    1.000
    C90      C        0.57920    0.70230    0.67900    1.000
    N6       N        0.38390    0.80410    0.15670    1.000
    O46      O        0.31306    0.73850    0.49220    1.000
    O47      O        0.28642    0.81840    0.36360    1.000
    O48      O        0.40630    0.74280    0.21240    1.000
    O49      O        0.34760    0.79780    0.06560    1.000
    O50      O        0.27904    0.09230    0.02110    1.000
    O51      O        0.33171    0.17790    0.15580    1.000
    O52      O        0.63785    0.69950    0.69540    1.000
    O53      O        0.56765    0.67730    0.74250    1.000
    O54      O        0.49775    0.84160    0.36310    1.000
    Sm7      Sm       0.81046    0.17186    0.62169    1.000
    C91      C        0.09830    0.27660    0.03030    1.000
    C92      C        0.08440    0.31160    0.09640    1.000
    H37      H        0.12010    0.33740    0.15690    1.000
    C93      C        0.01870    0.30880    0.07350    1.000
    C94      C        0.96570    0.27230    0.98570    1.000
    H38      H        0.92080    0.27030    0.97130    1.000
    C95      C        0.97900    0.23840    0.91820    1.000
    C96      C        0.04490    0.24190    0.93950    1.000
    H39      H        0.05350    0.22080    0.89260    1.000
    C97      C        0.04560    0.40480    0.20180    1.000
    C98      C        0.09990    0.38980    0.30010    1.000
    C99      C        0.14090    0.45540    0.36040    1.000
    H40      H        0.17750    0.44420    0.42780    1.000
    C100     C        0.12930    0.53730    0.32390    1.000
    C101     C        0.07390    0.55320    0.22670    1.000
    H41      H        0.06460    0.60960    0.20150    1.000
    C102     C        0.03200    0.48730    0.16620    1.000
    H42      H        0.99390    0.49890    0.10000    1.000
    C103     C        0.17050    0.27770    0.05900    1.000
    C104     C        0.17710    0.60910    0.38770    1.000
    C105     C        0.92080    0.20230    0.82100    1.000
    N7       N        0.11610    0.30410    0.34330    1.000
    O55      O        0.18694    0.23850    0.00780    1.000
    O56      O        0.21358    0.31840    0.13640    1.000
    O57      O        0.09370    0.24280    0.28760    1.000
    O58      O        0.15240    0.29780    0.43440    1.000
    O59      O        0.22096    0.59230    0.47890    1.000
    O60      O        0.16829    0.67790    0.34420    1.000
    O61      O        0.86215    0.19950    0.80460    1.000
    O62      O        0.93235    0.17730    0.75750    1.000
    O63      O        0.00225    0.34160    0.13690    1.000
    Sm8      Sm       0.31046    0.67186    0.62169    1.000
    C106     C        0.59830    0.77660    0.03030    1.000
    C107     C        0.58440    0.81160    0.09640    1.000
    H43      H        0.62010    0.83740    0.15690    1.000
    C108     C        0.51870    0.80880    0.07350    1.000
    C109     C        0.46570    0.77230    0.98570    1.000
    H44      H        0.42080    0.77030    0.97130    1.000
    C110     C        0.47900    0.73840    0.91820    1.000
    C111     C        0.54490    0.74190    0.93950    1.000
    H45      H        0.55350    0.72080    0.89260    1.000
    C112     C        0.54560    0.90480    0.20180    1.000
    C113     C        0.59990    0.88980    0.30010    1.000
    C114     C        0.64090    0.95540    0.36040    1.000
    H46      H        0.67750    0.94420    0.42780    1.000
    C115     C        0.62930    0.03730    0.32390    1.000
    C116     C        0.57390    0.05320    0.22670    1.000
    H47      H        0.56460    0.10960    0.20150    1.000
    C117     C        0.53200    0.98730    0.16620    1.000
    H48      H        0.49390    0.99890    0.10000    1.000
    C118     C        0.67050    0.77770    0.05900    1.000
    C119     C        0.67710    0.10910    0.38770    1.000
    C120     C        0.42080    0.70230    0.82100    1.000
    N8       N        0.61610    0.80410    0.34330    1.000
    O64      O        0.68694    0.73850    0.00780    1.000
    O65      O        0.71358    0.81840    0.13640    1.000
    O66      O        0.59370    0.74280    0.28760    1.000
    O67      O        0.65240    0.79780    0.43440    1.000
    O68      O        0.72096    0.09230    0.47890    1.000
    O69      O        0.66829    0.17790    0.34420    1.000
    O70      O        0.36215    0.69950    0.80460    1.000
    O71      O        0.43235    0.67730    0.75750    1.000
    O72      O        0.50225    0.84160    0.13690    1.000
