data_functionalizedCrystal
_audit_creation_method	'EQeq! by Chris Wilmer'
_symmetry_space_group_name_H-M	'P1'
_symmetry_Int_Tables_number	1
_symmetry_cell_setting	triclinic
loop_
_symmetry_equiv_pos_as_xyz
  x,y,z
_cell_length_a	6.3202
_cell_length_b	15.2843
_cell_length_c	15.2843
_cell_angle_alpha	61.8682
_cell_angle_beta	82.0773
_cell_angle_gamma	97.9227
loop_
_atom_site_label
_atom_site_type_symbol
_atom_site_fract_x
_atom_site_fract_y
_atom_site_fract_z
_atom_site_charge
Mof_Zn	Zn	0.63596	0.31291	0.42343	1.215
Mof_Zn	Zn	0.05939	0.42343	0.26366	1.214
Mof_Zn	Zn	0.32305	0.26366	0.31291	1.215
Mof_Zn	Zn	0.36404	0.68709	0.57657	1.215
Mof_Zn	Zn	0.94061	0.57657	0.73634	1.214
Mof_Zn	Zn	0.67695	0.73634	0.68709	1.215
Mof_H 	H 	0.31777	0.46516	0.56644	0.073
Mof_H 	H 	0.88421	0.56644	0.9684	0.072
Mof_H 	H 	0.85261	0.9684	0.46516	0.073
Mof_H 	H 	0.68223	0.53484	0.43356	0.073
Mof_H 	H 	0.11579	0.43356	0.0316	0.072
Mof_H 	H 	0.14739	0.0316	0.53484	0.073
Mof_C 	C 	0.26532	0.39372	0.44121	0.413
Mof_C 	C 	0.13866	0.45195	0.4653	-0.191
Mof_C 	C 	0.94293	0.46713	0.43116	0.197
Mof_C 	C 	0.18835	0.4798	0.53992	-0.087
Mof_C 	C 	0.70653	0.44121	0.16507	0.413
Mof_C 	C 	0.60396	0.4653	0.08275	-0.189
Mof_C 	C 	0.37409	0.43116	0.10171	0.196
Mof_C 	C 	0.72827	0.53992	0.98028	-0.088
Mof_C 	C 	0.8716	0.16507	0.39372	0.414
Mof_C 	C 	0.68671	0.08275	0.45195	-0.19
Mof_C 	C 	0.4758	0.10171	0.46713	0.196
Mof_C 	C 	0.70855	0.98028	0.4798	-0.087
Mof_C 	C 	0.73468	0.60628	0.55879	0.413
Mof_C 	C 	0.86134	0.54805	0.5347	-0.191
Mof_C 	C 	0.05707	0.53287	0.56884	0.197
Mof_C 	C 	0.81165	0.5202	0.46008	-0.087
Mof_C 	C 	0.29347	0.55879	0.83493	0.413
Mof_C 	C 	0.39604	0.5347	0.91725	-0.189
Mof_C 	C 	0.62591	0.56884	0.89829	0.196
Mof_C 	C 	0.27173	0.46008	0.01972	-0.088
Mof_C 	C 	0.1284	0.83493	0.60628	0.414
Mof_C 	C 	0.31329	0.91725	0.54805	-0.19
Mof_C 	C 	0.5242	0.89829	0.53287	0.196
Mof_C 	C 	0.29145	0.01972	0.5202	-0.087
Mof_O 	O 	0.39246	0.35168	0.49718	-0.453
Mof_O 	O 	0.28488	0.40053	0.35457	-0.571
Mof_O 	O 	0.88916	0.43631	0.36332	-0.596
Mof_O 	O 	0.88964	0.49718	0.15114	-0.452
Mof_O 	O 	0.63945	0.35457	0.2449	-0.57
Mof_O 	O 	0.25248	0.36332	0.20037	-0.597
Mof_O 	O 	0.04078	0.15114	0.35168	-0.454
Mof_O 	O 	0.88435	0.2449	0.40053	-0.57
Mof_O 	O 	0.45285	0.20037	0.43631	-0.596
Mof_O 	O 	0.60754	0.64832	0.50282	-0.453
Mof_O 	O 	0.71512	0.59947	0.64543	-0.571
Mof_O 	O 	0.11084	0.56369	0.63668	-0.596
Mof_O 	O 	0.11036	0.50282	0.84886	-0.452
Mof_O 	O 	0.36055	0.64543	0.7551	-0.57
Mof_O 	O 	0.74752	0.63668	0.79963	-0.597
Mof_O 	O 	0.95922	0.84886	0.64832	-0.454
Mof_O 	O 	0.11565	0.7551	0.59947	-0.57
Mof_O 	O 	0.54715	0.79963	0.56369	-0.596
_end
