data_functionalizedCrystal
_audit_creation_method	'EQeq! by Chris Wilmer'
_symmetry_space_group_name_H-M	'P1'
_symmetry_Int_Tables_number	1
_symmetry_cell_setting	triclinic
loop_
_symmetry_equiv_pos_as_xyz
  x,y,z
_cell_length_a	14.127
_cell_length_b	15.532
_cell_length_c	16.645
_cell_angle_alpha	90
_cell_angle_beta	90
_cell_angle_gamma	90
loop_
_atom_site_label
_atom_site_type_symbol
_atom_site_fract_x
_atom_site_fract_y
_atom_site_fract_z
_atom_site_charge
Mof_Pr	Pr	0.10912	0.75	0.75	3.031
Mof_Pr	Pr	0.39088	0.25	0.25	3.038
Mof_Pr	Pr	0.89088	0.25	0.25	3.031
Mof_Pr	Pr	0.60912	0.75	0.75	3.038
Mof_Ni	Ni	0.28648	0.56078	0.88479	1.108
Mof_Ni	Ni	0.28648	0.93922	0.61521	1.107
Mof_Ni	Ni	0.21352	0.43922	0.38479	1.107
Mof_Ni	Ni	0.21352	0.06078	0.11521	1.107
Mof_Ni	Ni	0.71352	0.43922	0.11521	1.107
Mof_Ni	Ni	0.71352	0.06078	0.38479	1.106
Mof_Ni	Ni	0.78648	0.56078	0.61521	1.107
Mof_Ni	Ni	0.78648	0.93922	0.88479	1.107
Mof_H 	H 	0.0972	0.7356	0.5736	0.362
Mof_H 	H 	0.0085	0.7737	0.596	0.413
Mof_H 	H 	0.2967	0.7571	0.6672	0.463
Mof_H 	H 	0.2446	0.6915	0.6251	0.438
Mof_H 	H 	0.2224	0.4571	0.691	0.142
Mof_H 	H 	0.1789	0.4353	0.7756	0.134
Mof_H 	H 	0.4286	0.4971	0.7169	0.16
Mof_H 	H 	0.343	0.5473	0.6798	0.173
Mof_H 	H 	0.3018	0.371	0.8369	0.069
Mof_H 	H 	0.3784	0.374	0.7685	0.074
Mof_H 	H 	0.4777	0.4571	0.8487	0.055
Mof_H 	H 	0.4514	0.3727	0.8958	0.055
Mof_H 	H 	0.3536	0.3655	0.9929	0.118
Mof_H 	H 	0.3495	0.4434	0.0525	0.139
Mof_H 	H 	0.493	0.5649	0.9414	0.065
Mof_H 	H 	0.4345	0.5642	0.0213	0.05
Mof_H 	H 	0.0972	0.7644	0.9264	0.361
Mof_H 	H 	0.0085	0.7263	0.904	0.412
Mof_H 	H 	0.2967	0.7429	0.8328	0.463
Mof_H 	H 	0.2446	0.8085	0.8749	0.437
Mof_H 	H 	0.2224	0.0429	0.809	0.142
Mof_H 	H 	0.1789	0.0647	0.7244	0.134
Mof_H 	H 	0.4286	0.0029	0.7831	0.164
Mof_H 	H 	0.343	0.9527	0.8202	0.174
Mof_H 	H 	0.3018	0.129	0.6631	0.07
Mof_H 	H 	0.3784	0.126	0.7315	0.074
Mof_H 	H 	0.4777	0.0429	0.6513	0.055
Mof_H 	H 	0.4514	0.1273	0.6042	0.055
Mof_H 	H 	0.3536	0.1345	0.5071	0.118
Mof_H 	H 	0.3495	0.0566	0.4475	0.138
Mof_H 	H 	0.493	0.9351	0.5586	0.065
Mof_H 	H 	0.4345	0.9358	0.4787	0.05
Mof_H 	H 	0.4028	0.2644	0.0736	0.363
Mof_H 	H 	0.4915	0.2263	0.096	0.414
Mof_H 	H 	0.2033	0.2429	0.1672	0.464
Mof_H 	H 	0.2554	0.3085	0.1251	0.438
Mof_H 	H 	0.2776	0.5429	0.191	0.142
Mof_H 	H 	0.3211	0.5647	0.2756	0.135
Mof_H 	H 	0.0714	0.5029	0.2169	0.161
Mof_H 	H 	0.157	0.4527	0.1798	0.173
Mof_H 	H 	0.1982	0.629	0.3369	0.069
Mof_H 	H 	0.1216	0.626	0.2685	0.074
Mof_H 	H 	0.0223	0.5429	0.3487	0.055
Mof_H 	H 	0.0486	0.6273	0.3958	0.055
Mof_H 	H 	0.1464	0.6345	0.4929	0.118
Mof_H 	H 	0.1505	0.5566	0.5525	0.138
Mof_H 	H 	0.007	0.4351	0.4414	0.066
Mof_H 	H 	0.0655	0.4358	0.5213	0.05
Mof_H 	H 	0.4028	0.2356	0.4264	0.363
Mof_H 	H 	0.4915	0.2737	0.404	0.414
Mof_H 	H 	0.2033	0.2571	0.3328	0.464
Mof_H 	H 	0.2554	0.1915	0.3749	0.438
Mof_H 	H 	0.2776	0.9571	0.309	0.142
Mof_H 	H 	0.3211	0.9353	0.2244	0.135
Mof_H 	H 	0.0714	0.9971	0.2831	0.157
Mof_H 	H 	0.157	0.0473	0.3202	0.172
Mof_H 	H 	0.1982	0.871	0.1631	0.069
Mof_H 	H 	0.1216	0.874	0.2315	0.074
Mof_H 	H 	0.0223	0.9571	0.1513	0.055
Mof_H 	H 	0.0486	0.8727	0.1042	0.055
Mof_H 	H 	0.1464	0.8655	0.0071	0.116
Mof_H 	H 	0.1505	0.9434	0.9475	0.131
Mof_H 	H 	0.007	0.0649	0.0586	0.066
Mof_H 	H 	0.0655	0.0642	0.9787	0.048
Mof_H 	H 	0.9028	0.2644	0.4264	0.362
Mof_H 	H 	0.9915	0.2263	0.404	0.413
Mof_H 	H 	0.7033	0.2429	0.3328	0.463
Mof_H 	H 	0.7554	0.3085	0.3749	0.438
Mof_H 	H 	0.7776	0.5429	0.309	0.142
Mof_H 	H 	0.8211	0.5647	0.2244	0.134
Mof_H 	H 	0.5714	0.5029	0.2831	0.16
Mof_H 	H 	0.657	0.4527	0.3202	0.173
Mof_H 	H 	0.6982	0.629	0.1631	0.069
Mof_H 	H 	0.6216	0.626	0.2315	0.074
Mof_H 	H 	0.5223	0.5429	0.1513	0.055
Mof_H 	H 	0.5486	0.6273	0.1042	0.055
Mof_H 	H 	0.6464	0.6345	0.0071	0.118
Mof_H 	H 	0.6505	0.5566	0.9475	0.139
Mof_H 	H 	0.507	0.4351	0.0586	0.065
Mof_H 	H 	0.5655	0.4358	0.9787	0.05
Mof_H 	H 	0.9028	0.2356	0.0736	0.361
Mof_H 	H 	0.9915	0.2737	0.096	0.412
Mof_H 	H 	0.7033	0.2571	0.1672	0.463
Mof_H 	H 	0.7554	0.1915	0.1251	0.437
Mof_H 	H 	0.7776	0.9571	0.191	0.142
Mof_H 	H 	0.8211	0.9353	0.2756	0.134
Mof_H 	H 	0.5714	0.9971	0.2169	0.164
Mof_H 	H 	0.657	0.0473	0.1798	0.174
Mof_H 	H 	0.6982	0.871	0.3369	0.07
Mof_H 	H 	0.6216	0.874	0.2685	0.074
Mof_H 	H 	0.5223	0.9571	0.3487	0.055
Mof_H 	H 	0.5486	0.8727	0.3958	0.055
Mof_H 	H 	0.6464	0.8655	0.4929	0.118
Mof_H 	H 	0.6505	0.9434	0.5525	0.138
Mof_H 	H 	0.507	0.0649	0.4414	0.065
Mof_H 	H 	0.5655	0.0642	0.5213	0.05
Mof_H 	H 	0.5972	0.7356	0.9264	0.363
Mof_H 	H 	0.5085	0.7737	0.904	0.414
Mof_H 	H 	0.7967	0.7571	0.8328	0.464
Mof_H 	H 	0.7446	0.6915	0.8749	0.438
Mof_H 	H 	0.7224	0.4571	0.809	0.142
Mof_H 	H 	0.6789	0.4353	0.7244	0.135
Mof_H 	H 	0.9286	0.4971	0.7831	0.161
Mof_H 	H 	0.843	0.5473	0.8202	0.173
Mof_H 	H 	0.8018	0.371	0.6631	0.069
Mof_H 	H 	0.8784	0.374	0.7315	0.074
Mof_H 	H 	0.9777	0.4571	0.6513	0.055
Mof_H 	H 	0.9514	0.3727	0.6042	0.055
Mof_H 	H 	0.8536	0.3655	0.5071	0.118
Mof_H 	H 	0.8495	0.4434	0.4475	0.138
Mof_H 	H 	0.993	0.5649	0.5586	0.066
Mof_H 	H 	0.9345	0.5642	0.4787	0.05
Mof_H 	H 	0.5972	0.7644	0.5736	0.363
Mof_H 	H 	0.5085	0.7263	0.596	0.414
Mof_H 	H 	0.7967	0.7429	0.6672	0.464
Mof_H 	H 	0.7446	0.8085	0.6251	0.438
Mof_H 	H 	0.7224	0.0429	0.691	0.142
Mof_H 	H 	0.6789	0.0647	0.7756	0.135
Mof_H 	H 	0.9286	0.0029	0.7169	0.157
Mof_H 	H 	0.843	0.9527	0.6798	0.172
Mof_H 	H 	0.8018	0.129	0.8369	0.069
Mof_H 	H 	0.8784	0.126	0.7685	0.074
Mof_H 	H 	0.9777	0.0429	0.8487	0.055
Mof_H 	H 	0.9514	0.1273	0.8958	0.055
Mof_H 	H 	0.8536	0.1345	0.9929	0.116
Mof_H 	H 	0.8495	0.0566	0.0525	0.131
Mof_H 	H 	0.993	0.9351	0.9414	0.066
Mof_H 	H 	0.9345	0.9358	0.0213	0.048
Mof_C 	C 	0.1672	0.5637	0.7473	0.415
Mof_C 	C 	0.216	0.4771	0.7459	-0.351
Mof_C 	C 	0.3754	0.5342	0.7297	-0.416
Mof_C 	C 	0.413	0.6173	0.7652	0.541
Mof_C 	C 	0.3509	0.4061	0.8127	-0.131
Mof_C 	C 	0.4262	0.4261	0.8743	-0.086
Mof_C 	C 	0.3334	0.4249	0.9986	-0.341
Mof_C 	C 	0.2277	0.4289	0.9888	0.382
Mof_C 	C 	0.4628	0.5277	0.9806	-0.085
Mof_C 	C 	0.2348	0.6598	0.0299	0.109
Mof_C 	C 	0.1672	0.9363	0.7527	0.411
Mof_C 	C 	0.216	0.0229	0.7541	-0.346
Mof_C 	C 	0.3754	0.9658	0.7703	-0.423
Mof_C 	C 	0.413	0.8827	0.7348	0.543
Mof_C 	C 	0.3509	0.0939	0.6873	-0.131
Mof_C 	C 	0.4262	0.0739	0.6257	-0.085
Mof_C 	C 	0.3334	0.0751	0.5014	-0.34
Mof_C 	C 	0.2277	0.0711	0.5112	0.385
Mof_C 	C 	0.4628	0.9723	0.5194	-0.084
Mof_C 	C 	0.2348	0.8402	0.4701	0.104
Mof_C 	C 	0.3328	0.4363	0.2473	0.415
Mof_C 	C 	0.284	0.5229	0.2459	-0.351
Mof_C 	C 	0.1246	0.4658	0.2297	-0.416
Mof_C 	C 	0.087	0.3827	0.2652	0.541
Mof_C 	C 	0.1491	0.5939	0.3127	-0.131
Mof_C 	C 	0.0738	0.5739	0.3743	-0.086
Mof_C 	C 	0.1666	0.5751	0.4986	-0.34
Mof_C 	C 	0.2723	0.5711	0.4888	0.385
Mof_C 	C 	0.0372	0.4723	0.4806	-0.084
Mof_C 	C 	0.2652	0.3402	0.5299	0.105
Mof_C 	C 	0.3328	0.0637	0.2527	0.416
Mof_C 	C 	0.284	0.9771	0.2541	-0.351
Mof_C 	C 	0.1246	0.0342	0.2703	-0.409
Mof_C 	C 	0.087	0.1173	0.2348	0.539
Mof_C 	C 	0.1491	0.9061	0.1873	-0.13
Mof_C 	C 	0.0738	0.9261	0.1257	-0.086
Mof_C 	C 	0.1666	0.9249	0.0014	-0.331
Mof_C 	C 	0.2723	0.9289	0.0112	0.387
Mof_C 	C 	0.0372	0.0277	0.0194	-0.081
Mof_C 	C 	0.2652	0.1598	0.9701	0.104
Mof_C 	C 	0.8328	0.4363	0.2527	0.415
Mof_C 	C 	0.784	0.5229	0.2541	-0.351
Mof_C 	C 	0.6246	0.4658	0.2703	-0.416
Mof_C 	C 	0.587	0.3827	0.2348	0.541
Mof_C 	C 	0.6491	0.5939	0.1873	-0.131
Mof_C 	C 	0.5738	0.5739	0.1257	-0.086
Mof_C 	C 	0.6666	0.5751	0.0014	-0.341
Mof_C 	C 	0.7723	0.5711	0.0112	0.382
Mof_C 	C 	0.5372	0.4723	0.0194	-0.085
Mof_C 	C 	0.7652	0.3402	0.9701	0.109
Mof_C 	C 	0.8328	0.0637	0.2473	0.411
Mof_C 	C 	0.784	0.9771	0.2459	-0.346
Mof_C 	C 	0.6246	0.0342	0.2297	-0.423
Mof_C 	C 	0.587	0.1173	0.2652	0.543
Mof_C 	C 	0.6491	0.9061	0.3127	-0.131
Mof_C 	C 	0.5738	0.9261	0.3743	-0.085
Mof_C 	C 	0.6666	0.9249	0.4986	-0.34
Mof_C 	C 	0.7723	0.9289	0.4888	0.385
Mof_C 	C 	0.5372	0.0277	0.4806	-0.084
Mof_C 	C 	0.7652	0.1598	0.5299	0.104
Mof_C 	C 	0.6672	0.5637	0.7527	0.415
Mof_C 	C 	0.716	0.4771	0.7541	-0.351
Mof_C 	C 	0.8754	0.5342	0.7703	-0.416
Mof_C 	C 	0.913	0.6173	0.7348	0.541
Mof_C 	C 	0.8509	0.4061	0.6873	-0.131
Mof_C 	C 	0.9262	0.4261	0.6257	-0.086
Mof_C 	C 	0.8334	0.4249	0.5014	-0.34
Mof_C 	C 	0.7277	0.4289	0.5112	0.385
Mof_C 	C 	0.9628	0.5277	0.5194	-0.084
Mof_C 	C 	0.7348	0.6598	0.4701	0.105
Mof_C 	C 	0.6672	0.9363	0.7473	0.416
Mof_C 	C 	0.716	0.0229	0.7459	-0.351
Mof_C 	C 	0.8754	0.9658	0.7297	-0.409
Mof_C 	C 	0.913	0.8827	0.7652	0.539
Mof_C 	C 	0.8509	0.0939	0.8127	-0.13
Mof_C 	C 	0.9262	0.0739	0.8743	-0.086
Mof_C 	C 	0.8334	0.0751	0.9986	-0.331
Mof_C 	C 	0.7277	0.0711	0.9888	0.387
Mof_C 	C 	0.9628	0.9723	0.9806	-0.081
Mof_C 	C 	0.7348	0.8402	0.0299	0.104
Mof_S 	S 	0.185	0.701	0.117	-0.096
Mof_S 	S 	0.185	0.799	0.383	-0.097
Mof_S 	S 	0.315	0.299	0.617	-0.096
Mof_S 	S 	0.315	0.201	0.883	-0.096
Mof_S 	S 	0.815	0.299	0.883	-0.096
Mof_S 	S 	0.815	0.201	0.617	-0.097
Mof_S 	S 	0.685	0.701	0.383	-0.096
Mof_S 	S 	0.685	0.799	0.117	-0.096
Mof_N 	N 	0.3099	0.4868	0.7828	-0.092
Mof_N 	N 	0.3871	0.4784	0.9403	-0.138
Mof_N 	N 	0.2678	0.6393	0.9751	-0.286
Mof_N 	N 	0.3099	0.0132	0.7172	-0.091
Mof_N 	N 	0.3871	0.0216	0.5597	-0.138
Mof_N 	N 	0.2678	0.8607	0.5249	-0.283
Mof_N 	N 	0.1901	0.5132	0.2828	-0.092
Mof_N 	N 	0.1129	0.5216	0.4403	-0.138
Mof_N 	N 	0.2322	0.3607	0.4751	-0.283
Mof_N 	N 	0.1901	0.9868	0.2172	-0.094
Mof_N 	N 	0.1129	0.9784	0.0597	-0.14
Mof_N 	N 	0.2322	0.1393	0.0249	-0.282
Mof_N 	N 	0.6901	0.5132	0.2172	-0.092
Mof_N 	N 	0.6129	0.5216	0.0597	-0.138
Mof_N 	N 	0.7322	0.3607	0.0249	-0.286
Mof_N 	N 	0.6901	0.9868	0.2828	-0.091
Mof_N 	N 	0.6129	0.9784	0.4403	-0.138
Mof_N 	N 	0.7322	0.1393	0.4751	-0.283
Mof_N 	N 	0.8099	0.4868	0.7172	-0.092
Mof_N 	N 	0.8871	0.4784	0.5597	-0.138
Mof_N 	N 	0.7678	0.6393	0.5249	-0.283
Mof_N 	N 	0.8099	0.0132	0.7828	-0.094
Mof_N 	N 	0.8871	0.0216	0.9403	-0.14
Mof_N 	N 	0.7678	0.8607	0.9751	-0.282
Mof_O 	O 	0.1822	0.6117	0.8087	-0.617
Mof_O 	O 	0.1167	0.5868	0.6909	-0.459
Mof_O 	O 	0.3853	0.6398	0.8341	-0.496
Mof_O 	O 	0.47	0.6583	0.7237	-0.59
Mof_O 	O 	0.1936	0.4746	0.934	-0.414
Mof_O 	O 	0.1814	0.3859	0.0382	-0.317
Mof_O 	O 	0.0512	0.7377	0.6069	-0.989
Mof_O 	O 	0.2571	0.7174	0.6684	-1.08
Mof_O 	O 	0.1822	0.8883	0.6913	-0.617
Mof_O 	O 	0.1167	0.9132	0.8091	-0.459
Mof_O 	O 	0.3853	0.8602	0.6659	-0.497
Mof_O 	O 	0.47	0.8417	0.7763	-0.59
Mof_O 	O 	0.1936	0.0254	0.566	-0.413
Mof_O 	O 	0.1814	0.1141	0.4618	-0.319
Mof_O 	O 	0.0512	0.7623	0.8931	-0.99
Mof_O 	O 	0.2571	0.7826	0.8316	-1.08
Mof_O 	O 	0.3178	0.3883	0.3087	-0.618
Mof_O 	O 	0.3833	0.4132	0.1909	-0.458
Mof_O 	O 	0.1147	0.3602	0.3341	-0.496
Mof_O 	O 	0.03	0.3417	0.2237	-0.587
Mof_O 	O 	0.3064	0.5254	0.434	-0.414
Mof_O 	O 	0.3186	0.6141	0.5382	-0.32
Mof_O 	O 	0.4488	0.2623	0.1069	-0.99
Mof_O 	O 	0.2429	0.2826	0.1684	-1.082
Mof_O 	O 	0.3178	0.1117	0.1913	-0.618
Mof_O 	O 	0.3833	0.0868	0.3091	-0.459
Mof_O 	O 	0.1147	0.1398	0.1659	-0.495
Mof_O 	O 	0.03	0.1583	0.2763	-0.586
Mof_O 	O 	0.3064	0.9746	0.066	-0.414
Mof_O 	O 	0.3186	0.8859	0.9618	-0.323
Mof_O 	O 	0.4488	0.2377	0.3931	-0.99
Mof_O 	O 	0.2429	0.2174	0.3316	-1.081
Mof_O 	O 	0.8178	0.3883	0.1913	-0.617
Mof_O 	O 	0.8833	0.4132	0.3091	-0.459
Mof_O 	O 	0.6147	0.3602	0.1659	-0.496
Mof_O 	O 	0.53	0.3417	0.2763	-0.59
Mof_O 	O 	0.8064	0.5254	0.066	-0.414
Mof_O 	O 	0.8186	0.6141	0.9618	-0.317
Mof_O 	O 	0.9488	0.2623	0.3931	-0.989
Mof_O 	O 	0.7429	0.2826	0.3316	-1.08
Mof_O 	O 	0.8178	0.1117	0.3087	-0.617
Mof_O 	O 	0.8833	0.0868	0.1909	-0.459
Mof_O 	O 	0.6147	0.1398	0.3341	-0.497
Mof_O 	O 	0.53	0.1583	0.2237	-0.59
Mof_O 	O 	0.8064	0.9746	0.434	-0.413
Mof_O 	O 	0.8186	0.8859	0.5382	-0.319
Mof_O 	O 	0.9488	0.2377	0.1069	-0.99
Mof_O 	O 	0.7429	0.2174	0.1684	-1.08
Mof_O 	O 	0.6822	0.6117	0.6913	-0.618
Mof_O 	O 	0.6167	0.5868	0.8091	-0.458
Mof_O 	O 	0.8853	0.6398	0.6659	-0.496
Mof_O 	O 	0.97	0.6583	0.7763	-0.587
Mof_O 	O 	0.6936	0.4746	0.566	-0.414
Mof_O 	O 	0.6814	0.3859	0.4618	-0.32
Mof_O 	O 	0.5512	0.7377	0.8931	-0.99
Mof_O 	O 	0.7571	0.7174	0.8316	-1.082
Mof_O 	O 	0.6822	0.8883	0.8087	-0.618
Mof_O 	O 	0.6167	0.9132	0.6909	-0.459
Mof_O 	O 	0.8853	0.8602	0.8341	-0.495
Mof_O 	O 	0.97	0.8417	0.7237	-0.586
Mof_O 	O 	0.6936	0.0254	0.934	-0.414
Mof_O 	O 	0.6814	0.1141	0.0382	-0.323
Mof_O 	O 	0.5512	0.7623	0.6069	-0.99
Mof_O 	O 	0.7571	0.7826	0.6684	-1.081
_end
