# CIF file generated by openbabel 3.1.0, see https://openbabel.org
data_I
_chemical_name_common 'image0'
_cell_length_a 19.719
_cell_length_b 15.6642
_cell_length_c 27.118
_cell_angle_alpha 90
_cell_angle_beta 90
_cell_angle_gamma 90
_space_group_name_H-M_alt 'P 1'
_space_group_name_Hall 'P 1'
loop_
    _symmetry_equiv_pos_as_xyz
    x,y,z
loop_
    _atom_site_label
    _atom_site_type_symbol
    _atom_site_fract_x
    _atom_site_fract_y
    _atom_site_fract_z
    _atom_site_occupancy
    Co1      Co       0.01765    0.22862    0.52252    1.000
    Co2      Co       0.03824    0.12752    0.42047    1.000
    Co3      Co       0.96101    0.94923    0.37638    1.000
    O1       O        0.95201    0.21084    0.42076    1.000
    O2       O        0.93020    0.26255    0.49571    1.000
    O3       O        0.62153    0.38070    0.38335    1.000
    O4       O        0.66060    0.49550    0.36810    1.000
    C1       C        0.91736    0.25293    0.45050    1.000
    C2       C        0.66890    0.42400    0.38821    1.000
    C3       C        0.85492    0.29750    0.43240    1.000
    C4       C        0.79827    0.25270    0.42032    1.000
    H1       H        0.79870    0.19340    0.42130    1.000
    C5       C        0.73879    0.29680    0.40628    1.000
    H2       H        0.69990    0.26570    0.39890    1.000
    C6       C        0.73672    0.38360    0.40321    1.000
    C7       C        0.79468    0.43200    0.41393    1.000
    C8       C        0.79880    0.52430    0.41208    1.000
    H3       H        0.76110    0.55560    0.40230    1.000
    C9       C        0.85710    0.56630    0.42440    1.000
    H4       H        0.85820    0.62560    0.42280    1.000
    C10      C        0.91340    0.52340    0.43884    1.000
    H5       H        0.95260    0.55330    0.44710    1.000
    C11      C        0.91272    0.43730    0.44127    1.000
    H6       H        0.95190    0.40890    0.45100    1.000
    C12      C        0.85403    0.38865    0.42952    1.000
    O5       O        0.91006    0.05141    0.52634    1.000
    O6       O        0.88219    0.95981    0.58598    1.000
    O7       O        0.58481    0.19777    0.51087    1.000
    O8       O        0.60680    0.27181    0.57964    1.000
    C13      C        0.87035    0.02193    0.55815    1.000
    C14      C        0.61868    0.21391    0.54916    1.000
    C15      C        0.80244    0.06665    0.56121    1.000
    C16      C        0.80276    0.15240    0.55256    1.000
    H7       H        0.84380    0.18030    0.54730    1.000
    C17      C        0.74208    0.19931    0.55142    1.000
    H8       H        0.74380    0.25810    0.54690    1.000
    C18      C        0.68110    0.16066    0.55671    1.000
    C19      C        0.67776    0.07064    0.56557    1.000
    C20      C        0.61504    0.02840    0.57155    1.000
    H9       H        0.57490    0.05940    0.56940    1.000
    C21      C        0.61260    0.94260    0.58040    1.000
    H10      H        0.57110    0.91530    0.58430    1.000
    C22      C        0.67290    0.89630    0.58360    1.000
    H11      H        0.67110    0.83800    0.59010    1.000
    C23      C        0.73427    0.93430    0.57762    1.000
    H12      H        0.77340    0.90140    0.57930    1.000
    C24      C        0.73986    0.02370    0.56876    1.000
    O9       O        0.02166    0.84857    0.37621    1.000
    O10      O        0.99212    0.72673    0.41106    1.000
    O11      O        0.97275    0.63261    0.15533    1.000
    O12      O        0.02203    0.51383    0.18491    1.000
    C25      C        0.01018    0.77022    0.37446    1.000
    C26      C        0.00185    0.59060    0.18802    1.000
    C27      C        0.01681    0.72299    0.32654    1.000
    C28      C        0.98053    0.64980    0.32183    1.000
    H13      H        0.95670    0.62910    0.34890    1.000
    C29      C        0.97791    0.60450    0.27713    1.000
    H14      H        0.95320    0.55410    0.27510    1.000
    C30      C        0.01147    0.63420    0.23668    1.000
    C31      C        0.05315    0.70850    0.24021    1.000
    C32      C        0.09203    0.73770    0.19991    1.000
    H15      H        0.08980    0.70880    0.17000    1.000
    C33      C        0.13290    0.80750    0.20413    1.000
    H16      H        0.15800    0.82620    0.17720    1.000
    C34      C        0.13680    0.85090    0.24892    1.000
    H17      H        0.16520    0.89810    0.25160    1.000
    C35      C        0.10012    0.82550    0.28864    1.000
    H18      H        0.10370    0.85570    0.31800    1.000
    C36      C        0.05666    0.75400    0.28622    1.000
    O13      O        0.04774    0.11848    0.49910    1.000
    H19      H        0.09570    0.11100    0.50760    1.000
    O14      O        0.96724    0.03204    0.43015    1.000
    H20      H        0.92280    0.05940    0.43350    1.000
    O15      O        0.66440    0.50790    0.39400    1.000
    Co4      Co       0.48235    0.77138    0.02252    1.000
    Co5      Co       0.46176    0.87248    0.92047    1.000
    Co6      Co       0.53899    0.05077    0.87638    1.000
    O16      O        0.54799    0.78916    0.92076    1.000
    O17      O        0.56980    0.73745    0.99571    1.000
    O18      O        0.87847    0.61930    0.88335    1.000
    O19      O        0.83940    0.50450    0.86810    1.000
    C37      C        0.58264    0.74707    0.95050    1.000
    C38      C        0.83110    0.57600    0.88821    1.000
    C39      C        0.64508    0.70250    0.93240    1.000
    C40      C        0.70173    0.74730    0.92032    1.000
    H21      H        0.70130    0.80660    0.92130    1.000
    C41      C        0.76121    0.70320    0.90628    1.000
    H22      H        0.80010    0.73430    0.89890    1.000
    C42      C        0.76328    0.61640    0.90321    1.000
    C43      C        0.70532    0.56800    0.91393    1.000
    C44      C        0.70120    0.47570    0.91208    1.000
    H23      H        0.73890    0.44440    0.90230    1.000
    C45      C        0.64290    0.43370    0.92440    1.000
    H24      H        0.64180    0.37440    0.92280    1.000
    C46      C        0.58660    0.47660    0.93884    1.000
    H25      H        0.54740    0.44670    0.94710    1.000
    C47      C        0.58728    0.56270    0.94127    1.000
    H26      H        0.54810    0.59110    0.95100    1.000
    C48      C        0.64597    0.61135    0.92952    1.000
    O20      O        0.58994    0.94859    0.02634    1.000
    O21      O        0.61781    0.04019    0.08598    1.000
    O22      O        0.91519    0.80223    0.01087    1.000
    O23      O        0.89320    0.72819    0.07964    1.000
    C49      C        0.62965    0.97807    0.05815    1.000
    C50      C        0.88132    0.78609    0.04916    1.000
    C51      C        0.69756    0.93335    0.06121    1.000
    C52      C        0.69724    0.84760    0.05256    1.000
    H27      H        0.65620    0.81970    0.04730    1.000
    C53      C        0.75792    0.80069    0.05142    1.000
    H28      H        0.75620    0.74190    0.04690    1.000
    C54      C        0.81890    0.83934    0.05671    1.000
    C55      C        0.82224    0.92936    0.06557    1.000
    C56      C        0.88496    0.97160    0.07155    1.000
    H29      H        0.92510    0.94060    0.06940    1.000
    C57      C        0.88740    0.05740    0.08040    1.000
    H30      H        0.92890    0.08470    0.08430    1.000
    C58      C        0.82710    0.10370    0.08360    1.000
    H31      H        0.82890    0.16200    0.09010    1.000
    C59      C        0.76573    0.06570    0.07762    1.000
    H32      H        0.72660    0.09860    0.07930    1.000
    C60      C        0.76014    0.97630    0.06876    1.000
    O24      O        0.47834    0.15143    0.87621    1.000
    O25      O        0.50788    0.27327    0.91106    1.000
    O26      O        0.52725    0.36739    0.65533    1.000
    O27      O        0.47797    0.48617    0.68491    1.000
    C61      C        0.48982    0.22978    0.87446    1.000
    C62      C        0.49815    0.40940    0.68802    1.000
    C63      C        0.48319    0.27701    0.82654    1.000
    C64      C        0.51947    0.35020    0.82183    1.000
    H33      H        0.54330    0.37090    0.84890    1.000
    C65      C        0.52209    0.39550    0.77713    1.000
    H34      H        0.54680    0.44590    0.77510    1.000
    C66      C        0.48853    0.36580    0.73668    1.000
    C67      C        0.44685    0.29150    0.74021    1.000
    C68      C        0.40797    0.26230    0.69991    1.000
    H35      H        0.41020    0.29120    0.67000    1.000
    C69      C        0.36710    0.19250    0.70413    1.000
    H36      H        0.34200    0.17380    0.67720    1.000
    C70      C        0.36320    0.14910    0.74892    1.000
    H37      H        0.33480    0.10190    0.75160    1.000
    C71      C        0.39988    0.17450    0.78864    1.000
    H38      H        0.39630    0.14430    0.81800    1.000
    C72      C        0.44334    0.24600    0.78622    1.000
    O28      O        0.45226    0.88152    0.99910    1.000
    H39      H        0.40430    0.88900    0.00760    1.000
    O29      O        0.53276    0.96796    0.93015    1.000
    H40      H        0.57720    0.94060    0.93350    1.000
    O30      O        0.83560    0.49210    0.89400    1.000
    Co7      Co       0.98235    0.72862    0.97748    1.000
    Co8      Co       0.96176    0.62752    0.07953    1.000
    Co9      Co       0.03899    0.44923    0.12362    1.000
    O31      O        0.04799    0.71084    0.07924    1.000
    O32      O        0.06980    0.76255    0.00429    1.000
    O33      O        0.37847    0.88070    0.11665    1.000
    O34      O        0.33940    0.99550    0.13190    1.000
    C73      C        0.08264    0.75293    0.04950    1.000
    C74      C        0.33110    0.92400    0.11179    1.000
    C75      C        0.14508    0.79750    0.06760    1.000
    C76      C        0.20173    0.75270    0.07968    1.000
    H41      H        0.20130    0.69340    0.07870    1.000
    C77      C        0.26121    0.79680    0.09372    1.000
    H42      H        0.30010    0.76570    0.10110    1.000
    C78      C        0.26328    0.88360    0.09679    1.000
    C79      C        0.20532    0.93200    0.08607    1.000
    C80      C        0.20120    0.02430    0.08792    1.000
    H43      H        0.23890    0.05560    0.09770    1.000
    C81      C        0.14290    0.06630    0.07560    1.000
    H44      H        0.14180    0.12560    0.07720    1.000
    C82      C        0.08660    0.02340    0.06116    1.000
    H45      H        0.04740    0.05330    0.05290    1.000
    C83      C        0.08728    0.93730    0.05873    1.000
    H46      H        0.04810    0.90890    0.04900    1.000
    C84      C        0.14597    0.88865    0.07048    1.000
    O35      O        0.08994    0.55141    0.97366    1.000
    O36      O        0.11781    0.45981    0.91402    1.000
    O37      O        0.41519    0.69777    0.98913    1.000
    O38      O        0.39320    0.77181    0.92036    1.000
    C85      C        0.12965    0.52193    0.94185    1.000
    C86      C        0.38132    0.71391    0.95084    1.000
    C87      C        0.19756    0.56665    0.93879    1.000
    C88      C        0.19724    0.65240    0.94744    1.000
    H47      H        0.15620    0.68030    0.95270    1.000
    C89      C        0.25792    0.69931    0.94858    1.000
    H48      H        0.25620    0.75810    0.95310    1.000
    C90      C        0.31890    0.66066    0.94329    1.000
    C91      C        0.32224    0.57064    0.93443    1.000
    C92      C        0.38496    0.52840    0.92845    1.000
    H49      H        0.42510    0.55940    0.93060    1.000
    C93      C        0.38740    0.44260    0.91960    1.000
    H50      H        0.42890    0.41530    0.91570    1.000
    C94      C        0.32710    0.39630    0.91640    1.000
    H51      H        0.32890    0.33800    0.90990    1.000
    C95      C        0.26573    0.43430    0.92238    1.000
    H52      H        0.22660    0.40140    0.92070    1.000
    C96      C        0.26014    0.52370    0.93124    1.000
    O39      O        0.97834    0.34857    0.12379    1.000
    O40      O        0.00788    0.22673    0.08894    1.000
    O41      O        0.02725    0.13261    0.34467    1.000
    O42      O        0.97797    0.01383    0.31509    1.000
    C97      C        0.98982    0.27022    0.12554    1.000
    C98      C        0.99815    0.09060    0.31198    1.000
    C99      C        0.98319    0.22299    0.17346    1.000
    C100     C        0.01947    0.14980    0.17817    1.000
    H53      H        0.04330    0.12910    0.15110    1.000
    C101     C        0.02209    0.10450    0.22287    1.000
    H54      H        0.04680    0.05410    0.22490    1.000
    C102     C        0.98853    0.13420    0.26332    1.000
    C103     C        0.94685    0.20850    0.25979    1.000
    C104     C        0.90797    0.23770    0.30009    1.000
    H55      H        0.91020    0.20880    0.33000    1.000
    C105     C        0.86710    0.30750    0.29587    1.000
    H56      H        0.84200    0.32620    0.32280    1.000
    C106     C        0.86320    0.35090    0.25108    1.000
    H57      H        0.83480    0.39810    0.24840    1.000
    C107     C        0.89988    0.32550    0.21136    1.000
    H58      H        0.89630    0.35570    0.18200    1.000
    C108     C        0.94334    0.25400    0.21378    1.000
    O43      O        0.95226    0.61848    0.00090    1.000
    H59      H        0.90430    0.61100    0.99240    1.000
    O44      O        0.03276    0.53204    0.06985    1.000
    H60      H        0.07720    0.55940    0.06650    1.000
    O45      O        0.33560    0.00790    0.10600    1.000
    Co10     Co       0.51765    0.27138    0.47748    1.000
    Co11     Co       0.53824    0.37248    0.57953    1.000
    Co12     Co       0.46101    0.55077    0.62362    1.000
    O46      O        0.45201    0.28916    0.57924    1.000
    O47      O        0.43020    0.23745    0.50429    1.000
    O48      O        0.12153    0.11930    0.61665    1.000
    O49      O        0.16060    0.00450    0.63190    1.000
    C109     C        0.41736    0.24707    0.54950    1.000
    C110     C        0.16890    0.07600    0.61179    1.000
    C111     C        0.35492    0.20250    0.56760    1.000
    C112     C        0.29827    0.24730    0.57968    1.000
    H61      H        0.29870    0.30660    0.57870    1.000
    C113     C        0.23879    0.20320    0.59372    1.000
    H62      H        0.19990    0.23430    0.60110    1.000
    C114     C        0.23672    0.11640    0.59679    1.000
    C115     C        0.29468    0.06800    0.58607    1.000
    C116     C        0.29880    0.97570    0.58792    1.000
    H63      H        0.26110    0.94440    0.59770    1.000
    C117     C        0.35710    0.93370    0.57560    1.000
    H64      H        0.35820    0.87440    0.57720    1.000
    C118     C        0.41340    0.97660    0.56116    1.000
    H65      H        0.45260    0.94670    0.55290    1.000
    C119     C        0.41272    0.06270    0.55873    1.000
    H66      H        0.45190    0.09110    0.54900    1.000
    C120     C        0.35403    0.11135    0.57048    1.000
    O50      O        0.41006    0.44859    0.47366    1.000
    O51      O        0.38219    0.54019    0.41402    1.000
    O52      O        0.08481    0.30223    0.48913    1.000
    O53      O        0.10680    0.22819    0.42036    1.000
    C121     C        0.37035    0.47807    0.44185    1.000
    C122     C        0.11868    0.28609    0.45084    1.000
    C123     C        0.30244    0.43335    0.43879    1.000
    C124     C        0.30276    0.34760    0.44744    1.000
    H67      H        0.34380    0.31970    0.45270    1.000
    C125     C        0.24208    0.30069    0.44858    1.000
    H68      H        0.24380    0.24190    0.45310    1.000
    C126     C        0.18110    0.33934    0.44329    1.000
    C127     C        0.17776    0.42936    0.43443    1.000
    C128     C        0.11504    0.47160    0.42845    1.000
    H69      H        0.07490    0.44060    0.43060    1.000
    C129     C        0.11260    0.55740    0.41960    1.000
    H70      H        0.07110    0.58470    0.41570    1.000
    C130     C        0.17290    0.60370    0.41640    1.000
    H71      H        0.17110    0.66200    0.40990    1.000
    C131     C        0.23427    0.56570    0.42238    1.000
    H72      H        0.27340    0.59860    0.42070    1.000
    C132     C        0.23986    0.47630    0.43124    1.000
    O54      O        0.52166    0.65143    0.62379    1.000
    O55      O        0.49212    0.77327    0.58894    1.000
    O56      O        0.47275    0.86739    0.84467    1.000
    O57      O        0.52203    0.98617    0.81509    1.000
    C133     C        0.51018    0.72978    0.62554    1.000
    C134     C        0.50185    0.90940    0.81198    1.000
    C135     C        0.51681    0.77701    0.67346    1.000
    C136     C        0.48053    0.85020    0.67817    1.000
    H73      H        0.45670    0.87090    0.65110    1.000
    C137     C        0.47791    0.89550    0.72287    1.000
    H74      H        0.45320    0.94590    0.72490    1.000
    C138     C        0.51147    0.86580    0.76332    1.000
    C139     C        0.55315    0.79150    0.75979    1.000
    C140     C        0.59203    0.76230    0.80009    1.000
    H75      H        0.58980    0.79120    0.83000    1.000
    C141     C        0.63290    0.69250    0.79587    1.000
    H76      H        0.65800    0.67380    0.82280    1.000
    C142     C        0.63680    0.64910    0.75108    1.000
    H77      H        0.66520    0.60190    0.74840    1.000
    C143     C        0.60012    0.67450    0.71136    1.000
    H78      H        0.60370    0.64430    0.68200    1.000
    C144     C        0.55666    0.74600    0.71378    1.000
    O58      O        0.54774    0.38152    0.50090    1.000
    H79      H        0.59570    0.38900    0.49240    1.000
    O59      O        0.46724    0.46796    0.56985    1.000
    H80      H        0.42280    0.44060    0.56650    1.000
    O60      O        0.16440    0.99210    0.60600    1.000
    Co13     Co       0.98235    0.77138    0.47748    1.000
    Co14     Co       0.96176    0.87248    0.57953    1.000
    Co15     Co       0.03899    0.05077    0.62362    1.000
    O61      O        0.04799    0.78916    0.57924    1.000
    O62      O        0.06980    0.73745    0.50429    1.000
    O63      O        0.37847    0.61930    0.61665    1.000
    O64      O        0.33940    0.50450    0.63190    1.000
    C145     C        0.08264    0.74707    0.54950    1.000
    C146     C        0.33110    0.57600    0.61179    1.000
    C147     C        0.14508    0.70250    0.56760    1.000
    C148     C        0.20173    0.74730    0.57968    1.000
    H81      H        0.20130    0.80660    0.57870    1.000
    C149     C        0.26121    0.70320    0.59372    1.000
    H82      H        0.30010    0.73430    0.60110    1.000
    C150     C        0.26328    0.61640    0.59679    1.000
    C151     C        0.20532    0.56800    0.58607    1.000
    C152     C        0.20120    0.47570    0.58792    1.000
    H83      H        0.23890    0.44440    0.59770    1.000
    C153     C        0.14290    0.43370    0.57560    1.000
    H84      H        0.14180    0.37440    0.57720    1.000
    C154     C        0.08660    0.47660    0.56116    1.000
    H85      H        0.04740    0.44670    0.55290    1.000
    C155     C        0.08728    0.56270    0.55873    1.000
    H86      H        0.04810    0.59110    0.54900    1.000
    C156     C        0.14597    0.61135    0.57048    1.000
    O65      O        0.08994    0.94859    0.47366    1.000
    O66      O        0.11781    0.04019    0.41402    1.000
    O67      O        0.41519    0.80223    0.48913    1.000
    O68      O        0.39320    0.72819    0.42036    1.000
    C157     C        0.12965    0.97807    0.44185    1.000
    C158     C        0.38132    0.78609    0.45084    1.000
    C159     C        0.19756    0.93335    0.43879    1.000
    C160     C        0.19724    0.84760    0.44744    1.000
    H87      H        0.15620    0.81970    0.45270    1.000
    C161     C        0.25792    0.80069    0.44858    1.000
    H88      H        0.25620    0.74190    0.45310    1.000
    C162     C        0.31890    0.83934    0.44329    1.000
    C163     C        0.32224    0.92936    0.43443    1.000
    C164     C        0.38496    0.97160    0.42845    1.000
    H89      H        0.42510    0.94060    0.43060    1.000
    C165     C        0.38740    0.05740    0.41960    1.000
    H90      H        0.42890    0.08470    0.41570    1.000
    C166     C        0.32710    0.10370    0.41640    1.000
    H91      H        0.32890    0.16200    0.40990    1.000
    C167     C        0.26573    0.06570    0.42238    1.000
    H92      H        0.22660    0.09860    0.42070    1.000
    C168     C        0.26014    0.97630    0.43124    1.000
    O69      O        0.97834    0.15143    0.62379    1.000
    O70      O        0.00788    0.27327    0.58894    1.000
    O71      O        0.02725    0.36739    0.84467    1.000
    O72      O        0.97797    0.48617    0.81509    1.000
    C169     C        0.98982    0.22978    0.62554    1.000
    C170     C        0.99815    0.40940    0.81198    1.000
    C171     C        0.98319    0.27701    0.67346    1.000
    C172     C        0.01947    0.35020    0.67817    1.000
    H93      H        0.04330    0.37090    0.65110    1.000
    C173     C        0.02209    0.39550    0.72287    1.000
    H94      H        0.04680    0.44590    0.72490    1.000
    C174     C        0.98853    0.36580    0.76332    1.000
    C175     C        0.94685    0.29150    0.75979    1.000
    C176     C        0.90797    0.26230    0.80009    1.000
    H95      H        0.91020    0.29120    0.83000    1.000
    C177     C        0.86710    0.19250    0.79587    1.000
    H96      H        0.84200    0.17380    0.82280    1.000
    C178     C        0.86320    0.14910    0.75108    1.000
    H97      H        0.83480    0.10190    0.74840    1.000
    C179     C        0.89988    0.17450    0.71136    1.000
    H98      H        0.89630    0.14430    0.68200    1.000
    C180     C        0.94334    0.24600    0.71378    1.000
    O73      O        0.95226    0.88152    0.50090    1.000
    H99      H        0.90430    0.88900    0.49240    1.000
    O74      O        0.03276    0.96796    0.56985    1.000
    H100     H        0.07720    0.94060    0.56650    1.000
    O75      O        0.33560    0.49210    0.60600    1.000
    Co16     Co       0.51765    0.22862    0.97748    1.000
    Co17     Co       0.53824    0.12752    0.07953    1.000
    Co18     Co       0.46101    0.94923    0.12362    1.000
    O76      O        0.45201    0.21084    0.07924    1.000
    O77      O        0.43020    0.26255    0.00429    1.000
    O78      O        0.12153    0.38070    0.11665    1.000
    O79      O        0.16060    0.49550    0.13190    1.000
    C181     C        0.41736    0.25293    0.04950    1.000
    C182     C        0.16890    0.42400    0.11179    1.000
    C183     C        0.35492    0.29750    0.06760    1.000
    C184     C        0.29827    0.25270    0.07968    1.000
    H101     H        0.29870    0.19340    0.07870    1.000
    C185     C        0.23879    0.29680    0.09372    1.000
    H102     H        0.19990    0.26570    0.10110    1.000
    C186     C        0.23672    0.38360    0.09679    1.000
    C187     C        0.29468    0.43200    0.08607    1.000
    C188     C        0.29880    0.52430    0.08792    1.000
    H103     H        0.26110    0.55560    0.09770    1.000
    C189     C        0.35710    0.56630    0.07560    1.000
    H104     H        0.35820    0.62560    0.07720    1.000
    C190     C        0.41340    0.52340    0.06116    1.000
    H105     H        0.45260    0.55330    0.05290    1.000
    C191     C        0.41272    0.43730    0.05873    1.000
    H106     H        0.45190    0.40890    0.04900    1.000
    C192     C        0.35403    0.38865    0.07048    1.000
    O80      O        0.41006    0.05141    0.97366    1.000
    O81      O        0.38219    0.95981    0.91402    1.000
    O82      O        0.08481    0.19777    0.98913    1.000
    O83      O        0.10680    0.27181    0.92036    1.000
    C193     C        0.37035    0.02193    0.94185    1.000
    C194     C        0.11868    0.21391    0.95084    1.000
    C195     C        0.30244    0.06665    0.93879    1.000
    C196     C        0.30276    0.15240    0.94744    1.000
    H107     H        0.34380    0.18030    0.95270    1.000
    C197     C        0.24208    0.19931    0.94858    1.000
    H108     H        0.24380    0.25810    0.95310    1.000
    C198     C        0.18110    0.16066    0.94329    1.000
    C199     C        0.17776    0.07064    0.93443    1.000
    C200     C        0.11504    0.02840    0.92845    1.000
    H109     H        0.07490    0.05940    0.93060    1.000
    C201     C        0.11260    0.94260    0.91960    1.000
    H110     H        0.07110    0.91530    0.91570    1.000
    C202     C        0.17290    0.89630    0.91640    1.000
    H111     H        0.17110    0.83800    0.90990    1.000
    C203     C        0.23427    0.93430    0.92238    1.000
    H112     H        0.27340    0.90140    0.92070    1.000
    C204     C        0.23986    0.02370    0.93124    1.000
    O84      O        0.52166    0.84857    0.12379    1.000
    O85      O        0.49212    0.72673    0.08894    1.000
    O86      O        0.47275    0.63261    0.34467    1.000
    O87      O        0.52203    0.51383    0.31509    1.000
    C205     C        0.51018    0.77022    0.12554    1.000
    C206     C        0.50185    0.59060    0.31198    1.000
    C207     C        0.51681    0.72299    0.17346    1.000
    C208     C        0.48053    0.64980    0.17817    1.000
    H113     H        0.45670    0.62910    0.15110    1.000
    C209     C        0.47791    0.60450    0.22287    1.000
    H114     H        0.45320    0.55410    0.22490    1.000
    C210     C        0.51147    0.63420    0.26332    1.000
    C211     C        0.55315    0.70850    0.25979    1.000
    C212     C        0.59203    0.73770    0.30009    1.000
    H115     H        0.58980    0.70880    0.33000    1.000
    C213     C        0.63290    0.80750    0.29587    1.000
    H116     H        0.65800    0.82620    0.32280    1.000
    C214     C        0.63680    0.85090    0.25108    1.000
    H117     H        0.66520    0.89810    0.24840    1.000
    C215     C        0.60012    0.82550    0.21136    1.000
    H118     H        0.60370    0.85570    0.18200    1.000
    C216     C        0.55666    0.75400    0.21378    1.000
    O88      O        0.54774    0.11848    0.00090    1.000
    H119     H        0.59570    0.11100    0.99240    1.000
    O89      O        0.46724    0.03204    0.06985    1.000
    H120     H        0.42280    0.05940    0.06650    1.000
    O90      O        0.16440    0.50790    0.10600    1.000
    Co19     Co       0.01765    0.27138    0.02252    1.000
    Co20     Co       0.03824    0.37248    0.92047    1.000
    Co21     Co       0.96101    0.55077    0.87638    1.000
    O91      O        0.95201    0.28916    0.92076    1.000
    O92      O        0.93020    0.23745    0.99571    1.000
    O93      O        0.62153    0.11930    0.88335    1.000
    O94      O        0.66060    0.00450    0.86810    1.000
    C217     C        0.91736    0.24707    0.95050    1.000
    C218     C        0.66890    0.07600    0.88821    1.000
    C219     C        0.85492    0.20250    0.93240    1.000
    C220     C        0.79827    0.24730    0.92032    1.000
    H121     H        0.79870    0.30660    0.92130    1.000
    C221     C        0.73879    0.20320    0.90628    1.000
    H122     H        0.69990    0.23430    0.89890    1.000
    C222     C        0.73672    0.11640    0.90321    1.000
    C223     C        0.79468    0.06800    0.91393    1.000
    C224     C        0.79880    0.97570    0.91208    1.000
    H123     H        0.76110    0.94440    0.90230    1.000
    C225     C        0.85710    0.93370    0.92440    1.000
    H124     H        0.85820    0.87440    0.92280    1.000
    C226     C        0.91340    0.97660    0.93884    1.000
    H125     H        0.95260    0.94670    0.94710    1.000
    C227     C        0.91272    0.06270    0.94127    1.000
    H126     H        0.95190    0.09110    0.95100    1.000
    C228     C        0.85403    0.11135    0.92952    1.000
    O95      O        0.91006    0.44859    0.02634    1.000
    O96      O        0.88219    0.54019    0.08598    1.000
    O97      O        0.58481    0.30223    0.01087    1.000
    O98      O        0.60680    0.22819    0.07964    1.000
    C229     C        0.87035    0.47807    0.05815    1.000
    C230     C        0.61868    0.28609    0.04916    1.000
    C231     C        0.80244    0.43335    0.06121    1.000
    C232     C        0.80276    0.34760    0.05256    1.000
    H127     H        0.84380    0.31970    0.04730    1.000
    C233     C        0.74208    0.30069    0.05142    1.000
    H128     H        0.74380    0.24190    0.04690    1.000
    C234     C        0.68110    0.33934    0.05671    1.000
    C235     C        0.67776    0.42936    0.06557    1.000
    C236     C        0.61504    0.47160    0.07155    1.000
    H129     H        0.57490    0.44060    0.06940    1.000
    C237     C        0.61260    0.55740    0.08040    1.000
    H130     H        0.57110    0.58470    0.08430    1.000
    C238     C        0.67290    0.60370    0.08360    1.000
    H131     H        0.67110    0.66200    0.09010    1.000
    C239     C        0.73427    0.56570    0.07762    1.000
    H132     H        0.77340    0.59860    0.07930    1.000
    C240     C        0.73986    0.47630    0.06876    1.000
    O99      O        0.02166    0.65143    0.87621    1.000
    O100     O        0.99212    0.77327    0.91106    1.000
    O101     O        0.97275    0.86739    0.65533    1.000
    O102     O        0.02203    0.98617    0.68491    1.000
    C241     C        0.01018    0.72978    0.87446    1.000
    C242     C        0.00185    0.90940    0.68802    1.000
    C243     C        0.01681    0.77701    0.82654    1.000
    C244     C        0.98053    0.85020    0.82183    1.000
    H133     H        0.95670    0.87090    0.84890    1.000
    C245     C        0.97791    0.89550    0.77713    1.000
    H134     H        0.95320    0.94590    0.77510    1.000
    C246     C        0.01147    0.86580    0.73668    1.000
    C247     C        0.05315    0.79150    0.74021    1.000
    C248     C        0.09203    0.76230    0.69991    1.000
    H135     H        0.08980    0.79120    0.67000    1.000
    C249     C        0.13290    0.69250    0.70413    1.000
    H136     H        0.15800    0.67380    0.67720    1.000
    C250     C        0.13680    0.64910    0.74892    1.000
    H137     H        0.16520    0.60190    0.75160    1.000
    C251     C        0.10012    0.67450    0.78864    1.000
    H138     H        0.10370    0.64430    0.81800    1.000
    C252     C        0.05666    0.74600    0.78622    1.000
    O103     O        0.04774    0.38152    0.99910    1.000
    H139     H        0.09570    0.38900    0.00760    1.000
    O104     O        0.96724    0.46796    0.93015    1.000
    H140     H        0.92280    0.44060    0.93350    1.000
    O105     O        0.66440    0.99210    0.89400    1.000
    Co22     Co       0.48235    0.72862    0.52252    1.000
    Co23     Co       0.46176    0.62752    0.42047    1.000
    Co24     Co       0.53899    0.44923    0.37638    1.000
    O106     O        0.54799    0.71084    0.42076    1.000
    O107     O        0.56980    0.76255    0.49571    1.000
    O108     O        0.87847    0.88070    0.38335    1.000
    O109     O        0.83940    0.99550    0.36810    1.000
    C253     C        0.58264    0.75293    0.45050    1.000
    C254     C        0.83110    0.92400    0.38821    1.000
    C255     C        0.64508    0.79750    0.43240    1.000
    C256     C        0.70173    0.75270    0.42032    1.000
    H141     H        0.70130    0.69340    0.42130    1.000
    C257     C        0.76121    0.79680    0.40628    1.000
    H142     H        0.80010    0.76570    0.39890    1.000
    C258     C        0.76328    0.88360    0.40321    1.000
    C259     C        0.70532    0.93200    0.41393    1.000
    C260     C        0.70120    0.02430    0.41208    1.000
    H143     H        0.73890    0.05560    0.40230    1.000
    C261     C        0.64290    0.06630    0.42440    1.000
    H144     H        0.64180    0.12560    0.42280    1.000
    C262     C        0.58660    0.02340    0.43884    1.000
    H145     H        0.54740    0.05330    0.44710    1.000
    C263     C        0.58728    0.93730    0.44127    1.000
    H146     H        0.54810    0.90890    0.45100    1.000
    C264     C        0.64597    0.88865    0.42952    1.000
    O110     O        0.58994    0.55141    0.52634    1.000
    O111     O        0.61781    0.45981    0.58598    1.000
    O112     O        0.91519    0.69777    0.51087    1.000
    O113     O        0.89320    0.77181    0.57964    1.000
    C265     C        0.62965    0.52193    0.55815    1.000
    C266     C        0.88132    0.71391    0.54916    1.000
    C267     C        0.69756    0.56665    0.56121    1.000
    C268     C        0.69724    0.65240    0.55256    1.000
    H147     H        0.65620    0.68030    0.54730    1.000
    C269     C        0.75792    0.69931    0.55142    1.000
    H148     H        0.75620    0.75810    0.54690    1.000
    C270     C        0.81890    0.66066    0.55671    1.000
    C271     C        0.82224    0.57064    0.56557    1.000
    C272     C        0.88496    0.52840    0.57155    1.000
    H149     H        0.92510    0.55940    0.56940    1.000
    C273     C        0.88740    0.44260    0.58040    1.000
    H150     H        0.92890    0.41530    0.58430    1.000
    C274     C        0.82710    0.39630    0.58360    1.000
    H151     H        0.82890    0.33800    0.59010    1.000
    C275     C        0.76573    0.43430    0.57762    1.000
    H152     H        0.72660    0.40140    0.57930    1.000
    C276     C        0.76014    0.52370    0.56876    1.000
    O114     O        0.47834    0.34857    0.37621    1.000
    O115     O        0.50788    0.22673    0.41106    1.000
    O116     O        0.52725    0.13261    0.15533    1.000
    O117     O        0.47797    0.01383    0.18491    1.000
    C277     C        0.48982    0.27022    0.37446    1.000
    C278     C        0.49815    0.09060    0.18802    1.000
    C279     C        0.48319    0.22299    0.32654    1.000
    C280     C        0.51947    0.14980    0.32183    1.000
    H153     H        0.54330    0.12910    0.34890    1.000
    C281     C        0.52209    0.10450    0.27713    1.000
    H154     H        0.54680    0.05410    0.27510    1.000
    C282     C        0.48853    0.13420    0.23668    1.000
    C283     C        0.44685    0.20850    0.24021    1.000
    C284     C        0.40797    0.23770    0.19991    1.000
    H155     H        0.41020    0.20880    0.17000    1.000
    C285     C        0.36710    0.30750    0.20413    1.000
    H156     H        0.34200    0.32620    0.17720    1.000
    C286     C        0.36320    0.35090    0.24892    1.000
    H157     H        0.33480    0.39810    0.25160    1.000
    C287     C        0.39988    0.32550    0.28864    1.000
    H158     H        0.39630    0.35570    0.31800    1.000
    C288     C        0.44334    0.25400    0.28622    1.000
    O118     O        0.45226    0.61848    0.49910    1.000
    H159     H        0.40430    0.61100    0.50760    1.000
    O119     O        0.53276    0.53204    0.43015    1.000
    H160     H        0.57720    0.55940    0.43350    1.000
    O120     O        0.83560    0.00790    0.39400    1.000
    Co25     Co       0.00000    0.00000    0.50000    1.000
    Co26     Co       0.50000    0.00000    0.00000    1.000
    Co27     Co       0.00000    0.50000    0.00000    1.000
    Co28     Co       0.50000    0.50000    0.50000    1.000
