data_functionalizedCrystal
_audit_creation_method	'EQeq! by Chris Wilmer'
_symmetry_space_group_name_H-M	'P1'
_symmetry_Int_Tables_number	1
_symmetry_cell_setting	triclinic
loop_
_symmetry_equiv_pos_as_xyz
  x,y,z
_cell_length_a	22.624
_cell_length_b	12.645
_cell_length_c	14.735
_cell_angle_alpha	90
_cell_angle_beta	94.92
_cell_angle_gamma	90
loop_
_atom_site_label
_atom_site_type_symbol
_atom_site_fract_x
_atom_site_fract_y
_atom_site_fract_z
_atom_site_charge
Mof_Cd	Cd	0.25439	0.91556	0.75341	0.384
Mof_C 	C 	0.1344	0.064	0.7691	0.001
Mof_H 	H 	0.1304	0.0635	0.703	0.023
Mof_H 	H 	0.115	0.0011	0.7899	0.018
Mof_C 	C 	0.2255	0.1622	0.7713	-0.018
Mof_H 	H 	0.2673	0.1631	0.7924	0.05
Mof_H 	H 	0.2225	0.1635	0.7053	0.051
Mof_C 	C 	0.2026	0.0644	0.9048	-0.034
Mof_H 	H 	0.1848	0.001	0.9276	0.054
Mof_H 	H 	0.244	0.0658	0.9283	0.075
Mof_C 	C 	0.1125	0.1563	0.9026	0.009
Mof_H 	H 	0.0918	0.2167	0.9253	0.027
Mof_H 	H 	0.0942	0.0929	0.9245	0.022
Mof_C 	C 	0.1343	0.2547	0.7698	-0.016
Mof_H 	H 	0.1305	0.2569	0.7037	0.044
Mof_H 	H 	0.1147	0.3167	0.7919	0.045
Mof_C 	C 	0.2025	0.2521	0.9047	-0.022
Mof_H 	H 	0.2436	0.2503	0.9264	0.049
Mof_H 	H 	0.1854	0.3159	0.928	0.057
Mof_C 	C 	0.3409	0.049	0.4333	0.31
Mof_C 	C 	0.3839	0.0952	0.5065	-0.098
Mof_H 	H 	0.4174	0.129	0.4884	0.068
Mof_C 	C 	0.3773	0.091	0.5945	-0.119
Mof_H 	H 	0.4065	0.1207	0.6349	0.08
Mof_C 	C 	0.324	0.0396	0.6327	0.321
Mof_N 	N 	0.1047	0.1571	0.8013	-0.13
Mof_N 	N 	0.19875	0.0605	0.8019	-0.116
Mof_N 	N 	0.1718	0.1595	0.9385	-0.098
Mof_N 	N 	0.19806	0.2564	0.8033	-0.11
Mof_O 	O 	0.33501	0.9982	0.7124	-0.277
Mof_O 	O 	0.27572	0.0369	0.5917	-0.275
Mof_O 	O 	0.34163	0.9524	0.4179	-0.249
Mof_O 	O 	0.30733	0.1176	0.3893	-0.269
Mof_Cd	Cd	0.74561	0.91556	0.74659	0.386
Mof_C 	C 	0.8656	0.064	0.7309	-0.001
Mof_H 	H 	0.8696	0.0635	0.797	0.028
Mof_H 	H 	0.885	0.0011	0.7101	0.024
Mof_C 	C 	0.7745	0.1622	0.7287	-0.017
Mof_H 	H 	0.7327	0.1631	0.7076	0.051
Mof_H 	H 	0.7775	0.1635	0.7947	0.053
Mof_C 	C 	0.7974	0.0644	0.5952	-0.034
Mof_H 	H 	0.8152	0.001	0.5724	0.055
Mof_H 	H 	0.756	0.0658	0.5717	0.075
Mof_C 	C 	0.8875	0.1563	0.5974	0.005
Mof_H 	H 	0.9082	0.2167	0.5747	0.033
Mof_H 	H 	0.9058	0.0929	0.5755	0.028
Mof_C 	C 	0.8657	0.2547	0.7302	-0.018
Mof_H 	H 	0.8695	0.2569	0.7963	0.047
Mof_H 	H 	0.8853	0.3167	0.7081	0.049
Mof_C 	C 	0.7975	0.2521	0.5953	-0.023
Mof_H 	H 	0.7564	0.2503	0.5736	0.049
Mof_H 	H 	0.8146	0.3159	0.572	0.058
Mof_C 	C 	0.6591	0.049	0.0667	0.307
Mof_C 	C 	0.6161	0.0952	0.9935	-0.093
Mof_H 	H 	0.5826	0.129	0.0116	0.066
Mof_C 	C 	0.6227	0.091	0.9055	-0.122
Mof_H 	H 	0.5935	0.1207	0.8651	0.081
Mof_C 	C 	0.676	0.0396	0.8673	0.322
Mof_N 	N 	0.8953	0.1571	0.6987	-0.125
Mof_N 	N 	0.80125	0.0605	0.6981	-0.116
Mof_N 	N 	0.8282	0.1595	0.5615	-0.096
Mof_N 	N 	0.80194	0.2564	0.6967	-0.11
Mof_O 	O 	0.66499	0.9982	0.7876	-0.277
Mof_O 	O 	0.72428	0.0369	0.9083	-0.275
Mof_O 	O 	0.65837	0.9524	0.0821	-0.248
Mof_O 	O 	0.69267	0.1176	0.1107	-0.269
Mof_Cd	Cd	0.74561	0.08444	0.24659	0.386
Mof_C 	C 	0.8656	0.936	0.2309	-0.001
Mof_H 	H 	0.8696	0.9365	0.297	0.028
Mof_H 	H 	0.885	0.9989	0.2101	0.024
Mof_C 	C 	0.7745	0.8378	0.2287	-0.017
Mof_H 	H 	0.7327	0.8369	0.2076	0.051
Mof_H 	H 	0.7775	0.8365	0.2947	0.053
Mof_C 	C 	0.7974	0.9356	0.0952	-0.035
Mof_H 	H 	0.8152	0.999	0.0724	0.055
Mof_H 	H 	0.756	0.9342	0.0717	0.075
Mof_C 	C 	0.8875	0.8437	0.0974	0.005
Mof_H 	H 	0.9082	0.7833	0.0747	0.033
Mof_H 	H 	0.9058	0.9071	0.0755	0.028
Mof_C 	C 	0.8657	0.7453	0.2302	-0.018
Mof_H 	H 	0.8695	0.7431	0.2963	0.047
Mof_H 	H 	0.8853	0.6833	0.2081	0.049
Mof_C 	C 	0.7975	0.7479	0.0953	-0.023
Mof_H 	H 	0.7564	0.7497	0.0736	0.049
Mof_H 	H 	0.8146	0.6841	0.072	0.058
Mof_C 	C 	0.6591	0.951	0.5667	0.31
Mof_C 	C 	0.6161	0.9048	0.4935	-0.098
Mof_H 	H 	0.5826	0.871	0.5116	0.068
Mof_C 	C 	0.6227	0.909	0.4055	-0.119
Mof_H 	H 	0.5935	0.8793	0.3651	0.08
Mof_C 	C 	0.676	0.9604	0.3673	0.321
Mof_N 	N 	0.8953	0.8429	0.1987	-0.125
Mof_N 	N 	0.80125	0.9395	0.1981	-0.116
Mof_N 	N 	0.8282	0.8405	0.0615	-0.096
Mof_N 	N 	0.80194	0.7436	0.1967	-0.11
Mof_O 	O 	0.66499	0.0018	0.2876	-0.277
Mof_O 	O 	0.72428	0.9631	0.4083	-0.274
Mof_O 	O 	0.65837	0.0476	0.5821	-0.249
Mof_O 	O 	0.69267	0.8824	0.6107	-0.269
Mof_Cd	Cd	0.25439	0.08444	0.25341	0.385
Mof_C 	C 	0.1344	0.936	0.2691	0.002
Mof_H 	H 	0.1304	0.9365	0.203	0.024
Mof_H 	H 	0.115	0.9989	0.2899	0.019
Mof_C 	C 	0.2255	0.8378	0.2713	-0.017
Mof_H 	H 	0.2673	0.8369	0.2924	0.051
Mof_H 	H 	0.2225	0.8365	0.2053	0.052
Mof_C 	C 	0.2026	0.9356	0.4048	-0.034
Mof_H 	H 	0.1848	0.999	0.4276	0.053
Mof_H 	H 	0.244	0.9342	0.4283	0.075
Mof_C 	C 	0.1125	0.8437	0.4026	0.009
Mof_H 	H 	0.0918	0.7833	0.4253	0.027
Mof_H 	H 	0.0942	0.9071	0.4245	0.022
Mof_C 	C 	0.1343	0.7453	0.2698	-0.016
Mof_H 	H 	0.1305	0.7431	0.2037	0.044
Mof_H 	H 	0.1147	0.6833	0.2919	0.045
Mof_C 	C 	0.2025	0.7479	0.4047	-0.022
Mof_H 	H 	0.2436	0.7497	0.4264	0.048
Mof_H 	H 	0.1854	0.6841	0.428	0.057
Mof_C 	C 	0.3409	0.951	0.9333	0.307
Mof_C 	C 	0.3839	0.9048	0.0065	-0.092
Mof_H 	H 	0.4174	0.871	0.9884	0.066
Mof_C 	C 	0.3773	0.909	0.0945	-0.122
Mof_H 	H 	0.4065	0.8793	0.1349	0.082
Mof_C 	C 	0.324	0.9604	0.1327	0.322
Mof_N 	N 	0.1047	0.8429	0.3013	-0.13
Mof_N 	N 	0.19875	0.9395	0.3019	-0.116
Mof_N 	N 	0.1718	0.8405	0.4385	-0.098
Mof_N 	N 	0.19806	0.7436	0.3033	-0.11
Mof_O 	O 	0.33501	0.0018	0.2124	-0.277
Mof_O 	O 	0.27572	0.9631	0.0917	-0.275
Mof_O 	O 	0.34163	0.0476	0.9179	-0.248
Mof_O 	O 	0.30733	0.8824	0.8893	-0.269
Mof_Cd	Cd	1.98856e-33	0.16791	0.75	0.242
Mof_Cd	Cd	3.38365e-18	0.83209	0.25	0.242
Mof_Cd	Cd	0.75439	0.41556	0.75341	0.386
Mof_C 	C 	0.6344	0.564	0.7691	0.001
Mof_H 	H 	0.6304	0.5635	0.703	0.025
Mof_H 	H 	0.615	0.5011	0.7899	0.02
Mof_C 	C 	0.7255	0.6622	0.7713	-0.017
Mof_H 	H 	0.7673	0.6631	0.7924	0.051
Mof_H 	H 	0.7225	0.6635	0.7053	0.052
Mof_C 	C 	0.7026	0.5644	0.9048	-0.034
Mof_H 	H 	0.6848	0.501	0.9276	0.054
Mof_H 	H 	0.744	0.5658	0.9283	0.075
Mof_C 	C 	0.6125	0.6563	0.9026	0.008
Mof_H 	H 	0.5918	0.7167	0.9253	0.029
Mof_H 	H 	0.5942	0.5929	0.9245	0.024
Mof_C 	C 	0.6343	0.7547	0.7698	-0.016
Mof_H 	H 	0.6305	0.7569	0.7037	0.045
Mof_H 	H 	0.6147	0.8167	0.7919	0.046
Mof_C 	C 	0.7025	0.7521	0.9047	-0.022
Mof_H 	H 	0.7436	0.7503	0.9264	0.048
Mof_H 	H 	0.6854	0.8159	0.928	0.057
Mof_C 	C 	0.8409	0.549	0.4333	0.312
Mof_C 	C 	0.8839	0.5952	0.5065	-0.098
Mof_H 	H 	0.9174	0.629	0.4884	0.072
Mof_C 	C 	0.8773	0.591	0.5945	-0.118
Mof_H 	H 	0.9065	0.6207	0.6349	0.083
Mof_C 	C 	0.824	0.5396	0.6327	0.321
Mof_N 	N 	0.6047	0.6571	0.8013	-0.129
Mof_N 	N 	0.69875	0.5605	0.8019	-0.116
Mof_N 	N 	0.6718	0.6595	0.9385	-0.097
Mof_N 	N 	0.69806	0.7564	0.8033	-0.11
Mof_O 	O 	0.83501	0.4982	0.7124	-0.275
Mof_O 	O 	0.77572	0.5369	0.5917	-0.275
Mof_O 	O 	0.84163	0.4524	0.4179	-0.248
Mof_O 	O 	0.80733	0.6176	0.3893	-0.269
Mof_Cd	Cd	0.24561	0.41556	0.74659	0.386
Mof_C 	C 	0.3656	0.564	0.7309	0.001
Mof_H 	H 	0.3696	0.5635	0.797	0.025
Mof_H 	H 	0.385	0.5011	0.7101	0.02
Mof_C 	C 	0.2745	0.6622	0.7287	-0.017
Mof_H 	H 	0.2327	0.6631	0.7076	0.05
Mof_H 	H 	0.2775	0.6635	0.7947	0.052
Mof_C 	C 	0.2974	0.5644	0.5952	-0.034
Mof_H 	H 	0.3152	0.501	0.5724	0.054
Mof_H 	H 	0.256	0.5658	0.5717	0.075
Mof_C 	C 	0.3875	0.6563	0.5974	0.008
Mof_H 	H 	0.4082	0.7167	0.5747	0.029
Mof_H 	H 	0.4058	0.5929	0.5755	0.024
Mof_C 	C 	0.3657	0.7547	0.7302	-0.016
Mof_H 	H 	0.3695	0.7569	0.7963	0.045
Mof_H 	H 	0.3853	0.8167	0.7081	0.046
Mof_C 	C 	0.2975	0.7521	0.5953	-0.022
Mof_H 	H 	0.2564	0.7503	0.5736	0.048
Mof_H 	H 	0.3146	0.8159	0.572	0.057
Mof_C 	C 	0.1591	0.549	0.0667	0.311
Mof_C 	C 	0.1161	0.5952	0.9935	-0.099
Mof_H 	H 	0.0826	0.629	0.0116	0.066
Mof_C 	C 	0.1227	0.591	0.9055	-0.119
Mof_H 	H 	0.0935	0.6207	0.8651	0.078
Mof_C 	C 	0.176	0.5396	0.8673	0.32
Mof_N 	N 	0.3953	0.6571	0.6987	-0.129
Mof_N 	N 	0.30125	0.5605	0.6981	-0.116
Mof_N 	N 	0.3282	0.6595	0.5615	-0.097
Mof_N 	N 	0.30194	0.7564	0.6967	-0.11
Mof_O 	O 	0.16499	0.4982	0.7876	-0.277
Mof_O 	O 	0.22428	0.5369	0.9083	-0.274
Mof_O 	O 	0.15837	0.4524	0.0821	-0.251
Mof_O 	O 	0.19267	0.6176	0.1107	-0.27
Mof_Cd	Cd	0.24561	0.58444	0.24659	0.386
Mof_C 	C 	0.3656	0.436	0.2309	0.001
Mof_H 	H 	0.3696	0.4365	0.297	0.025
Mof_H 	H 	0.385	0.4989	0.2101	0.02
Mof_C 	C 	0.2745	0.3378	0.2287	-0.017
Mof_H 	H 	0.2327	0.3369	0.2076	0.05
Mof_H 	H 	0.2775	0.3365	0.2947	0.052
Mof_C 	C 	0.2974	0.4356	0.0952	-0.034
Mof_H 	H 	0.3152	0.499	0.0724	0.054
Mof_H 	H 	0.256	0.4342	0.0717	0.075
Mof_C 	C 	0.3875	0.3437	0.0974	0.008
Mof_H 	H 	0.4082	0.2833	0.0747	0.029
Mof_H 	H 	0.4058	0.4071	0.0755	0.024
Mof_C 	C 	0.3657	0.2453	0.2302	-0.016
Mof_H 	H 	0.3695	0.2431	0.2963	0.045
Mof_H 	H 	0.3853	0.1833	0.2081	0.046
Mof_C 	C 	0.2975	0.2479	0.0953	-0.022
Mof_H 	H 	0.2564	0.2497	0.0736	0.048
Mof_H 	H 	0.3146	0.1841	0.072	0.057
Mof_C 	C 	0.1591	0.451	0.5667	0.31
Mof_C 	C 	0.1161	0.4048	0.4935	-0.099
Mof_H 	H 	0.0826	0.371	0.5116	0.066
Mof_C 	C 	0.1227	0.409	0.4055	-0.119
Mof_H 	H 	0.0935	0.3793	0.3651	0.078
Mof_C 	C 	0.176	0.4604	0.3673	0.32
Mof_N 	N 	0.3953	0.3429	0.1987	-0.129
Mof_N 	N 	0.30125	0.4395	0.1981	-0.116
Mof_N 	N 	0.3282	0.3405	0.0615	-0.097
Mof_N 	N 	0.30194	0.2436	0.1967	-0.11
Mof_O 	O 	0.16499	0.5018	0.2876	-0.277
Mof_O 	O 	0.22428	0.4631	0.4083	-0.274
Mof_O 	O 	0.15837	0.5476	0.5821	-0.251
Mof_O 	O 	0.19267	0.3824	0.6107	-0.27
Mof_Cd	Cd	0.75439	0.58444	0.25341	0.386
Mof_C 	C 	0.6344	0.436	0.2691	0.001
Mof_H 	H 	0.6304	0.4365	0.203	0.025
Mof_H 	H 	0.615	0.4989	0.2899	0.02
Mof_C 	C 	0.7255	0.3378	0.2713	-0.017
Mof_H 	H 	0.7673	0.3369	0.2924	0.051
Mof_H 	H 	0.7225	0.3365	0.2053	0.052
Mof_C 	C 	0.7026	0.4356	0.4048	-0.034
Mof_H 	H 	0.6848	0.499	0.4276	0.054
Mof_H 	H 	0.744	0.4342	0.4283	0.075
Mof_C 	C 	0.6125	0.3437	0.4026	0.008
Mof_H 	H 	0.5918	0.2833	0.4253	0.029
Mof_H 	H 	0.5942	0.4071	0.4245	0.024
Mof_C 	C 	0.6343	0.2453	0.2698	-0.016
Mof_H 	H 	0.6305	0.2431	0.2037	0.045
Mof_H 	H 	0.6147	0.1833	0.2919	0.046
Mof_C 	C 	0.7025	0.2479	0.4047	-0.022
Mof_H 	H 	0.7436	0.2497	0.4264	0.049
Mof_H 	H 	0.6854	0.1841	0.428	0.057
Mof_C 	C 	0.8409	0.451	0.9333	0.311
Mof_C 	C 	0.8839	0.4048	0.0065	-0.098
Mof_H 	H 	0.9174	0.371	0.9884	0.072
Mof_C 	C 	0.8773	0.409	0.0945	-0.118
Mof_H 	H 	0.9065	0.3793	0.1349	0.083
Mof_C 	C 	0.824	0.4604	0.1327	0.321
Mof_N 	N 	0.6047	0.3429	0.3013	-0.129
Mof_N 	N 	0.69875	0.4395	0.3019	-0.116
Mof_N 	N 	0.6718	0.3405	0.4385	-0.097
Mof_N 	N 	0.69806	0.2436	0.3033	-0.11
Mof_O 	O 	0.83501	0.5018	0.2124	-0.275
Mof_O 	O 	0.77572	0.4631	0.0917	-0.275
Mof_O 	O 	0.84163	0.5476	0.9179	-0.248
Mof_O 	O 	0.80733	0.3824	0.8893	-0.269
Mof_Cd	Cd	0.5	0.66791	0.75	0.256
Mof_Cd	Cd	0.5	0.33209	0.25	0.256
_end
