data_functionalizedCrystal
_audit_creation_method	'EQeq! by Chris Wilmer'
_symmetry_space_group_name_H-M	'P1'
_symmetry_Int_Tables_number	1
_symmetry_cell_setting	triclinic
loop_
_symmetry_equiv_pos_as_xyz
  x,y,z
_cell_length_a	9.69
_cell_length_b	14.4331
_cell_length_c	29.8442
_cell_angle_alpha	90
_cell_angle_beta	90
_cell_angle_gamma	90
loop_
_atom_site_label
_atom_site_type_symbol
_atom_site_fract_x
_atom_site_fract_y
_atom_site_fract_z
_atom_site_charge
Mof_Mn	Mn	0.13053	0.23551	0.70051	1.007
Mof_Mn	Mn	0.24975	0.45728	0.54606	1.006
Mof_P 	P 	0.06314	0.29612	0.5958	0.591
Mof_P 	P 	0.28638	0.5305	0.65278	0.633
Mof_O 	O 	0.3254	0.5029	0.6069	-0.375
Mof_O 	O 	0.3939	0.49025	0.6861	-0.444
Mof_H 	H 	0.3713	0.4375	0.6932	0.318
Mof_O 	O 	0.1427	0.49169	0.66564	-0.444
Mof_H 	H 	0.1363	0.4379	0.657	0.29
Mof_O 	O 	0.2817	0.6326	0.65879	-0.352
Mof_O 	O 	0.1881	0.3217	0.56932	-0.334
Mof_O 	O 	0.0759	0.32026	0.64442	-0.374
Mof_O 	O 	0.9311	0.34434	0.57759	-0.395
Mof_H 	H 	0.9504	0.3968	0.5691	0.258
Mof_O 	O 	0.0284	0.19072	0.58922	-0.399
Mof_H 	H 	0.0741	0.1597	0.6068	0.28
Mof_O 	O 	0.4461	0.39624	0.52473	-0.265
Mof_O 	O 	0.6449	0.4318	0.49199	-0.27
Mof_O 	O 	0.1305	0.42305	0.48493	-0.273
Mof_O 	O 	0.932	0.45352	0.45081	-0.291
Mof_O 	O 	0.9271	0.17063	0.70349	-0.27
Mof_O 	O 	0.0157	0.3181	0.75027	-0.292
Mof_O 	O 	0.7316	0.1722	0.74166	-0.275
Mof_O 	O 	0.822	0.31753	0.78965	-0.321
Mof_C 	C 	0.526	0.4502	0.50465	0.252
Mof_C 	C 	0.0187	0.4642	0.48163	0.231
Mof_C 	C 	0.8489	0.202	0.73337	0.244
Mof_C 	C 	0.9014	0.2865	0.76006	0.262
Mof_Mn	Mn	0.36947	0.76449	0.20051	1.009
Mof_Mn	Mn	0.25025	0.54272	0.04606	1.007
Mof_P 	P 	0.43686	0.70388	0.0958	0.591
Mof_P 	P 	0.21362	0.4695	0.15278	0.633
Mof_O 	O 	0.1746	0.4971	0.1069	-0.375
Mof_O 	O 	0.1061	0.50975	0.1861	-0.445
Mof_H 	H 	0.1287	0.5625	0.1932	0.318
Mof_O 	O 	0.3573	0.50831	0.16564	-0.444
Mof_H 	H 	0.3637	0.5621	0.157	0.29
Mof_O 	O 	0.2183	0.3674	0.15879	-0.352
Mof_O 	O 	0.3119	0.6783	0.06932	-0.334
Mof_O 	O 	0.4241	0.67974	0.14442	-0.374
Mof_O 	O 	0.5689	0.65566	0.07759	-0.395
Mof_H 	H 	0.5496	0.6032	0.0691	0.258
Mof_O 	O 	0.4716	0.80928	0.08922	-0.398
Mof_H 	H 	0.4259	0.8403	0.1068	0.28
Mof_O 	O 	0.0539	0.60376	0.02473	-0.264
Mof_O 	O 	0.8551	0.5682	0.99199	-0.27
Mof_O 	O 	0.3695	0.57695	0.98493	-0.273
Mof_O 	O 	0.568	0.54648	0.95081	-0.291
Mof_O 	O 	0.5729	0.82937	0.20349	-0.271
Mof_O 	O 	0.4843	0.6819	0.25027	-0.291
Mof_O 	O 	0.7684	0.8278	0.24166	-0.276
Mof_O 	O 	0.678	0.68247	0.28965	-0.321
Mof_C 	C 	0.974	0.5498	0.00465	0.252
Mof_C 	C 	0.4813	0.5358	0.98163	0.232
Mof_C 	C 	0.6511	0.798	0.23337	0.245
Mof_C 	C 	0.5986	0.7135	0.26006	0.261
Mof_Mn	Mn	0.86947	0.73551	0.79949	1.008
Mof_Mn	Mn	0.75025	0.95728	0.95394	1.003
Mof_P 	P 	0.93686	0.79612	0.9042	0.59
Mof_P 	P 	0.71362	0.0305	0.84722	0.635
Mof_O 	O 	0.6746	0.0029	0.8931	-0.374
Mof_O 	O 	0.6061	0.99025	0.8139	-0.445
Mof_H 	H 	0.6287	0.9375	0.8068	0.318
Mof_O 	O 	0.8573	0.99169	0.83436	-0.446
Mof_H 	H 	0.8637	0.9379	0.843	0.291
Mof_O 	O 	0.7183	0.1326	0.84121	-0.352
Mof_O 	O 	0.8119	0.8217	0.93068	-0.334
Mof_O 	O 	0.9241	0.82026	0.85558	-0.375
Mof_O 	O 	0.0689	0.84434	0.92241	-0.394
Mof_H 	H 	0.0496	0.8968	0.9309	0.258
Mof_O 	O 	0.9716	0.69072	0.91078	-0.399
Mof_H 	H 	0.9259	0.6597	0.8932	0.28
Mof_O 	O 	0.5539	0.89624	0.97527	-0.265
Mof_O 	O 	0.3551	0.9318	0.00801	-0.268
Mof_O 	O 	0.8695	0.92305	0.01507	-0.273
Mof_O 	O 	0.068	0.95352	0.04919	-0.288
Mof_O 	O 	0.0729	0.67063	0.79651	-0.27
Mof_O 	O 	0.9843	0.8181	0.74973	-0.293
Mof_O 	O 	0.2684	0.6722	0.75834	-0.275
Mof_O 	O 	0.178	0.81753	0.71035	-0.321
Mof_C 	C 	0.474	0.9502	0.99535	0.251
Mof_C 	C 	0.9813	0.9642	0.01837	0.229
Mof_C 	C 	0.1511	0.702	0.76663	0.244
Mof_C 	C 	0.0986	0.7865	0.73994	0.263
Mof_Mn	Mn	0.63053	0.26449	0.29949	1.008
Mof_Mn	Mn	0.74975	0.04272	0.45394	1.008
Mof_P 	P 	0.56314	0.20388	0.4042	0.591
Mof_P 	P 	0.78638	0.9695	0.34722	0.631
Mof_O 	O 	0.8254	0.9971	0.3931	-0.376
Mof_O 	O 	0.8939	0.00975	0.3139	-0.443
Mof_H 	H 	0.8713	0.0625	0.3068	0.318
Mof_O 	O 	0.6427	0.00831	0.33436	-0.443
Mof_H 	H 	0.6363	0.0621	0.343	0.29
Mof_O 	O 	0.7817	0.8674	0.34121	-0.352
Mof_O 	O 	0.6881	0.1783	0.43068	-0.334
Mof_O 	O 	0.5759	0.17974	0.35558	-0.374
Mof_O 	O 	0.4311	0.15566	0.42241	-0.395
Mof_H 	H 	0.4504	0.1032	0.4309	0.258
Mof_O 	O 	0.5284	0.30928	0.41078	-0.398
Mof_H 	H 	0.5741	0.3403	0.3932	0.28
Mof_O 	O 	0.9461	0.10376	0.47527	-0.263
Mof_O 	O 	0.1449	0.0682	0.50801	-0.27
Mof_O 	O 	0.6305	0.07695	0.51507	-0.273
Mof_O 	O 	0.432	0.04648	0.54919	-0.291
Mof_O 	O 	0.4271	0.32937	0.29651	-0.271
Mof_O 	O 	0.5157	0.1819	0.24973	-0.291
Mof_O 	O 	0.2316	0.3278	0.25834	-0.275
Mof_O 	O 	0.322	0.18247	0.21035	-0.321
Mof_C 	C 	0.026	0.0498	0.49535	0.25
Mof_C 	C 	0.5187	0.0358	0.51837	0.232
Mof_C 	C 	0.3489	0.298	0.26663	0.245
Mof_C 	C 	0.4014	0.2135	0.23994	0.261
Mof_Mn	Mn	0.86947	0.76449	0.29949	1.007
Mof_Mn	Mn	0.75025	0.54272	0.45394	1.006
Mof_P 	P 	0.93686	0.70388	0.4042	0.591
Mof_P 	P 	0.71362	0.4695	0.34722	0.633
Mof_O 	O 	0.6746	0.4971	0.3931	-0.375
Mof_O 	O 	0.6061	0.50975	0.3139	-0.444
Mof_H 	H 	0.6287	0.5625	0.3068	0.318
Mof_O 	O 	0.8573	0.50831	0.33436	-0.444
Mof_H 	H 	0.8637	0.5621	0.343	0.29
Mof_O 	O 	0.7183	0.3674	0.34121	-0.352
Mof_O 	O 	0.8119	0.6783	0.43068	-0.334
Mof_O 	O 	0.9241	0.67974	0.35558	-0.374
Mof_O 	O 	0.0689	0.65566	0.42241	-0.395
Mof_H 	H 	0.0496	0.6032	0.4309	0.258
Mof_O 	O 	0.9716	0.80928	0.41078	-0.399
Mof_H 	H 	0.9259	0.8403	0.3932	0.28
Mof_O 	O 	0.5539	0.60376	0.47527	-0.265
Mof_O 	O 	0.3551	0.5682	0.50801	-0.27
Mof_O 	O 	0.8695	0.57695	0.51507	-0.273
Mof_O 	O 	0.068	0.54648	0.54919	-0.291
Mof_O 	O 	0.0729	0.82937	0.29651	-0.27
Mof_O 	O 	0.9843	0.6819	0.24973	-0.292
Mof_O 	O 	0.2684	0.8278	0.25834	-0.275
Mof_O 	O 	0.178	0.68247	0.21035	-0.321
Mof_C 	C 	0.474	0.5498	0.49535	0.252
Mof_C 	C 	0.9813	0.5358	0.51837	0.231
Mof_C 	C 	0.1511	0.798	0.26663	0.244
Mof_C 	C 	0.0986	0.7135	0.23994	0.262
Mof_Mn	Mn	0.63053	0.23551	0.79949	1.009
Mof_Mn	Mn	0.74975	0.45728	0.95394	1.007
Mof_P 	P 	0.56314	0.29612	0.9042	0.591
Mof_P 	P 	0.78638	0.5305	0.84722	0.633
Mof_O 	O 	0.8254	0.5029	0.8931	-0.375
Mof_O 	O 	0.8939	0.49025	0.8139	-0.445
Mof_H 	H 	0.8713	0.4375	0.8068	0.318
Mof_O 	O 	0.6427	0.49169	0.83436	-0.444
Mof_H 	H 	0.6363	0.4379	0.843	0.29
Mof_O 	O 	0.7817	0.6326	0.84121	-0.352
Mof_O 	O 	0.6881	0.3217	0.93068	-0.334
Mof_O 	O 	0.5759	0.32026	0.85558	-0.374
Mof_O 	O 	0.4311	0.34434	0.92241	-0.395
Mof_H 	H 	0.4504	0.3968	0.9309	0.258
Mof_O 	O 	0.5284	0.19072	0.91078	-0.398
Mof_H 	H 	0.5741	0.1597	0.8932	0.28
Mof_O 	O 	0.9461	0.39624	0.97527	-0.264
Mof_O 	O 	0.1449	0.4318	0.00801	-0.27
Mof_O 	O 	0.6305	0.42305	0.01507	-0.273
Mof_O 	O 	0.432	0.45352	0.04919	-0.291
Mof_O 	O 	0.4271	0.17063	0.79651	-0.271
Mof_O 	O 	0.5157	0.3181	0.74973	-0.291
Mof_O 	O 	0.2316	0.1722	0.75834	-0.276
Mof_O 	O 	0.322	0.31753	0.71035	-0.321
Mof_C 	C 	0.026	0.4502	0.99535	0.252
Mof_C 	C 	0.5187	0.4642	0.01837	0.232
Mof_C 	C 	0.3489	0.202	0.76663	0.245
Mof_C 	C 	0.4014	0.2865	0.73994	0.261
Mof_Mn	Mn	0.13053	0.26449	0.20051	1.008
Mof_Mn	Mn	0.24975	0.04272	0.04606	1.003
Mof_P 	P 	0.06314	0.20388	0.0958	0.59
Mof_P 	P 	0.28638	0.9695	0.15278	0.635
Mof_O 	O 	0.3254	0.9971	0.1069	-0.374
Mof_O 	O 	0.3939	0.00975	0.1861	-0.445
Mof_H 	H 	0.3713	0.0625	0.1932	0.318
Mof_O 	O 	0.1427	0.00831	0.16564	-0.446
Mof_H 	H 	0.1363	0.0621	0.157	0.291
Mof_O 	O 	0.2817	0.8674	0.15879	-0.352
Mof_O 	O 	0.1881	0.1783	0.06932	-0.334
Mof_O 	O 	0.0759	0.17974	0.14442	-0.375
Mof_O 	O 	0.9311	0.15566	0.07759	-0.394
Mof_H 	H 	0.9504	0.1032	0.0691	0.258
Mof_O 	O 	0.0284	0.30928	0.08922	-0.399
Mof_H 	H 	0.0741	0.3403	0.1068	0.28
Mof_O 	O 	0.4461	0.10376	0.02473	-0.265
Mof_O 	O 	0.6449	0.0682	0.99199	-0.268
Mof_O 	O 	0.1305	0.07695	0.98493	-0.273
Mof_O 	O 	0.932	0.04648	0.95081	-0.288
Mof_O 	O 	0.9271	0.32937	0.20349	-0.27
Mof_O 	O 	0.0157	0.1819	0.25027	-0.293
Mof_O 	O 	0.7316	0.3278	0.24166	-0.275
Mof_O 	O 	0.822	0.18247	0.28965	-0.321
Mof_C 	C 	0.526	0.0498	0.00465	0.251
Mof_C 	C 	0.0187	0.0358	0.98163	0.229
Mof_C 	C 	0.8489	0.298	0.23337	0.244
Mof_C 	C 	0.9014	0.2135	0.26006	0.263
Mof_Mn	Mn	0.36947	0.73551	0.70051	1.008
Mof_Mn	Mn	0.25025	0.95728	0.54606	1.008
Mof_P 	P 	0.43686	0.79612	0.5958	0.591
Mof_P 	P 	0.21362	0.0305	0.65278	0.631
Mof_O 	O 	0.1746	0.0029	0.6069	-0.376
Mof_O 	O 	0.1061	0.99025	0.6861	-0.443
Mof_H 	H 	0.1287	0.9375	0.6932	0.318
Mof_O 	O 	0.3573	0.99169	0.66564	-0.443
Mof_H 	H 	0.3637	0.9379	0.657	0.29
Mof_O 	O 	0.2183	0.1326	0.65879	-0.352
Mof_O 	O 	0.3119	0.8217	0.56932	-0.334
Mof_O 	O 	0.4241	0.82026	0.64442	-0.374
Mof_O 	O 	0.5689	0.84434	0.57759	-0.395
Mof_H 	H 	0.5496	0.8968	0.5691	0.258
Mof_O 	O 	0.4716	0.69072	0.58922	-0.398
Mof_H 	H 	0.4259	0.6597	0.6068	0.28
Mof_O 	O 	0.0539	0.89624	0.52473	-0.263
Mof_O 	O 	0.8551	0.9318	0.49199	-0.27
Mof_O 	O 	0.3695	0.92305	0.48493	-0.273
Mof_O 	O 	0.568	0.95352	0.45081	-0.291
Mof_O 	O 	0.5729	0.67063	0.70349	-0.271
Mof_O 	O 	0.4843	0.8181	0.75027	-0.291
Mof_O 	O 	0.7684	0.6722	0.74166	-0.275
Mof_O 	O 	0.678	0.81753	0.78965	-0.321
Mof_C 	C 	0.974	0.9502	0.50465	0.25
Mof_C 	C 	0.4813	0.9642	0.48163	0.232
Mof_C 	C 	0.6511	0.702	0.73337	0.245
Mof_C 	C 	0.5986	0.7865	0.76006	0.261
_end
