# CIF file generated by openbabel 3.1.0, see https://openbabel.org
data_I
_chemical_name_common 'image0'
_cell_length_a 19.65
_cell_length_b 19.65
_cell_length_c 7.656
_cell_angle_alpha 90
_cell_angle_beta 90
_cell_angle_gamma 120
_space_group_name_H-M_alt 'P 1'
_space_group_name_Hall 'P 1'
loop_
    _symmetry_equiv_pos_as_xyz
    x,y,z
loop_
    _atom_site_label
    _atom_site_type_symbol
    _atom_site_fract_x
    _atom_site_fract_y
    _atom_site_fract_z
    _atom_site_occupancy
    N1       N        0.55490    0.29760    0.52480    1.000
    N2       N        0.43680    0.23360    0.63820    1.000
    N3       N        0.22990    0.09410    0.71700    1.000
    N4       N        0.11180    0.03300    0.82700    1.000
    N5       N        0.62890    0.40850    0.17840    1.000
    N6       N        0.57180    0.47430    0.09170    1.000
    C1       C        0.48770    0.23240    0.51950    1.000
    H1       H        0.47620    0.19060    0.44490    1.000
    C2       C        0.54670    0.34050    0.65390    1.000
    H2       H        0.58590    0.39020    0.68860    1.000
    C3       C        0.47460    0.30200    0.72450    1.000
    H3       H        0.45500    0.31910    0.81450    1.000
    C4       C        0.19030    0.02590    0.62830    1.000
    H4       H        0.20900    0.00800    0.53810    1.000
    C5       C        0.11800    0.98950    0.69870    1.000
    H5       H        0.07740    0.94060    0.66340    1.000
    C6       C        0.17910    0.09520    0.83420    1.000
    H6       H        0.19170    0.13650    0.91120    1.000
    C7       C        0.56690    0.41640    0.19510    1.000
    H7       H        0.52480    0.38600    0.26880    1.000
    C8       C        0.67510    0.46220    0.05440    1.000
    H8       H        0.72320    0.46990    0.01490    1.000
    C9       C        0.64010    0.50220    0.99870    1.000
    H9       H        0.65870    0.54120    0.91350    1.000
    C10      C        0.51760    0.50450    0.08860    1.000
    H10      H        0.54540    0.55960    0.12090    1.000
    H11      H        0.47620    0.47630    0.17350    1.000
    C11      C        0.31950    0.13280    0.74220    1.000
    H12      H        0.33540    0.15530    0.85790    1.000
    H13      H        0.33770    0.09590    0.72170    1.000
    C12      C        0.34760    0.19390    0.60680    1.000
    H14      H        0.32820    0.23000    0.62510    1.000
    H15      H        0.33330    0.17140    0.49060    1.000
    C13      C        0.29950    0.16730    0.64220    1.000
    H16      H        0.29800    0.16740    0.51550    1.000
    H17      H        0.30150    0.21460    0.68580    1.000
    C14      C        0.36760    0.15990    0.70850    1.000
    H18      H        0.36830    0.15850    0.83510    1.000
    H19      H        0.36620    0.11320    0.66270    1.000
    N7       N        0.70240    0.25730    0.52480    1.000
    N8       N        0.76640    0.20320    0.63820    1.000
    N9       N        0.90590    0.13580    0.71700    1.000
    N10      N        0.96700    0.07880    0.82700    1.000
    N11      N        0.59150    0.22040    0.17840    1.000
    N12      N        0.52570    0.09750    0.09170    1.000
    C15      C        0.76760    0.25530    0.51950    1.000
    H20      H        0.80940    0.28560    0.44490    1.000
    C16      C        0.65950    0.20620    0.65390    1.000
    H21      H        0.60980    0.19570    0.68860    1.000
    C17      C        0.69800    0.17260    0.72450    1.000
    H22      H        0.68090    0.13590    0.81450    1.000
    C18      C        0.97410    0.16440    0.62830    1.000
    H23      H        0.99200    0.20100    0.53810    1.000
    C19      C        0.01050    0.12850    0.69870    1.000
    H24      H        0.05940    0.13680    0.66340    1.000
    C20      C        0.90480    0.08390    0.83420    1.000
    H25      H        0.86350    0.05520    0.91120    1.000
    C21      C        0.58360    0.15050    0.19510    1.000
    H26      H        0.61400    0.13880    0.26880    1.000
    C22      C        0.53780    0.21290    0.05440    1.000
    H27      H        0.53010    0.25330    0.01490    1.000
    C23      C        0.49780    0.13790    0.99870    1.000
    H28      H        0.45880    0.11750    0.91350    1.000
    C24      C        0.49550    0.01310    0.08860    1.000
    H29      H        0.44040    0.98580    0.12090    1.000
    H30      H        0.52370    0.99990    0.17350    1.000
    C25      C        0.86720    0.18670    0.74220    1.000
    H31      H        0.84470    0.18010    0.85790    1.000
    H32      H        0.90410    0.24180    0.72170    1.000
    C26      C        0.80610    0.15370    0.60680    1.000
    H33      H        0.77000    0.09820    0.62510    1.000
    H34      H        0.82860    0.16190    0.49060    1.000
    C27      C        0.83270    0.13220    0.64220    1.000
    H35      H        0.83260    0.13060    0.51550    1.000
    H36      H        0.78540    0.08690    0.68580    1.000
    C28      C        0.84010    0.20770    0.70850    1.000
    H37      H        0.84150    0.20980    0.83510    1.000
    H38      H        0.88680    0.25300    0.66270    1.000
    N13      N        0.74270    0.44510    0.52480    1.000
    N14      N        0.79680    0.56320    0.63820    1.000
    N15      N        0.86420    0.77010    0.71700    1.000
    N16      N        0.92120    0.88820    0.82700    1.000
    N17      N        0.77960    0.37110    0.17840    1.000
    N18      N        0.90250    0.42820    0.09170    1.000
    C29      C        0.74470    0.51230    0.51950    1.000
    H39      H        0.71440    0.52380    0.44490    1.000
    C30      C        0.79380    0.45330    0.65390    1.000
    H40      H        0.80430    0.41410    0.68860    1.000
    C31      C        0.82740    0.52540    0.72450    1.000
    H41      H        0.86410    0.54500    0.81450    1.000
    C32      C        0.83560    0.80970    0.62830    1.000
    H42      H        0.79900    0.79100    0.53810    1.000
    C33      C        0.87150    0.88200    0.69870    1.000
    H43      H        0.86320    0.92260    0.66340    1.000
    C34      C        0.91610    0.82090    0.83420    1.000
    H44      H        0.94480    0.80830    0.91120    1.000
    C35      C        0.84950    0.43310    0.19510    1.000
    H45      H        0.86120    0.47520    0.26880    1.000
    C36      C        0.78710    0.32490    0.05440    1.000
    H46      H        0.74670    0.27680    0.01490    1.000
    C37      C        0.86210    0.35990    0.99870    1.000
    H47      H        0.88250    0.34130    0.91350    1.000
    C38      C        0.98690    0.48240    0.08860    1.000
    H48      H        0.01420    0.45460    0.12090    1.000
    H49      H        0.00010    0.52380    0.17350    1.000
    C39      C        0.81330    0.68050    0.74220    1.000
    H50      H        0.81990    0.66460    0.85790    1.000
    H51      H        0.75820    0.66230    0.72170    1.000
    C40      C        0.84630    0.65240    0.60680    1.000
    H52      H        0.90180    0.67180    0.62510    1.000
    H53      H        0.83810    0.66670    0.49060    1.000
    C41      C        0.86780    0.70050    0.64220    1.000
    H54      H        0.86940    0.70200    0.51550    1.000
    H55      H        0.91310    0.69850    0.68580    1.000
    C42      C        0.79230    0.63240    0.70850    1.000
    H56      H        0.79020    0.63170    0.83510    1.000
    H57      H        0.74700    0.63380    0.66270    1.000
    N19      N        0.44510    0.70240    0.47520    1.000
    N20      N        0.56320    0.76640    0.36180    1.000
    N21      N        0.77010    0.90590    0.28300    1.000
    N22      N        0.88820    0.96700    0.17300    1.000
    N23      N        0.37110    0.59150    0.82160    1.000
    N24      N        0.42820    0.52570    0.90830    1.000
    C43      C        0.51230    0.76760    0.48050    1.000
    H58      H        0.52380    0.80940    0.55510    1.000
    C44      C        0.45330    0.65950    0.34610    1.000
    H59      H        0.41410    0.60980    0.31140    1.000
    C45      C        0.52540    0.69800    0.27550    1.000
    H60      H        0.54500    0.68090    0.18550    1.000
    C46      C        0.80970    0.97410    0.37170    1.000
    H61      H        0.79100    0.99200    0.46190    1.000
    C47      C        0.88200    0.01050    0.30130    1.000
    H62      H        0.92260    0.05940    0.33660    1.000
    C48      C        0.82090    0.90480    0.16580    1.000
    H63      H        0.80830    0.86350    0.08880    1.000
    C49      C        0.43310    0.58360    0.80490    1.000
    H64      H        0.47520    0.61400    0.73120    1.000
    C50      C        0.32490    0.53780    0.94560    1.000
    H65      H        0.27680    0.53010    0.98510    1.000
    C51      C        0.35990    0.49780    0.00130    1.000
    H66      H        0.34130    0.45880    0.08650    1.000
    C52      C        0.48240    0.49550    0.91140    1.000
    H67      H        0.45460    0.44040    0.87910    1.000
    H68      H        0.52380    0.52370    0.82650    1.000
    C53      C        0.68050    0.86720    0.25780    1.000
    H69      H        0.66460    0.84470    0.14210    1.000
    H70      H        0.66230    0.90410    0.27830    1.000
    C54      C        0.65240    0.80610    0.39320    1.000
    H71      H        0.67180    0.77000    0.37490    1.000
    H72      H        0.66670    0.82860    0.50940    1.000
    C55      C        0.70050    0.83270    0.35780    1.000
    H73      H        0.70200    0.83260    0.48450    1.000
    H74      H        0.69850    0.78540    0.31420    1.000
    C56      C        0.63240    0.84010    0.29150    1.000
    H75      H        0.63170    0.84150    0.16490    1.000
    H76      H        0.63380    0.88680    0.33730    1.000
    N25      N        0.29760    0.74270    0.47520    1.000
    N26      N        0.23360    0.79680    0.36180    1.000
    N27      N        0.09410    0.86420    0.28300    1.000
    N28      N        0.03300    0.92120    0.17300    1.000
    N29      N        0.40850    0.77960    0.82160    1.000
    N30      N        0.47430    0.90250    0.90830    1.000
    C57      C        0.23240    0.74470    0.48050    1.000
    H77      H        0.19060    0.71440    0.55510    1.000
    C58      C        0.34050    0.79380    0.34610    1.000
    H78      H        0.39020    0.80430    0.31140    1.000
    C59      C        0.30200    0.82740    0.27550    1.000
    H79      H        0.31910    0.86410    0.18550    1.000
    C60      C        0.02590    0.83560    0.37170    1.000
    H80      H        0.00800    0.79900    0.46190    1.000
    C61      C        0.98950    0.87150    0.30130    1.000
    H81      H        0.94060    0.86320    0.33660    1.000
    C62      C        0.09520    0.91610    0.16580    1.000
    H82      H        0.13650    0.94480    0.08880    1.000
    C63      C        0.41640    0.84950    0.80490    1.000
    H83      H        0.38600    0.86120    0.73120    1.000
    C64      C        0.46220    0.78710    0.94560    1.000
    H84      H        0.46990    0.74670    0.98510    1.000
    C65      C        0.50220    0.86210    0.00130    1.000
    H85      H        0.54120    0.88250    0.08650    1.000
    C66      C        0.50450    0.98690    0.91140    1.000
    H86      H        0.55960    0.01420    0.87910    1.000
    H87      H        0.47630    0.00010    0.82650    1.000
    C67      C        0.13280    0.81330    0.25780    1.000
    H88      H        0.15530    0.81990    0.14210    1.000
    H89      H        0.09590    0.75820    0.27830    1.000
    C68      C        0.19390    0.84630    0.39320    1.000
    H90      H        0.23000    0.90180    0.37490    1.000
    H91      H        0.17140    0.83810    0.50940    1.000
    C69      C        0.16730    0.86780    0.35780    1.000
    H92      H        0.16740    0.86940    0.48450    1.000
    H93      H        0.21460    0.91310    0.31420    1.000
    C70      C        0.15990    0.79230    0.29150    1.000
    H94      H        0.15850    0.79020    0.16490    1.000
    H95      H        0.11320    0.74700    0.33730    1.000
    N31      N        0.25730    0.55490    0.47520    1.000
    N32      N        0.20320    0.43680    0.36180    1.000
    N33      N        0.13580    0.22990    0.28300    1.000
    N34      N        0.07880    0.11180    0.17300    1.000
    N35      N        0.22040    0.62890    0.82160    1.000
    N36      N        0.09750    0.57180    0.90830    1.000
    C71      C        0.25530    0.48770    0.48050    1.000
    H96      H        0.28560    0.47620    0.55510    1.000
    C72      C        0.20620    0.54670    0.34610    1.000
    H97      H        0.19570    0.58590    0.31140    1.000
    C73      C        0.17260    0.47460    0.27550    1.000
    H98      H        0.13590    0.45500    0.18550    1.000
    C74      C        0.16440    0.19030    0.37170    1.000
    H99      H        0.20100    0.20900    0.46190    1.000
    C75      C        0.12850    0.11800    0.30130    1.000
    H100     H        0.13680    0.07740    0.33660    1.000
    C76      C        0.08390    0.17910    0.16580    1.000
    H101     H        0.05520    0.19170    0.08880    1.000
    C77      C        0.15050    0.56690    0.80490    1.000
    H102     H        0.13880    0.52480    0.73120    1.000
    C78      C        0.21290    0.67510    0.94560    1.000
    H103     H        0.25330    0.72320    0.98510    1.000
    C79      C        0.13790    0.64010    0.00130    1.000
    H104     H        0.11750    0.65870    0.08650    1.000
    C80      C        0.01310    0.51760    0.91140    1.000
    H105     H        0.98580    0.54540    0.87910    1.000
    H106     H        0.99990    0.47620    0.82650    1.000
    C81      C        0.18670    0.31950    0.25780    1.000
    H107     H        0.18010    0.33540    0.14210    1.000
    H108     H        0.24180    0.33770    0.27830    1.000
    C82      C        0.15370    0.34760    0.39320    1.000
    H109     H        0.09820    0.32820    0.37490    1.000
    H110     H        0.16190    0.33330    0.50940    1.000
    C83      C        0.13220    0.29950    0.35780    1.000
    H111     H        0.13060    0.29800    0.48450    1.000
    H112     H        0.08690    0.30150    0.31420    1.000
    C84      C        0.20770    0.36760    0.29150    1.000
    H113     H        0.20980    0.36830    0.16490    1.000
    H114     H        0.25300    0.36620    0.33730    1.000
    Cd1      Cd       0.66667    0.33333    0.35049    1.000
    Cd2      Cd       0.33333    0.66667    0.64951    1.000
    Cd3      Cd       0.00000    0.00000    0.00000    1.000
