# CIF file generated by openbabel 3.1.0, see https://openbabel.org
data_I
_chemical_name_common 'image0'
_cell_length_a 14.3142
_cell_length_b 10.0277
_cell_length_c 10.4917
_cell_angle_alpha 90
_cell_angle_beta 94.102
_cell_angle_gamma 90
_space_group_name_H-M_alt 'P 1'
_space_group_name_Hall 'P 1'
loop_
    _symmetry_equiv_pos_as_xyz
    x,y,z
loop_
    _atom_site_label
    _atom_site_type_symbol
    _atom_site_fract_x
    _atom_site_fract_y
    _atom_site_fract_z
    _atom_site_occupancy
    Zn1      Zn       0.54564    0.87381    0.14422    1.000
    Zn2      Zn       0.95654    0.86625    0.10163    1.000
    P1       P        0.51022    0.19285    0.13423    1.000
    P2       P        0.74004    0.97354    0.04200    1.000
    P3       P        0.00657    0.82839    0.82680    1.000
    O1       O        0.60720    0.22250    0.20870    1.000
    O2       O        0.48340    0.04700    0.15580    1.000
    O3       O        0.51920    0.22410    0.99410    1.000
    O4       O        0.43980    0.28520    0.19150    1.000
    O5       O        0.69990    0.02350    0.90580    1.000
    O6       O        0.74770    0.09450    0.13130    1.000
    O7       O        0.67200    0.87080    0.08880    1.000
    O8       O        0.83440    0.91260    0.02260    1.000
    O9       O        0.10310    0.79980    0.76710    1.000
    O10      O        0.01810    0.77440    0.96440    1.000
    O11      O        0.98560    0.97670    0.82320    1.000
    O12      O        0.93410    0.75190    0.74290    1.000
    H1       H        0.64500    0.19000    0.18000    1.000
    H2       H        0.64900    0.00700    0.89000    1.000
    H3       H        0.14900    0.82500    0.80400    1.000
    Zn3      Zn       0.45436    0.37381    0.35578    1.000
    Zn4      Zn       0.04346    0.36625    0.39837    1.000
    P4       P        0.48978    0.69285    0.36577    1.000
    P5       P        0.25996    0.47354    0.45800    1.000
    P6       P        0.99343    0.32839    0.67320    1.000
    O13      O        0.39280    0.72250    0.29130    1.000
    O14      O        0.51660    0.54700    0.34420    1.000
    O15      O        0.48080    0.72410    0.50590    1.000
    O16      O        0.56020    0.78520    0.30850    1.000
    O17      O        0.30010    0.52350    0.59420    1.000
    O18      O        0.25230    0.59450    0.36870    1.000
    O19      O        0.32800    0.37080    0.41120    1.000
    O20      O        0.16560    0.41260    0.47740    1.000
    O21      O        0.89690    0.29980    0.73290    1.000
    O22      O        0.98190    0.27440    0.53560    1.000
    O23      O        0.01440    0.47670    0.67680    1.000
    O24      O        0.06590    0.25190    0.75710    1.000
    H4       H        0.35500    0.69000    0.32000    1.000
    H5       H        0.35100    0.50700    0.61000    1.000
    H6       H        0.85100    0.32500    0.69600    1.000
    Zn5      Zn       0.45436    0.12619    0.85578    1.000
    Zn6      Zn       0.04346    0.13375    0.89837    1.000
    P7       P        0.48978    0.80715    0.86577    1.000
    P8       P        0.25996    0.02646    0.95800    1.000
    P9       P        0.99343    0.17161    0.17320    1.000
    O25      O        0.39280    0.77750    0.79130    1.000
    O26      O        0.51660    0.95300    0.84420    1.000
    O27      O        0.48080    0.77590    0.00590    1.000
    O28      O        0.56020    0.71480    0.80850    1.000
    O29      O        0.30010    0.97650    0.09420    1.000
    O30      O        0.25230    0.90550    0.86870    1.000
    O31      O        0.32800    0.12920    0.91120    1.000
    O32      O        0.16560    0.08740    0.97740    1.000
    O33      O        0.89690    0.20020    0.23290    1.000
    O34      O        0.98190    0.22560    0.03560    1.000
    O35      O        0.01440    0.02330    0.17680    1.000
    O36      O        0.06590    0.24810    0.25710    1.000
    H7       H        0.35500    0.81000    0.82000    1.000
    H8       H        0.35100    0.99300    0.11000    1.000
    H9       H        0.85100    0.17500    0.19600    1.000
    Zn7      Zn       0.54564    0.62619    0.64422    1.000
    Zn8      Zn       0.95654    0.63375    0.60163    1.000
    P10      P        0.51022    0.30715    0.63423    1.000
    P11      P        0.74004    0.52646    0.54200    1.000
    P12      P        0.00657    0.67161    0.32680    1.000
    O37      O        0.60720    0.27750    0.70870    1.000
    O38      O        0.48340    0.45300    0.65580    1.000
    O39      O        0.51920    0.27590    0.49410    1.000
    O40      O        0.43980    0.21480    0.69150    1.000
    O41      O        0.69990    0.47650    0.40580    1.000
    O42      O        0.74770    0.40550    0.63130    1.000
    O43      O        0.67200    0.62920    0.58880    1.000
    O44      O        0.83440    0.58740    0.52260    1.000
    O45      O        0.10310    0.70020    0.26710    1.000
    O46      O        0.01810    0.72560    0.46440    1.000
    O47      O        0.98560    0.52330    0.32320    1.000
    O48      O        0.93410    0.74810    0.24290    1.000
    H10      H        0.64500    0.31000    0.68000    1.000
    H11      H        0.64900    0.49300    0.39000    1.000
    H12      H        0.14900    0.67500    0.30400    1.000
