# CIF file generated by openbabel 3.1.0, see https://openbabel.org
data_I
_chemical_name_common 'image0'
_cell_length_a 13.5707
_cell_length_b 15.006
_cell_length_c 20.074
_cell_angle_alpha 90
_cell_angle_beta 90
_cell_angle_gamma 90
_space_group_name_H-M_alt 'P 1'
_space_group_name_Hall 'P 1'
loop_
    _symmetry_equiv_pos_as_xyz
    x,y,z
loop_
    _atom_site_label
    _atom_site_type_symbol
    _atom_site_fract_x
    _atom_site_fract_y
    _atom_site_fract_z
    _atom_site_occupancy
    Zn1      Zn       0.49752    0.60974    0.56487    1.000
    O1       O        0.50480    0.63830    0.66320    1.000
    O2       O        0.49320    0.76770    0.61160    1.000
    O3       O        0.48730    0.84130    0.97210    1.000
    O4       O        0.49520    0.97500    0.92430    1.000
    N1       N        0.65850    0.61180    0.55510    1.000
    N2       N        0.33530    0.60050    0.57070    1.000
    C1       C        0.71560    0.56460    0.59680    1.000
    H1       H        0.68700    0.53960    0.63450    1.000
    C2       C        0.81640    0.55130    0.58590    1.000
    H2       H        0.85360    0.51850    0.61610    1.000
    C3       C        0.85990    0.58730    0.53010    1.000
    C4       C        0.80280    0.64300    0.49060    1.000
    H3       H        0.83070    0.67360    0.45500    1.000
    C5       C        0.70370    0.65210    0.50510    1.000
    H4       H        0.66620    0.68900    0.47780    1.000
    C6       C        0.96120    0.56470    0.50390    1.000
    H5       H        0.99160    0.61780    0.48410    1.000
    C7       C        0.27960    0.63130    0.52120    1.000
    H6       H        0.30900    0.66760    0.48930    1.000
    C8       C        0.18100    0.61230    0.51470    1.000
    H7       H        0.14490    0.63630    0.47970    1.000
    C9       C        0.13580    0.55690    0.56090    1.000
    C10      C        0.19240    0.53130    0.61550    1.000
    H8       H        0.16380    0.49950    0.65020    1.000
    C11      C        0.29150    0.55350    0.61800    1.000
    H9       H        0.32860    0.53460    0.65430    1.000
    C12      C        0.03730    0.51530    0.54830    1.000
    H10      H        0.00690    0.49640    0.59020    1.000
    C13      C        0.49930    0.72150    0.66330    1.000
    C14      C        0.49760    0.76750    0.73080    1.000
    C15      C        0.50050    0.71660    0.78790    1.000
    H11      H        0.50370    0.65490    0.78480    1.000
    C16      C        0.49870    0.75700    0.84970    1.000
    H12      H        0.50080    0.72250    0.88810    1.000
    C17      C        0.49380    0.84940    0.85440    1.000
    C18      C        0.49180    0.90170    0.79630    1.000
    H13      H        0.48920    0.96360    0.79890    1.000
    C19      C        0.49380    0.85930    0.73510    1.000
    H14      H        0.49260    0.89320    0.69630    1.000
    C20      C        0.49170    0.89360    0.92170    1.000
    Zn2      Zn       0.50248    0.10974    0.93513    1.000
    O5       O        0.49520    0.13830    0.83680    1.000
    O6       O        0.50680    0.26770    0.88840    1.000
    O7       O        0.51270    0.34130    0.52790    1.000
    O8       O        0.50480    0.47500    0.57570    1.000
    N3       N        0.34150    0.11180    0.94490    1.000
    N4       N        0.66470    0.10050    0.92930    1.000
    C21      C        0.28440    0.06460    0.90320    1.000
    H15      H        0.31300    0.03960    0.86550    1.000
    C22      C        0.18360    0.05130    0.91410    1.000
    H16      H        0.14640    0.01850    0.88390    1.000
    C23      C        0.14010    0.08730    0.96990    1.000
    C24      C        0.19720    0.14300    0.00940    1.000
    H17      H        0.16930    0.17360    0.04500    1.000
    C25      C        0.29630    0.15210    0.99490    1.000
    H18      H        0.33380    0.18900    0.02220    1.000
    C26      C        0.03880    0.06470    0.99610    1.000
    H19      H        0.00840    0.11780    0.01590    1.000
    C27      C        0.72040    0.13130    0.97880    1.000
    H20      H        0.69100    0.16760    0.01070    1.000
    C28      C        0.81900    0.11230    0.98530    1.000
    H21      H        0.85510    0.13630    0.02030    1.000
    C29      C        0.86420    0.05690    0.93910    1.000
    C30      C        0.80760    0.03130    0.88450    1.000
    H22      H        0.83620    0.99950    0.84980    1.000
    C31      C        0.70850    0.05350    0.88200    1.000
    H23      H        0.67140    0.03460    0.84570    1.000
    C32      C        0.96270    0.01530    0.95170    1.000
    H24      H        0.99310    0.99640    0.90980    1.000
    C33      C        0.50070    0.22150    0.83670    1.000
    C34      C        0.50240    0.26750    0.76920    1.000
    C35      C        0.49950    0.21660    0.71210    1.000
    H25      H        0.49630    0.15490    0.71520    1.000
    C36      C        0.50130    0.25700    0.65030    1.000
    H26      H        0.49920    0.22250    0.61190    1.000
    C37      C        0.50620    0.34940    0.64560    1.000
    C38      C        0.50820    0.40170    0.70370    1.000
    H27      H        0.51080    0.46360    0.70110    1.000
    C39      C        0.50620    0.35930    0.76490    1.000
    H28      H        0.50740    0.39320    0.80370    1.000
    C40      C        0.50830    0.39360    0.57830    1.000
    Zn3      Zn       0.50248    0.39026    0.43513    1.000
    O9       O        0.49520    0.36170    0.33680    1.000
    O10      O        0.50680    0.23230    0.38840    1.000
    O11      O        0.51270    0.15870    0.02790    1.000
    O12      O        0.50480    0.02500    0.07570    1.000
    N5       N        0.34150    0.38820    0.44490    1.000
    N6       N        0.66470    0.39950    0.42930    1.000
    C41      C        0.28440    0.43540    0.40320    1.000
    H29      H        0.31300    0.46040    0.36550    1.000
    C42      C        0.18360    0.44870    0.41410    1.000
    H30      H        0.14640    0.48150    0.38390    1.000
    C43      C        0.14010    0.41270    0.46990    1.000
    C44      C        0.19720    0.35700    0.50940    1.000
    H31      H        0.16930    0.32640    0.54500    1.000
    C45      C        0.29630    0.34790    0.49490    1.000
    H32      H        0.33380    0.31100    0.52220    1.000
    C46      C        0.03880    0.43530    0.49610    1.000
    H33      H        0.00840    0.38220    0.51590    1.000
    C47      C        0.72040    0.36870    0.47880    1.000
    H34      H        0.69100    0.33240    0.51070    1.000
    C48      C        0.81900    0.38770    0.48530    1.000
    H35      H        0.85510    0.36370    0.52030    1.000
    C49      C        0.86420    0.44310    0.43910    1.000
    C50      C        0.80760    0.46870    0.38450    1.000
    H36      H        0.83620    0.50050    0.34980    1.000
    C51      C        0.70850    0.44650    0.38200    1.000
    H37      H        0.67140    0.46540    0.34570    1.000
    C52      C        0.96270    0.48470    0.45170    1.000
    H38      H        0.99310    0.50360    0.40980    1.000
    C53      C        0.50070    0.27850    0.33670    1.000
    C54      C        0.50240    0.23250    0.26920    1.000
    C55      C        0.49950    0.28340    0.21210    1.000
    H39      H        0.49630    0.34510    0.21520    1.000
    C56      C        0.50130    0.24300    0.15030    1.000
    H40      H        0.49920    0.27750    0.11190    1.000
    C57      C        0.50620    0.15060    0.14560    1.000
    C58      C        0.50820    0.09830    0.20370    1.000
    H41      H        0.51080    0.03640    0.20110    1.000
    C59      C        0.50620    0.14070    0.26490    1.000
    H42      H        0.50740    0.10680    0.30370    1.000
    C60      C        0.50830    0.10640    0.07830    1.000
    Zn4      Zn       0.49752    0.89026    0.06487    1.000
    O13      O        0.50480    0.86170    0.16320    1.000
    O14      O        0.49320    0.73230    0.11160    1.000
    O15      O        0.48730    0.65870    0.47210    1.000
    O16      O        0.49520    0.52500    0.42430    1.000
    N7       N        0.65850    0.88820    0.05510    1.000
    N8       N        0.33530    0.89950    0.07070    1.000
    C61      C        0.71560    0.93540    0.09680    1.000
    H43      H        0.68700    0.96040    0.13450    1.000
    C62      C        0.81640    0.94870    0.08590    1.000
    H44      H        0.85360    0.98150    0.11610    1.000
    C63      C        0.85990    0.91270    0.03010    1.000
    C64      C        0.80280    0.85700    0.99060    1.000
    H45      H        0.83070    0.82640    0.95500    1.000
    C65      C        0.70370    0.84790    0.00510    1.000
    H46      H        0.66620    0.81100    0.97780    1.000
    C66      C        0.96120    0.93530    0.00390    1.000
    H47      H        0.99160    0.88220    0.98410    1.000
    C67      C        0.27960    0.86870    0.02120    1.000
    H48      H        0.30900    0.83240    0.98930    1.000
    C68      C        0.18100    0.88770    0.01470    1.000
    H49      H        0.14490    0.86370    0.97970    1.000
    C69      C        0.13580    0.94310    0.06090    1.000
    C70      C        0.19240    0.96870    0.11550    1.000
    H50      H        0.16380    0.00050    0.15020    1.000
    C71      C        0.29150    0.94650    0.11800    1.000
    H51      H        0.32860    0.96540    0.15430    1.000
    C72      C        0.03730    0.98470    0.04830    1.000
    H52      H        0.00690    0.00360    0.09020    1.000
    C73      C        0.49930    0.77850    0.16330    1.000
    C74      C        0.49760    0.73250    0.23080    1.000
    C75      C        0.50050    0.78340    0.28790    1.000
    H53      H        0.50370    0.84510    0.28480    1.000
    C76      C        0.49870    0.74300    0.34970    1.000
    H54      H        0.50080    0.77750    0.38810    1.000
    C77      C        0.49380    0.65060    0.35440    1.000
    C78      C        0.49180    0.59830    0.29630    1.000
    H55      H        0.48920    0.53640    0.29890    1.000
    C79      C        0.49380    0.64070    0.23510    1.000
    H56      H        0.49260    0.60680    0.19630    1.000
    C80      C        0.49170    0.60640    0.42170    1.000
    Zn5      Zn       0.00248    0.39026    0.06487    1.000
    O17      O        0.99520    0.36170    0.16320    1.000
    O18      O        0.00680    0.23230    0.11160    1.000
    O19      O        0.01270    0.15870    0.47210    1.000
    O20      O        0.00480    0.02500    0.42430    1.000
    N9       N        0.84150    0.38820    0.05510    1.000
    N10      N        0.16470    0.39950    0.07070    1.000
    C81      C        0.78440    0.43540    0.09680    1.000
    H57      H        0.81300    0.46040    0.13450    1.000
    C82      C        0.68360    0.44870    0.08590    1.000
    H58      H        0.64640    0.48150    0.11610    1.000
    C83      C        0.64010    0.41270    0.03010    1.000
    C84      C        0.69720    0.35700    0.99060    1.000
    H59      H        0.66930    0.32640    0.95500    1.000
    C85      C        0.79630    0.34790    0.00510    1.000
    H60      H        0.83380    0.31100    0.97780    1.000
    C86      C        0.53880    0.43530    0.00390    1.000
    H61      H        0.50840    0.38220    0.98410    1.000
    C87      C        0.22040    0.36870    0.02120    1.000
    H62      H        0.19100    0.33240    0.98930    1.000
    C88      C        0.31900    0.38770    0.01470    1.000
    H63      H        0.35510    0.36370    0.97970    1.000
    C89      C        0.36420    0.44310    0.06090    1.000
    C90      C        0.30760    0.46870    0.11550    1.000
    H64      H        0.33620    0.50050    0.15020    1.000
    C91      C        0.20850    0.44650    0.11800    1.000
    H65      H        0.17140    0.46540    0.15430    1.000
    C92      C        0.46270    0.48470    0.04830    1.000
    H66      H        0.49310    0.50360    0.09020    1.000
    C93      C        0.00070    0.27850    0.16330    1.000
    C94      C        0.00240    0.23250    0.23080    1.000
    C95      C        0.99950    0.28340    0.28790    1.000
    H67      H        0.99630    0.34510    0.28480    1.000
    C96      C        0.00130    0.24300    0.34970    1.000
    H68      H        0.99920    0.27750    0.38810    1.000
    C97      C        0.00620    0.15060    0.35440    1.000
    C98      C        0.00820    0.09830    0.29630    1.000
    H69      H        0.01080    0.03640    0.29890    1.000
    C99      C        0.00620    0.14070    0.23510    1.000
    H70      H        0.00740    0.10680    0.19630    1.000
    C100     C        0.00830    0.10640    0.42170    1.000
    Zn6      Zn       0.99752    0.89026    0.43513    1.000
    O21      O        0.00480    0.86170    0.33680    1.000
    O22      O        0.99320    0.73230    0.38840    1.000
    O23      O        0.98730    0.65870    0.02790    1.000
    O24      O        0.99520    0.52500    0.07570    1.000
    N11      N        0.15850    0.88820    0.44490    1.000
    N12      N        0.83530    0.89950    0.42930    1.000
    C101     C        0.21560    0.93540    0.40320    1.000
    H71      H        0.18700    0.96040    0.36550    1.000
    C102     C        0.31640    0.94870    0.41410    1.000
    H72      H        0.35360    0.98150    0.38390    1.000
    C103     C        0.35990    0.91270    0.46990    1.000
    C104     C        0.30280    0.85700    0.50940    1.000
    H73      H        0.33070    0.82640    0.54500    1.000
    C105     C        0.20370    0.84790    0.49490    1.000
    H74      H        0.16620    0.81100    0.52220    1.000
    C106     C        0.46120    0.93530    0.49610    1.000
    H75      H        0.49160    0.88220    0.51590    1.000
    C107     C        0.77960    0.86870    0.47880    1.000
    H76      H        0.80900    0.83240    0.51070    1.000
    C108     C        0.68100    0.88770    0.48530    1.000
    H77      H        0.64490    0.86370    0.52030    1.000
    C109     C        0.63580    0.94310    0.43910    1.000
    C110     C        0.69240    0.96870    0.38450    1.000
    H78      H        0.66380    0.00050    0.34980    1.000
    C111     C        0.79150    0.94650    0.38200    1.000
    H79      H        0.82860    0.96540    0.34570    1.000
    C112     C        0.53730    0.98470    0.45170    1.000
    H80      H        0.50690    0.00360    0.40980    1.000
    C113     C        0.99930    0.77850    0.33670    1.000
    C114     C        0.99760    0.73250    0.26920    1.000
    C115     C        0.00050    0.78340    0.21210    1.000
    H81      H        0.00370    0.84510    0.21520    1.000
    C116     C        0.99870    0.74300    0.15030    1.000
    H82      H        0.00080    0.77750    0.11190    1.000
    C117     C        0.99380    0.65060    0.14560    1.000
    C118     C        0.99180    0.59830    0.20370    1.000
    H83      H        0.98920    0.53640    0.20110    1.000
    C119     C        0.99380    0.64070    0.26490    1.000
    H84      H        0.99260    0.60680    0.30370    1.000
    C120     C        0.99170    0.60640    0.07830    1.000
    Zn7      Zn       0.99752    0.60974    0.93513    1.000
    O25      O        0.00480    0.63830    0.83680    1.000
    O26      O        0.99320    0.76770    0.88840    1.000
    O27      O        0.98730    0.84130    0.52790    1.000
    O28      O        0.99520    0.97500    0.57570    1.000
    N13      N        0.15850    0.61180    0.94490    1.000
    N14      N        0.83530    0.60050    0.92930    1.000
    C121     C        0.21560    0.56460    0.90320    1.000
    H85      H        0.18700    0.53960    0.86550    1.000
    C122     C        0.31640    0.55130    0.91410    1.000
    H86      H        0.35360    0.51850    0.88390    1.000
    C123     C        0.35990    0.58730    0.96990    1.000
    C124     C        0.30280    0.64300    0.00940    1.000
    H87      H        0.33070    0.67360    0.04500    1.000
    C125     C        0.20370    0.65210    0.99490    1.000
    H88      H        0.16620    0.68900    0.02220    1.000
    C126     C        0.46120    0.56470    0.99610    1.000
    H89      H        0.49160    0.61780    0.01590    1.000
    C127     C        0.77960    0.63130    0.97880    1.000
    H90      H        0.80900    0.66760    0.01070    1.000
    C128     C        0.68100    0.61230    0.98530    1.000
    H91      H        0.64490    0.63630    0.02030    1.000
    C129     C        0.63580    0.55690    0.93910    1.000
    C130     C        0.69240    0.53130    0.88450    1.000
    H92      H        0.66380    0.49950    0.84980    1.000
    C131     C        0.79150    0.55350    0.88200    1.000
    H93      H        0.82860    0.53460    0.84570    1.000
    C132     C        0.53730    0.51530    0.95170    1.000
    H94      H        0.50690    0.49640    0.90980    1.000
    C133     C        0.99930    0.72150    0.83670    1.000
    C134     C        0.99760    0.76750    0.76920    1.000
    C135     C        0.00050    0.71660    0.71210    1.000
    H95      H        0.00370    0.65490    0.71520    1.000
    C136     C        0.99870    0.75700    0.65030    1.000
    H96      H        0.00080    0.72250    0.61190    1.000
    C137     C        0.99380    0.84940    0.64560    1.000
    C138     C        0.99180    0.90170    0.70370    1.000
    H97      H        0.98920    0.96360    0.70110    1.000
    C139     C        0.99380    0.85930    0.76490    1.000
    H98      H        0.99260    0.89320    0.80370    1.000
    C140     C        0.99170    0.89360    0.57830    1.000
    Zn8      Zn       0.00248    0.10974    0.56487    1.000
    O29      O        0.99520    0.13830    0.66320    1.000
    O30      O        0.00680    0.26770    0.61160    1.000
    O31      O        0.01270    0.34130    0.97210    1.000
    O32      O        0.00480    0.47500    0.92430    1.000
    N15      N        0.84150    0.11180    0.55510    1.000
    N16      N        0.16470    0.10050    0.57070    1.000
    C141     C        0.78440    0.06460    0.59680    1.000
    H99      H        0.81300    0.03960    0.63450    1.000
    C142     C        0.68360    0.05130    0.58590    1.000
    H100     H        0.64640    0.01850    0.61610    1.000
    C143     C        0.64010    0.08730    0.53010    1.000
    C144     C        0.69720    0.14300    0.49060    1.000
    H101     H        0.66930    0.17360    0.45500    1.000
    C145     C        0.79630    0.15210    0.50510    1.000
    H102     H        0.83380    0.18900    0.47780    1.000
    C146     C        0.53880    0.06470    0.50390    1.000
    H103     H        0.50840    0.11780    0.48410    1.000
    C147     C        0.22040    0.13130    0.52120    1.000
    H104     H        0.19100    0.16760    0.48930    1.000
    C148     C        0.31900    0.11230    0.51470    1.000
    H105     H        0.35510    0.13630    0.47970    1.000
    C149     C        0.36420    0.05690    0.56090    1.000
    C150     C        0.30760    0.03130    0.61550    1.000
    H106     H        0.33620    0.99950    0.65020    1.000
    C151     C        0.20850    0.05350    0.61800    1.000
    H107     H        0.17140    0.03460    0.65430    1.000
    C152     C        0.46270    0.01530    0.54830    1.000
    H108     H        0.49310    0.99640    0.59020    1.000
    C153     C        0.00070    0.22150    0.66330    1.000
    C154     C        0.00240    0.26750    0.73080    1.000
    C155     C        0.99950    0.21660    0.78790    1.000
    H109     H        0.99630    0.15490    0.78480    1.000
    C156     C        0.00130    0.25700    0.84970    1.000
    H110     H        0.99920    0.22250    0.88810    1.000
    C157     C        0.00620    0.34940    0.85440    1.000
    C158     C        0.00820    0.40170    0.79630    1.000
    H111     H        0.01080    0.46360    0.79890    1.000
    C159     C        0.00620    0.35930    0.73510    1.000
    H112     H        0.00740    0.39320    0.69630    1.000
    C160     C        0.00830    0.39360    0.92170    1.000
