data_functionalizedCrystal
_audit_creation_method	'EQeq! by Chris Wilmer'
_symmetry_space_group_name_H-M	'P1'
_symmetry_Int_Tables_number	1
_symmetry_cell_setting	triclinic
loop_
_symmetry_equiv_pos_as_xyz
  x,y,z
_cell_length_a	13.814
_cell_length_b	20.792
_cell_length_c	20.792
_cell_angle_alpha	120
_cell_angle_beta	90
_cell_angle_gamma	90
loop_
_atom_site_label
_atom_site_type_symbol
_atom_site_fract_x
_atom_site_fract_y
_atom_site_fract_z
_atom_site_charge
Mof_Mn	Mn	0.25	0.37948	0.78051	0.719
Mof_Mn	Mn	0.25	0.40103	0.62052	0.719
Mof_Mn	Mn	0.25	0.21949	0.59897	0.719
Mof_Mn	Mn	0.75	0.62052	0.21949	0.719
Mof_Mn	Mn	0.75	0.59897	0.37948	0.719
Mof_Mn	Mn	0.75	0.78051	0.40103	0.719
Mof_H 	H 	0.4524	0.4103	0.8588	0.053
Mof_H 	H 	0.4727	0.634	0.9492	0.051
Mof_H 	H 	0.4832	0.3535	0.9379	0.065
Mof_H 	H 	0.4524	0.4485	0.5897	0.053
Mof_H 	H 	0.4727	0.3152	0.366	0.051
Mof_H 	H 	0.4832	0.5844	0.6465	0.065
Mof_H 	H 	0.4524	0.1412	0.5515	0.053
Mof_H 	H 	0.4727	0.0508	0.6848	0.051
Mof_H 	H 	0.4832	0.0621	0.4156	0.065
Mof_H 	H 	0.9524	0.5897	0.1412	0.053
Mof_H 	H 	0.9727	0.366	0.0508	0.051
Mof_H 	H 	0.9832	0.6465	0.0621	0.065
Mof_H 	H 	0.9524	0.5515	0.4103	0.053
Mof_H 	H 	0.9727	0.6848	0.634	0.051
Mof_H 	H 	0.9832	0.4156	0.3535	0.065
Mof_H 	H 	0.9524	0.8588	0.4485	0.053
Mof_H 	H 	0.9727	0.9492	0.3152	0.051
Mof_H 	H 	0.9832	0.9379	0.5844	0.065
Mof_H 	H 	0.5476	0.5897	0.1412	0.053
Mof_H 	H 	0.5273	0.366	0.0508	0.051
Mof_H 	H 	0.5168	0.6465	0.0621	0.065
Mof_H 	H 	0.5476	0.5515	0.4103	0.053
Mof_H 	H 	0.5273	0.6848	0.634	0.051
Mof_H 	H 	0.5168	0.4156	0.3535	0.065
Mof_H 	H 	0.5476	0.8588	0.4485	0.053
Mof_H 	H 	0.5273	0.9492	0.3152	0.051
Mof_H 	H 	0.5168	0.9379	0.5844	0.065
Mof_H 	H 	0.0476	0.4103	0.8588	0.053
Mof_H 	H 	0.0273	0.634	0.9492	0.051
Mof_H 	H 	0.0168	0.3535	0.9379	0.065
Mof_H 	H 	0.0476	0.4485	0.5897	0.053
Mof_H 	H 	0.0273	0.3152	0.366	0.051
Mof_H 	H 	0.0168	0.5844	0.6465	0.065
Mof_H 	H 	0.0476	0.1412	0.5515	0.053
Mof_H 	H 	0.0273	0.0508	0.6848	0.051
Mof_H 	H 	0.0168	0.0621	0.4156	0.065
Mof_C 	C 	0.4907	0.46399	0.96905	0.029
Mof_C 	C 	0.4644	0.45795	0.90055	-0.08
Mof_C 	C 	0.45594	0.51983	0.89329	-0.012
Mof_C 	C 	0.4768	0.59129	0.95463	-0.028
Mof_C 	C 	0.4972	0.40145	0.97861	-0.071
Mof_C 	C 	0.42424	0.51194	0.82226	0.113
Mof_C 	C 	0.4907	0.50506	0.53601	0.029
Mof_C 	C 	0.4644	0.4426	0.54205	-0.08
Mof_C 	C 	0.45594	0.37346	0.48017	-0.012
Mof_C 	C 	0.4768	0.36334	0.40871	-0.028
Mof_C 	C 	0.4972	0.57716	0.59855	-0.071
Mof_C 	C 	0.42424	0.31032	0.48806	0.113
Mof_C 	C 	0.4907	0.03095	0.49494	0.029
Mof_C 	C 	0.4644	0.09945	0.5574	-0.08
Mof_C 	C 	0.45594	0.10671	0.62654	-0.012
Mof_C 	C 	0.4768	0.04537	0.63666	-0.028
Mof_C 	C 	0.4972	0.02139	0.42284	-0.071
Mof_C 	C 	0.42424	0.17774	0.68968	0.113
Mof_C 	C 	0.9907	0.53601	0.03095	0.029
Mof_C 	C 	0.9644	0.54205	0.09945	-0.08
Mof_C 	C 	0.95594	0.48017	0.10671	-0.012
Mof_C 	C 	0.9768	0.40871	0.04537	-0.028
Mof_C 	C 	0.9972	0.59855	0.02139	-0.071
Mof_C 	C 	0.92424	0.48806	0.17774	0.113
Mof_C 	C 	0.9907	0.49494	0.46399	0.029
Mof_C 	C 	0.9644	0.5574	0.45795	-0.08
Mof_C 	C 	0.95594	0.62654	0.51983	-0.012
Mof_C 	C 	0.9768	0.63666	0.59129	-0.028
Mof_C 	C 	0.9972	0.42284	0.40145	-0.071
Mof_C 	C 	0.92424	0.68968	0.51194	0.113
Mof_C 	C 	0.9907	0.96905	0.50506	0.029
Mof_C 	C 	0.9644	0.90055	0.4426	-0.08
Mof_C 	C 	0.95594	0.89329	0.37346	-0.012
Mof_C 	C 	0.9768	0.95463	0.36334	-0.028
Mof_C 	C 	0.9972	0.97861	0.57716	-0.071
Mof_C 	C 	0.92424	0.82226	0.31032	0.113
Mof_C 	C 	0.5093	0.53601	0.03095	0.029
Mof_C 	C 	0.5356	0.54205	0.09945	-0.08
Mof_C 	C 	0.54406	0.48017	0.10671	-0.012
Mof_C 	C 	0.5232	0.40871	0.04537	-0.028
Mof_C 	C 	0.5028	0.59855	0.02139	-0.071
Mof_C 	C 	0.57576	0.48806	0.17774	0.113
Mof_C 	C 	0.5093	0.49494	0.46399	0.029
Mof_C 	C 	0.5356	0.5574	0.45795	-0.08
Mof_C 	C 	0.54406	0.62654	0.51983	-0.012
Mof_C 	C 	0.5232	0.63666	0.59129	-0.028
Mof_C 	C 	0.5028	0.42284	0.40145	-0.071
Mof_C 	C 	0.57576	0.68968	0.51194	0.113
Mof_C 	C 	0.5093	0.96905	0.50506	0.029
Mof_C 	C 	0.5356	0.90055	0.4426	-0.08
Mof_C 	C 	0.54406	0.89329	0.37346	-0.012
Mof_C 	C 	0.5232	0.95463	0.36334	-0.028
Mof_C 	C 	0.5028	0.97861	0.57716	-0.071
Mof_C 	C 	0.57576	0.82226	0.31032	0.113
Mof_C 	C 	0.0093	0.46399	0.96905	0.029
Mof_C 	C 	0.0356	0.45795	0.90055	-0.08
Mof_C 	C 	0.04406	0.51983	0.89329	-0.012
Mof_C 	C 	0.0232	0.59129	0.95463	-0.028
Mof_C 	C 	0.0028	0.40145	0.97861	-0.071
Mof_C 	C 	0.07576	0.51194	0.82226	0.113
Mof_C 	C 	0.0093	0.50506	0.53601	0.029
Mof_C 	C 	0.0356	0.4426	0.54205	-0.08
Mof_C 	C 	0.04406	0.37346	0.48017	-0.012
Mof_C 	C 	0.0232	0.36334	0.40871	-0.028
Mof_C 	C 	0.0028	0.57716	0.59855	-0.071
Mof_C 	C 	0.07576	0.31032	0.48806	0.113
Mof_C 	C 	0.0093	0.03095	0.49494	0.029
Mof_C 	C 	0.0356	0.09945	0.5574	-0.08
Mof_C 	C 	0.04406	0.10671	0.62654	-0.012
Mof_C 	C 	0.0232	0.04537	0.63666	-0.028
Mof_C 	C 	0.0028	0.02139	0.42284	-0.071
Mof_C 	C 	0.07576	0.17774	0.68968	0.113
Mof_N 	N 	0.3632	0.45937	0.77588	-0.152
Mof_N 	N 	0.35599	0.47118	0.71739	-0.107
Mof_N 	N 	0.40921	0.52843	0.72923	-0.058
Mof_N 	N 	0.45355	0.55576	0.79582	-0.089
Mof_N 	N 	0.3632	0.31651	0.54063	-0.152
Mof_N 	N 	0.35599	0.24621	0.52882	-0.107
Mof_N 	N 	0.40921	0.2008	0.47157	-0.058
Mof_N 	N 	0.45355	0.24006	0.44424	-0.089
Mof_N 	N 	0.3632	0.22412	0.68349	-0.152
Mof_N 	N 	0.35599	0.28261	0.75379	-0.107
Mof_N 	N 	0.40921	0.27077	0.7992	-0.058
Mof_N 	N 	0.45355	0.20418	0.75994	-0.089
Mof_N 	N 	0.8632	0.54063	0.22412	-0.152
Mof_N 	N 	0.85599	0.52882	0.28261	-0.107
Mof_N 	N 	0.90921	0.47157	0.27077	-0.058
Mof_N 	N 	0.95355	0.44424	0.20418	-0.089
Mof_N 	N 	0.8632	0.68349	0.45937	-0.152
Mof_N 	N 	0.85599	0.75379	0.47118	-0.107
Mof_N 	N 	0.90921	0.7992	0.52843	-0.058
Mof_N 	N 	0.95355	0.75994	0.55576	-0.089
Mof_N 	N 	0.8632	0.77588	0.31651	-0.152
Mof_N 	N 	0.85599	0.71739	0.24621	-0.107
Mof_N 	N 	0.90921	0.72923	0.2008	-0.058
Mof_N 	N 	0.95355	0.79582	0.24006	-0.089
Mof_N 	N 	0.6368	0.54063	0.22412	-0.152
Mof_N 	N 	0.64401	0.52882	0.28261	-0.107
Mof_N 	N 	0.59079	0.47157	0.27077	-0.058
Mof_N 	N 	0.54645	0.44424	0.20418	-0.089
Mof_N 	N 	0.6368	0.68349	0.45937	-0.152
Mof_N 	N 	0.64401	0.75379	0.47118	-0.107
Mof_N 	N 	0.59079	0.7992	0.52843	-0.058
Mof_N 	N 	0.54645	0.75994	0.55576	-0.089
Mof_N 	N 	0.6368	0.77588	0.31651	-0.152
Mof_N 	N 	0.64401	0.71739	0.24621	-0.107
Mof_N 	N 	0.59079	0.72923	0.2008	-0.058
Mof_N 	N 	0.54645	0.79582	0.24006	-0.089
Mof_N 	N 	0.1368	0.45937	0.77588	-0.152
Mof_N 	N 	0.14401	0.47118	0.71739	-0.107
Mof_N 	N 	0.09079	0.52843	0.72923	-0.058
Mof_N 	N 	0.04645	0.55576	0.79582	-0.089
Mof_N 	N 	0.1368	0.31651	0.54063	-0.152
Mof_N 	N 	0.14401	0.24621	0.52882	-0.107
Mof_N 	N 	0.09079	0.2008	0.47157	-0.058
Mof_N 	N 	0.04645	0.24006	0.44424	-0.089
Mof_N 	N 	0.1368	0.22412	0.68349	-0.152
Mof_N 	N 	0.14401	0.28261	0.75379	-0.107
Mof_N 	N 	0.09079	0.27077	0.7992	-0.058
Mof_N 	N 	0.04645	0.20418	0.75994	-0.089
Mof_O 	O 	0.25	0.33333	0.66666	-0.441
Mof_O 	O 	0.75	0.66667	0.33334	-0.441
_end
