data_functionalizedCrystal
_audit_creation_method	'EQeq! by Chris Wilmer'
_symmetry_space_group_name_H-M	'P1'
_symmetry_Int_Tables_number	1
_symmetry_cell_setting	triclinic
loop_
_symmetry_equiv_pos_as_xyz
  x,y,z
_cell_length_a	14.1675
_cell_length_b	21.2583
_cell_length_c	13.6566
_cell_angle_alpha	90
_cell_angle_beta	113.85
_cell_angle_gamma	90
loop_
_atom_site_label
_atom_site_type_symbol
_atom_site_fract_x
_atom_site_fract_y
_atom_site_fract_z
_atom_site_charge
Mof_Mo	Mo	0.64585	0.5868	0.35571	1.129
Mof_Mo	Mo	0.61434	0.42359	0.31814	1.109
Mof_Mo	Mo	0.71407	0.41625	0.73752	1.141
Mof_Mo	Mo	0.64496	0.35127	0.48145	1.131
Mof_Mo	Mo	0.73447	0.53734	0.76482	1.151
Mof_Mo	Mo	0.69273	0.63536	0.54373	1.115
Mof_Sr	Sr	0.86874	0.35863	0.3205	1.443
Mof_Sr	Sr	0.0147	0.48206	0.78651	1.427
Mof_P 	P 	0.77776	0.50387	0.24847	0.549
Mof_P 	P 	0.78827	0.48573	0.55486	0.593
Mof_P 	P 	0.91027	0.63781	0.75881	0.592
Mof_P 	P 	0.81058	0.28189	0.69853	0.571
Mof_O 	O 	0.58033	0.57714	0.45854	-0.619
Mof_O 	O 	0.54945	0.5128	0.26931	-0.495
Mof_O 	O 	0.74899	0.42568	0.59037	-0.469
Mof_O 	O 	0.61008	0.35906	0.61755	-0.51
Mof_O 	O 	0.55517	0.42571	0.42642	-0.624
Mof_O 	O 	0.61802	0.48613	0.6682	-0.618
Mof_O 	O 	0.83612	0.46958	0.80159	-0.641
Mof_O 	O 	0.90202	0.47995	0.58071	-0.491
Mof_O 	O 	0.72246	0.4955	0.43457	-0.453
Mof_O 	O 	0.70683	0.44646	0.24071	-0.525
Mof_O 	O 	0.73096	0.56433	0.27182	-0.448
Mof_O 	O 	0.78872	0.51145	0.14273	-0.473
Mof_O 	O 	0.7684	0.54211	0.61627	-0.472
Mof_O 	O 	0.72424	0.36453	0.39602	-0.662
Mof_O 	O 	0.77114	0.62554	0.45719	-0.565
Mof_O 	O 	0.98704	0.60172	0.73046	-0.514
Mof_O 	O 	0.81693	0.34318	0.76013	-0.439
Mof_O 	O 	0.76612	0.29524	0.57726	-0.456
Mof_O 	O 	0.85981	0.59724	0.81721	-0.441
Mof_O 	O 	0.82689	0.66995	0.66057	-0.437
Mof_O 	O 	0.88438	0.48806	0.33566	-0.529
Mof_O 	O 	0.73986	0.23329	0.7233	-0.648
Mof_H 	H 	0.6858	0.2504	0.7168	0.251
Mof_O 	O 	0.6529	0.61476	0.67489	-0.488
Mof_O 	O 	0.96589	0.69211	0.84011	-0.44
Mof_H 	H 	0.0042	0.7114	0.819	0.237
Mof_O 	O 	0.9142	0.25036	0.73555	-0.393
Mof_O 	O 	0.0134	0.3878	0.9164	-0.137
Mof_O 	O 	0.97261	0.60324	0.49692	-0.744
Mof_H 	H 	0.9229	0.6262	0.4951	0.326
Mof_H 	H 	0.0154	0.6267	0.485	0.199
Mof_O 	O 	0.9348	0.5991	0.0507	-0.246
Mof_Mo	Mo	0.35415	0.0868	0.14429	1.09
Mof_Mo	Mo	0.38566	0.92359	0.18186	1.155
Mof_Mo	Mo	0.28593	0.91625	0.76248	1.149
Mof_Mo	Mo	0.35504	0.85127	0.01855	1.035
Mof_Mo	Mo	0.26553	0.03734	0.73518	1.054
Mof_Mo	Mo	0.30727	0.13536	0.95627	1.203
Mof_Sr	Sr	0.13126	0.85863	0.1795	1.374
Mof_Sr	Sr	0.9853	0.98206	0.71349	1.58
Mof_P 	P 	0.22224	0.00387	0.25153	0.496
Mof_P 	P 	0.21173	0.98573	0.94514	0.649
Mof_P 	P 	0.08973	0.13781	0.74119	0.603
Mof_P 	P 	0.18942	0.78189	0.80147	0.567
Mof_O 	O 	0.41967	0.07714	0.04146	-0.642
Mof_O 	O 	0.45055	0.0128	0.23069	-0.511
Mof_O 	O 	0.25101	0.92568	0.90963	-0.454
Mof_O 	O 	0.38992	0.85906	0.88245	-0.481
Mof_O 	O 	0.44483	0.92571	0.07358	-0.605
Mof_O 	O 	0.38198	0.98613	0.8318	-0.565
Mof_O 	O 	0.16388	0.96958	0.69841	-0.643
Mof_O 	O 	0.09798	0.97995	0.91929	-0.483
Mof_O 	O 	0.27754	0.9955	0.06543	-0.458
Mof_O 	O 	0.29317	0.94646	0.25929	-0.493
Mof_O 	O 	0.26904	0.06433	0.22818	-0.441
Mof_O 	O 	0.21128	0.01145	0.35727	-0.461
Mof_O 	O 	0.2316	0.04211	0.88373	-0.496
Mof_O 	O 	0.27576	0.86453	0.10398	-0.664
Mof_O 	O 	0.22886	0.12554	0.04281	-0.601
Mof_O 	O 	0.01296	0.10172	0.76954	-0.571
Mof_O 	O 	0.18307	0.84318	0.73987	-0.455
Mof_O 	O 	0.23388	0.79524	0.92274	-0.424
Mof_O 	O 	0.14019	0.09724	0.68279	-0.46
Mof_O 	O 	0.17311	0.16995	0.83943	-0.449
Mof_O 	O 	0.11562	0.98806	0.16434	-0.486
Mof_O 	O 	0.26014	0.73329	0.7767	-0.639
Mof_H 	H 	0.3142	0.7504	0.7832	0.252
Mof_O 	O 	0.3471	0.11476	0.82511	-0.488
Mof_O 	O 	0.03411	0.19211	0.65989	-0.541
Mof_H 	H 	0.9958	0.2114	0.681	0.313
Mof_O 	O 	0.0858	0.75036	0.76445	-0.402
Mof_O 	O 	0.9866	0.8878	0.5836	-0.106
Mof_O 	O 	0.02739	0.10324	0.00308	-0.847
Mof_H 	H 	0.0771	0.1262	0.0049	0.337
Mof_H 	H 	0.9846	0.1267	0.015	0.26
Mof_O 	O 	0.0652	0.0991	0.4493	-0.214
Mof_Mo	Mo	0.35415	0.4132	0.64429	1.138
Mof_Mo	Mo	0.38566	0.57641	0.68186	1.128
Mof_Mo	Mo	0.28593	0.58375	0.26248	1.117
Mof_Mo	Mo	0.35504	0.64873	0.51855	1.134
Mof_Mo	Mo	0.26553	0.46266	0.23518	1.118
Mof_Mo	Mo	0.30727	0.36464	0.45627	1.111
Mof_Sr	Sr	0.13126	0.64137	0.6795	1.405
Mof_Sr	Sr	0.9853	0.51794	0.21349	1.508
Mof_P 	P 	0.22224	0.49613	0.75153	0.55
Mof_P 	P 	0.21173	0.51427	0.44514	0.594
Mof_P 	P 	0.08973	0.36219	0.24119	0.602
Mof_P 	P 	0.18942	0.71811	0.30147	0.568
Mof_O 	O 	0.41967	0.42286	0.54146	-0.619
Mof_O 	O 	0.45055	0.4872	0.73069	-0.487
Mof_O 	O 	0.25101	0.57432	0.40963	-0.471
Mof_O 	O 	0.38992	0.64094	0.38245	-0.509
Mof_O 	O 	0.44483	0.57429	0.57358	-0.625
Mof_O 	O 	0.38198	0.51387	0.3318	-0.614
Mof_O 	O 	0.16388	0.53042	0.19841	-0.669
Mof_O 	O 	0.09798	0.52005	0.41929	-0.516
Mof_O 	O 	0.27754	0.5045	0.56543	-0.456
Mof_O 	O 	0.29317	0.55354	0.75929	-0.516
Mof_O 	O 	0.26904	0.43567	0.72818	-0.444
Mof_O 	O 	0.21128	0.48855	0.85727	-0.45
Mof_O 	O 	0.2316	0.45789	0.38373	-0.471
Mof_O 	O 	0.27576	0.63547	0.60398	-0.661
Mof_O 	O 	0.22886	0.37446	0.54281	-0.57
Mof_O 	O 	0.01296	0.39828	0.26954	-0.56
Mof_O 	O 	0.18307	0.65682	0.23987	-0.458
Mof_O 	O 	0.23388	0.70476	0.42274	-0.456
Mof_O 	O 	0.14019	0.40276	0.18279	-0.467
Mof_O 	O 	0.17311	0.33005	0.33943	-0.448
Mof_O 	O 	0.11562	0.51194	0.66434	-0.538
Mof_O 	O 	0.26014	0.76671	0.2767	-0.642
Mof_H 	H 	0.3142	0.7496	0.2832	0.247
Mof_O 	O 	0.3471	0.38524	0.32511	-0.492
Mof_O 	O 	0.03411	0.30789	0.15989	-0.548
Mof_H 	H 	0.9958	0.2886	0.181	0.311
Mof_O 	O 	0.0858	0.74964	0.26445	-0.407
Mof_O 	O 	0.9866	0.6122	0.0836	-0.104
Mof_O 	O 	0.02739	0.39676	0.50308	-0.849
Mof_H 	H 	0.0771	0.3738	0.5049	0.35
Mof_H 	H 	0.9846	0.3733	0.515	0.272
Mof_O 	O 	0.0652	0.4009	0.9493	-0.191
Mof_Mo	Mo	0.64585	0.9132	0.85571	1.175
Mof_Mo	Mo	0.61434	0.07641	0.81814	1.075
Mof_Mo	Mo	0.71407	0.08375	0.23752	1.108
Mof_Mo	Mo	0.64496	0.14873	0.98145	1.223
Mof_Mo	Mo	0.73447	0.96266	0.26482	1.204
Mof_Mo	Mo	0.69273	0.86464	0.04373	1.011
Mof_Sr	Sr	0.86874	0.14137	0.8205	1.484
Mof_Sr	Sr	0.0147	0.01794	0.28651	1.36
Mof_P 	P 	0.77776	0.99613	0.74847	0.597
Mof_P 	P 	0.78827	0.01427	0.05486	0.538
Mof_P 	P 	0.91027	0.86219	0.25881	0.591
Mof_P 	P 	0.81058	0.21811	0.19853	0.572
Mof_O 	O 	0.58033	0.92286	0.95854	-0.56
Mof_O 	O 	0.54945	0.9872	0.76931	-0.466
Mof_O 	O 	0.74899	0.07432	0.09037	-0.48
Mof_O 	O 	0.61008	0.14094	0.11755	-0.532
Mof_O 	O 	0.55517	0.07429	0.92642	-0.61
Mof_O 	O 	0.61802	0.01387	0.1682	-0.635
Mof_O 	O 	0.83612	0.03042	0.30159	-0.663
Mof_O 	O 	0.90202	0.02005	0.08071	-0.488
Mof_O 	O 	0.72246	0.0045	0.93457	-0.443
Mof_O 	O 	0.70683	0.05354	0.74071	-0.545
Mof_O 	O 	0.73096	0.93567	0.77182	-0.447
Mof_O 	O 	0.78872	0.98855	0.64273	-0.46
Mof_O 	O 	0.7684	0.95789	0.11627	-0.444
Mof_O 	O 	0.72424	0.13547	0.89602	-0.657
Mof_O 	O 	0.77114	0.87446	0.95719	-0.526
Mof_O 	O 	0.98704	0.89828	0.23046	-0.504
Mof_O 	O 	0.81693	0.15682	0.26013	-0.44
Mof_O 	O 	0.76612	0.20476	0.07726	-0.486
Mof_O 	O 	0.85981	0.90276	0.31721	-0.449
Mof_O 	O 	0.82689	0.83005	0.16057	-0.435
Mof_O 	O 	0.88438	0.01194	0.83566	-0.547
Mof_O 	O 	0.73986	0.26671	0.2233	-0.649
Mof_H 	H 	0.6858	0.2496	0.2168	0.246
Mof_O 	O 	0.6529	0.88524	0.17489	-0.485
Mof_O 	O 	0.96589	0.80789	0.34011	-0.452
Mof_H 	H 	0.0042	0.7886	0.319	0.24
Mof_O 	O 	0.9142	0.24964	0.23555	-0.397
Mof_O 	O 	0.0134	0.1122	0.4164	-0.134
Mof_O 	O 	0.97261	0.89676	0.99692	-0.697
Mof_H 	H 	0.9229	0.8738	0.9951	0.327
Mof_H 	H 	0.0154	0.8733	0.985	0.201
Mof_O 	O 	0.9348	0.9009	0.5507	-0.222
Mof_Mn	Mn	-3.02212e-17	0.5	0.5	0.979
Mof_Mn	Mn	-0	0	-0	0.86
Mof_Mn	Mn	0.5	0.5	0.5	1.12
Mof_Mn	Mn	0.5	0	-0	1.003
_end
