data_functionalizedCrystal
_audit_creation_method	'EQeq! by Chris Wilmer'
_symmetry_space_group_name_H-M	'P1'
_symmetry_Int_Tables_number	1
_symmetry_cell_setting	triclinic
loop_
_symmetry_equiv_pos_as_xyz
  x,y,z
_cell_length_a	10.7898
_cell_length_b	10.7898
_cell_length_c	15.9983
_cell_angle_alpha	106.08
_cell_angle_beta	106.08
_cell_angle_gamma	97.8787
loop_
_atom_site_label
_atom_site_type_symbol
_atom_site_fract_x
_atom_site_fract_y
_atom_site_fract_z
_atom_site_charge
Mof_Ag	Ag	0.25694	0.6035	0.60804	0.639
Mof_Ag	Ag	0.3965	0.74306	0.89196	0.639
Mof_Ag	Ag	0.74306	0.3965	0.39196	0.639
Mof_Ag	Ag	0.6035	0.25694	0.10804	0.639
Mof_H 	H 	0.2775	0.3997	0.404	0.031
Mof_H 	H 	0.5737	0.2147	0.4707	0.034
Mof_H 	H 	0.5813	0.2941	0.6252	0.095
Mof_H 	H 	0.4369	0.4229	0.6624	0.012
Mof_H 	H 	0.4352	0.9666	0.0785	0.013
Mof_H 	H 	0.1332	0.1536	0.0551	0.052
Mof_H 	H 	0.0395	0.0147	0.9002	0.072
Mof_H 	H 	0.1441	0.8543	0.8416	0.007
Mof_H 	H 	0.1889	0.0891	0.275	0.182
Mof_H 	H 	0.152	0.198	0.2565	0.185
Mof_H 	H 	0.6003	0.7225	0.096	0.031
Mof_H 	H 	0.7853	0.4263	0.0293	0.034
Mof_H 	H 	0.7059	0.4187	0.8748	0.095
Mof_H 	H 	0.5771	0.5631	0.8376	0.012
Mof_H 	H 	0.0334	0.5648	0.4215	0.014
Mof_H 	H 	0.8464	0.8668	0.4449	0.051
Mof_H 	H 	0.9853	0.9605	0.5998	0.073
Mof_H 	H 	0.1457	0.8559	0.6584	0.007
Mof_H 	H 	0.9109	0.8111	0.225	0.182
Mof_H 	H 	0.802	0.848	0.2435	0.185
Mof_H 	H 	0.7225	0.6003	0.596	0.031
Mof_H 	H 	0.4263	0.7853	0.5293	0.034
Mof_H 	H 	0.4187	0.7059	0.3748	0.095
Mof_H 	H 	0.5631	0.5771	0.3376	0.012
Mof_H 	H 	0.5648	0.0334	0.9215	0.013
Mof_H 	H 	0.8668	0.8464	0.9449	0.052
Mof_H 	H 	0.9605	0.9853	0.0998	0.072
Mof_H 	H 	0.8559	0.1457	0.1584	0.007
Mof_H 	H 	0.8111	0.9109	0.725	0.182
Mof_H 	H 	0.848	0.802	0.7435	0.185
Mof_H 	H 	0.3997	0.2775	0.904	0.031
Mof_H 	H 	0.2147	0.5737	0.9707	0.034
Mof_H 	H 	0.2941	0.5813	0.1252	0.095
Mof_H 	H 	0.4229	0.4369	0.1624	0.012
Mof_H 	H 	0.9666	0.4352	0.5785	0.014
Mof_H 	H 	0.1536	0.1332	0.5551	0.051
Mof_H 	H 	0.0147	0.0395	0.4002	0.073
Mof_H 	H 	0.8543	0.1441	0.3416	0.007
Mof_H 	H 	0.0891	0.1889	0.775	0.182
Mof_H 	H 	0.198	0.152	0.7565	0.185
Mof_C 	C 	0.3403	0.37806	0.44923	0.041
Mof_C 	C 	0.42348	0.2994	0.42163	-0.063
Mof_C 	C 	0.51528	0.26758	0.4876	0.01
Mof_C 	C 	0.5199	0.31452	0.57852	-0.097
Mof_C 	C 	0.43359	0.39157	0.60001	0.07
Mof_C 	C 	0.42342	0.25474	0.32587	0.128
Mof_C 	C 	0.36623	0.15601	0.17816	0.136
Mof_C 	C 	0.35326	0.97608	0.04223	0.04
Mof_C 	C 	0.29431	0.07239	0.08262	-0.059
Mof_C 	C 	0.17543	0.08831	0.0297	0.006
Mof_C 	C 	0.1203	0.00592	0.93852	-0.097
Mof_C 	C 	0.18382	0.91114	0.9038	0.064
Mof_C 	C 	0.62194	0.6597	0.05077	0.041
Mof_C 	C 	0.7006	0.57652	0.07837	-0.062
Mof_C 	C 	0.73242	0.48472	0.0124	0.009
Mof_C 	C 	0.68548	0.4801	0.92148	-0.096
Mof_C 	C 	0.60843	0.56641	0.89999	0.07
Mof_C 	C 	0.74526	0.57658	0.17413	0.128
Mof_C 	C 	0.84399	0.63377	0.32184	0.136
Mof_C 	C 	0.02392	0.64674	0.45777	0.037
Mof_C 	C 	0.92761	0.70569	0.41738	-0.057
Mof_C 	C 	0.91169	0.82457	0.4703	0.007
Mof_C 	C 	0.99408	0.8797	0.56148	-0.099
Mof_C 	C 	0.08886	0.81618	0.5962	0.066
Mof_C 	C 	0.6597	0.62194	0.55077	0.041
Mof_C 	C 	0.57652	0.7006	0.57837	-0.063
Mof_C 	C 	0.48472	0.73242	0.5124	0.01
Mof_C 	C 	0.4801	0.68548	0.42148	-0.097
Mof_C 	C 	0.56641	0.60843	0.39999	0.07
Mof_C 	C 	0.57658	0.74526	0.67413	0.128
Mof_C 	C 	0.63377	0.84399	0.82184	0.136
Mof_C 	C 	0.64674	0.02392	0.95777	0.04
Mof_C 	C 	0.70569	0.92761	0.91738	-0.059
Mof_C 	C 	0.82457	0.91169	0.9703	0.006
Mof_C 	C 	0.8797	0.99408	0.06148	-0.097
Mof_C 	C 	0.81618	0.08886	0.0962	0.064
Mof_C 	C 	0.37806	0.3403	0.94923	0.041
Mof_C 	C 	0.2994	0.42348	0.92163	-0.062
Mof_C 	C 	0.26758	0.51528	0.9876	0.009
Mof_C 	C 	0.31452	0.5199	0.07852	-0.096
Mof_C 	C 	0.39157	0.43359	0.10001	0.07
Mof_C 	C 	0.25474	0.42342	0.82587	0.128
Mof_C 	C 	0.15601	0.36623	0.67816	0.136
Mof_C 	C 	0.97608	0.35326	0.54223	0.037
Mof_C 	C 	0.07239	0.29431	0.58262	-0.057
Mof_C 	C 	0.08831	0.17543	0.5297	0.007
Mof_C 	C 	0.00592	0.1203	0.43852	-0.099
Mof_C 	C 	0.91114	0.18382	0.4038	0.066
Mof_N 	N 	0.34554	0.42442	0.53751	-0.175
Mof_N 	N 	0.52942	0.27482	0.30235	-0.157
Mof_N 	N 	0.49311	0.21217	0.20819	-0.157
Mof_N 	N 	0.31777	0.18197	0.24955	-0.103
Mof_N 	N 	0.18624	0.13344	0.2421	-0.297
Mof_N 	N 	0.29919	0.89617	0.95436	-0.193
Mof_N 	N 	0.57558	0.65446	0.96249	-0.175
Mof_N 	N 	0.72518	0.47058	0.19765	-0.157
Mof_N 	N 	0.78783	0.50689	0.29181	-0.157
Mof_N 	N 	0.81803	0.68223	0.25045	-0.102
Mof_N 	N 	0.86656	0.81376	0.2579	-0.297
Mof_N 	N 	0.10383	0.70081	0.54564	-0.192
Mof_N 	N 	0.65446	0.57558	0.46249	-0.175
Mof_N 	N 	0.47058	0.72518	0.69765	-0.157
Mof_N 	N 	0.50689	0.78783	0.79181	-0.157
Mof_N 	N 	0.68223	0.81803	0.75045	-0.103
Mof_N 	N 	0.81376	0.86656	0.7579	-0.297
Mof_N 	N 	0.70081	0.10383	0.04564	-0.193
Mof_N 	N 	0.42442	0.34554	0.03751	-0.175
Mof_N 	N 	0.27482	0.52942	0.80235	-0.157
Mof_N 	N 	0.21217	0.49311	0.70819	-0.157
Mof_N 	N 	0.18197	0.31777	0.74955	-0.102
Mof_N 	N 	0.13344	0.18624	0.7421	-0.297
Mof_N 	N 	0.89617	0.29919	0.45436	-0.192
Mof_Cl	Cl	0.55733	0.90443	0.27021	-0.213
Mof_O 	O 	0.63102	0.95532	0.21938	-0.077
Mof_O 	O 	0.4245	0.9115	0.2378	-0.035
Mof_O 	O 	0.568	0.7728	0.2606	-0.048
Mof_O 	O 	0.6179	0.9867	0.3656	-0.047
Mof_Cl	Cl	0.09557	0.44267	0.22979	-0.213
Mof_O 	O 	0.04468	0.36898	0.28062	-0.078
Mof_O 	O 	0.0885	0.5755	0.2622	-0.036
Mof_O 	O 	0.2272	0.432	0.2394	-0.048
Mof_O 	O 	0.0133	0.3821	0.1344	-0.047
Mof_Cl	Cl	0.44267	0.09557	0.72979	-0.213
Mof_O 	O 	0.36898	0.04468	0.78062	-0.077
Mof_O 	O 	0.5755	0.0885	0.7622	-0.035
Mof_O 	O 	0.432	0.2272	0.7394	-0.048
Mof_O 	O 	0.3821	0.0133	0.6344	-0.047
Mof_Cl	Cl	0.90443	0.55733	0.77021	-0.213
Mof_O 	O 	0.95532	0.63102	0.71938	-0.078
Mof_O 	O 	0.9115	0.4245	0.7378	-0.036
Mof_O 	O 	0.7728	0.568	0.7606	-0.048
Mof_O 	O 	0.9867	0.6179	0.8656	-0.047
_end
