# CIF file generated by openbabel 3.1.0, see https://openbabel.org
data_I
_chemical_name_common 'image0'
_cell_length_a 6.7107
_cell_length_b 18.7431
_cell_length_c 10.2809
_cell_angle_alpha 90
_cell_angle_beta 90
_cell_angle_gamma 90
_space_group_name_H-M_alt 'P 1'
_space_group_name_Hall 'P 1'
loop_
    _symmetry_equiv_pos_as_xyz
    x,y,z
loop_
    _atom_site_label
    _atom_site_type_symbol
    _atom_site_fract_x
    _atom_site_fract_y
    _atom_site_fract_z
    _atom_site_occupancy
    O1       O        0.15620    0.83250    0.15800    1.000
    C1       C        0.80400    0.96380    0.02600    1.000
    O2       O        0.65620    0.33250    0.65800    1.000
    C2       C        0.30400    0.46380    0.52600    1.000
    O3       O        0.84380    0.66750    0.15800    1.000
    C3       C        0.19600    0.53620    0.02600    1.000
    O4       O        0.34380    0.16750    0.65800    1.000
    C4       C        0.69600    0.03620    0.52600    1.000
    O5       O        0.84380    0.33250    0.84200    1.000
    C5       C        0.19600    0.46380    0.97400    1.000
    O6       O        0.34380    0.83250    0.34200    1.000
    C6       C        0.69600    0.96380    0.47400    1.000
    O7       O        0.15620    0.16750    0.84200    1.000
    C7       C        0.80400    0.03620    0.97400    1.000
    O8       O        0.65620    0.66750    0.34200    1.000
    C8       C        0.30400    0.53620    0.47400    1.000
    O9       O        0.84380    0.16750    0.84200    1.000
    C9       C        0.19600    0.03620    0.97400    1.000
    O10      O        0.34380    0.66750    0.34200    1.000
    C10      C        0.69600    0.53620    0.47400    1.000
    O11      O        0.15620    0.33250    0.84200    1.000
    C11      C        0.80400    0.46380    0.97400    1.000
    O12      O        0.65620    0.83250    0.34200    1.000
    C12      C        0.30400    0.96380    0.47400    1.000
    O13      O        0.15620    0.66750    0.15800    1.000
    C13      C        0.80400    0.53620    0.02600    1.000
    O14      O        0.65620    0.16750    0.65800    1.000
    C14      C        0.30400    0.03620    0.52600    1.000
    O15      O        0.84380    0.83250    0.15800    1.000
    C15      C        0.19600    0.96380    0.02600    1.000
    O16      O        0.34380    0.33250    0.65800    1.000
    C16      C        0.69600    0.46380    0.52600    1.000
    V1       V        0.25000    0.75000    0.25000    1.000
    V2       V        0.75000    0.75000    0.25000    1.000
    V3       V        0.75000    0.25000    0.75000    1.000
    V4       V        0.25000    0.25000    0.75000    1.000
    O17      O        0.00000    0.75000    0.30697    1.000
    O18      O        0.50000    0.25000    0.80697    1.000
    O19      O        0.00000    0.25000    0.69303    1.000
    O20      O        0.50000    0.75000    0.19303    1.000
    C17      C        0.00000    0.94000    0.04300    1.000
    C18      C        0.00000    0.87080    0.11700    1.000
    C19      C        0.50000    0.44000    0.54300    1.000
    C20      C        0.50000    0.37080    0.61700    1.000
    C21      C        0.00000    0.56000    0.04300    1.000
    C22      C        0.00000    0.62920    0.11700    1.000
    C23      C        0.50000    0.06000    0.54300    1.000
    C24      C        0.50000    0.12920    0.61700    1.000
    C25      C        0.00000    0.44000    0.95700    1.000
    C26      C        0.00000    0.37080    0.88300    1.000
    C27      C        0.50000    0.94000    0.45700    1.000
    C28      C        0.50000    0.87080    0.38300    1.000
    C29      C        0.00000    0.06000    0.95700    1.000
    C30      C        0.00000    0.12920    0.88300    1.000
    C31      C        0.50000    0.56000    0.45700    1.000
    C32      C        0.50000    0.62920    0.38300    1.000
