# CIF file generated by openbabel 3.1.0, see https://openbabel.org
data_I
_chemical_name_common 'image0'
_cell_length_a 18.616
_cell_length_b 18.616
_cell_length_c 37.566
_cell_angle_alpha 90
_cell_angle_beta 90
_cell_angle_gamma 120
_space_group_name_H-M_alt 'P 1'
_space_group_name_Hall 'P 1'
loop_
    _symmetry_equiv_pos_as_xyz
    x,y,z
loop_
    _atom_site_label
    _atom_site_type_symbol
    _atom_site_fract_x
    _atom_site_fract_y
    _atom_site_fract_z
    _atom_site_occupancy
    Cu1      Cu       0.52331    0.04654    0.60803    1.000
    Cu2      Cu       0.47677    0.95350    0.66603    1.000
    C1       C        0.63620    0.08890    0.66360    1.000
    C2       C        0.80690    0.19630    0.73490    1.000
    C3       C        0.71840    0.15320    0.68310    1.000
    O1       O        0.58600    0.03070    0.68260    1.000
    C4       C        0.84690    0.28050    0.68280    1.000
    C5       C        0.73390    0.13960    0.71720    1.000
    H1       H        0.69521    0.09183    0.72893    1.000
    O2       O        0.62850    0.11090    0.63220    1.000
    C6       C        0.86200    0.26460    0.71670    1.000
    H2       H        0.91173    0.30197    0.72764    1.000
    C7       C        0.77250    0.22530    0.66280    1.000
    H3       H        0.76152    0.23554    0.63979    1.000
    C8       C        0.91090    0.36360    0.66470    1.000
    O3       O        0.88960    0.37100    0.63240    1.000
    O4       O        0.96980    0.41230    0.68210    1.000
    C9       C        0.94780    0.18160    0.92840    1.000
    C10      C        0.88710    0.11030    0.94380    1.000
    H4       H        0.89471    0.10184    0.96761    1.000
    C11      C        0.93230    0.19650    0.89500    1.000
    H5       H        0.97013    0.24751    0.88523    1.000
    C12      C        0.76470    0.97430    0.94580    1.000
    C13      C        0.02370    0.23310    0.94470    1.000
    C14      C        0.80610    0.06480    0.89420    1.000
    H6       H        0.75916    0.02315    0.88294    1.000
    C15      C        0.86170    0.14070    0.87250    1.000
    O5       O        0.03840    0.22280    0.97410    1.000
    O6       O        0.77650    0.96090    0.97460    1.000
    O7       O        0.07370    0.29890    0.92670    1.000
    O8       O        0.70150    0.92350    0.92590    1.000
    C16      C        0.81800    0.05170    0.92820    1.000
    N1       N        0.82050    0.18030    0.76910    1.000
    N2       N        0.84980    0.15140    0.84100    1.000
    C17      C        0.79010    0.09700    0.77990    1.000
    H7       H        0.82496    0.07716    0.76988    1.000
    H8       H        0.73448    0.06273    0.77061    1.000
    C18      C        0.78820    0.08810    0.81820    1.000
    H9       H        0.78900    0.03736    0.82312    1.000
    H10      H        0.73463    0.07897    0.82612    1.000
    C19      C        0.91330    0.21610    0.81920    1.000
    H11      H        0.89105    0.25354    0.82213    1.000
    C20      C        0.00341    0.28700    0.81550    1.000
    H12      H        0.02766    0.30403    0.83871    1.000
    H13      H        0.03456    0.26823    0.80191    1.000
    H14      H        0.00430    0.33305    0.80358    1.000
    C21      C        0.90330    0.21140    0.78110    1.000
    H15      H        0.93762    0.26650    0.77126    1.000
    H16      H        0.92356    0.17630    0.77174    1.000
    Cu3      Cu       0.18998    0.37987    0.94136    1.000
    Cu4      Cu       0.14344    0.28683    0.99936    1.000
    C22      C        0.30287    0.42223    0.99693    1.000
    C23      C        0.47357    0.52963    0.06823    1.000
    C24      C        0.38507    0.48653    0.01643    1.000
    O9       O        0.25267    0.36403    0.01593    1.000
    C25      C        0.51357    0.61383    0.01613    1.000
    C26      C        0.40057    0.47293    0.05053    1.000
    H17      H        0.36188    0.42516    0.06226    1.000
    O10      O        0.29517    0.44423    0.96553    1.000
    C27      C        0.52867    0.59793    0.05003    1.000
    H18      H        0.57840    0.63530    0.06097    1.000
    C28      C        0.43917    0.55863    0.99613    1.000
    H19      H        0.42819    0.56887    0.97312    1.000
    C29      C        0.57757    0.69693    0.99803    1.000
    O11      O        0.55627    0.70433    0.96573    1.000
    O12      O        0.63647    0.74563    0.01543    1.000
    C30      C        0.61447    0.51493    0.26173    1.000
    C31      C        0.55377    0.44363    0.27713    1.000
    H20      H        0.56138    0.43517    0.30094    1.000
    C32      C        0.59897    0.52983    0.22833    1.000
    H21      H        0.63680    0.58084    0.21856    1.000
    C33      C        0.43137    0.30763    0.27913    1.000
    C34      C        0.69037    0.56643    0.27803    1.000
    C35      C        0.47277    0.39813    0.22753    1.000
    H22      H        0.42583    0.35648    0.21627    1.000
    C36      C        0.52837    0.47403    0.20583    1.000
    O13      O        0.70507    0.55613    0.30743    1.000
    O14      O        0.44317    0.29423    0.30793    1.000
    O15      O        0.74037    0.63223    0.26003    1.000
    O16      O        0.36817    0.25683    0.25923    1.000
    C37      C        0.48467    0.38503    0.26153    1.000
    N3       N        0.48717    0.51363    0.10243    1.000
    N4       N        0.51647    0.48473    0.17433    1.000
    C38      C        0.45677    0.43033    0.11323    1.000
    H23      H        0.49163    0.41049    0.10321    1.000
    H24      H        0.40115    0.39606    0.10394    1.000
    C39      C        0.45487    0.42143    0.15153    1.000
    H25      H        0.45567    0.37069    0.15645    1.000
    H26      H        0.40130    0.41230    0.15945    1.000
    C40      C        0.57997    0.54943    0.15253    1.000
    H27      H        0.55772    0.58687    0.15546    1.000
    C41      C        0.67008    0.62033    0.14883    1.000
    H28      H        0.69433    0.63736    0.17204    1.000
    H29      H        0.70123    0.60156    0.13524    1.000
    H30      H        0.67097    0.66638    0.13691    1.000
    C42      C        0.56997    0.54473    0.11443    1.000
    H31      H        0.60429    0.59983    0.10459    1.000
    H32      H        0.59023    0.50963    0.10507    1.000
    Cu5      Cu       0.85664    0.71321    0.27470    1.000
    Cu6      Cu       0.81010    0.62017    0.33270    1.000
    C43      C        0.96953    0.75557    0.33027    1.000
    C44      C        0.14023    0.86297    0.40157    1.000
    C45      C        0.05173    0.81987    0.34977    1.000
    O17      O        0.91933    0.69737    0.34927    1.000
    C46      C        0.18023    0.94717    0.34947    1.000
    C47      C        0.06723    0.80627    0.38387    1.000
    H33      H        0.02854    0.75850    0.39560    1.000
    O18      O        0.96183    0.77757    0.29887    1.000
    C48      C        0.19533    0.93127    0.38337    1.000
    H34      H        0.24506    0.96864    0.39431    1.000
    C49      C        0.10583    0.89197    0.32947    1.000
    H35      H        0.09485    0.90221    0.30646    1.000
    C50      C        0.24423    0.03027    0.33137    1.000
    O19      O        0.22293    0.03767    0.29907    1.000
    O20      O        0.30313    0.07897    0.34877    1.000
    C51      C        0.28113    0.84827    0.59507    1.000
    C52      C        0.22043    0.77697    0.61047    1.000
    H36      H        0.22804    0.76851    0.63428    1.000
    C53      C        0.26563    0.86317    0.56167    1.000
    H37      H        0.30346    0.91418    0.55190    1.000
    C54      C        0.09803    0.64097    0.61247    1.000
    C55      C        0.35703    0.89977    0.61137    1.000
    C56      C        0.13943    0.73147    0.56087    1.000
    H38      H        0.09249    0.68982    0.54961    1.000
    C57      C        0.19503    0.80737    0.53917    1.000
    O21      O        0.37173    0.88947    0.64077    1.000
    O22      O        0.10983    0.62757    0.64127    1.000
    O23      O        0.40703    0.96557    0.59337    1.000
    O24      O        0.03483    0.59017    0.59257    1.000
    C58      C        0.15133    0.71837    0.59487    1.000
    N5       N        0.15383    0.84697    0.43577    1.000
    N6       N        0.18313    0.81807    0.50767    1.000
    C59      C        0.12343    0.76367    0.44657    1.000
    H39      H        0.15829    0.74383    0.43655    1.000
    H40      H        0.06781    0.72940    0.43728    1.000
    C60      C        0.12153    0.75477    0.48487    1.000
    H41      H        0.12233    0.70403    0.48979    1.000
    H42      H        0.06796    0.74564    0.49279    1.000
    C61      C        0.24663    0.88277    0.48587    1.000
    H43      H        0.22438    0.92021    0.48880    1.000
    C62      C        0.33674    0.95367    0.48217    1.000
    H44      H        0.36099    0.97070    0.50538    1.000
    H45      H        0.36789    0.93490    0.46858    1.000
    H46      H        0.33763    0.99972    0.47025    1.000
    C63      C        0.23663    0.87807    0.44777    1.000
    H47      H        0.27095    0.93317    0.43793    1.000
    H48      H        0.25689    0.84297    0.43841    1.000
    Cu7      Cu       0.95346    0.47677    0.60803    1.000
    Cu8      Cu       0.04650    0.52327    0.66603    1.000
    C64      C        0.91110    0.54730    0.66360    1.000
    C65      C        0.80370    0.61060    0.73490    1.000
    C66      C        0.84680    0.56520    0.68310    1.000
    O25      O        0.96930    0.55530    0.68260    1.000
    C67      C        0.71950    0.56640    0.68280    1.000
    C68      C        0.86040    0.59430    0.71720    1.000
    H49      H        0.90817    0.60338    0.72893    1.000
    O26      O        0.88910    0.51760    0.63220    1.000
    C69      C        0.73540    0.59740    0.71670    1.000
    H50      H        0.69803    0.60976    0.72764    1.000
    C70      C        0.77470    0.54720    0.66280    1.000
    H51      H        0.76446    0.52598    0.63979    1.000
    C71      C        0.63640    0.54730    0.66470    1.000
    O27      O        0.62900    0.51860    0.63240    1.000
    O28      O        0.58770    0.55750    0.68210    1.000
    C72      C        0.81840    0.76620    0.92840    1.000
    C73      C        0.88970    0.77680    0.94380    1.000
    H52      H        0.89816    0.79287    0.96761    1.000
    C74      C        0.80350    0.73580    0.89500    1.000
    H53      H        0.75249    0.72262    0.88523    1.000
    C75      C        0.02570    0.79040    0.94580    1.000
    C76      C        0.76690    0.79060    0.94470    1.000
    C77      C        0.93520    0.74130    0.89420    1.000
    H54      H        0.97685    0.73601    0.88294    1.000
    C78      C        0.85930    0.72100    0.87250    1.000
    O29      O        0.77720    0.81560    0.97410    1.000
    O30      O        0.03910    0.81560    0.97460    1.000
    O31      O        0.70110    0.77480    0.92670    1.000
    O32      O        0.07650    0.77800    0.92590    1.000
    C79      C        0.94830    0.76630    0.92820    1.000
    N7       N        0.81970    0.64020    0.76910    1.000
    N8       N        0.84860    0.69840    0.84100    1.000
    C80      C        0.90300    0.69310    0.77990    1.000
    H55      H        0.92284    0.74780    0.76988    1.000
    H56      H        0.93727    0.67175    0.77061    1.000
    C81      C        0.91190    0.70010    0.81820    1.000
    H57      H        0.96264    0.75164    0.82312    1.000
    H58      H        0.92103    0.65566    0.82612    1.000
    C82      C        0.78390    0.69720    0.81920    1.000
    H59      H        0.74646    0.63751    0.82213    1.000
    C83      C        0.71300    0.71641    0.81550    1.000
    H60      H        0.69597    0.72363    0.83871    1.000
    H61      H        0.73177    0.76633    0.80191    1.000
    H62      H        0.66695    0.67125    0.80358    1.000
    C84      C        0.78860    0.69190    0.78110    1.000
    H63      H        0.73350    0.67112    0.77126    1.000
    H64      H        0.82370    0.74726    0.77174    1.000
    Cu9      Cu       0.62013    0.81010    0.94136    1.000
    Cu10     Cu       0.71317    0.85660    0.99936    1.000
    C85      C        0.57777    0.88063    0.99693    1.000
    C86      C        0.47037    0.94393    0.06823    1.000
    C87      C        0.51347    0.89853    0.01643    1.000
    O33      O        0.63597    0.88863    0.01593    1.000
    C88      C        0.38617    0.89973    0.01613    1.000
    C89      C        0.52707    0.92763    0.05053    1.000
    H65      H        0.57484    0.93671    0.06226    1.000
    O34      O        0.55577    0.85093    0.96553    1.000
    C90      C        0.40207    0.93073    0.05003    1.000
    H66      H        0.36470    0.94309    0.06097    1.000
    C91      C        0.44137    0.88053    0.99613    1.000
    H67      H        0.43113    0.85931    0.97312    1.000
    C92      C        0.30307    0.88063    0.99803    1.000
    O35      O        0.29567    0.85193    0.96573    1.000
    O36      O        0.25437    0.89083    0.01543    1.000
    C93      C        0.48507    0.09953    0.26173    1.000
    C94      C        0.55637    0.11013    0.27713    1.000
    H68      H        0.56483    0.12620    0.30094    1.000
    C95      C        0.47017    0.06913    0.22833    1.000
    H69      H        0.41916    0.05595    0.21856    1.000
    C96      C        0.69237    0.12373    0.27913    1.000
    C97      C        0.43357    0.12393    0.27803    1.000
    C98      C        0.60187    0.07463    0.22753    1.000
    H70      H        0.64352    0.06934    0.21627    1.000
    C99      C        0.52597    0.05433    0.20583    1.000
    O37      O        0.44387    0.14893    0.30743    1.000
    O38      O        0.70577    0.14893    0.30793    1.000
    O39      O        0.36777    0.10813    0.26003    1.000
    O40      O        0.74317    0.11133    0.25923    1.000
    C100     C        0.61497    0.09963    0.26153    1.000
    N9       N        0.48637    0.97353    0.10243    1.000
    N10      N        0.51527    0.03173    0.17433    1.000
    C101     C        0.56967    0.02643    0.11323    1.000
    H71      H        0.58951    0.08113    0.10321    1.000
    H72      H        0.60394    0.00508    0.10394    1.000
    C102     C        0.57857    0.03343    0.15153    1.000
    H73      H        0.62931    0.08497    0.15645    1.000
    H74      H        0.58770    0.98899    0.15945    1.000
    C103     C        0.45057    0.03053    0.15253    1.000
    H75      H        0.41313    0.97084    0.15546    1.000
    C104     C        0.37967    0.04974    0.14883    1.000
    H76      H        0.36264    0.05696    0.17204    1.000
    H77      H        0.39844    0.09966    0.13524    1.000
    H78      H        0.33362    0.00458    0.13691    1.000
    C105     C        0.45527    0.02523    0.11443    1.000
    H79      H        0.40017    0.00445    0.10459    1.000
    H80      H        0.49037    0.08059    0.10507    1.000
    Cu11     Cu       0.28679    0.14344    0.27470    1.000
    Cu12     Cu       0.37983    0.18994    0.33270    1.000
    C106     C        0.24443    0.21397    0.33027    1.000
    C107     C        0.13703    0.27727    0.40157    1.000
    C108     C        0.18013    0.23187    0.34977    1.000
    O41      O        0.30263    0.22197    0.34927    1.000
    C109     C        0.05283    0.23307    0.34947    1.000
    C110     C        0.19373    0.26097    0.38387    1.000
    H81      H        0.24150    0.27005    0.39560    1.000
    O42      O        0.22243    0.18427    0.29887    1.000
    C111     C        0.06873    0.26407    0.38337    1.000
    H82      H        0.03136    0.27643    0.39431    1.000
    C112     C        0.10803    0.21387    0.32947    1.000
    H83      H        0.09779    0.19265    0.30646    1.000
    C113     C        0.96973    0.21397    0.33137    1.000
    O43      O        0.96233    0.18527    0.29907    1.000
    O44      O        0.92103    0.22417    0.34877    1.000
    C114     C        0.15173    0.43287    0.59507    1.000
    C115     C        0.22303    0.44347    0.61047    1.000
    H84      H        0.23149    0.45954    0.63428    1.000
    C116     C        0.13683    0.40247    0.56167    1.000
    H85      H        0.08582    0.38929    0.55190    1.000
    C117     C        0.35903    0.45707    0.61247    1.000
    C118     C        0.10023    0.45727    0.61137    1.000
    C119     C        0.26853    0.40797    0.56087    1.000
    H86      H        0.31018    0.40268    0.54961    1.000
    C120     C        0.19263    0.38767    0.53917    1.000
    O45      O        0.11053    0.48227    0.64077    1.000
    O46      O        0.37243    0.48227    0.64127    1.000
    O47      O        0.03443    0.44147    0.59337    1.000
    O48      O        0.40983    0.44467    0.59257    1.000
    C121     C        0.28163    0.43297    0.59487    1.000
    N11      N        0.15303    0.30687    0.43577    1.000
    N12      N        0.18193    0.36507    0.50767    1.000
    C122     C        0.23633    0.35977    0.44657    1.000
    H87      H        0.25617    0.41447    0.43655    1.000
    H88      H        0.27060    0.33842    0.43728    1.000
    C123     C        0.24523    0.36677    0.48487    1.000
    H89      H        0.29597    0.41831    0.48979    1.000
    H90      H        0.25436    0.32233    0.49279    1.000
    C124     C        0.11723    0.36387    0.48587    1.000
    H91      H        0.07979    0.30418    0.48880    1.000
    C125     C        0.04633    0.38308    0.48217    1.000
    H92      H        0.02930    0.39030    0.50538    1.000
    H93      H        0.06510    0.43300    0.46858    1.000
    H94      H        0.00028    0.33792    0.47025    1.000
    C126     C        0.12193    0.35857    0.44777    1.000
    H95      H        0.06683    0.33779    0.43793    1.000
    H96      H        0.15703    0.41393    0.43841    1.000
    Cu13     Cu       0.52323    0.47669    0.60803    1.000
    Cu14     Cu       0.47673    0.52323    0.66603    1.000
    C127     C        0.45270    0.36380    0.66360    1.000
    C128     C        0.38940    0.19310    0.73490    1.000
    C129     C        0.43480    0.28160    0.68310    1.000
    O49      O        0.44470    0.41400    0.68260    1.000
    C130     C        0.43360    0.15310    0.68280    1.000
    C131     C        0.40570    0.26610    0.71720    1.000
    H97      H        0.39662    0.30479    0.72893    1.000
    O50      O        0.48240    0.37150    0.63220    1.000
    C132     C        0.40260    0.13800    0.71670    1.000
    H98      H        0.39024    0.08827    0.72764    1.000
    C133     C        0.45280    0.22750    0.66280    1.000
    H99      H        0.47402    0.23848    0.63979    1.000
    C134     C        0.45270    0.08910    0.66470    1.000
    O51      O        0.48140    0.11040    0.63240    1.000
    O52      O        0.44250    0.03020    0.68210    1.000
    C135     C        0.23380    0.05220    0.92840    1.000
    C136     C        0.22320    0.11290    0.94380    1.000
    H100     H        0.20713    0.10529    0.96761    1.000
    C137     C        0.26420    0.06770    0.89500    1.000
    H101     H        0.27738    0.02987    0.88523    1.000
    C138     C        0.20960    0.23530    0.94580    1.000
    C139     C        0.20940    0.97630    0.94470    1.000
    C140     C        0.25870    0.19390    0.89420    1.000
    H102     H        0.26399    0.24084    0.88294    1.000
    C141     C        0.27900    0.13830    0.87250    1.000
    O53      O        0.18440    0.96160    0.97410    1.000
    O54      O        0.18440    0.22350    0.97460    1.000
    O55      O        0.22520    0.92630    0.92670    1.000
    O56      O        0.22200    0.29850    0.92590    1.000
    C142     C        0.23370    0.18200    0.92820    1.000
    N13      N        0.35980    0.17950    0.76910    1.000
    N14      N        0.30160    0.15020    0.84100    1.000
    C143     C        0.30690    0.20990    0.77990    1.000
    H103     H        0.25220    0.17504    0.76988    1.000
    H104     H        0.32825    0.26552    0.77061    1.000
    C144     C        0.29990    0.21180    0.81820    1.000
    H105     H        0.24836    0.21100    0.82312    1.000
    H106     H        0.34434    0.26537    0.82612    1.000
    C145     C        0.30280    0.08670    0.81920    1.000
    H107     H        0.36249    0.10895    0.82213    1.000
    C146     C        0.28359    0.99659    0.81550    1.000
    H108     H        0.27637    0.97234    0.83871    1.000
    H109     H        0.23367    0.96544    0.80191    1.000
    H110     H        0.32875    0.99570    0.80358    1.000
    C147     C        0.30810    0.09670    0.78110    1.000
    H111     H        0.32888    0.06238    0.77126    1.000
    H112     H        0.25274    0.07644    0.77174    1.000
    Cu15     Cu       0.18990    0.81002    0.94136    1.000
    Cu16     Cu       0.14340    0.85656    0.99936    1.000
    C148     C        0.11937    0.69713    0.99693    1.000
    C149     C        0.05607    0.52643    0.06823    1.000
    C150     C        0.10147    0.61493    0.01643    1.000
    O57      O        0.11137    0.74733    0.01593    1.000
    C151     C        0.10027    0.48643    0.01613    1.000
    C152     C        0.07237    0.59943    0.05053    1.000
    H113     H        0.06329    0.63812    0.06226    1.000
    O58      O        0.14907    0.70483    0.96553    1.000
    C153     C        0.06927    0.47133    0.05003    1.000
    H114     H        0.05691    0.42160    0.06097    1.000
    C154     C        0.11947    0.56083    0.99613    1.000
    H115     H        0.14069    0.57181    0.97312    1.000
    C155     C        0.11937    0.42243    0.99803    1.000
    O59      O        0.14807    0.44373    0.96573    1.000
    O60      O        0.10917    0.36353    0.01543    1.000
    C156     C        0.90047    0.38553    0.26173    1.000
    C157     C        0.88987    0.44623    0.27713    1.000
    H116     H        0.87380    0.43862    0.30094    1.000
    C158     C        0.93087    0.40103    0.22833    1.000
    H117     H        0.94405    0.36320    0.21856    1.000
    C159     C        0.87627    0.56863    0.27913    1.000
    C160     C        0.87607    0.30963    0.27803    1.000
    C161     C        0.92537    0.52723    0.22753    1.000
    H118     H        0.93066    0.57417    0.21627    1.000
    C162     C        0.94567    0.47163    0.20583    1.000
    O61      O        0.85107    0.29493    0.30743    1.000
    O62      O        0.85107    0.55683    0.30793    1.000
    O63      O        0.89187    0.25963    0.26003    1.000
    O64      O        0.88867    0.63183    0.25923    1.000
    C163     C        0.90037    0.51533    0.26153    1.000
    N15      N        0.02647    0.51283    0.10243    1.000
    N16      N        0.96827    0.48353    0.17433    1.000
    C164     C        0.97357    0.54323    0.11323    1.000
    H119     H        0.91887    0.50837    0.10321    1.000
    H120     H        0.99492    0.59885    0.10394    1.000
    C165     C        0.96657    0.54513    0.15153    1.000
    H121     H        0.91503    0.54433    0.15645    1.000
    H122     H        0.01101    0.59870    0.15945    1.000
    C166     C        0.96947    0.42003    0.15253    1.000
    H123     H        0.02916    0.44228    0.15546    1.000
    C167     C        0.95026    0.32992    0.14883    1.000
    H124     H        0.94304    0.30567    0.17204    1.000
    H125     H        0.90034    0.29877    0.13524    1.000
    H126     H        0.99542    0.32903    0.13691    1.000
    C168     C        0.97477    0.43003    0.11443    1.000
    H127     H        0.99555    0.39571    0.10459    1.000
    H128     H        0.91941    0.40977    0.10507    1.000
    Cu17     Cu       0.85656    0.14336    0.27470    1.000
    Cu18     Cu       0.81006    0.18990    0.33270    1.000
    C169     C        0.78603    0.03047    0.33027    1.000
    C170     C        0.72273    0.85977    0.40157    1.000
    C171     C        0.76813    0.94827    0.34977    1.000
    O65      O        0.77803    0.08067    0.34927    1.000
    C172     C        0.76693    0.81977    0.34947    1.000
    C173     C        0.73903    0.93277    0.38387    1.000
    H129     H        0.72995    0.97146    0.39560    1.000
    O66      O        0.81573    0.03817    0.29887    1.000
    C174     C        0.73593    0.80467    0.38337    1.000
    H130     H        0.72357    0.75494    0.39431    1.000
    C175     C        0.78613    0.89417    0.32947    1.000
    H131     H        0.80735    0.90515    0.30646    1.000
    C176     C        0.78603    0.75577    0.33137    1.000
    O67      O        0.81473    0.77707    0.29907    1.000
    O68      O        0.77583    0.69687    0.34877    1.000
    C177     C        0.56713    0.71887    0.59507    1.000
    C178     C        0.55653    0.77957    0.61047    1.000
    H132     H        0.54046    0.77196    0.63428    1.000
    C179     C        0.59753    0.73437    0.56167    1.000
    H133     H        0.61071    0.69654    0.55190    1.000
    C180     C        0.54293    0.90197    0.61247    1.000
    C181     C        0.54273    0.64297    0.61137    1.000
    C182     C        0.59203    0.86057    0.56087    1.000
    H134     H        0.59732    0.90751    0.54961    1.000
    C183     C        0.61233    0.80497    0.53917    1.000
    O69      O        0.51773    0.62827    0.64077    1.000
    O70      O        0.51773    0.89017    0.64127    1.000
    O71      O        0.55853    0.59297    0.59337    1.000
    O72      O        0.55533    0.96517    0.59257    1.000
    C184     C        0.56703    0.84867    0.59487    1.000
    N17      N        0.69313    0.84617    0.43577    1.000
    N18      N        0.63493    0.81687    0.50767    1.000
    C185     C        0.64023    0.87657    0.44657    1.000
    H135     H        0.58553    0.84171    0.43655    1.000
    H136     H        0.66158    0.93219    0.43728    1.000
    C186     C        0.63323    0.87847    0.48487    1.000
    H137     H        0.58169    0.87767    0.48979    1.000
    H138     H        0.67767    0.93204    0.49279    1.000
    C187     C        0.63613    0.75337    0.48587    1.000
    H139     H        0.69582    0.77562    0.48880    1.000
    C188     C        0.61692    0.66326    0.48217    1.000
    H140     H        0.60970    0.63901    0.50538    1.000
    H141     H        0.56700    0.63211    0.46858    1.000
    H142     H        0.66208    0.66237    0.47025    1.000
    C189     C        0.64143    0.76337    0.44777    1.000
    H143     H        0.66221    0.72905    0.43793    1.000
    H144     H        0.58607    0.74311    0.43841    1.000
