data_functionalizedCrystal
_audit_creation_method	'EQeq! by Chris Wilmer'
_symmetry_space_group_name_H-M	'P1'
_symmetry_Int_Tables_number	1
_symmetry_cell_setting	triclinic
loop_
_symmetry_equiv_pos_as_xyz
  x,y,z
_cell_length_a	10.82
_cell_length_b	11.416
_cell_length_c	12.432
_cell_angle_alpha	87.44
_cell_angle_beta	72.45
_cell_angle_gamma	70.11
loop_
_atom_site_label
_atom_site_type_symbol
_atom_site_fract_x
_atom_site_fract_y
_atom_site_fract_z
_atom_site_charge
Mof_Cd	Cd	0.89303	0.04648	0.13271	0.496
Mof_Cd	Cd	0.23466	0.92872	0.10909	0.503
Mof_Cd	Cd	0.60544	0.86361	0.02083	0.499
Mof_Cd	Cd	0.10697	0.95352	0.86729	0.496
Mof_Cd	Cd	0.76534	0.07128	0.89091	0.502
Mof_Cd	Cd	0.39456	0.13639	0.97917	0.498
Mof_H 	H 	0.8657	0.0686	0.5155	0.116
Mof_H 	H 	0.843	0.2975	0.9221	0.012
Mof_H 	H 	0.3993	0.5115	0.0984	0.108
Mof_H 	H 	0.866	0.3078	0.1028	0.197
Mof_H 	H 	0.9459	0.3841	0.0196	0.203
Mof_H 	H 	0.3018	0.0481	0.2829	0.013
Mof_H 	H 	0.4421	0.145	0.3169	0.202
Mof_H 	H 	0.3928	0.2038	0.2145	0.191
Mof_H 	H 	0.1343	0.9314	0.4845	0.116
Mof_H 	H 	0.157	0.7025	0.0779	0.012
Mof_H 	H 	0.6007	0.4885	0.9016	0.108
Mof_H 	H 	0.134	0.6922	0.8972	0.197
Mof_H 	H 	0.0541	0.6159	0.9804	0.203
Mof_H 	H 	0.6982	0.9519	0.7171	0.013
Mof_H 	H 	0.5579	0.855	0.6831	0.202
Mof_H 	H 	0.6072	0.7962	0.7855	0.191
Mof_C 	C 	0.9559	0.0235	0.4735	-0.109
Mof_C 	C 	0.0745	0.2221	0.0575	0.451
Mof_C 	C 	0.9269	0.2421	0.9371	0.151
Mof_C 	C 	0.4874	0.9088	0.2768	0.236
Mof_C 	C 	0.4578	0.6692	0.0484	0.357
Mof_C 	C 	0.4599	0.5377	0.0406	-0.117
Mof_C 	C 	0.9895	0.0102	0.3479	0.346
Mof_C 	C 	0.5997	0.1063	0.1686	0.435
Mof_C 	C 	0.9436	0.3009	0.0361	-0.48
Mof_C 	C 	0.3967	0.0243	0.2321	0.148
Mof_C 	C 	0.4511	0.1289	0.2385	-0.451
Mof_C 	C 	0.0493	0.2364	0.8343	0.23
Mof_C 	C 	0.0441	0.9765	0.5265	-0.109
Mof_C 	C 	0.9255	0.7779	0.9425	0.451
Mof_C 	C 	0.0731	0.7579	0.0629	0.151
Mof_C 	C 	0.5126	0.0912	0.7232	0.236
Mof_C 	C 	0.5422	0.3308	0.9516	0.357
Mof_C 	C 	0.5401	0.4623	0.9594	-0.117
Mof_C 	C 	0.0105	0.9898	0.6521	0.346
Mof_C 	C 	0.4003	0.8937	0.8314	0.435
Mof_C 	C 	0.0564	0.6991	0.9639	-0.48
Mof_C 	C 	0.6033	0.9757	0.7679	0.148
Mof_C 	C 	0.5489	0.8711	0.7615	-0.451
Mof_C 	C 	0.9507	0.7636	0.1657	0.23
Mof_O 	O 	0.0775	0.1214	0.105	-0.334
Mof_O 	O 	0.6549	0.0391	0.0768	-0.331
Mof_O 	O 	0.5834	0.826	0.206	-0.207
Mof_O 	O 	0.3536	0.7343	0.1211	-0.294
Mof_O 	O 	0.4744	0.9016	0.3776	-0.184
Mof_O 	O 	0.1128	0.9465	0.2914	-0.276
Mof_O 	O 	0.8926	0.0655	0.312	-0.265
Mof_O 	O 	0.1785	0.2569	0.0253	-0.3
Mof_O 	O 	0.0543	0.3335	0.7878	-0.186
Mof_O 	O 	0.9134	0.1231	0.9577	-0.282
Mof_O 	O 	0.3957	0.0016	0.1209	-0.276
Mof_O 	O 	0.1467	0.1331	0.8008	-0.209
Mof_O 	O 	0.5488	0.7054	0.9848	-0.296
Mof_O 	O 	0.6667	0.1553	0.2069	-0.296
Mof_O 	O 	0.9225	0.8786	0.895	-0.334
Mof_O 	O 	0.3451	0.9609	0.9232	-0.331
Mof_O 	O 	0.4166	0.174	0.794	-0.207
Mof_O 	O 	0.6464	0.2657	0.8789	-0.294
Mof_O 	O 	0.5256	0.0984	0.6224	-0.184
Mof_O 	O 	0.8872	0.0535	0.7086	-0.276
Mof_O 	O 	0.1074	0.9345	0.688	-0.265
Mof_O 	O 	0.8215	0.7431	0.9747	-0.3
Mof_O 	O 	0.9457	0.6665	0.2122	-0.186
Mof_O 	O 	0.0866	0.8769	0.0423	-0.282
Mof_O 	O 	0.6043	0.9984	0.8791	-0.276
Mof_O 	O 	0.8533	0.8669	0.1992	-0.209
Mof_O 	O 	0.4512	0.2946	0.0152	-0.296
Mof_O 	O 	0.3333	0.8447	0.7931	-0.296
_end
