data_functionalizedCrystal
_audit_creation_method	'EQeq! by Chris Wilmer'
_symmetry_space_group_name_H-M	'P1'
_symmetry_Int_Tables_number	1
_symmetry_cell_setting	triclinic
loop_
_symmetry_equiv_pos_as_xyz
  x,y,z
_cell_length_a	10.2001
_cell_length_b	10.4146
_cell_length_c	10.7531
_cell_angle_alpha	111.736
_cell_angle_beta	117.78
_cell_angle_gamma	92.027
loop_
_atom_site_label
_atom_site_type_symbol
_atom_site_fract_x
_atom_site_fract_y
_atom_site_fract_z
_atom_site_charge
Mof_Sm	Sm	0.18481	0.00801	0.46526	2.069
Mof_C 	C 	0.4096	0.0616	0.7804	0.347
Mof_O 	O 	0.432	0.995	0.6711	-0.443
Mof_O 	O 	0.2867	0.1018	0.7479	-0.462
Mof_O 	O 	0.3585	0.2466	0.5899	-0.312
Mof_O 	O 	0.2049	0.1725	0.3495	-0.499
Mof_O 	O 	0.1373	0.7523	0.414	-0.506
Mof_O 	O 	0.9938	0.8638	0.4905	-0.654
Mof_C 	C 	0.5322	0.1052	0.9488	-0.132
Mof_H 	H 	0.6032	0.1933	0.9823	0.059
Mof_C 	C 	0.4692	0.1408	0.0605	-0.07
Mof_H 	H 	0.5539	0.1872	0.1679	0.046
Mof_H 	H 	0.4055	0.2066	0.0431	0.044
Mof_C 	C 	0.6254	0.9954	0.9663	-0.05
Mof_H 	H 	0.7158	0.0364	0.0703	0.031
Mof_H 	H 	0.6588	0.971	0.8914	0.034
Mof_C 	C 	0.3268	0.2495	0.4661	0.39
Mof_C 	C 	0.0403	0.7509	0.4515	0.436
Mof_C 	C 	0.9801	0.6237	0.4629	-0.176
Mof_H 	H 	0.8739	0.6212	0.4364	0.076
Mof_C 	C 	0.9809	0.4813	0.3482	-0.07
Mof_H 	H 	0.9143	0.4681	0.2418	0.036
Mof_H 	H 	0.0837	0.4845	0.3665	0.06
Mof_C 	C 	0.0735	0.645	0.6321	-0.035
Mof_H 	H 	0.0642	0.732	0.6997	0.022
Mof_H 	H 	0.1807	0.6557	0.6637	0.032
Mof_C 	C 	0.374	0.387	0.453	-0.057
Mof_H 	H 	0.2891	0.3927	0.362	0.188
Mof_C 	C 	0.431	0.527	0.598	-0.235
Mof_H 	H 	0.5093	0.5184	0.6884	0.1
Mof_H 	H 	0.3475	0.55	0.615	0.037
Mof_C 	C 	0.503	0.352	0.422	-0.026
Mof_H 	H 	0.4634	0.2631	0.3275	0.017
Mof_H 	H 	0.5835	0.3387	0.5077	-0.121
Mof_C 	C 	0.451	0.356	0.481	-0.118
Mof_C 	C 	0.515	0.489	0.641	-0.143
Mof_C 	C 	0.381	0.391	0.345	0.114
Mof_H 	H 	0.5344	0.3116	0.4814	0.214
Mof_H 	H 	0.4302	0.5213	0.6494	0.161
Mof_H 	H 	0.5717	0.462	0.725	0.046
Mof_H 	H 	0.2871	0.4181	0.3329	-0.163
Mof_H 	H 	0.3535	0.3059	0.2505	-0.021
Mof_O 	O 	0.416	0.18	0.56	-0.267
Mof_Sm	Sm	0.81519	0.99199	0.53474	2.07
Mof_C 	C 	0.5904	0.9384	0.2196	0.348
Mof_O 	O 	0.568	0.005	0.3289	-0.443
Mof_O 	O 	0.7133	0.8982	0.2521	-0.462
Mof_O 	O 	0.6415	0.7534	0.4101	-0.312
Mof_O 	O 	0.7951	0.8275	0.6505	-0.499
Mof_O 	O 	0.8627	0.2477	0.586	-0.506
Mof_O 	O 	0.0062	0.1362	0.5095	-0.654
Mof_C 	C 	0.4678	0.8948	0.0512	-0.132
Mof_H 	H 	0.3968	0.8067	0.0177	0.059
Mof_C 	C 	0.5308	0.8592	0.9395	-0.07
Mof_H 	H 	0.4461	0.8128	0.8321	0.046
Mof_H 	H 	0.5945	0.7934	0.9569	0.044
Mof_C 	C 	0.3746	0.0046	0.0337	-0.05
Mof_H 	H 	0.2842	0.9636	0.9297	0.031
Mof_H 	H 	0.3412	0.029	0.1086	0.034
Mof_C 	C 	0.6732	0.7505	0.5339	0.39
Mof_C 	C 	0.9597	0.2491	0.5485	0.436
Mof_C 	C 	0.0199	0.3763	0.5371	-0.176
Mof_H 	H 	0.1261	0.3788	0.5636	0.076
Mof_C 	C 	0.0191	0.5187	0.6518	-0.07
Mof_H 	H 	0.0857	0.5319	0.7582	0.036
Mof_H 	H 	0.9163	0.5155	0.6335	0.06
Mof_C 	C 	0.9265	0.355	0.3679	-0.035
Mof_H 	H 	0.9358	0.268	0.3003	0.022
Mof_H 	H 	0.8193	0.3443	0.3363	0.032
Mof_C 	C 	0.626	0.613	0.547	-0.057
Mof_H 	H 	0.7109	0.6073	0.638	0.188
Mof_C 	C 	0.569	0.473	0.402	-0.235
Mof_H 	H 	0.4907	0.4816	0.3116	0.1
Mof_H 	H 	0.6525	0.45	0.385	0.037
Mof_C 	C 	0.497	0.648	0.578	-0.026
Mof_H 	H 	0.5366	0.7369	0.6725	0.017
Mof_H 	H 	0.4165	0.6613	0.4923	-0.121
Mof_C 	C 	0.549	0.644	0.519	-0.118
Mof_C 	C 	0.485	0.511	0.359	-0.143
Mof_C 	C 	0.619	0.609	0.655	0.114
Mof_H 	H 	0.4656	0.6884	0.5186	0.214
Mof_H 	H 	0.5698	0.4787	0.3506	0.161
Mof_H 	H 	0.4283	0.538	0.275	0.046
Mof_H 	H 	0.7129	0.5819	0.6671	-0.163
Mof_H 	H 	0.6465	0.6941	0.7495	-0.021
Mof_O 	O 	0.584	0.82	0.44	-0.267
_end
