# CIF file generated by openbabel 3.1.0, see https://openbabel.org
data_I
_chemical_name_common 'image0'
_cell_length_a 18.978
_cell_length_b 23.17
_cell_length_c 23.477
_cell_angle_alpha 87.73
_cell_angle_beta 68.378
_cell_angle_gamma 68.299
_space_group_name_H-M_alt 'P 1'
_space_group_name_Hall 'P 1'
loop_
    _symmetry_equiv_pos_as_xyz
    x,y,z
loop_
    _atom_site_label
    _atom_site_type_symbol
    _atom_site_fract_x
    _atom_site_fract_y
    _atom_site_fract_z
    _atom_site_occupancy
    Zn1      Zn       0.53777    0.28284    0.23885    1.000
    Zn2      Zn       0.46880    0.22365    0.35395    1.000
    Zn3      Zn       0.34955    0.32581    0.31297    1.000
    Zn4      Zn       0.45708    0.37892    0.35788    1.000
    O1       O        0.45400    0.30250    0.32050    1.000
    C1       C        0.50130    0.18680    0.77260    1.000
    C2       C        0.52150    0.21180    0.81400    1.000
    C3       C        0.48990    0.20730    0.87670    1.000
    C4       C        0.43460    0.17490    0.89810    1.000
    C5       C        0.57440    0.25110    0.79880    1.000
    H1       H        0.59810    0.25390    0.75360    1.000
    C6       C        0.51350    0.24290    0.91530    1.000
    H2       H        0.48980    0.23950    0.96040    1.000
    C7       C        0.63900    0.22090    0.82380    1.000
    C8       C        0.60780    0.21610    0.88790    1.000
    C9       C        0.65890    0.19360    0.91860    1.000
    H3       H        0.63700    0.19240    0.96190    1.000
    C10      C        0.74310    0.17240    0.88660    1.000
    H4       H        0.77930    0.15650    0.90770    1.000
    C11      C        0.77380    0.17460    0.82380    1.000
    H5       H        0.83160    0.15890    0.80190    1.000
    C12      C        0.72310    0.19900    0.79190    1.000
    H6       H        0.74560    0.20080    0.74870    1.000
    C13      C        0.52010    0.31430    0.83500    1.000
    C14      C        0.48720    0.30920    0.89980    1.000
    C15      C        0.43900    0.36360    0.93960    1.000
    H7       H        0.41730    0.36140    0.98270    1.000
    C16      C        0.42230    0.42060    0.91760    1.000
    H8       H        0.38960    0.45770    0.94540    1.000
    C17      C        0.45340    0.42430    0.85400    1.000
    H9       H        0.44040    0.46390    0.83880    1.000
    C18      C        0.50150    0.37200    0.81440    1.000
    H10      H        0.52280    0.37520    0.77140    1.000
    C19      C        0.44940    0.15320    0.79450    1.000
    C20      C        0.41700    0.14850    0.85670    1.000
    C21      C        0.42060    0.12290    0.75560    1.000
    H11      H        0.44530    0.12680    0.71070    1.000
    C22      C        0.35930    0.11300    0.87140    1.000
    H12      H        0.33500    0.10860    0.91630    1.000
    C23      C        0.44230    0.05620    0.76910    1.000
    C24      C        0.41080    0.05080    0.83090    1.000
    C25      C        0.42670    0.99280    0.85310    1.000
    H13      H        0.40460    0.98960    0.89600    1.000
    C26      C        0.47540    0.93980    0.81130    1.000
    H14      H        0.48650    0.89970    0.82560    1.000
    C27      C        0.50880    0.94480    0.74730    1.000
    H15      H        0.54260    0.90840    0.71860    1.000
    C28      C        0.49130    0.00390    0.72720    1.000
    H16      H        0.51320    0.00810    0.68450    1.000
    C29      C        0.32770    0.15510    0.78230    1.000
    C30      C        0.29550    0.14940    0.84470    1.000
    C31      C        0.21070    0.17640    0.87760    1.000
    H17      H        0.18720    0.17360    0.92040    1.000
    C32      C        0.16220    0.20740    0.84560    1.000
    H18      H        0.10440    0.22580    0.86720    1.000
    C33      C        0.19390    0.21260    0.78460    1.000
    H19      H        0.15850    0.23360    0.76400    1.000
    C34      C        0.27810    0.18720    0.75220    1.000
    H20      H        0.30090    0.19200    0.70970    1.000
    O2       O        0.52590    0.19720    0.71110    1.000
    C35      C        0.46830    0.25240    0.70150    1.000
    H21      H        0.48690    0.28720    0.70090    1.000
    H22      H        0.41480    0.26320    0.73640    1.000
    C36      C        0.45720    0.24580    0.64310    1.000
    C37      C        0.39580    0.29140    0.63100    1.000
    H23      H        0.35970    0.32610    0.66140    1.000
    C38      C        0.38380    0.28980    0.57830    1.000
    H24      H        0.34150    0.32330    0.57140    1.000
    C39      C        0.43330    0.23920    0.53470    1.000
    C40      C        0.49660    0.18970    0.54500    1.000
    H25      H        0.53140    0.15420    0.51540    1.000
    C41      C        0.50560    0.19540    0.60030    1.000
    H26      H        0.54760    0.16250    0.60850    1.000
    C42      C        0.42870    0.23780    0.47130    1.000
    O3       O        0.48740    0.20100    0.42840    1.000
    O4       O        0.36610    0.27720    0.46520    1.000
    O5       O        0.39340    0.17850    0.96150    1.000
    C43      C        0.42180    0.12350    0.99090    1.000
    H27      H        0.47610    0.09370    0.96290    1.000
    H28      H        0.38260    0.10230    0.00250    1.000
    C44      C        0.42720    0.14620    0.04540    1.000
    C45      C        0.35930    0.17190    0.09880    1.000
    H29      H        0.31060    0.16580    0.10390    1.000
    C46      C        0.35990    0.20710    0.14620    1.000
    H30      H        0.31150    0.22550    0.18200    1.000
    C47      C        0.43150    0.21480    0.14050    1.000
    C48      C        0.50200    0.18380    0.08850    1.000
    H31      H        0.55270    0.18550    0.08490    1.000
    C49      C        0.49920    0.15050    0.04210    1.000
    H32      H        0.54810    0.13030    0.00710    1.000
    C50      C        0.43500    0.25070    0.18950    1.000
    O6       O        0.36960    0.28110    0.23200    1.000
    O7       O        0.50330    0.25020    0.18170    1.000
    C51      C        0.09060    0.73850    0.17450    1.000
    C52      C        0.03960    0.78260    0.22480    1.000
    C53      C        0.99640    0.84400    0.21740    1.000
    C54      C        0.00720    0.86090    0.15710    1.000
    C55      C        0.02420    0.77320    0.29250    1.000
    H33      H        0.05590    0.72970    0.29840    1.000
    C56      C        0.94220    0.88590    0.27690    1.000
    H34      H        0.91030    0.92950    0.27150    1.000
    C57      C        0.93350    0.79210    0.32460    1.000
    C58      C        0.88780    0.85130    0.31840    1.000
    C59      C        0.80360    0.87880    0.34530    1.000
    H35      H        0.77350    0.92080    0.34160    1.000
    C60      C        0.76660    0.84000    0.37840    1.000
    H36      H        0.70840    0.85610    0.39710    1.000
    C61      C        0.80690    0.78240    0.38550    1.000
    H37      H        0.77760    0.75840    0.40900    1.000
    C62      C        0.88800    0.75720    0.36020    1.000
    H38      H        0.91620    0.71540    0.36600    1.000
    C63      C        0.04500    0.82230    0.31660    1.000
    C64      C        0.00240    0.88140    0.30830    1.000
    C65      C        0.01610    0.93080    0.32640    1.000
    H39      H        0.98550    0.97210    0.32090    1.000
    C66      C        0.07350    0.92160    0.35260    1.000
    H40      H        0.08280    0.95580    0.36500    1.000
    C67      C        0.11680    0.86100    0.36030    1.000
    H41      H        0.15660    0.85350    0.37790    1.000
    C68      C        0.10300    0.81060    0.34260    1.000
    H42      H        0.13280    0.76920    0.34820    1.000
    C69      C        0.09750    0.75560    0.11550    1.000
    C70      C        0.05810    0.81720    0.10720    1.000
    C71      C        0.14560    0.71060    0.05560    1.000
    H43      H        0.17330    0.66620    0.06200    1.000
    C72      C        0.07280    0.82600    0.03980    1.000
    H44      H        0.04540    0.87030    0.03330    1.000
    C73      C        0.08190    0.71970    0.02710    1.000
    C74      C        0.04350    0.78090    0.01770    1.000
    C75      C        0.98470    0.79780    0.99220    1.000
    H45      H        0.95900    0.84000    0.98610    1.000
    C76      C        0.96400    0.74960    0.97530    1.000
    H46      H        0.92390    0.75930    0.95750    1.000
    C77      C        0.00240    0.68860    0.98490    1.000
    H47      H        0.98800    0.65700    0.97340    1.000
    C78      C        0.06040    0.67230    0.01060    1.000
    H48      H        0.08560    0.63020    0.01720    1.000
    C79      C        0.20480    0.73890    0.01270    1.000
    C80      C        0.16570    0.79970    0.00460    1.000
    C81      C        0.21110    0.83050    0.96320    1.000
    H49      H        0.18430    0.87250    0.95700    1.000
    C82      C        0.29270    0.80040    0.93230    1.000
    H50      H        0.32310    0.82090    0.90350    1.000
    C83      C        0.33090    0.74140    0.94220    1.000
    H51      H        0.38860    0.72120    0.92110    1.000
    C84      C        0.28710    0.70830    0.98350    1.000
    H52      H        0.31430    0.66670    0.99030    1.000
    O8       O        0.13190    0.67850    0.18330    1.000
    C85      C        0.21210    0.66830    0.17900    1.000
    H53      H        0.21140    0.70500    0.19980    1.000
    H54      H        0.24910    0.66260    0.13520    1.000
    C86      C        0.24360    0.61010    0.20950    1.000
    C87      C        0.19470    0.57840    0.23890    1.000
    H55      H        0.14060    0.59170    0.23980    1.000
    C88      C        0.22540    0.52580    0.26770    1.000
    H56      H        0.19170    0.50360    0.28830    1.000
    C89      C        0.30350    0.50660    0.26620    1.000
    C90      C        0.35050    0.54070    0.23810    1.000
    H57      H        0.40370    0.52920    0.23880    1.000
    C91      C        0.32100    0.59090    0.20930    1.000
    H58      H        0.35490    0.61290    0.18870    1.000
    C92      C        0.33690    0.44840    0.29380    1.000
    O9       O        0.29730    0.41210    0.30350    1.000
    O10      O        0.39930    0.43870    0.30370    1.000
    O11      O        0.96510    0.92260    0.15110    1.000
    C93      C        0.89800    0.92960    0.13140    1.000
    H59      H        0.88180    0.89320    0.14050    1.000
    H60      H        0.91520    0.93250    0.08640    1.000
    C94      C        0.82800    0.98790    0.16590    1.000
    C95      C        0.75510    0.98730    0.20880    1.000
    H61      H        0.74930    0.94860    0.21780    1.000
    C96      C        0.69200    0.04150    0.23800    1.000
    H62      H        0.64290    0.04000    0.26790    1.000
    C97      C        0.69710    0.09960    0.22550    1.000
    C98      C        0.76980    0.10040    0.18380    1.000
    H63      H        0.77530    0.13930    0.17590    1.000
    C99      C        0.83380    0.04690    0.15370    1.000
    H64      H        0.88300    0.04880    0.12430    1.000
    C100     C        0.62660    0.15890    0.25540    1.000
    O12      O        0.63440    0.20950    0.23720    1.000
    O13      O        0.56430    0.15460    0.29540    1.000
    C101     C        0.04740    0.03510    0.47580    1.000
    C102     C        0.07850    0.97940    0.50040    1.000
    C103     C        0.96880    0.05410    0.47550    1.000
    C104     C        0.16330    0.94930    0.50300    1.000
    H65      H        0.19820    0.97380    0.48400    1.000
    C105     C        0.92710    0.11260    0.44880    1.000
    H66      H        0.96250    0.13660    0.42940    1.000
    C106     C        0.15150    0.94240    0.56950    1.000
    C107     C        0.89500    0.09230    0.40560    1.000
    C108     C        0.91150    0.10820    0.34420    1.000
    H67      H        0.94660    0.13000    0.32630    1.000
    C109     C        0.87300    0.08970    0.31130    1.000
    H68      H        0.88070    0.10050    0.27060    1.000
    C110     C        0.82380    0.05580    0.33750    1.000
    H69      H        0.79840    0.04320    0.31500    1.000
    C111     C        0.18690    0.95870    0.60410    1.000
    H70      H        0.22080    0.98140    0.58630    1.000
    C112     C        0.19900    0.88590    0.47130    1.000
    C113     C        0.84780    0.15020    0.50270    1.000
    C114     C        0.82070    0.21260    0.52420    1.000
    H71      H        0.85280    0.23650    0.50580    1.000
    C115     C        0.74630    0.23920    0.57250    1.000
    H72      H        0.72750    0.28180    0.58770    1.000
    C116     C        0.69870    0.20550    0.59940    1.000
    H73      H        0.64800    0.22410    0.63330    1.000
    C117     C        0.27420    0.85560    0.42380    1.000
    H74      H        0.30860    0.87810    0.40660    1.000
    O14      O        0.09500    0.07020    0.45320    1.000
    C118     C        0.08140    0.11460    0.50530    1.000
    H75      H        0.02330    0.14370    0.52360    1.000
    H76      H        0.09650    0.09110    0.53800    1.000
    C119     C        0.13560    0.14930    0.47670    1.000
    C120     C        0.21990    0.11640    0.45720    1.000
    H77      H        0.24070    0.07450    0.46610    1.000
    C121     C        0.27450    0.14500    0.42440    1.000
    H78      H        0.33200    0.12190    0.40950    1.000
    C122     C        0.24350    0.20720    0.41380    1.000
    C123     C        0.16120    0.23790    0.43700    1.000
    H79      H        0.13840    0.28060    0.43130    1.000
    C124     C        0.11000    0.20830    0.46880    1.000
    H80      H        0.05270    0.23230    0.48600    1.000
    C125     C        0.30350    0.23500    0.37530    1.000
    O15      O        0.37880    0.19960    0.35350    1.000
    O16      O        0.27380    0.29120    0.36930    1.000
    C126     C        0.93710    0.47930    0.03280    1.000
    C127     C        0.99260    0.47870    0.05680    1.000
    C128     C        0.99730    0.45280    0.11670    1.000
    H81      H        0.95310    0.43680    0.13850    1.000
    C129     C        0.94480    0.50010    0.97340    1.000
    C130     C        0.88990    0.50530    0.93990    1.000
    H82      H        0.84560    0.48960    0.96220    1.000
    C131     C        0.94500    0.47060    0.87590    1.000
    C132     C        0.99350    0.50690    0.15550    1.000
    C133     C        0.93770    0.53290    0.21270    1.000
    H83      H        0.89700    0.51650    0.23380    1.000
    C134     C        0.94030    0.58560    0.24150    1.000
    H84      H        0.90110    0.60520    0.28130    1.000
    C135     C        0.00270    0.60700    0.20900    1.000
    H85      H        0.00620    0.64110    0.22740    1.000
    C136     C        0.94200    0.42000    0.84810    1.000
    H86      H        0.90080    0.40420    0.86940    1.000
    C137     C        0.85640    0.57480    0.93120    1.000
    C138     C        0.08170    0.40340    0.09990    1.000
    C139     C        0.10160    0.34100    0.10920    1.000
    H87      H        0.05980    0.32600    0.13080    1.000
    C140     C        0.18280    0.30110    0.08670    1.000
    H88      H        0.19630    0.25790    0.09140    1.000
    C141     C        0.24460    0.32190    0.05770    1.000
    H89      H        0.30030    0.29360    0.04410    1.000
    C142     C        0.77480    0.61520    0.95170    1.000
    H90      H        0.73260    0.60020    0.97200    1.000
    O17      O        0.87700    0.45660    0.06210    1.000
    C143     C        0.80290    0.50550    0.10430    1.000
    H91      H        0.77840    0.53830    0.08120    1.000
    H92      H        0.81580    0.52510    0.13390    1.000
    C144     C        0.74450    0.47480    0.13790    1.000
    C145     C        0.72480    0.43780    0.10530    1.000
    H93      H        0.74690    0.43340    0.06150    1.000
    C146     C        0.67440    0.40810    0.13590    1.000
    H94      H        0.66090    0.38370    0.11310    1.000
    C147     C        0.64210    0.41280    0.19990    1.000
    C148     C        0.66150    0.45060    0.23280    1.000
    H95      H        0.64050    0.45480    0.27660    1.000
    C149     C        0.71220    0.48190    0.19970    1.000
    H96      H        0.72380    0.50860    0.22150    1.000
    C150     C        0.59120    0.37690    0.23240    1.000
    O18      O        0.56930    0.37840    0.29030    1.000
    O19      O        0.57630    0.34540    0.19960    1.000
    Zn5      Zn       0.46223    0.71716    0.76115    1.000
    Zn6      Zn       0.53120    0.77635    0.64605    1.000
    Zn7      Zn       0.65045    0.67419    0.68703    1.000
    Zn8      Zn       0.54292    0.62108    0.64212    1.000
    O20      O        0.54600    0.69750    0.67950    1.000
    C151     C        0.49870    0.81320    0.22740    1.000
    C152     C        0.47850    0.78820    0.18600    1.000
    C153     C        0.51010    0.79270    0.12330    1.000
    C154     C        0.56540    0.82510    0.10190    1.000
    C155     C        0.42560    0.74890    0.20120    1.000
    H97      H        0.40190    0.74610    0.24640    1.000
    C156     C        0.48650    0.75710    0.08470    1.000
    H98      H        0.51020    0.76050    0.03960    1.000
    C157     C        0.36100    0.77910    0.17620    1.000
    C158     C        0.39220    0.78390    0.11210    1.000
    C159     C        0.34110    0.80640    0.08140    1.000
    H99      H        0.36300    0.80760    0.03810    1.000
    C160     C        0.25690    0.82760    0.11340    1.000
    H100     H        0.22070    0.84350    0.09230    1.000
    C161     C        0.22620    0.82540    0.17620    1.000
    H101     H        0.16840    0.84110    0.19810    1.000
    C162     C        0.27690    0.80100    0.20810    1.000
    H102     H        0.25440    0.79920    0.25130    1.000
    C163     C        0.47990    0.68570    0.16500    1.000
    C164     C        0.51280    0.69080    0.10020    1.000
    C165     C        0.56100    0.63640    0.06040    1.000
    H103     H        0.58270    0.63860    0.01730    1.000
    C166     C        0.57770    0.57940    0.08240    1.000
    H104     H        0.61040    0.54230    0.05460    1.000
    C167     C        0.54660    0.57570    0.14600    1.000
    H105     H        0.55960    0.53610    0.16120    1.000
    C168     C        0.49850    0.62800    0.18560    1.000
    H106     H        0.47720    0.62480    0.22860    1.000
    C169     C        0.55060    0.84680    0.20550    1.000
    C170     C        0.58300    0.85150    0.14330    1.000
    C171     C        0.57940    0.87710    0.24440    1.000
    H107     H        0.55470    0.87320    0.28930    1.000
    C172     C        0.64070    0.88700    0.12860    1.000
    H108     H        0.66500    0.89140    0.08370    1.000
    C173     C        0.55770    0.94380    0.23090    1.000
    C174     C        0.58920    0.94920    0.16910    1.000
    C175     C        0.57330    0.00720    0.14690    1.000
    H109     H        0.59540    0.01040    0.10400    1.000
    C176     C        0.52460    0.06020    0.18870    1.000
    H110     H        0.51350    0.10030    0.17440    1.000
    C177     C        0.49120    0.05520    0.25270    1.000
    H111     H        0.45740    0.09160    0.28140    1.000
    C178     C        0.50870    0.99610    0.27280    1.000
    H112     H        0.48680    0.99190    0.31550    1.000
    C179     C        0.67230    0.84490    0.21770    1.000
    C180     C        0.70450    0.85060    0.15530    1.000
    C181     C        0.78930    0.82360    0.12240    1.000
    H113     H        0.81280    0.82640    0.07960    1.000
    C182     C        0.83780    0.79260    0.15440    1.000
    H114     H        0.89560    0.77420    0.13280    1.000
    C183     C        0.80610    0.78740    0.21540    1.000
    H115     H        0.84150    0.76640    0.23600    1.000
    C184     C        0.72190    0.81280    0.24780    1.000
    H116     H        0.69910    0.80800    0.29030    1.000
    O21      O        0.47410    0.80280    0.28890    1.000
    C185     C        0.53170    0.74760    0.29850    1.000
    H117     H        0.51310    0.71280    0.29910    1.000
    H118     H        0.58520    0.73680    0.26360    1.000
    C186     C        0.54280    0.75420    0.35690    1.000
    C187     C        0.60420    0.70860    0.36900    1.000
    H119     H        0.64030    0.67390    0.33860    1.000
    C188     C        0.61620    0.71020    0.42170    1.000
    H120     H        0.65850    0.67670    0.42860    1.000
    C189     C        0.56670    0.76080    0.46530    1.000
    C190     C        0.50340    0.81030    0.45500    1.000
    H121     H        0.46860    0.84580    0.48460    1.000
    C191     C        0.49440    0.80460    0.39970    1.000
    H122     H        0.45240    0.83750    0.39150    1.000
    C192     C        0.57130    0.76220    0.52870    1.000
    O22      O        0.51260    0.79900    0.57160    1.000
    O23      O        0.63390    0.72280    0.53480    1.000
    O24      O        0.60660    0.82150    0.03850    1.000
    C193     C        0.57820    0.87650    0.00910    1.000
    H123     H        0.52390    0.90630    0.03710    1.000
    H124     H        0.61740    0.89770    0.99750    1.000
    C194     C        0.57280    0.85380    0.95460    1.000
    C195     C        0.64070    0.82810    0.90120    1.000
    H125     H        0.68940    0.83420    0.89610    1.000
    C196     C        0.64010    0.79290    0.85380    1.000
    H126     H        0.68850    0.77450    0.81800    1.000
    C197     C        0.56850    0.78520    0.85950    1.000
    C198     C        0.49800    0.81620    0.91150    1.000
    H127     H        0.44730    0.81450    0.91510    1.000
    C199     C        0.50080    0.84950    0.95790    1.000
    H128     H        0.45190    0.86970    0.99290    1.000
    C200     C        0.56500    0.74930    0.81050    1.000
    O25      O        0.63040    0.71890    0.76800    1.000
    O26      O        0.49670    0.74980    0.81830    1.000
    C201     C        0.90940    0.26150    0.82550    1.000
    C202     C        0.96040    0.21740    0.77520    1.000
    C203     C        0.00360    0.15600    0.78260    1.000
    C204     C        0.99280    0.13910    0.84290    1.000
    C205     C        0.97580    0.22680    0.70750    1.000
    H129     H        0.94410    0.27030    0.70160    1.000
    C206     C        0.05780    0.11410    0.72310    1.000
    H130     H        0.08970    0.07050    0.72850    1.000
    C207     C        0.06650    0.20790    0.67540    1.000
    C208     C        0.11220    0.14870    0.68160    1.000
    C209     C        0.19640    0.12120    0.65470    1.000
    H131     H        0.22650    0.07920    0.65840    1.000
    C210     C        0.23340    0.16000    0.62160    1.000
    H132     H        0.29160    0.14390    0.60290    1.000
    C211     C        0.19310    0.21760    0.61450    1.000
    H133     H        0.22240    0.24160    0.59100    1.000
    C212     C        0.11200    0.24280    0.63980    1.000
    H134     H        0.08380    0.28460    0.63400    1.000
    C213     C        0.95500    0.17770    0.68340    1.000
    C214     C        0.99760    0.11860    0.69170    1.000
    C215     C        0.98390    0.06920    0.67360    1.000
    H135     H        0.01450    0.02790    0.67910    1.000
    C216     C        0.92650    0.07840    0.64740    1.000
    H136     H        0.91720    0.04420    0.63500    1.000
    C217     C        0.88320    0.13900    0.63970    1.000
    H137     H        0.84340    0.14650    0.62210    1.000
    C218     C        0.89700    0.18940    0.65740    1.000
    H138     H        0.86720    0.23080    0.65180    1.000
    C219     C        0.90250    0.24440    0.88450    1.000
    C220     C        0.94190    0.18280    0.89280    1.000
    C221     C        0.85440    0.28940    0.94440    1.000
    H139     H        0.82670    0.33380    0.93800    1.000
    C222     C        0.92720    0.17400    0.96020    1.000
    H140     H        0.95460    0.12970    0.96670    1.000
    C223     C        0.91810    0.28030    0.97290    1.000
    C224     C        0.95650    0.21910    0.98230    1.000
    C225     C        0.01530    0.20220    0.00780    1.000
    H141     H        0.04100    0.16000    0.01390    1.000
    C226     C        0.03600    0.25040    0.02470    1.000
    H142     H        0.07610    0.24070    0.04250    1.000
    C227     C        0.99760    0.31140    0.01510    1.000
    H143     H        0.01200    0.34300    0.02660    1.000
    C228     C        0.93960    0.32770    0.98940    1.000
    H144     H        0.91440    0.36980    0.98280    1.000
    C229     C        0.79520    0.26110    0.98730    1.000
    C230     C        0.83430    0.20030    0.99540    1.000
    C231     C        0.78890    0.16950    0.03680    1.000
    H145     H        0.81570    0.12750    0.04300    1.000
    C232     C        0.70730    0.19960    0.06770    1.000
    H146     H        0.67690    0.17910    0.09650    1.000
    C233     C        0.66910    0.25860    0.05780    1.000
    H147     H        0.61140    0.27880    0.07890    1.000
    C234     C        0.71290    0.29170    0.01650    1.000
    H148     H        0.68570    0.33330    0.00970    1.000
    O27      O        0.86810    0.32150    0.81670    1.000
    C235     C        0.78790    0.33170    0.82100    1.000
    H149     H        0.78860    0.29500    0.80020    1.000
    H150     H        0.75090    0.33740    0.86480    1.000
    C236     C        0.75640    0.38990    0.79050    1.000
    C237     C        0.80530    0.42160    0.76110    1.000
    H151     H        0.85940    0.40830    0.76020    1.000
    C238     C        0.77460    0.47420    0.73230    1.000
    H152     H        0.80830    0.49640    0.71170    1.000
    C239     C        0.69650    0.49340    0.73380    1.000
    C240     C        0.64950    0.45930    0.76190    1.000
    H153     H        0.59630    0.47080    0.76120    1.000
    C241     C        0.67900    0.40910    0.79070    1.000
    H154     H        0.64510    0.38710    0.81130    1.000
    C242     C        0.66310    0.55160    0.70620    1.000
    O28      O        0.70270    0.58790    0.69650    1.000
    O29      O        0.60070    0.56130    0.69630    1.000
    O30      O        0.03490    0.07740    0.84890    1.000
    C243     C        0.10200    0.07040    0.86860    1.000
    H155     H        0.11820    0.10680    0.85950    1.000
    H156     H        0.08480    0.06750    0.91360    1.000
    C244     C        0.17200    0.01210    0.83410    1.000
    C245     C        0.24490    0.01270    0.79120    1.000
    H157     H        0.25070    0.05140    0.78220    1.000
    C246     C        0.30800    0.95850    0.76200    1.000
    H158     H        0.35710    0.96000    0.73210    1.000
    C247     C        0.30290    0.90040    0.77450    1.000
    C248     C        0.23020    0.89960    0.81620    1.000
    H159     H        0.22470    0.86070    0.82410    1.000
    C249     C        0.16620    0.95310    0.84630    1.000
    H160     H        0.11700    0.95120    0.87570    1.000
    C250     C        0.37340    0.84110    0.74460    1.000
    O31      O        0.36560    0.79050    0.76280    1.000
    O32      O        0.43570    0.84540    0.70460    1.000
    C251     C        0.95260    0.96490    0.52420    1.000
    C252     C        0.92150    0.02060    0.49960    1.000
    C253     C        0.03120    0.94590    0.52450    1.000
    C254     C        0.83670    0.05070    0.49700    1.000
    H161     H        0.80180    0.02620    0.51600    1.000
    C255     C        0.07290    0.88740    0.55120    1.000
    H162     H        0.03750    0.86340    0.57060    1.000
    C256     C        0.84850    0.05760    0.43050    1.000
    C257     C        0.10500    0.90770    0.59440    1.000
    C258     C        0.08850    0.89180    0.65580    1.000
    H163     H        0.05340    0.87000    0.67370    1.000
    C259     C        0.12700    0.91030    0.68870    1.000
    H164     H        0.11930    0.89950    0.72940    1.000
    C260     C        0.17620    0.94420    0.66250    1.000
    H165     H        0.20160    0.95680    0.68500    1.000
    C261     C        0.81310    0.04130    0.39590    1.000
    H166     H        0.77920    0.01860    0.41370    1.000
    C262     C        0.80100    0.11410    0.52870    1.000
    C263     C        0.15220    0.84980    0.49730    1.000
    C264     C        0.17930    0.78740    0.47580    1.000
    H167     H        0.14720    0.76350    0.49420    1.000
    C265     C        0.25370    0.76080    0.42750    1.000
    H168     H        0.27250    0.71820    0.41230    1.000
    C266     C        0.30130    0.79450    0.40060    1.000
    H169     H        0.35200    0.77590    0.36670    1.000
    C267     C        0.72580    0.14440    0.57620    1.000
    H170     H        0.69140    0.12190    0.59340    1.000
    O33      O        0.90500    0.92980    0.54680    1.000
    C268     C        0.91860    0.88540    0.49470    1.000
    H171     H        0.97670    0.85630    0.47640    1.000
    H172     H        0.90350    0.90890    0.46200    1.000
    C269     C        0.86440    0.85070    0.52330    1.000
    C270     C        0.78010    0.88360    0.54280    1.000
    H173     H        0.75930    0.92550    0.53390    1.000
    C271     C        0.72550    0.85500    0.57560    1.000
    H174     H        0.66800    0.87810    0.59050    1.000
    C272     C        0.75650    0.79280    0.58620    1.000
    C273     C        0.83880    0.76210    0.56300    1.000
    H175     H        0.86160    0.71940    0.56870    1.000
    C274     C        0.89000    0.79170    0.53120    1.000
    H176     H        0.94730    0.76770    0.51400    1.000
    C275     C        0.69650    0.76500    0.62470    1.000
    O34      O        0.62120    0.80040    0.64650    1.000
    O35      O        0.72620    0.70880    0.63070    1.000
    C276     C        0.06290    0.52070    0.96720    1.000
    C277     C        0.00740    0.52130    0.94320    1.000
    C278     C        0.00270    0.54720    0.88330    1.000
    H177     H        0.04690    0.56320    0.86150    1.000
    C279     C        0.05520    0.49990    0.02660    1.000
    C280     C        0.11010    0.49470    0.06010    1.000
    H178     H        0.15440    0.51040    0.03780    1.000
    C281     C        0.05500    0.52940    0.12410    1.000
    C282     C        0.00650    0.49310    0.84450    1.000
    C283     C        0.06230    0.46710    0.78730    1.000
    H179     H        0.10300    0.48350    0.76620    1.000
    C284     C        0.05970    0.41440    0.75850    1.000
    H180     H        0.09890    0.39480    0.71870    1.000
    C285     C        0.99730    0.39300    0.79100    1.000
    H181     H        0.99380    0.35890    0.77260    1.000
    C286     C        0.05800    0.58000    0.15190    1.000
    H182     H        0.09920    0.59580    0.13060    1.000
    C287     C        0.14360    0.42520    0.06880    1.000
    C288     C        0.91830    0.59660    0.90010    1.000
    C289     C        0.89840    0.65900    0.89080    1.000
    H183     H        0.94020    0.67400    0.86920    1.000
    C290     C        0.81720    0.69890    0.91330    1.000
    H184     H        0.80370    0.74210    0.90860    1.000
    C291     C        0.75540    0.67810    0.94230    1.000
    H185     H        0.69970    0.70640    0.95590    1.000
    C292     C        0.22520    0.38480    0.04830    1.000
    H186     H        0.26740    0.39980    0.02800    1.000
    O36      O        0.12300    0.54340    0.93790    1.000
    C293     C        0.19710    0.49450    0.89570    1.000
    H187     H        0.22160    0.46170    0.91880    1.000
    H188     H        0.18420    0.47490    0.86610    1.000
    C294     C        0.25550    0.52520    0.86210    1.000
    C295     C        0.27520    0.56220    0.89470    1.000
    H189     H        0.25310    0.56660    0.93850    1.000
    C296     C        0.32560    0.59190    0.86410    1.000
    H190     H        0.33910    0.61630    0.88690    1.000
    C297     C        0.35790    0.58720    0.80010    1.000
    C298     C        0.33850    0.54940    0.76720    1.000
    H191     H        0.35950    0.54520    0.72340    1.000
    C299     C        0.28780    0.51810    0.80030    1.000
    H192     H        0.27620    0.49140    0.77850    1.000
    C300     C        0.40880    0.62310    0.76760    1.000
    O37      O        0.43070    0.62160    0.70970    1.000
    O38      O        0.42370    0.65460    0.80040    1.000
