# CIF file generated by openbabel 3.1.0, see https://openbabel.org
data_I
_chemical_name_common 'JAVWUY_clean'
_cell_length_a 8.601
_cell_length_b 14.224
_cell_length_c 16.098
_cell_angle_alpha 90
_cell_angle_beta 90
_cell_angle_gamma 90
_space_group_name_H-M_alt 'P 1'
_space_group_name_Hall 'P 1'
loop_
    _symmetry_equiv_pos_as_xyz
    x,y,z
loop_
    _atom_site_label
    _atom_site_type_symbol
    _atom_site_fract_x
    _atom_site_fract_y
    _atom_site_fract_z
    _atom_site_occupancy
    Ag1      Ag       0.94145    0.43042    0.37450    1.000
    Ag2      Ag       0.55855    0.56958    0.87450    1.000
    Ag3      Ag       0.05855    0.93042    0.12550    1.000
    Ag4      Ag       0.44145    0.06958    0.62550    1.000
    H1       H        0.28070    0.36700    0.25710    1.000
    H2       H        0.14250    0.33200    0.18940    1.000
    H3       H        0.36070    0.20640    0.26460    1.000
    H4       H        0.38660    0.22540    0.17610    1.000
    H5       H        0.84500    0.65800    0.37380    1.000
    H6       H        0.91710    0.64250    0.26460    1.000
    H7       H        0.63540    0.43390    0.21750    1.000
    H8       H        0.61640    0.55000    0.19190    1.000
    H9       H        0.89000    0.55160    0.15670    1.000
    H10      H        0.86820    0.42300    0.14870    1.000
    H11      H        0.82820    0.56800    0.56580    1.000
    H12      H        0.66070    0.52590    0.53080    1.000
    H13      H        0.58290    0.35950    0.44710    1.000
    H14      H        0.57610    0.34640    0.54730    1.000
    H15      H        0.79390    0.20930    0.46810    1.000
    H16      H        0.61250    0.20050    0.49710    1.000
    H17      H        0.29930    0.37020    0.42420    1.000
    H18      H        0.35890    0.26840    0.39460    1.000
    H19      H        0.21930    0.63300    0.75710    1.000
    H20      H        0.35750    0.66800    0.68940    1.000
    H21      H        0.13930    0.79360    0.76460    1.000
    H22      H        0.11340    0.77460    0.67610    1.000
    H23      H        0.65500    0.34200    0.87380    1.000
    H24      H        0.58290    0.35750    0.76460    1.000
    H25      H        0.86460    0.56610    0.71750    1.000
    H26      H        0.88360    0.45000    0.69190    1.000
    H27      H        0.61000    0.44840    0.65670    1.000
    H28      H        0.63180    0.57700    0.64870    1.000
    H29      H        0.67180    0.43200    0.06580    1.000
    H30      H        0.83930    0.47410    0.03080    1.000
    H31      H        0.91710    0.64050    0.94710    1.000
    H32      H        0.92390    0.65360    0.04730    1.000
    H33      H        0.70610    0.79070    0.96810    1.000
    H34      H        0.88750    0.79950    0.99710    1.000
    H35      H        0.20070    0.62980    0.92420    1.000
    H36      H        0.14110    0.73160    0.89460    1.000
    H37      H        0.71930    0.86700    0.24290    1.000
    H38      H        0.85750    0.83200    0.31060    1.000
    H39      H        0.63930    0.70640    0.23540    1.000
    H40      H        0.61340    0.72540    0.32390    1.000
    H41      H        0.15500    0.15800    0.12620    1.000
    H42      H        0.08290    0.14250    0.23540    1.000
    H43      H        0.36460    0.93390    0.28250    1.000
    H44      H        0.38360    0.05000    0.30810    1.000
    H45      H        0.11000    0.05160    0.34330    1.000
    H46      H        0.13180    0.92300    0.35130    1.000
    H47      H        0.17180    0.06800    0.93420    1.000
    H48      H        0.33930    0.02590    0.96920    1.000
    H49      H        0.41710    0.85950    0.05290    1.000
    H50      H        0.42390    0.84640    0.95270    1.000
    H51      H        0.20610    0.70930    0.03190    1.000
    H52      H        0.38750    0.70050    0.00290    1.000
    H53      H        0.70070    0.87020    0.07580    1.000
    H54      H        0.64110    0.76840    0.10540    1.000
    H55      H        0.78070    0.13300    0.74290    1.000
    H56      H        0.64250    0.16800    0.81060    1.000
    H57      H        0.86070    0.29360    0.73540    1.000
    H58      H        0.88660    0.27460    0.82390    1.000
    H59      H        0.34500    0.84200    0.62620    1.000
    H60      H        0.41710    0.85750    0.73540    1.000
    H61      H        0.13540    0.06610    0.78250    1.000
    H62      H        0.11640    0.95000    0.80810    1.000
    H63      H        0.39000    0.94840    0.84330    1.000
    H64      H        0.36820    0.07700    0.85130    1.000
    H65      H        0.32820    0.93200    0.43420    1.000
    H66      H        0.16070    0.97410    0.46920    1.000
    H67      H        0.08290    0.14050    0.55290    1.000
    H68      H        0.07610    0.15360    0.45270    1.000
    H69      H        0.29390    0.29070    0.53190    1.000
    H70      H        0.11250    0.29950    0.50290    1.000
    H71      H        0.79930    0.12980    0.57580    1.000
    H72      H        0.85890    0.23160    0.60540    1.000
    C1       C        0.21170    0.31090    0.24040    1.000
    C2       C        0.29470    0.22220    0.21410    1.000
    C3       C        0.82000    0.64450    0.30600    1.000
    C4       C        0.68400    0.49900    0.20770    1.000
    C5       C        0.81980    0.48640    0.14930    1.000
    C6       C        0.73650    0.51940    0.55990    1.000
    C7       C        0.66490    0.33710    0.50260    1.000
    C8       C        0.71370    0.23500    0.50280    1.000
    C9       C        0.26940    0.30160    0.41340    1.000
    C10      C        0.28830    0.68910    0.74040    1.000
    C11      C        0.20530    0.77780    0.71410    1.000
    C12      C        0.68000    0.35550    0.80600    1.000
    C13      C        0.81600    0.50100    0.70770    1.000
    C14      C        0.68020    0.51360    0.64930    1.000
    C15      C        0.76350    0.48060    0.05990    1.000
    C16      C        0.83510    0.66290    0.00260    1.000
    C17      C        0.78630    0.76500    0.00280    1.000
    C18      C        0.23060    0.69840    0.91340    1.000
    C19      C        0.78830    0.81090    0.25960    1.000
    C20      C        0.70530    0.72220    0.28590    1.000
    C21      C        0.18000    0.14450    0.19400    1.000
    C22      C        0.31600    0.99900    0.29230    1.000
    C23      C        0.18020    0.98640    0.35070    1.000
    C24      C        0.26350    0.01940    0.94010    1.000
    C25      C        0.33510    0.83710    0.99740    1.000
    C26      C        0.28630    0.73500    0.99720    1.000
    C27      C        0.73060    0.80160    0.08660    1.000
    C28      C        0.71170    0.18910    0.75960    1.000
    C29      C        0.79470    0.27780    0.78590    1.000
    C30      C        0.32000    0.85550    0.69400    1.000
    C31      C        0.18400    0.00100    0.79230    1.000
    C32      C        0.31980    0.01360    0.85070    1.000
    C33      C        0.23650    0.98060    0.44010    1.000
    C34      C        0.16490    0.16290    0.49740    1.000
    C35      C        0.21370    0.26500    0.49720    1.000
    C36      C        0.76940    0.19840    0.58660    1.000
    S1       S        0.11010    0.29620    0.33940    1.000
    S2       S        0.73110    0.52820    0.31470    1.000
    S3       S        0.82980    0.41150    0.52509    1.000
    S4       S        0.38990    0.70380    0.83940    1.000
    S5       S        0.76890    0.47180    0.81470    1.000
    S6       S        0.67020    0.58850    0.02509    1.000
    S7       S        0.88990    0.79620    0.16060    1.000
    S8       S        0.26890    0.02820    0.18530    1.000
    S9       S        0.17020    0.91150    0.97491    1.000
    S10      S        0.61010    0.20380    0.66060    1.000
    S11      S        0.23110    0.97180    0.68530    1.000
    S12      S        0.32980    0.08850    0.47491    1.000
