data_functionalizedCrystal
_audit_creation_method	'EQeq! by Chris Wilmer'
_symmetry_space_group_name_H-M	'P1'
_symmetry_Int_Tables_number	1
_symmetry_cell_setting	triclinic
loop_
_symmetry_equiv_pos_as_xyz
  x,y,z
_cell_length_a	6.4633
_cell_length_b	17.072
_cell_length_c	23.816
_cell_angle_alpha	90
_cell_angle_beta	90.602
_cell_angle_gamma	90
loop_
_atom_site_label
_atom_site_type_symbol
_atom_site_fract_x
_atom_site_fract_y
_atom_site_fract_z
_atom_site_charge
Mof_Eu	Eu	0.26189	0.0628	0.02277	2.326
Mof_C 	C 	0.2349	0.9408	0.9313	0.58
Mof_C 	C 	0.2717	0.8944	0.8825	-0.425
Mof_C 	C 	0.4677	0.857	0.8725	0.442
Mof_C 	C 	0.4863	0.8128	0.8231	-0.343
Mof_H 	H 	0.6124	0.7888	0.8158	0.146
Mof_C 	C 	0.3265	0.8033	0.7847	0.139
Mof_C 	C 	0.1366	0.8394	0.7944	-0.265
Mof_H 	H 	0.0271	0.833	0.7691	0.113
Mof_C 	C 	0.1127	0.885	0.8422	0.243
Mof_H 	H 	0.9872	0.9103	0.8477	-0.073
Mof_C 	C 	0.3562	0.7513	0.7348	0.108
Mof_C 	C 	0.1966	0.7061	0.7148	-0.292
Mof_H 	H 	0.0684	0.709	0.7321	0.139
Mof_C 	C 	0.2216	0.6557	0.6692	0.369
Mof_C 	C 	0.4121	0.6526	0.642	-0.349
Mof_C 	C 	0.5724	0.7011	0.662	0.192
Mof_H 	H 	0.6997	0.7007	0.6442	-0.029
Mof_C 	C 	0.5433	0.7492	0.7077	-0.223
Mof_H 	H 	0.6515	0.7806	0.7204	0.097
Mof_C 	C 	0.4464	0.6009	0.5935	0.56
Mof_O 	O 	0.0631	0.9766	0.9401	-0.71
Mof_O 	O 	0.3759	0.9509	0.9692	-0.762
Mof_O 	O 	0.6011	0.6126	0.5628	-0.597
Mof_O 	O 	0.3156	0.5454	0.5854	-0.577
Mof_O 	O 	0.6267	0.8629	0.9069	-0.617
Mof_O 	O 	0.0565	0.6116	0.6539	-0.485
Mof_H 	H 	0.0906	0.5807	0.6293	0.284
Mof_Eu	Eu	0.73811	0.5628	0.47723	2.338
Mof_C 	C 	0.7651	0.4408	0.5687	0.581
Mof_C 	C 	0.7283	0.3944	0.6175	-0.422
Mof_C 	C 	0.5323	0.357	0.6275	0.441
Mof_C 	C 	0.5137	0.3128	0.6769	-0.341
Mof_H 	H 	0.3876	0.2888	0.6842	0.145
Mof_C 	C 	0.6735	0.3033	0.7153	0.137
Mof_C 	C 	0.8634	0.3394	0.7056	-0.26
Mof_H 	H 	0.9729	0.333	0.7309	0.111
Mof_C 	C 	0.8873	0.385	0.6578	0.235
Mof_H 	H 	0.0128	0.4103	0.6523	-0.068
Mof_C 	C 	0.6438	0.2513	0.7652	0.109
Mof_C 	C 	0.8034	0.2061	0.7852	-0.292
Mof_H 	H 	0.9316	0.209	0.7679	0.139
Mof_C 	C 	0.7784	0.1557	0.8308	0.369
Mof_C 	C 	0.5879	0.1526	0.858	-0.349
Mof_C 	C 	0.4276	0.2011	0.838	0.192
Mof_H 	H 	0.3003	0.2007	0.8558	-0.028
Mof_C 	C 	0.4567	0.2492	0.7923	-0.223
Mof_H 	H 	0.3485	0.2806	0.7796	0.098
Mof_C 	C 	0.5536	0.1009	0.9065	0.558
Mof_O 	O 	0.9369	0.4766	0.5599	-0.713
Mof_O 	O 	0.6241	0.4509	0.5308	-0.764
Mof_O 	O 	0.3989	0.1126	0.9372	-0.594
Mof_O 	O 	0.6844	0.0454	0.9146	-0.573
Mof_O 	O 	0.3733	0.3629	0.5931	-0.617
Mof_O 	O 	0.9435	0.1116	0.8461	-0.485
Mof_H 	H 	0.9094	0.0807	0.8707	0.284
Mof_Eu	Eu	0.73811	0.9372	0.97723	2.327
Mof_C 	C 	0.7651	0.0592	0.0687	0.581
Mof_C 	C 	0.7283	0.1056	0.1175	-0.425
Mof_C 	C 	0.5323	0.143	0.1275	0.442
Mof_C 	C 	0.5137	0.1872	0.1769	-0.343
Mof_H 	H 	0.3876	0.2112	0.1842	0.146
Mof_C 	C 	0.6735	0.1967	0.2153	0.139
Mof_C 	C 	0.8634	0.1606	0.2056	-0.265
Mof_H 	H 	0.9729	0.167	0.2309	0.113
Mof_C 	C 	0.8873	0.115	0.1578	0.243
Mof_H 	H 	0.0128	0.0897	0.1523	-0.073
Mof_C 	C 	0.6438	0.2487	0.2652	0.108
Mof_C 	C 	0.8034	0.2939	0.2852	-0.292
Mof_H 	H 	0.9316	0.291	0.2679	0.139
Mof_C 	C 	0.7784	0.3443	0.3308	0.369
Mof_C 	C 	0.5879	0.3474	0.358	-0.349
Mof_C 	C 	0.4276	0.2989	0.338	0.192
Mof_H 	H 	0.3003	0.2993	0.3558	-0.029
Mof_C 	C 	0.4567	0.2508	0.2923	-0.223
Mof_H 	H 	0.3485	0.2194	0.2796	0.097
Mof_C 	C 	0.5536	0.3991	0.4065	0.56
Mof_O 	O 	0.9369	0.0234	0.0599	-0.71
Mof_O 	O 	0.6241	0.0491	0.0308	-0.762
Mof_O 	O 	0.3989	0.3874	0.4372	-0.597
Mof_O 	O 	0.6844	0.4546	0.4146	-0.577
Mof_O 	O 	0.3733	0.1371	0.0931	-0.617
Mof_O 	O 	0.9435	0.3884	0.3461	-0.485
Mof_H 	H 	0.9094	0.4193	0.3707	0.284
Mof_Eu	Eu	0.26189	0.4372	0.52277	2.338
Mof_C 	C 	0.2349	0.5592	0.4313	0.581
Mof_C 	C 	0.2717	0.6056	0.3825	-0.422
Mof_C 	C 	0.4677	0.643	0.3725	0.441
Mof_C 	C 	0.4863	0.6872	0.3231	-0.341
Mof_H 	H 	0.6124	0.7112	0.3158	0.145
Mof_C 	C 	0.3265	0.6967	0.2847	0.137
Mof_C 	C 	0.1366	0.6606	0.2944	-0.26
Mof_H 	H 	0.0271	0.667	0.2691	0.111
Mof_C 	C 	0.1127	0.615	0.3422	0.235
Mof_H 	H 	0.9872	0.5897	0.3477	-0.068
Mof_C 	C 	0.3562	0.7487	0.2348	0.109
Mof_C 	C 	0.1966	0.7939	0.2148	-0.292
Mof_H 	H 	0.0684	0.791	0.2321	0.139
Mof_C 	C 	0.2216	0.8443	0.1692	0.369
Mof_C 	C 	0.4121	0.8474	0.142	-0.349
Mof_C 	C 	0.5724	0.7989	0.162	0.192
Mof_H 	H 	0.6997	0.7993	0.1442	-0.028
Mof_C 	C 	0.5433	0.7508	0.2077	-0.223
Mof_H 	H 	0.6515	0.7194	0.2204	0.098
Mof_C 	C 	0.4464	0.8991	0.0935	0.558
Mof_O 	O 	0.0631	0.5234	0.4401	-0.713
Mof_O 	O 	0.3759	0.5491	0.4692	-0.764
Mof_O 	O 	0.6011	0.8874	0.0628	-0.594
Mof_O 	O 	0.3156	0.9546	0.0854	-0.573
Mof_O 	O 	0.6267	0.6371	0.4069	-0.617
Mof_O 	O 	0.0565	0.8884	0.1539	-0.485
Mof_H 	H 	0.0906	0.9193	0.1293	0.284
_end
