# CIF file generated by openbabel 3.1.0, see https://openbabel.org
data_I
_chemical_name_common 'image0'
_cell_length_a 6.8094
_cell_length_b 12.422
_cell_length_c 17.1733
_cell_angle_alpha 90
_cell_angle_beta 90
_cell_angle_gamma 90
_space_group_name_H-M_alt 'P 1'
_space_group_name_Hall 'P 1'
loop_
    _symmetry_equiv_pos_as_xyz
    x,y,z
loop_
    _atom_site_label
    _atom_site_type_symbol
    _atom_site_fract_x
    _atom_site_fract_y
    _atom_site_fract_z
    _atom_site_occupancy
    V1       V        0.06055    0.26567    0.00084    1.000
    O1       O        0.27830    0.31685    0.00492    1.000
    O2       O        0.11220    0.17110    0.91063    1.000
    O3       O        0.11190    0.14830    0.07571    1.000
    O4       O        0.93940    0.34460    0.08929    1.000
    O5       O        0.93940    0.36720    0.92476    1.000
    C1       C        0.27350    0.13860    0.88222    1.000
    C2       C        0.26170    0.07640    0.80846    1.000
    C3       C        0.08010    0.05220    0.77610    1.000
    H1       H        0.96540    0.07580    0.80000    1.000
    C4       C        0.07090    0.99260    0.70790    1.000
    H2       H        0.94940    0.97640    0.68620    1.000
    C5       C        0.43270    0.04030    0.77250    1.000
    H3       H        0.55460    0.05570    0.79420    1.000
    C6       C        0.42030    0.98150    0.70450    1.000
    H4       H        0.53440    0.95790    0.68010    1.000
    C7       C        0.27070    0.11300    0.10193    1.000
    C8       C        0.23880    0.95740    0.67237    1.000
    V2       V        0.43945    0.73433    0.50084    1.000
    O6       O        0.22170    0.68315    0.50492    1.000
    O7       O        0.38780    0.82890    0.41063    1.000
    O8       O        0.38810    0.85170    0.57571    1.000
    O9       O        0.56060    0.65540    0.58929    1.000
    O10      O        0.56060    0.63280    0.42476    1.000
    C9       C        0.22650    0.86140    0.38222    1.000
    C10      C        0.23830    0.92360    0.30846    1.000
    C11      C        0.41990    0.94780    0.27610    1.000
    H5       H        0.53460    0.92420    0.30000    1.000
    C12      C        0.42910    0.00740    0.20790    1.000
    H6       H        0.55060    0.02360    0.18620    1.000
    C13      C        0.06730    0.95970    0.27250    1.000
    H7       H        0.94540    0.94430    0.29420    1.000
    C14      C        0.07970    0.01850    0.20450    1.000
    H8       H        0.96560    0.04210    0.18010    1.000
    C15      C        0.22930    0.88700    0.60193    1.000
    C16      C        0.26120    0.04260    0.17237    1.000
    V3       V        0.93945    0.76567    0.49916    1.000
    O11      O        0.72170    0.81685    0.49508    1.000
    O12      O        0.88780    0.67110    0.58937    1.000
    O13      O        0.88810    0.64830    0.42429    1.000
    O14      O        0.06060    0.84460    0.41071    1.000
    O15      O        0.06060    0.86720    0.57524    1.000
    C17      C        0.72650    0.63860    0.61778    1.000
    C18      C        0.73830    0.57640    0.69154    1.000
    C19      C        0.91990    0.55220    0.72390    1.000
    H9       H        0.03460    0.57580    0.70000    1.000
    C20      C        0.92910    0.49260    0.79210    1.000
    H10      H        0.05060    0.47640    0.81380    1.000
    C21      C        0.56730    0.54030    0.72750    1.000
    H11      H        0.44540    0.55570    0.70580    1.000
    C22      C        0.57970    0.48150    0.79550    1.000
    H12      H        0.46560    0.45790    0.81990    1.000
    C23      C        0.72930    0.61300    0.39807    1.000
    C24      C        0.76120    0.45740    0.82763    1.000
    V4       V        0.56055    0.23433    0.99916    1.000
    O16      O        0.77830    0.18315    0.99508    1.000
    O17      O        0.61220    0.32890    0.08937    1.000
    O18      O        0.61190    0.35170    0.92429    1.000
    O19      O        0.43940    0.15540    0.91071    1.000
    O20      O        0.43940    0.13280    0.07524    1.000
    C25      C        0.77350    0.36140    0.11778    1.000
    C26      C        0.76170    0.42360    0.19154    1.000
    C27      C        0.58010    0.44780    0.22390    1.000
    H13      H        0.46540    0.42420    0.20000    1.000
    C28      C        0.57090    0.50740    0.29210    1.000
    H14      H        0.44940    0.52360    0.31380    1.000
    C29      C        0.93270    0.45970    0.22750    1.000
    H15      H        0.05460    0.44430    0.20580    1.000
    C30      C        0.92030    0.51850    0.29550    1.000
    H16      H        0.03440    0.54210    0.31990    1.000
    C31      C        0.77070    0.38700    0.89807    1.000
    C32      C        0.73880    0.54260    0.32763    1.000
