data_functionalizedCrystal
_audit_creation_method	'EQeq! by Chris Wilmer'
_symmetry_space_group_name_H-M	'P1'
_symmetry_Int_Tables_number	1
_symmetry_cell_setting	triclinic
loop_
_symmetry_equiv_pos_as_xyz
  x,y,z
_cell_length_a	10.1023
_cell_length_b	14.412
_cell_length_c	14.9635
_cell_angle_alpha	70.59
_cell_angle_beta	72.752
_cell_angle_gamma	87.142
loop_
_atom_site_label
_atom_site_type_symbol
_atom_site_fract_x
_atom_site_fract_y
_atom_site_fract_z
_atom_site_charge
Mof_Cd	Cd	0.31053	0.45357	0.53015	0.445
Mof_Cd	Cd	0.89091	0.38677	0.63754	0.49
Mof_O 	O 	0.1057	0.31786	0.5984	-0.279
Mof_O 	O 	0.3148	0.31438	0.49941	-0.268
Mof_O 	O 	0.1104	0.54972	0.52249	-0.303
Mof_O 	O 	0.9398	0.52262	0.66361	-0.27
Mof_O 	O 	0.2071	0.76924	0.29143	-0.274
Mof_O 	O 	0.1533	0.70459	0.19095	-0.253
Mof_O 	O 	0.5362	0.41163	0.55976	-0.286
Mof_O 	O 	0.6589	0.44409	0.64697	-0.264
Mof_C 	C 	0.0593	0.1121	0.6269	-0.144
Mof_H 	H 	0.9896	0.1408	0.6663	0.098
Mof_C 	C 	0.1715	0.169	0.5599	0.026
Mof_C 	C 	0.2673	0.1265	0.5033	-0.137
Mof_H 	H 	0.3469	0.1648	0.4556	0.087
Mof_C 	C 	0.3954	0.9632	0.4906	-0.145
Mof_H 	H 	0.4752	0.0057	0.4398	0.06
Mof_H 	H 	0.4216	0.9287	0.5517	0.064
Mof_C 	C 	0.3043	0.9939	0.4167	-0.146
Mof_H 	H 	0.2302	0.0004	0.3844	0.059
Mof_H 	H 	0.3867	0.0354	0.3682	0.063
Mof_C 	C 	0.3404	0.8888	0.451	0.047
Mof_C 	C 	0.1838	0.7329	0.5271	-0.02
Mof_H 	H 	0.2476	0.7057	0.4828	0.057
Mof_C 	C 	0.0655	0.6768	0.5948	-0.065
Mof_C 	C 	0.976	0.7154	0.662	-0.017
Mof_H 	H 	0.8966	0.6768	0.7096	0.055
Mof_C 	C 	0.9017	0.8546	0.7307	0.048
Mof_C 	C 	0.8912	0.9659	0.6707	-0.15
Mof_H 	H 	0.824	0.9982	0.7126	0.067
Mof_H 	H 	0.862	0.9722	0.6114	0.066
Mof_C 	C 	0.9624	0.9295	0.7521	-0.154
Mof_H 	H 	0.0298	0.9013	0.7891	0.07
Mof_H 	H 	0.8899	0.9605	0.7921	0.072
Mof_C 	C 	0.0435	0.013	0.6395	0.124
Mof_C 	C 	0.1378	0.9707	0.5817	-0.101
Mof_C 	C 	0.2516	0.0279	0.5137	0.111
Mof_C 	C 	0.2093	0.8279	0.5236	-0.023
Mof_C 	C 	0.1168	0.8675	0.5895	0.043
Mof_C 	C 	0.0009	0.8094	0.6605	-0.029
Mof_C 	C 	0.1962	0.274	0.5513	0.263
Mof_C 	C 	0.0362	0.5769	0.5942	0.298
Mof_C 	C 	0.1895	0.894	0.0408	-0.082
Mof_H 	H 	0.1357	0.8454	0.0347	0.068
Mof_C 	C 	0.2317	0.874	0.1262	-0.022
Mof_C 	C 	0.3082	0.9457	0.136	-0.084
Mof_H 	H 	0.3361	0.9322	0.1942	0.065
Mof_C 	C 	0.4303	0.1141	0.0711	-0.117
Mof_H 	H 	0.5299	0.1019	0.048	0.071
Mof_H 	H 	0.4073	0.109	0.1417	0.056
Mof_C 	C 	0.4045	0.2182	0.0102	-0.134
Mof_H 	H 	0.3102	0.2358	0.0414	0.07
Mof_H 	H 	0.4723	0.2658	0.0096	0.071
Mof_C 	C 	0.4852	0.3041	0.8236	-0.086
Mof_H 	H 	0.5281	0.356	0.8328	0.077
Mof_C 	C 	0.49	0.3086	0.7285	-0.013
Mof_C 	C 	0.4277	0.2322	0.7144	-0.088
Mof_H 	H 	0.4274	0.2371	0.6496	0.075
Mof_C 	C 	0.31	0.0608	0.7812	-0.132
Mof_H 	H 	0.3844	0.0142	0.773	0.064
Mof_H 	H 	0.2806	0.0826	0.7202	0.07
Mof_C 	C 	0.1867	0.0082	0.8701	-0.111
Mof_H 	H 	0.1069	0.0511	0.8725	0.066
Mof_H 	H 	0.1587	0.9469	0.8628	0.055
Mof_C 	C 	0.2254	0.9838	0.9653	0.036
Mof_C 	C 	0.3063	0.0551	0.9747	-0.022
Mof_C 	C 	0.3442	0.0366	0.062	0.041
Mof_C 	C 	0.4183	0.2245	0.9052	0.064
Mof_C 	C 	0.3612	0.1455	0.8905	-0.036
Mof_C 	C 	0.3661	0.1492	0.7946	0.06
Mof_C 	C 	0.1959	0.7763	0.2076	0.266
Mof_C 	C 	0.5652	0.3928	0.6411	0.266
Mof_Cd	Cd	0.68947	0.54643	0.46985	0.446
Mof_Cd	Cd	0.10909	0.61323	0.36246	0.491
Mof_O 	O 	0.8943	0.68214	0.4016	-0.279
Mof_O 	O 	0.6852	0.68562	0.50059	-0.268
Mof_O 	O 	0.8896	0.45028	0.47751	-0.303
Mof_O 	O 	0.0602	0.47738	0.33639	-0.27
Mof_O 	O 	0.7929	0.23076	0.70857	-0.274
Mof_O 	O 	0.8467	0.29541	0.80905	-0.253
Mof_O 	O 	0.4638	0.58837	0.44024	-0.286
Mof_O 	O 	0.3411	0.55591	0.35303	-0.264
Mof_C 	C 	0.9407	0.8879	0.3731	-0.144
Mof_H 	H 	0.0104	0.8592	0.3337	0.098
Mof_C 	C 	0.8285	0.831	0.4401	0.026
Mof_C 	C 	0.7327	0.8735	0.4967	-0.137
Mof_H 	H 	0.6531	0.8352	0.5444	0.087
Mof_C 	C 	0.6046	0.0368	0.5094	-0.145
Mof_H 	H 	0.5248	0.9943	0.5602	0.06
Mof_H 	H 	0.5784	0.0713	0.4483	0.064
Mof_C 	C 	0.6957	0.0061	0.5833	-0.146
Mof_H 	H 	0.7698	0.9996	0.6156	0.059
Mof_H 	H 	0.6133	0.9646	0.6318	0.063
Mof_C 	C 	0.6596	0.1112	0.549	0.047
Mof_C 	C 	0.8162	0.2671	0.4729	-0.02
Mof_H 	H 	0.7524	0.2943	0.5172	0.057
Mof_C 	C 	0.9345	0.3232	0.4052	-0.065
Mof_C 	C 	0.024	0.2846	0.338	-0.017
Mof_H 	H 	0.1034	0.3232	0.2904	0.055
Mof_C 	C 	0.0983	0.1454	0.2693	0.048
Mof_C 	C 	0.1088	0.0341	0.3293	-0.15
Mof_H 	H 	0.176	0.0018	0.2874	0.067
Mof_H 	H 	0.138	0.0278	0.3886	0.066
Mof_C 	C 	0.0376	0.0705	0.2479	-0.154
Mof_H 	H 	0.9702	0.0987	0.2109	0.07
Mof_H 	H 	0.1101	0.0395	0.2079	0.072
Mof_C 	C 	0.9565	0.987	0.3605	0.124
Mof_C 	C 	0.8622	0.0293	0.4183	-0.101
Mof_C 	C 	0.7484	0.9721	0.4863	0.111
Mof_C 	C 	0.7907	0.1721	0.4764	-0.023
Mof_C 	C 	0.8832	0.1325	0.4105	0.043
Mof_C 	C 	0.9991	0.1906	0.3395	-0.029
Mof_C 	C 	0.8038	0.726	0.4487	0.263
Mof_C 	C 	0.9638	0.4231	0.4058	0.298
Mof_C 	C 	0.8105	0.106	0.9592	-0.082
Mof_H 	H 	0.8643	0.1546	0.9653	0.068
Mof_C 	C 	0.7683	0.126	0.8738	-0.022
Mof_C 	C 	0.6918	0.0543	0.864	-0.084
Mof_H 	H 	0.6639	0.0678	0.8058	0.065
Mof_C 	C 	0.5697	0.8859	0.9289	-0.117
Mof_H 	H 	0.4701	0.8981	0.952	0.071
Mof_H 	H 	0.5927	0.891	0.8583	0.056
Mof_C 	C 	0.5955	0.7818	0.9898	-0.134
Mof_H 	H 	0.6898	0.7642	0.9586	0.07
Mof_H 	H 	0.5277	0.7342	0.9904	0.071
Mof_C 	C 	0.5148	0.6959	0.1764	-0.086
Mof_H 	H 	0.4719	0.644	0.1672	0.077
Mof_C 	C 	0.51	0.6914	0.2715	-0.013
Mof_C 	C 	0.5723	0.7678	0.2856	-0.088
Mof_H 	H 	0.5726	0.7629	0.3504	0.075
Mof_C 	C 	0.69	0.9392	0.2188	-0.132
Mof_H 	H 	0.6156	0.9858	0.227	0.064
Mof_H 	H 	0.7194	0.9174	0.2798	0.07
Mof_C 	C 	0.8133	0.9918	0.1299	-0.111
Mof_H 	H 	0.8931	0.9489	0.1275	0.066
Mof_H 	H 	0.8413	0.0531	0.1372	0.055
Mof_C 	C 	0.7746	0.0162	0.0347	0.036
Mof_C 	C 	0.6937	0.9449	0.0253	-0.022
Mof_C 	C 	0.6558	0.9634	0.938	0.041
Mof_C 	C 	0.5817	0.7755	0.0948	0.064
Mof_C 	C 	0.6388	0.8545	0.1095	-0.036
Mof_C 	C 	0.6339	0.8508	0.2054	0.06
Mof_C 	C 	0.8041	0.2237	0.7924	0.266
Mof_C 	C 	0.4348	0.6072	0.3589	0.266
_end
