# CIF file generated by openbabel 3.1.0, see https://openbabel.org
data_I
_chemical_name_common 'image0'
_cell_length_a 11.391
_cell_length_b 12.414
_cell_length_c 12.846
_cell_angle_alpha 71.04
_cell_angle_beta 68.39
_cell_angle_gamma 66.88
_space_group_name_H-M_alt 'P 1'
_space_group_name_Hall 'P 1'
loop_
    _symmetry_equiv_pos_as_xyz
    x,y,z
loop_
    _atom_site_label
    _atom_site_type_symbol
    _atom_site_fract_x
    _atom_site_fract_y
    _atom_site_fract_z
    _atom_site_occupancy
    Ga1      Ga       0.39573    0.70795    0.24627    1.000
    Ga2      Ga       0.19857    0.72125    0.93643    1.000
    Ga3      Ga       0.10635    0.82590    0.25664    1.000
    Ga4      Ga       0.31605    0.77747    0.58054    1.000
    Ga5      Ga       0.73202    0.92923    0.16611    1.000
    Ga6      Ga       0.78485    0.55445    0.33519    1.000
    P1       P        0.18746    0.68039    0.48269    1.000
    P2       P        0.55422    0.78938    0.34998    1.000
    P3       P        0.31354    0.85102    0.02035    1.000
    P4       P        0.63685    0.45695    0.23003    1.000
    P5       P        0.86533    0.06137    0.24828    1.000
    P6       P        0.96479    0.70646    0.17018    1.000
    F1       F        0.24900    0.67440    0.23110    1.000
    F2       F        0.25270    0.85970    0.27360    1.000
    O1       O        0.42010    0.78680    0.08500    1.000
    O2       O        0.33080    0.64770    0.40930    1.000
    O3       O        0.52250    0.76520    0.25690    1.000
    O4       O        0.51170    0.55850    0.21430    1.000
    O5       O        0.89290    0.17790    0.16830    1.000
    O6       O        0.32630    0.77000    0.94390    1.000
    O7       O        0.08850    0.67230    0.07210    1.000
    O8       O        0.70740    0.41630    0.11560    1.000
    O9       O        0.98580    0.97700    0.28880    1.000
    O10      O        0.17050    0.88710    0.09450    1.000
    O11      O        0.98180    0.76390    0.24880    1.000
    O12      O        0.08080    0.75190    0.41930    1.000
    O13      O        0.17570    0.75240    0.56680    1.000
    O14      O        0.43380    0.82540    0.45030    1.000
    O15      O        0.60050    0.35310    0.32600    1.000
    O16      O        0.74690    0.09400    0.35210    1.000
    O17      O        0.82880    0.00560    0.18030    1.000
    O18      O        0.35100    0.96440    0.94020    1.000
    O19      O        0.84650    0.79070    0.12100    1.000
    O20      O        0.60850    0.89670    0.30010    1.000
    O21      O        0.93590    0.58790    0.23840    1.000
    O22      O        0.65970    0.67870    0.39650    1.000
    O23      O        0.15050    0.56540    0.55450    1.000
    O24      O        0.73450    0.49600    0.25300    1.000
    Ga7      Ga       0.60427    0.29205    0.75373    1.000
    Ga8      Ga       0.80143    0.27875    0.06357    1.000
    Ga9      Ga       0.89365    0.17410    0.74336    1.000
    Ga10     Ga       0.68395    0.22253    0.41946    1.000
    Ga11     Ga       0.26798    0.07077    0.83389    1.000
    Ga12     Ga       0.21515    0.44555    0.66481    1.000
    P7       P        0.81254    0.31961    0.51731    1.000
    P8       P        0.44578    0.21062    0.65002    1.000
    P9       P        0.68646    0.14898    0.97965    1.000
    P10      P        0.36315    0.54305    0.76997    1.000
    P11      P        0.13467    0.93863    0.75172    1.000
    P12      P        0.03521    0.29354    0.82982    1.000
    F3       F        0.75100    0.32560    0.76890    1.000
    F4       F        0.74730    0.14030    0.72640    1.000
    O25      O        0.57990    0.21320    0.91500    1.000
    O26      O        0.66920    0.35230    0.59070    1.000
    O27      O        0.47750    0.23480    0.74310    1.000
    O28      O        0.48830    0.44150    0.78570    1.000
    O29      O        0.10710    0.82210    0.83170    1.000
    O30      O        0.67370    0.23000    0.05610    1.000
    O31      O        0.91150    0.32770    0.92790    1.000
    O32      O        0.29260    0.58370    0.88440    1.000
    O33      O        0.01420    0.02300    0.71120    1.000
    O34      O        0.82950    0.11290    0.90550    1.000
    O35      O        0.01820    0.23610    0.75120    1.000
    O36      O        0.91920    0.24810    0.58070    1.000
    O37      O        0.82430    0.24760    0.43320    1.000
    O38      O        0.56620    0.17460    0.54970    1.000
    O39      O        0.39950    0.64690    0.67400    1.000
    O40      O        0.25310    0.90600    0.64790    1.000
    O41      O        0.17120    0.99440    0.81970    1.000
    O42      O        0.64900    0.03560    0.05980    1.000
    O43      O        0.15350    0.20930    0.87900    1.000
    O44      O        0.39150    0.10330    0.69990    1.000
    O45      O        0.06410    0.41210    0.76160    1.000
    O46      O        0.34030    0.32130    0.60350    1.000
    O47      O        0.84950    0.43460    0.44550    1.000
    O48      O        0.26550    0.50400    0.74700    1.000
