# CIF file generated by openbabel 3.1.0, see https://openbabel.org
data_I
_chemical_name_common 'image0'
_cell_length_a 12.6065
_cell_length_b 10.137
_cell_length_c 17.5701
_cell_angle_alpha 90
_cell_angle_beta 90
_cell_angle_gamma 90
_space_group_name_H-M_alt 'P 1'
_space_group_name_Hall 'P 1'
loop_
    _symmetry_equiv_pos_as_xyz
    x,y,z
loop_
    _atom_site_label
    _atom_site_type_symbol
    _atom_site_fract_x
    _atom_site_fract_y
    _atom_site_fract_z
    _atom_site_occupancy
    O1       O        0.85320    0.44840    0.91402    1.000
    O2       O        0.77700    0.26610    0.87470    1.000
    N1       N        0.03260    0.05310    0.16350    1.000
    N2       N        0.97940    0.95800    0.20250    1.000
    N3       N        0.13510    0.99790    0.25760    1.000
    C1       C        0.83790    0.32430    0.91900    1.000
    C2       C        0.89290    0.25190    0.98050    1.000
    C3       C        0.97700    0.30460    0.01830    1.000
    H1       H        0.00370    0.38580    0.00290    1.000
    C4       C        0.02480    0.23960    0.08010    1.000
    H2       H        0.08140    0.27740    0.10620    1.000
    C5       C        0.98550    0.11900    0.10090    1.000
    C6       C        0.90110    0.06460    0.06380    1.000
    H3       H        0.87390    0.98370    0.07930    1.000
    C7       C        0.85660    0.13080    0.00290    1.000
    H4       H        0.80060    0.09220    0.97660    1.000
    C8       C        0.04400    0.92760    0.25740    1.000
    H5       H        0.02890    0.86300    0.29340    1.000
    C9       C        0.12450    0.07580    0.19700    1.000
    H6       H        0.17450    0.13710    0.18070    1.000
    O3       O        0.64680    0.55160    0.91402    1.000
    O4       O        0.72300    0.73390    0.87470    1.000
    N4       N        0.46740    0.94690    0.16350    1.000
    N5       N        0.52060    0.04200    0.20250    1.000
    N6       N        0.36490    0.00210    0.25760    1.000
    C10      C        0.66210    0.67570    0.91900    1.000
    C11      C        0.60710    0.74810    0.98050    1.000
    C12      C        0.52300    0.69540    0.01830    1.000
    H7       H        0.49630    0.61420    0.00290    1.000
    C13      C        0.47520    0.76040    0.08010    1.000
    H8       H        0.41860    0.72260    0.10620    1.000
    C14      C        0.51450    0.88100    0.10090    1.000
    C15      C        0.59890    0.93540    0.06380    1.000
    H9       H        0.62610    0.01630    0.07930    1.000
    C16      C        0.64340    0.86920    0.00290    1.000
    H10      H        0.69940    0.90780    0.97660    1.000
    C17      C        0.45600    0.07240    0.25740    1.000
    H11      H        0.47110    0.13700    0.29340    1.000
    C18      C        0.37550    0.92420    0.19700    1.000
    H12      H        0.32550    0.86290    0.18070    1.000
    O5       O        0.35320    0.05160    0.41402    1.000
    O6       O        0.27700    0.23390    0.37470    1.000
    N7       N        0.53260    0.44690    0.66350    1.000
    N8       N        0.47940    0.54200    0.70250    1.000
    N9       N        0.63510    0.50210    0.75760    1.000
    C19      C        0.33790    0.17570    0.41900    1.000
    C20      C        0.39290    0.24810    0.48050    1.000
    C21      C        0.47700    0.19540    0.51830    1.000
    H13      H        0.50370    0.11420    0.50290    1.000
    C22      C        0.52480    0.26040    0.58010    1.000
    H14      H        0.58140    0.22260    0.60620    1.000
    C23      C        0.48550    0.38100    0.60090    1.000
    C24      C        0.40110    0.43540    0.56380    1.000
    H15      H        0.37390    0.51630    0.57930    1.000
    C25      C        0.35660    0.36920    0.50290    1.000
    H16      H        0.30060    0.40780    0.47660    1.000
    C26      C        0.54400    0.57240    0.75740    1.000
    H17      H        0.52890    0.63700    0.79340    1.000
    C27      C        0.62450    0.42420    0.69700    1.000
    H18      H        0.67450    0.36290    0.68070    1.000
    O7       O        0.14680    0.94840    0.41402    1.000
    O8       O        0.22300    0.76610    0.37470    1.000
    N10      N        0.96740    0.55310    0.66350    1.000
    N11      N        0.02060    0.45800    0.70250    1.000
    N12      N        0.86490    0.49790    0.75760    1.000
    C28      C        0.16210    0.82430    0.41900    1.000
    C29      C        0.10710    0.75190    0.48050    1.000
    C30      C        0.02300    0.80460    0.51830    1.000
    H19      H        0.99630    0.88580    0.50290    1.000
    C31      C        0.97520    0.73960    0.58010    1.000
    H20      H        0.91860    0.77740    0.60620    1.000
    C32      C        0.01450    0.61900    0.60090    1.000
    C33      C        0.09890    0.56460    0.56380    1.000
    H21      H        0.12610    0.48370    0.57930    1.000
    C34      C        0.14340    0.63080    0.50290    1.000
    H22      H        0.19940    0.59220    0.47660    1.000
    C35      C        0.95600    0.42760    0.75740    1.000
    H23      H        0.97110    0.36300    0.79340    1.000
    C36      C        0.87550    0.57580    0.69700    1.000
    H24      H        0.82550    0.63710    0.68070    1.000
    Cu1      Cu       0.75000    0.50000    0.83472    1.000
    Cu2      Cu       0.25000    0.00000    0.33472    1.000
    O9       O        0.64680    0.94840    0.58598    1.000
    O10      O        0.72300    0.76610    0.62530    1.000
    N13      N        0.46740    0.55310    0.33650    1.000
    N14      N        0.52060    0.45800    0.29750    1.000
    N15      N        0.36490    0.49790    0.24240    1.000
    C37      C        0.66210    0.82430    0.58100    1.000
    C38      C        0.60710    0.75190    0.51950    1.000
    C39      C        0.52300    0.80460    0.48170    1.000
    H25      H        0.49630    0.88580    0.49710    1.000
    C40      C        0.47520    0.73960    0.41990    1.000
    H26      H        0.41860    0.77740    0.39380    1.000
    C41      C        0.51450    0.61900    0.39910    1.000
    C42      C        0.59890    0.56460    0.43620    1.000
    H27      H        0.62610    0.48370    0.42070    1.000
    C43      C        0.64340    0.63080    0.49710    1.000
    H28      H        0.69940    0.59220    0.52340    1.000
    C44      C        0.45600    0.42760    0.24260    1.000
    H29      H        0.47110    0.36300    0.20660    1.000
    C45      C        0.37550    0.57580    0.30300    1.000
    H30      H        0.32550    0.63710    0.31930    1.000
    O11      O        0.85320    0.05160    0.58598    1.000
    O12      O        0.77700    0.23390    0.62530    1.000
    N16      N        0.03260    0.44690    0.33650    1.000
    N17      N        0.97940    0.54200    0.29750    1.000
    N18      N        0.13510    0.50210    0.24240    1.000
    C46      C        0.83790    0.17570    0.58100    1.000
    C47      C        0.89290    0.24810    0.51950    1.000
    C48      C        0.97700    0.19540    0.48170    1.000
    H31      H        0.00370    0.11420    0.49710    1.000
    C49      C        0.02480    0.26040    0.41990    1.000
    H32      H        0.08140    0.22260    0.39380    1.000
    C50      C        0.98550    0.38100    0.39910    1.000
    C51      C        0.90110    0.43540    0.43620    1.000
    H33      H        0.87390    0.51630    0.42070    1.000
    C52      C        0.85660    0.36920    0.49710    1.000
    H34      H        0.80060    0.40780    0.52340    1.000
    C53      C        0.04400    0.57240    0.24260    1.000
    H35      H        0.02890    0.63700    0.20660    1.000
    C54      C        0.12450    0.42420    0.30300    1.000
    H36      H        0.17450    0.36290    0.31930    1.000
    O13      O        0.14680    0.55160    0.08598    1.000
    O14      O        0.22300    0.73390    0.12530    1.000
    N19      N        0.96740    0.94690    0.83650    1.000
    N20      N        0.02060    0.04200    0.79750    1.000
    N21      N        0.86490    0.00210    0.74240    1.000
    C55      C        0.16210    0.67570    0.08100    1.000
    C56      C        0.10710    0.74810    0.01950    1.000
    C57      C        0.02300    0.69540    0.98170    1.000
    H37      H        0.99630    0.61420    0.99710    1.000
    C58      C        0.97520    0.76040    0.91990    1.000
    H38      H        0.91860    0.72260    0.89380    1.000
    C59      C        0.01450    0.88100    0.89910    1.000
    C60      C        0.09890    0.93540    0.93620    1.000
    H39      H        0.12610    0.01630    0.92070    1.000
    C61      C        0.14340    0.86920    0.99710    1.000
    H40      H        0.19940    0.90780    0.02340    1.000
    C62      C        0.95600    0.07240    0.74260    1.000
    H41      H        0.97110    0.13700    0.70660    1.000
    C63      C        0.87550    0.92420    0.80300    1.000
    H42      H        0.82550    0.86290    0.81930    1.000
    O15      O        0.35320    0.44840    0.08598    1.000
    O16      O        0.27700    0.26610    0.12530    1.000
    N22      N        0.53260    0.05310    0.83650    1.000
    N23      N        0.47940    0.95800    0.79750    1.000
    N24      N        0.63510    0.99790    0.74240    1.000
    C64      C        0.33790    0.32430    0.08100    1.000
    C65      C        0.39290    0.25190    0.01950    1.000
    C66      C        0.47700    0.30460    0.98170    1.000
    H43      H        0.50370    0.38580    0.99710    1.000
    C67      C        0.52480    0.23960    0.91990    1.000
    H44      H        0.58140    0.27740    0.89380    1.000
    C68      C        0.48550    0.11900    0.89910    1.000
    C69      C        0.40110    0.06460    0.93620    1.000
    H45      H        0.37390    0.98370    0.92070    1.000
    C70      C        0.35660    0.13080    0.99710    1.000
    H46      H        0.30060    0.09220    0.02340    1.000
    C71      C        0.54400    0.92760    0.74260    1.000
    H47      H        0.52890    0.86300    0.70660    1.000
    C72      C        0.62450    0.07580    0.80300    1.000
    H48      H        0.67450    0.13710    0.81930    1.000
    Cu3      Cu       0.75000    0.00000    0.66528    1.000
    Cu4      Cu       0.25000    0.50000    0.16528    1.000
