# CIF file generated by openbabel 3.1.0, see https://openbabel.org
data_I
_chemical_name_common 'image0'
_cell_length_a 6.082
_cell_length_b 10.5091
_cell_length_c 13.628
_cell_angle_alpha 72.398
_cell_angle_beta 88.98
_cell_angle_gamma 89.043
_space_group_name_H-M_alt 'P 1'
_space_group_name_Hall 'P 1'
loop_
    _symmetry_equiv_pos_as_xyz
    x,y,z
loop_
    _atom_site_label
    _atom_site_type_symbol
    _atom_site_fract_x
    _atom_site_fract_y
    _atom_site_fract_z
    _atom_site_occupancy
    Pr1      Pr       0.25128    0.66056    0.70878    1.000
    N1       N        0.07820    0.88700    0.57550    1.000
    N2       N        0.43400    0.55690    0.89840    1.000
    N3       N        0.08960    0.57220    0.55820    1.000
    O1       O        0.45340    0.77120    0.54720    1.000
    O2       O        0.06330    0.69820    0.85680    1.000
    O3       O        0.84580    0.64140    0.69920    1.000
    O4       O        0.56010    0.52390    0.67540    1.000
    C1       C        0.18670    0.94000    0.48610    1.000
    C2       C        0.89100    0.94740    0.58900    1.000
    C3       C        0.31830    0.57320    0.97730    1.000
    C4       C        0.61760    0.48270    0.92130    1.000
    C5       C        0.88280    0.52890    0.57460    1.000
    C6       C        0.20490    0.54350    0.48520    1.000
    C7       C        0.40000    0.86820    0.47300    1.000
    C8       C        0.10960    0.65780    0.95060    1.000
    C9       C        0.75310    0.56770    0.65620    1.000
    H1       H        0.81050    0.91370    0.64970    1.000
    H2       H        0.70370    0.46840    0.86850    1.000
    H3       H        0.34940    0.57230    0.47320    1.000
    O5       O        0.50280    0.91130    0.38980    1.000
    O6       O        0.99810    0.67920    0.02080    1.000
    Pr2      Pr       0.74872    0.33944    0.29122    1.000
    N4       N        0.92180    0.11300    0.42450    1.000
    N5       N        0.56600    0.44310    0.10160    1.000
    N6       N        0.91040    0.42780    0.44180    1.000
    O7       O        0.54660    0.22880    0.45280    1.000
    O8       O        0.93670    0.30180    0.14320    1.000
    O9       O        0.15420    0.35860    0.30080    1.000
    O10      O        0.43990    0.47610    0.32460    1.000
    C10      C        0.81330    0.06000    0.51390    1.000
    C11      C        0.10900    0.05260    0.41100    1.000
    C12      C        0.68170    0.42680    0.02270    1.000
    C13      C        0.38240    0.51730    0.07870    1.000
    C14      C        0.11720    0.47110    0.42540    1.000
    C15      C        0.79510    0.45650    0.51480    1.000
    C16      C        0.60000    0.13180    0.52700    1.000
    C17      C        0.89040    0.34220    0.04940    1.000
    C18      C        0.24690    0.43230    0.34380    1.000
    H4       H        0.18950    0.08630    0.35030    1.000
    H5       H        0.29630    0.53160    0.13150    1.000
    H6       H        0.65060    0.42770    0.52680    1.000
    O11      O        0.49720    0.08870    0.61020    1.000
    O12      O        0.00190    0.32080    0.97920    1.000
