data_functionalizedCrystal
_audit_creation_method	'EQeq! by Chris Wilmer'
_symmetry_space_group_name_H-M	'P1'
_symmetry_Int_Tables_number	1
_symmetry_cell_setting	triclinic
loop_
_symmetry_equiv_pos_as_xyz
  x,y,z
_cell_length_a	10.5477
_cell_length_b	10.5477
_cell_length_c	10.8997
_cell_angle_alpha	78.8327
_cell_angle_beta	62.4961
_cell_angle_gamma	108.823
loop_
_atom_site_label
_atom_site_type_symbol
_atom_site_fract_x
_atom_site_fract_y
_atom_site_fract_z
_atom_site_charge
Mof_Eu	Eu	0.44823	0.63478	0.62035	2.316
Mof_Eu	Eu	0.75513	0.06858	0.87965	2.305
Mof_Eu	Eu	0.55177	0.36522	0.37965	2.316
Mof_Eu	Eu	0.24487	0.93142	0.12035	2.305
Mof_H 	H 	0.212	0.413	0.931	0.277
Mof_H 	H 	0.8972	0.5135	0.8493	0.254
Mof_H 	H 	0.0418	0.6168	0.6816	0.273
Mof_H 	H 	0.7329	0.3916	0.7167	0.264
Mof_H 	H 	0.844	0.143	0.569	0.277
Mof_H 	H 	0.8628	0.7465	0.6507	0.26
Mof_H 	H 	0.7984	0.7234	0.8184	0.273
Mof_H 	H 	0.6083	0.4496	0.7833	0.264
Mof_H 	H 	0.788	0.587	0.069	0.277
Mof_H 	H 	0.1028	0.4865	0.1507	0.254
Mof_H 	H 	0.9582	0.3832	0.3184	0.273
Mof_H 	H 	0.2671	0.6084	0.2833	0.264
Mof_H 	H 	0.156	0.857	0.431	0.277
Mof_H 	H 	0.1372	0.2535	0.3493	0.26
Mof_H 	H 	0.2016	0.2766	0.1816	0.273
Mof_H 	H 	0.3917	0.5504	0.2167	0.264
Mof_C 	C 	0.0971	0.6488	0.8315	0.62
Mof_C 	C 	0.0133	0.5539	0.7778	-0.832
Mof_C 	C 	0.047	0.4278	0.757	0.734
Mof_C 	C 	0.5988	0.3751	0.6251	0.62
Mof_C 	C 	0.9803	0.9286	0.6685	0.61
Mof_C 	C 	0.8317	0.7911	0.7222	-0.839
Mof_C 	C 	0.6848	0.804	0.743	0.731
Mof_C 	C 	0.5002	0.2239	0.8749	0.619
Mof_C 	C 	0.9029	0.3512	0.1685	0.62
Mof_C 	C 	0.9867	0.4461	0.2222	-0.832
Mof_C 	C 	0.953	0.5722	0.243	0.734
Mof_C 	C 	0.4012	0.6249	0.3749	0.62
Mof_C 	C 	0.0197	0.0714	0.3315	0.61
Mof_C 	C 	0.1683	0.2089	0.2778	-0.839
Mof_C 	C 	0.3152	0.196	0.257	0.731
Mof_C 	C 	0.4998	0.7761	0.1251	0.619
Mof_C 	C 	0.6252	0.3752	0.75	-0.788
Mof_C 	C 	0.3748	0.6248	0.25	-0.788
Mof_O 	O 	0.2474	0.691	0.774	-0.614
Mof_O 	O 	0.0158	0.6875	0.9281	-0.415
Mof_O 	O 	0.1864	0.4419	0.7079	-0.612
Mof_O 	O 	0.932	0.314	0.7858	-0.685
Mof_O 	O 	0.6324	0.2936	0.5582	-0.549
Mof_O 	O 	0.5397	0.4513	0.5914	-0.72
Mof_O 	O 	0.3134	0.4461	0.8815	-0.531
Mof_O 	O 	0.965	0.0214	0.726	-0.612
Mof_O 	O 	0.1156	0.9439	0.5719	-0.413
Mof_O 	O 	0.6498	0.8943	0.7921	-0.608
Mof_O 	O 	0.5998	0.7178	0.7142	-0.68
Mof_O 	O 	0.3518	0.1906	0.9418	-0.548
Mof_O 	O 	0.5427	0.1311	0.9086	-0.719
Mof_O 	O 	0.8276	0.1949	0.6185	-0.532
Mof_O 	O 	0.7526	0.309	0.226	-0.614
Mof_O 	O 	0.9842	0.3125	0.0719	-0.415
Mof_O 	O 	0.8136	0.5581	0.2921	-0.612
Mof_O 	O 	0.068	0.686	0.2142	-0.685
Mof_O 	O 	0.3676	0.7064	0.4418	-0.549
Mof_O 	O 	0.4603	0.5487	0.4086	-0.72
Mof_O 	O 	0.6866	0.5539	0.1185	-0.531
Mof_O 	O 	0.035	0.9786	0.274	-0.612
Mof_O 	O 	0.8844	0.0561	0.4281	-0.413
Mof_O 	O 	0.3502	0.1057	0.2079	-0.608
Mof_O 	O 	0.4002	0.2822	0.2858	-0.68
Mof_O 	O 	0.6482	0.8094	0.0582	-0.548
Mof_O 	O 	0.4573	0.8689	0.0914	-0.719
Mof_O 	O 	0.1724	0.8051	0.3815	-0.532
_end
