data_functionalizedCrystal
_audit_creation_method	'EQeq! by Chris Wilmer'
_symmetry_space_group_name_H-M	'P1'
_symmetry_Int_Tables_number	1
_symmetry_cell_setting	triclinic
loop_
_symmetry_equiv_pos_as_xyz
  x,y,z
_cell_length_a	7.5203
_cell_length_b	13.552
_cell_length_c	15.623
_cell_angle_alpha	90
_cell_angle_beta	90
_cell_angle_gamma	90
loop_
_atom_site_label
_atom_site_type_symbol
_atom_site_fract_x
_atom_site_fract_y
_atom_site_fract_z
_atom_site_charge
Mof_Li	Li	0.4779	0.6755	0.08893	2.678
Mof_Li	Li	0.3372	0.5182	0.9829	3.425
Mof_Li	Li	0.9779	0.8245	0.91107	2.826
Mof_Li	Li	0.8372	0.9818	0.0171	3.238
Mof_Li	Li	0.5221	0.3245	0.58893	2.7
Mof_Li	Li	0.6628	0.4818	0.4829	3.416
Mof_Li	Li	0.0221	0.1755	0.41107	2.701
Mof_Li	Li	0.1628	0.0182	0.5171	3.403
Mof_Li	Li	0.5221	0.3245	0.91107	2.677
Mof_Li	Li	0.6628	0.4818	0.0171	3.424
Mof_Li	Li	0.0221	0.1755	0.08893	2.826
Mof_Li	Li	0.1628	0.0182	0.9829	3.238
Mof_Li	Li	0.4779	0.6755	0.41107	2.7
Mof_Li	Li	0.3372	0.5182	0.5171	3.416
Mof_Li	Li	0.9779	0.8245	0.58893	2.701
Mof_Li	Li	0.8372	0.9818	0.4829	3.403
Mof_H 	H 	0.0318	0.5864	0.9354	0.266
Mof_H 	H 	0.1622	0.5219	0.9483	-0.559
Mof_H 	H 	0.5318	0.9136	0.0646	0.269
Mof_H 	H 	0.6622	0.9781	0.0517	-0.517
Mof_H 	H 	0.9682	0.4136	0.4354	0.27
Mof_H 	H 	0.8378	0.4781	0.4483	-0.555
Mof_H 	H 	0.4682	0.0864	0.5646	0.271
Mof_H 	H 	0.3378	0.0219	0.5517	-0.552
Mof_H 	H 	0.9682	0.4136	0.0646	0.266
Mof_H 	H 	0.8378	0.4781	0.0517	-0.559
Mof_H 	H 	0.4682	0.0864	0.9354	0.269
Mof_H 	H 	0.3378	0.0219	0.9483	-0.517
Mof_H 	H 	0.0318	0.5864	0.5646	0.27
Mof_H 	H 	0.1622	0.5219	0.5517	-0.555
Mof_H 	H 	0.5318	0.9136	0.4354	0.271
Mof_H 	H 	0.6622	0.9781	0.4483	-0.552
Mof_H 	H 	0.712	0.7185	0.75	-0.358
Mof_H 	H 	0.4862	0.4003	0.75	0.009
Mof_H 	H 	0.212	0.7815	0.25	-0.347
Mof_H 	H 	0.9862	0.0997	0.25	-0.02
Mof_H 	H 	0.288	0.2815	0.25	-0.358
Mof_H 	H 	0.5138	0.5997	0.25	0.009
Mof_H 	H 	0.788	0.2185	0.75	-0.347
Mof_H 	H 	0.0138	0.9003	0.75	-0.02
Mof_C 	C 	0.6313	0.60799	0.82688	-0.883
Mof_C 	C 	0.5619	0.51031	0.82924	0.84
Mof_C 	C 	0.1313	0.89201	0.17312	-0.849
Mof_C 	C 	0.0619	0.98969	0.17076	0.781
Mof_C 	C 	0.3687	0.39201	0.32688	-0.881
Mof_C 	C 	0.4381	0.48969	0.32924	0.839
Mof_C 	C 	0.8687	0.10799	0.67312	-0.859
Mof_C 	C 	0.9381	0.01031	0.67076	0.802
Mof_C 	C 	0.3687	0.39201	0.17312	-0.883
Mof_C 	C 	0.4381	0.48969	0.17076	0.84
Mof_C 	C 	0.8687	0.10799	0.82688	-0.849
Mof_C 	C 	0.9381	0.01031	0.82924	0.781
Mof_C 	C 	0.6313	0.60799	0.67312	-0.881
Mof_C 	C 	0.5619	0.51031	0.67076	0.839
Mof_C 	C 	0.1313	0.89201	0.32688	-0.859
Mof_C 	C 	0.0619	0.98969	0.32924	0.802
Mof_C 	C 	0.6657	0.65489	0.75	0.696
Mof_C 	C 	0.5303	0.4644	0.75	-0.959
Mof_C 	C 	0.1657	0.84511	0.25	0.668
Mof_C 	C 	0.0303	0.0356	0.25	-0.895
Mof_C 	C 	0.3343	0.34511	0.25	0.696
Mof_C 	C 	0.4697	0.5356	0.25	-0.959
Mof_C 	C 	0.8343	0.15489	0.75	0.668
Mof_C 	C 	0.9697	0.9644	0.75	-0.895
Mof_S 	S 	0.668	0.6703	0.92237	1.02
Mof_S 	S 	0.168	0.8297	0.07763	1.015
Mof_S 	S 	0.332	0.3297	0.42237	1.016
Mof_S 	S 	0.832	0.1703	0.57763	1.009
Mof_S 	S 	0.332	0.3297	0.07763	1.02
Mof_S 	S 	0.832	0.1703	0.92237	1.015
Mof_S 	S 	0.668	0.6703	0.57763	1.016
Mof_S 	S 	0.168	0.8297	0.42237	1.009
Mof_O 	O 	0.49572	0.6817	0.96436	-1.328
Mof_O 	O 	0.74536	0.76554	0.8993	-1.113
Mof_O 	O 	0.1337	0.57169	0.92182	-0.825
Mof_O 	O 	0.78709	0.61052	0.9756	-1.131
Mof_O 	O 	0.52835	0.46624	0.90333	-2.111
Mof_O 	O 	0.99572	0.8183	0.03564	-1.351
Mof_O 	O 	0.24536	0.73446	0.1007	-1.094
Mof_O 	O 	0.6337	0.92831	0.07818	-0.825
Mof_O 	O 	0.28709	0.88948	0.0244	-1.115
Mof_O 	O 	0.02835	0.03376	0.09667	-2.046
Mof_O 	O 	0.50428	0.3183	0.46436	-1.335
Mof_O 	O 	0.25464	0.23446	0.3993	-1.096
Mof_O 	O 	0.8663	0.42831	0.42182	-0.826
Mof_O 	O 	0.21291	0.38948	0.4756	-1.134
Mof_O 	O 	0.47165	0.53376	0.40333	-2.112
Mof_O 	O 	0.00428	0.1817	0.53564	-1.334
Mof_O 	O 	0.75464	0.26554	0.6007	-1.095
Mof_O 	O 	0.3663	0.07169	0.57818	-0.826
Mof_O 	O 	0.71291	0.11052	0.5244	-1.131
Mof_O 	O 	0.97165	0.96624	0.59667	-2.095
Mof_O 	O 	0.50428	0.3183	0.03564	-1.328
Mof_O 	O 	0.25464	0.23446	0.1007	-1.113
Mof_O 	O 	0.8663	0.42831	0.07818	-0.825
Mof_O 	O 	0.21291	0.38948	0.0244	-1.131
Mof_O 	O 	0.47165	0.53376	0.09667	-2.111
Mof_O 	O 	0.00428	0.1817	0.96436	-1.351
Mof_O 	O 	0.75464	0.26554	0.8993	-1.094
Mof_O 	O 	0.3663	0.07169	0.92182	-0.825
Mof_O 	O 	0.71291	0.11052	0.9756	-1.115
Mof_O 	O 	0.97165	0.96624	0.90333	-2.046
Mof_O 	O 	0.49572	0.6817	0.53564	-1.335
Mof_O 	O 	0.74536	0.76554	0.6007	-1.096
Mof_O 	O 	0.1337	0.57169	0.57818	-0.826
Mof_O 	O 	0.78709	0.61052	0.5244	-1.134
Mof_O 	O 	0.52835	0.46624	0.59667	-2.112
Mof_O 	O 	0.99572	0.8183	0.46436	-1.334
Mof_O 	O 	0.24536	0.73446	0.3993	-1.095
Mof_O 	O 	0.6337	0.92831	0.42182	-0.826
Mof_O 	O 	0.28709	0.88948	0.4756	-1.131
Mof_O 	O 	0.02835	0.03376	0.40333	-2.095
_end
