data_functionalizedCrystal
_audit_creation_method	'EQeq! by Chris Wilmer'
_symmetry_space_group_name_H-M	'P1'
_symmetry_Int_Tables_number	1
_symmetry_cell_setting	triclinic
loop_
_symmetry_equiv_pos_as_xyz
  x,y,z
_cell_length_a	11.5312
_cell_length_b	14.8219
_cell_length_c	14.8219
_cell_angle_alpha	90
_cell_angle_beta	90
_cell_angle_gamma	90
loop_
_atom_site_label
_atom_site_type_symbol
_atom_site_fract_x
_atom_site_fract_y
_atom_site_fract_z
_atom_site_charge
Mof_Zn	Zn	0.75	0.88747	0.11253	1.232
Mof_Zn	Zn	0.25	0.11253	0.88747	1.232
Mof_Zn	Zn	0.5	0.38747	0.38747	1.234
Mof_Zn	Zn	2.95201e-33	0.61253	0.61253	1.223
Mof_H 	H 	0.4386	0.3665	0.0894	0.248
Mof_H 	H 	0.5584	0.4077	0.0537	0.235
Mof_H 	H 	0.5463	0.3013	0.0698	0.241
Mof_H 	H 	0.8885	0.3113	0.291	0.256
Mof_H 	H 	0.9021	0.4165	0.2691	0.255
Mof_H 	H 	0.8818	0.3838	0.3708	0.265
Mof_H 	H 	0.6523	0.2	0.2184	0.082
Mof_H 	H 	0.6538	0.0447	0.2124	-0.012
Mof_H 	H 	0.8918	0.0451	0.0227	0.002
Mof_H 	H 	0.8996	0.2008	0.0234	0.08
Mof_H 	H 	0.9386	0.6335	0.9106	0.293
Mof_H 	H 	0.0584	0.5923	0.9463	0.253
Mof_H 	H 	0.0463	0.6987	0.9302	0.257
Mof_H 	H 	0.3885	0.6887	0.709	0.24
Mof_H 	H 	0.4021	0.5835	0.7309	0.238
Mof_H 	H 	0.3818	0.6162	0.6292	0.25
Mof_H 	H 	0.1523	0.8	0.7816	0.078
Mof_H 	H 	0.1538	0.9553	0.7876	-0.015
Mof_H 	H 	0.3918	0.9549	0.9773	-0.005
Mof_H 	H 	0.3996	0.7992	0.9766	0.073
Mof_H 	H 	0.1886	0.4106	0.8665	0.243
Mof_H 	H 	0.3084	0.4463	0.9077	0.233
Mof_H 	H 	0.2963	0.4302	0.8013	0.24
Mof_H 	H 	0.6385	0.209	0.8113	0.243
Mof_H 	H 	0.6521	0.2309	0.9165	0.24
Mof_H 	H 	0.6318	0.1292	0.8838	0.252
Mof_H 	H 	0.4023	0.2816	0.7	0.082
Mof_H 	H 	0.4038	0.2876	0.5447	-0.013
Mof_H 	H 	0.6418	0.4773	0.5451	-0.005
Mof_H 	H 	0.6496	0.4766	0.7008	0.074
Mof_H 	H 	0.6886	0.5894	0.1335	0.249
Mof_H 	H 	0.8084	0.5537	0.0923	0.24
Mof_H 	H 	0.7963	0.5698	0.1987	0.246
Mof_H 	H 	0.1385	0.791	0.1887	0.254
Mof_H 	H 	0.1521	0.7691	0.0835	0.252
Mof_H 	H 	0.1318	0.8708	0.1162	0.262
Mof_H 	H 	0.9023	0.7184	0.3	0.074
Mof_H 	H 	0.9038	0.7124	0.4553	-0.014
Mof_H 	H 	0.1418	0.5227	0.4549	-0.004
Mof_H 	H 	0.1496	0.5234	0.2992	0.067
Mof_H 	H 	0.3114	0.1335	0.5894	0.247
Mof_H 	H 	0.1916	0.0923	0.5537	0.23
Mof_H 	H 	0.2037	0.1987	0.5698	0.236
Mof_H 	H 	0.8615	0.1887	0.791	0.226
Mof_H 	H 	0.8479	0.0835	0.7691	0.223
Mof_H 	H 	0.8682	0.1162	0.8708	0.236
Mof_H 	H 	0.0977	0.3	0.7184	0.091
Mof_H 	H 	0.0962	0.4553	0.7124	-0.012
Mof_H 	H 	0.8582	0.4549	0.5227	-0.007
Mof_H 	H 	0.8504	0.2992	0.5234	0.078
Mof_H 	H 	0.8114	0.8665	0.4106	0.252
Mof_H 	H 	0.6916	0.9077	0.4463	0.237
Mof_H 	H 	0.7037	0.8013	0.4302	0.243
Mof_H 	H 	0.3615	0.8113	0.209	0.239
Mof_H 	H 	0.3479	0.9165	0.2309	0.236
Mof_H 	H 	0.3682	0.8838	0.1292	0.248
Mof_H 	H 	0.5977	0.7	0.2816	0.082
Mof_H 	H 	0.5962	0.5447	0.2876	-0.013
Mof_H 	H 	0.3582	0.5451	0.4773	-0.006
Mof_H 	H 	0.3504	0.7008	0.4766	0.072
Mof_H 	H 	0.5614	0.0894	0.3665	0.249
Mof_H 	H 	0.4416	0.0537	0.4077	0.236
Mof_H 	H 	0.4537	0.0698	0.3013	0.242
Mof_H 	H 	0.1115	0.291	0.3113	0.226
Mof_H 	H 	0.0979	0.2691	0.4165	0.222
Mof_H 	H 	0.1182	0.3708	0.3838	0.236
Mof_H 	H 	0.3477	0.2184	0.2	0.082
Mof_H 	H 	0.3462	0.2124	0.0447	-0.013
Mof_H 	H 	0.1082	0.0227	0.0451	-0.012
Mof_H 	H 	0.1004	0.0234	0.2008	0.066
Mof_H 	H 	0.0614	0.9106	0.6335	0.205
Mof_H 	H 	0.9416	0.9463	0.5923	0.218
Mof_H 	H 	0.9537	0.9302	0.6987	0.227
Mof_H 	H 	0.6115	0.709	0.6887	0.241
Mof_H 	H 	0.5979	0.7309	0.5835	0.239
Mof_H 	H 	0.6182	0.6292	0.6162	0.251
Mof_H 	H 	0.8477	0.7816	0.8	0.086
Mof_H 	H 	0.8462	0.7876	0.9553	-0.01
Mof_H 	H 	0.6082	0.9773	0.9549	-0.005
Mof_H 	H 	0.6004	0.9766	0.7992	0.073
Mof_C 	C 	0.5232	0.3611	0.09177	-0.75
Mof_C 	C 	0.5638	0.37273	0.18785	0.433
Mof_C 	C 	0.6853	0.36623	0.20717	-0.315
Mof_C 	C 	0.7342	0.37948	0.29427	0.447
Mof_C 	C 	0.8628	0.3721	0.3074	-0.789
Mof_C 	C 	0.7766	0.21838	0.12105	0.069
Mof_C 	C 	0.7023	0.16966	0.17752	-0.151
Mof_C 	C 	0.7031	0.07722	0.1727	0.083
Mof_C 	C 	0.842	0.07732	0.06228	0.076
Mof_C 	C 	0.8477	0.17008	0.06263	-0.15
Mof_C 	C 	0.0232	0.6389	0.90823	-0.836
Mof_C 	C 	0.0638	0.62727	0.81215	0.413
Mof_C 	C 	0.1853	0.63377	0.79283	-0.308
Mof_C 	C 	0.2342	0.62052	0.70573	0.434
Mof_C 	C 	0.3628	0.6279	0.6926	-0.761
Mof_C 	C 	0.2766	0.78162	0.87895	0.067
Mof_C 	C 	0.2023	0.83034	0.82248	-0.153
Mof_C 	C 	0.2031	0.92278	0.8273	0.079
Mof_C 	C 	0.342	0.92268	0.93772	0.073
Mof_C 	C 	0.3477	0.82992	0.93737	-0.153
Mof_C 	C 	0.2732	0.40823	0.8611	-0.746
Mof_C 	C 	0.3138	0.31215	0.87273	0.43
Mof_C 	C 	0.4353	0.29283	0.86623	-0.311
Mof_C 	C 	0.4842	0.20573	0.87948	0.438
Mof_C 	C 	0.6128	0.1926	0.8721	-0.766
Mof_C 	C 	0.5266	0.37895	0.71838	0.068
Mof_C 	C 	0.4523	0.32248	0.66966	-0.152
Mof_C 	C 	0.4531	0.3273	0.57722	0.081
Mof_C 	C 	0.592	0.43772	0.57732	0.074
Mof_C 	C 	0.5977	0.43737	0.67008	-0.152
Mof_C 	C 	0.7732	0.59177	0.1389	-0.752
Mof_C 	C 	0.8138	0.68785	0.12727	0.432
Mof_C 	C 	0.9353	0.70717	0.13377	-0.296
Mof_C 	C 	0.9842	0.79427	0.12052	0.475
Mof_C 	C 	0.1128	0.8074	0.1279	-0.827
Mof_C 	C 	0.0266	0.62105	0.28162	0.03
Mof_C 	C 	0.9523	0.67752	0.33034	-0.113
Mof_C 	C 	0.9531	0.6727	0.42278	0.103
Mof_C 	C 	0.092	0.56228	0.42268	0.059
Mof_C 	C 	0.0977	0.56263	0.32992	-0.142
Mof_C 	C 	0.2268	0.1389	0.59177	-0.746
Mof_C 	C 	0.1862	0.12727	0.68785	0.43
Mof_C 	C 	0.0647	0.13377	0.70717	-0.326
Mof_C 	C 	0.0158	0.12052	0.79427	0.395
Mof_C 	C 	0.8872	0.1279	0.8074	-0.693
Mof_C 	C 	0.9734	0.28162	0.62105	0.108
Mof_C 	C 	0.0477	0.33034	0.67752	-0.194
Mof_C 	C 	0.0469	0.42278	0.6727	0.06
Mof_C 	C 	0.908	0.42268	0.56228	0.088
Mof_C 	C 	0.9023	0.32992	0.56263	-0.164
Mof_C 	C 	0.7268	0.8611	0.40823	-0.753
Mof_C 	C 	0.6862	0.87273	0.31215	0.432
Mof_C 	C 	0.5647	0.86623	0.29283	-0.311
Mof_C 	C 	0.5158	0.87948	0.20573	0.436
Mof_C 	C 	0.3872	0.8721	0.1926	-0.76
Mof_C 	C 	0.4734	0.71838	0.37895	0.068
Mof_C 	C 	0.5477	0.66966	0.32248	-0.153
Mof_C 	C 	0.5469	0.57722	0.3273	0.082
Mof_C 	C 	0.408	0.57732	0.43772	0.073
Mof_C 	C 	0.4023	0.67008	0.43737	-0.153
Mof_C 	C 	0.4768	0.09177	0.3611	-0.75
Mof_C 	C 	0.4362	0.18785	0.37273	0.43
Mof_C 	C 	0.3147	0.20717	0.36623	-0.306
Mof_C 	C 	0.2658	0.29427	0.37948	0.427
Mof_C 	C 	0.1372	0.3074	0.3721	-0.738
Mof_C 	C 	0.2234	0.12105	0.21838	0.067
Mof_C 	C 	0.2977	0.17752	0.16966	-0.153
Mof_C 	C 	0.2969	0.1727	0.07722	0.08
Mof_C 	C 	0.158	0.06228	0.07732	0.071
Mof_C 	C 	0.1523	0.06263	0.17008	-0.155
Mof_C 	C 	0.9768	0.90823	0.6389	-0.667
Mof_C 	C 	0.9362	0.81215	0.62727	0.449
Mof_C 	C 	0.8147	0.79283	0.63377	-0.313
Mof_C 	C 	0.7658	0.70573	0.62052	0.439
Mof_C 	C 	0.6372	0.6926	0.6279	-0.765
Mof_C 	C 	0.7234	0.87895	0.78162	0.069
Mof_C 	C 	0.7977	0.82248	0.83034	-0.151
Mof_C 	C 	0.7969	0.8273	0.92278	0.084
Mof_C 	C 	0.658	0.93772	0.92268	0.075
Mof_C 	C 	0.6523	0.93737	0.82992	-0.152
Mof_S 	S 	0.77979	0.33706	0.11858	-0.016
Mof_S 	S 	0.27979	0.66294	0.88142	-0.026
Mof_S 	S 	0.52979	0.38142	0.83706	-0.022
Mof_S 	S 	0.02979	0.61858	0.16294	-0.053
Mof_S 	S 	0.97021	0.16294	0.61858	0.006
Mof_S 	S 	0.47021	0.83706	0.38142	-0.026
Mof_S 	S 	0.22021	0.11858	0.33706	-0.033
Mof_S 	S 	0.72021	0.88142	0.66294	-0.023
Mof_N 	N 	0.7694	0.03001	0.11523	-0.238
Mof_N 	N 	0.2694	0.96999	0.88477	-0.24
Mof_N 	N 	0.5194	0.38477	0.53001	-0.24
Mof_N 	N 	0.0194	0.61523	0.46999	-0.258
Mof_N 	N 	0.9806	0.46999	0.61523	-0.219
Mof_N 	N 	0.4806	0.53001	0.38477	-0.24
Mof_N 	N 	0.2306	0.11523	0.03001	-0.241
Mof_N 	N 	0.7306	0.88477	0.96999	-0.238
Mof_O 	O 	0.48713	0.38701	0.24605	-0.449
Mof_O 	O 	0.67603	0.39733	0.36487	-0.459
Mof_O 	O 	0.98713	0.61299	0.75395	-0.414
Mof_O 	O 	0.17603	0.60267	0.63513	-0.461
Mof_O 	O 	0.23713	0.25395	0.88701	-0.452
Mof_O 	O 	0.42603	0.13513	0.89733	-0.457
Mof_O 	O 	0.73713	0.74605	0.11299	-0.45
Mof_O 	O 	0.92603	0.86487	0.10267	-0.459
Mof_O 	O 	0.26287	0.11299	0.74605	-0.448
Mof_O 	O 	0.07397	0.10267	0.86487	-0.457
Mof_O 	O 	0.76287	0.88701	0.25395	-0.446
Mof_O 	O 	0.57397	0.89733	0.13513	-0.458
Mof_O 	O 	0.51287	0.24605	0.38701	-0.448
Mof_O 	O 	0.32397	0.36487	0.39733	-0.455
Mof_O 	O 	0.01287	0.75395	0.61299	-0.479
Mof_O 	O 	0.82397	0.63513	0.60267	-0.449
_end
