data_functionalizedCrystal
_audit_creation_method	'EQeq! by Chris Wilmer'
_symmetry_space_group_name_H-M	'P1'
_symmetry_Int_Tables_number	1
_symmetry_cell_setting	triclinic
loop_
_symmetry_equiv_pos_as_xyz
  x,y,z
_cell_length_a	6.0407
_cell_length_b	12.3297
_cell_length_c	23.58
_cell_angle_alpha	90
_cell_angle_beta	90
_cell_angle_gamma	94.0532
loop_
_atom_site_label
_atom_site_type_symbol
_atom_site_fract_x
_atom_site_fract_y
_atom_site_fract_z
_atom_site_charge
Mof_Gd	Gd	0.01157	0.10983	0.32861	1.547
Mof_Gd	Gd	0.48843	0.39017	0.82861	1.638
Mof_Gd	Gd	0.51157	0.60983	0.17139	1.626
Mof_Gd	Gd	0.98843	0.89017	0.67139	1.674
Mof_Cu	Cu	-0	0	-0	0.885
Mof_Cu	Cu	0.5	0.5	0.5	0.926
Mof_H 	H 	0.322	0.3568	0.6039	0.048
Mof_H 	H 	0.5467	0.8749	0.8298	0.045
Mof_H 	H 	0.0467	0.3749	0.6702	0.056
Mof_H 	H 	0.4533	0.1251	0.1702	0.069
Mof_H 	H 	0.178	0.1432	0.1039	0.035
Mof_H 	H 	0.9533	0.6251	0.3298	0.055
Mof_H 	H 	0.4682	0.7259	0.6642	0.032
Mof_H 	H 	0.678	0.6432	0.3961	0.055
Mof_H 	H 	0.8919	0.9249	0.2076	0.075
Mof_H 	H 	0.822	0.8568	0.8961	0.065
Mof_H 	H 	0.5318	0.2741	0.3358	0.036
Mof_H 	H 	0.0318	0.7741	0.1642	0.015
Mof_H 	H 	0.6081	0.5751	0.7076	0.033
Mof_H 	H 	0.3919	0.4249	0.2924	0.031
Mof_H 	H 	0.1081	0.0751	0.7924	0.003
Mof_H 	H 	0.9682	0.2259	0.8358	0.046
Mof_C 	C 	0.6992	0.8334	0.0929	0.429
Mof_C 	C 	0.4335	0.0737	0.1415	-0.035
Mof_C 	C 	0.5665	0.9263	0.8585	0.062
Mof_C 	C 	0.6322	0.0688	0.9442	-0.044
Mof_C 	C 	0.2672	0.0849	0.1014	0.035
Mof_C 	C 	0.9655	0.5796	0.5957	-0.037
Mof_C 	C 	0.9848	0.5107	0.1969	0.437
Mof_C 	C 	0.8008	0.6666	0.5929	0.426
Mof_C 	C 	0.5864	0.1721	0.7477	-0.009
Mof_C 	C 	0.4655	0.0796	0.9043	-0.043
Mof_C 	C 	0.3008	0.1666	0.9071	0.422
Mof_C 	C 	0.7672	0.5849	0.3986	0.019
Mof_C 	C 	0.8897	0.1909	0.8063	0.009
Mof_C 	C 	0.7328	0.9151	0.8986	0.012
Mof_C 	C 	0.1006	0.2684	0.222	0.314
Mof_C 	C 	0.6557	0.0722	0.7297	-0.075
Mof_C 	C 	0.8994	0.7316	0.778	0.357
Mof_C 	C 	0.1322	0.5688	0.5558	-0.027
Mof_C 	C 	0.5294	0.4027	0.2814	0.03
Mof_C 	C 	0.1834	0.6451	0.508	0.29
Mof_C 	C 	0.1557	0.5722	0.7703	-0.038
Mof_C 	C 	0.4706	0.5973	0.7186	0.03
Mof_C 	C 	0.6006	0.7684	0.278	0.349
Mof_C 	C 	0.0345	0.4204	0.4043	-0.074
Mof_C 	C 	0.0152	0.4893	0.8031	0.382
Mof_C 	C 	0.3897	0.6909	0.6937	0.025
Mof_C 	C 	0.6834	0.1451	0.992	0.333
Mof_C 	C 	0.5152	0.9893	0.6969	0.432
Mof_C 	C 	0.3443	0.9278	0.2703	-0.009
Mof_C 	C 	0.1992	0.3334	0.4071	0.426
Mof_C 	C 	0.6103	0.3091	0.3063	0.026
Mof_C 	C 	0.3166	0.8549	0.008	0.24
Mof_C 	C 	0.0665	0.4263	0.6415	0.002
Mof_C 	C 	0.0294	0.9027	0.2186	-0.023
Mof_C 	C 	0.9706	0.0973	0.7814	0.063
Mof_C 	C 	0.3678	0.9312	0.0558	0.027
Mof_C 	C 	0.2328	0.4151	0.6014	0.025
Mof_C 	C 	0.0864	0.6721	0.7523	-0.025
Mof_C 	C 	0.1103	0.8091	0.1937	0.048
Mof_C 	C 	0.9136	0.3279	0.2477	0.022
Mof_C 	C 	0.8678	0.4312	0.4442	0.012
Mof_C 	C 	0.9335	0.5737	0.3585	0.04
Mof_C 	C 	0.8166	0.3549	0.492	0.282
Mof_C 	C 	0.5345	0.9204	0.0957	-0.059
Mof_C 	C 	0.4848	0.0107	0.3031	0.356
Mof_C 	C 	0.3994	0.2316	0.722	0.344
Mof_C 	C 	0.4136	0.8279	0.2523	-0.019
Mof_C 	C 	0.8443	0.4278	0.2297	-0.058
Mof_N 	N 	0.2008	0.7299	0.7122	-0.178
Mof_N 	N 	0.8538	0.0407	0.7426	-0.174
Mof_N 	N 	0.6462	0.4593	0.2426	-0.16
Mof_N 	N 	0.7651	0.9872	0.9407	-0.143
Mof_N 	N 	0.5645	0.9915	0.1399	-0.06
Mof_N 	N 	0.2992	0.7701	0.2122	-0.181
Mof_N 	N 	0.7008	0.2299	0.7878	-0.174
Mof_N 	N 	0.9355	0.5085	0.6399	-0.084
Mof_N 	N 	0.7349	0.5128	0.4407	-0.183
Mof_N 	N 	0.0645	0.4915	0.3601	-0.1
Mof_N 	N 	0.3538	0.5407	0.7574	-0.164
Mof_N 	N 	0.4355	0.0085	0.8601	-0.115
Mof_N 	N 	0.2349	0.0128	0.0593	-0.217
Mof_N 	N 	0.7992	0.2701	0.2878	-0.171
Mof_N 	N 	0.1462	0.9593	0.2574	-0.147
Mof_N 	N 	0.2651	0.4872	0.5593	-0.182
Mof_O 	O 	0.6186	0.9309	0.6629	-0.467
Mof_O 	O 	0.4084	0.7696	0.0052	-0.258
Mof_O 	O 	0.8366	0.7465	0.6253	-0.49
Mof_O 	O 	0.6656	0.7959	0.3258	-0.264
Mof_O 	O 	0.8344	0.7041	0.8258	-0.271
Mof_O 	O 	0.6784	0.3867	0.529	-0.346
Mof_O 	O 	0.8814	0.5691	0.1629	-0.465
Mof_O 	O 	0.8344	0.8092	0.7495	-0.437
Mof_O 	O 	0.641	0.6505	0.5617	-0.347
Mof_O 	O 	0.9084	0.2696	0.4948	-0.248
Mof_O 	O 	0.6904	0.0224	0.2931	-0.455
Mof_O 	O 	0.3344	0.2041	0.6742	-0.286
Mof_O 	O 	0.3814	0.0691	0.3371	-0.45
Mof_O 	O 	0.859	0.8495	0.0617	-0.337
Mof_O 	O 	0.141	0.1505	0.9383	-0.352
Mof_O 	O 	0.6634	0.7535	0.1253	-0.487
Mof_O 	O 	0.3096	0.9776	0.7069	-0.473
Mof_O 	O 	0.359	0.3495	0.4383	-0.351
Mof_O 	O 	0.1656	0.1908	0.2505	-0.429
Mof_O 	O 	0.3216	0.6133	0.471	-0.349
Mof_O 	O 	0.3366	0.2465	0.8747	-0.491
Mof_O 	O 	0.1186	0.4309	0.8371	-0.461
Mof_O 	O 	0.6656	0.6908	0.2495	-0.431
Mof_O 	O 	0.5916	0.2304	0.9948	-0.253
Mof_O 	O 	0.1656	0.2959	0.1742	-0.28
Mof_O 	O 	0.8096	0.4776	0.7931	-0.459
Mof_O 	O 	0.1634	0.2535	0.3747	-0.486
Mof_O 	O 	0.1784	0.8867	0.971	-0.302
Mof_O 	O 	0.8216	0.1133	0.029	-0.373
Mof_O 	O 	0.0916	0.7304	0.5052	-0.258
Mof_O 	O 	0.3344	0.3092	0.7505	-0.439
Mof_O 	O 	0.1904	0.5224	0.2069	-0.498
_end
