data_functionalizedCrystal
_audit_creation_method	'EQeq! by Chris Wilmer'
_symmetry_space_group_name_H-M	'P1'
_symmetry_Int_Tables_number	1
_symmetry_cell_setting	triclinic
loop_
_symmetry_equiv_pos_as_xyz
  x,y,z
_cell_length_a	10.37
_cell_length_b	10.025
_cell_length_c	19.575
_cell_angle_alpha	90
_cell_angle_beta	92.13
_cell_angle_gamma	90
loop_
_atom_site_label
_atom_site_type_symbol
_atom_site_fract_x
_atom_site_fract_y
_atom_site_fract_z
_atom_site_charge
Mof_Zn	Zn	0.99133	0.74199	0.34104	1.21
Mof_O 	O 	0.934	0.6358	0.4463	-0.335
Mof_O 	O 	0.8034	0.6816	0.3602	-0.418
Mof_O 	O 	0.0469	0.937	0.4348	-0.286
Mof_O 	O 	0.1649	0.7933	0.3791	-0.433
Mof_N 	N 	0.1682	0.5517	0.2712	-0.057
Mof_N 	N 	0.0397	0.5817	0.2827	-0.249
Mof_N 	N 	0.8413	0.4814	0.2516	-0.348
Mof_H 	H 	0.79824	0.54358	0.27059	0.165
Mof_H 	H 	0.80147	0.41621	0.23151	0.158
Mof_N 	N 	0.0484	0.3997	0.2217	-0.249
Mof_N 	N 	0.171	0.4451	0.2339	-0.055
Mof_C 	C 	0.4844	0.5382	0.4711	0.032
Mof_C 	C 	0.5058	0.9643	0.4684	0.031
Mof_C 	C 	0.7144	0.5701	0.4563	-0.052
Mof_C 	C 	0.5882	0.5908	0.4329	-0.051
Mof_H 	H 	0.57104	0.63825	0.39273	0.063
Mof_C 	C 	0.2748	0.9387	0.4595	-0.044
Mof_C 	C 	0.6316	0.9444	0.4434	-0.078
Mof_H 	H 	0.64126	0.90166	0.40177	0.068
Mof_C 	C 	0.3926	0.916	0.4348	-0.054
Mof_H 	H 	0.39932	0.86743	0.39459	0.062
Mof_C 	C 	0.9725	0.486	0.2532	0.224
Mof_C 	C 	0.2625	0.0128	0.5202	-0.009
Mof_H 	H 	0.18082	0.03257	0.53538	0.06
Mof_C 	C 	0.3557	0.5588	0.4487	-0.082
Mof_H 	H 	0.33741	0.6084	0.40936	0.075
Mof_C 	C 	0.823	0.6337	0.4194	0.3
Mof_C 	C 	0.155	0.8886	0.4219	0.3
Mof_C 	C 	0.7442	0.4947	0.515	0.001
Mof_H 	H 	0.82966	0.48083	0.52936	0.057
Mof_Zn	Zn	0.00867	0.24199	0.15896	1.208
Mof_O 	O 	0.066	0.1358	0.0537	-0.339
Mof_O 	O 	0.1966	0.1816	0.1398	-0.42
Mof_O 	O 	0.9531	0.437	0.0652	-0.289
Mof_O 	O 	0.8351	0.2933	0.1209	-0.434
Mof_N 	N 	0.8318	0.0517	0.2288	-0.056
Mof_N 	N 	0.9603	0.0817	0.2173	-0.248
Mof_N 	N 	0.1587	0.9814	0.2484	-0.345
Mof_H 	H 	0.20176	0.04358	0.22941	0.161
Mof_H 	H 	0.19853	0.91621	0.26849	0.157
Mof_N 	N 	0.9516	0.8997	0.2783	-0.251
Mof_N 	N 	0.829	0.9451	0.2661	-0.057
Mof_C 	C 	0.5156	0.0382	0.0289	0.032
Mof_C 	C 	0.4942	0.4643	0.0316	0.031
Mof_C 	C 	0.2856	0.0701	0.0437	-0.058
Mof_C 	C 	0.4118	0.0908	0.0671	-0.049
Mof_H 	H 	0.42896	0.13825	0.10727	0.062
Mof_C 	C 	0.7252	0.4387	0.0405	-0.047
Mof_C 	C 	0.3684	0.4444	0.0566	-0.08
Mof_H 	H 	0.35874	0.40166	0.09823	0.069
Mof_C 	C 	0.6074	0.416	0.0652	-0.052
Mof_H 	H 	0.60068	0.36743	0.10541	0.061
Mof_C 	C 	0.0275	0.986	0.2468	0.227
Mof_C 	C 	0.7375	0.5128	0.9798	-0.004
Mof_H 	H 	0.81918	0.53257	0.96462	0.06
Mof_C 	C 	0.6443	0.0588	0.0513	-0.084
Mof_H 	H 	0.66259	0.1084	0.09064	0.076
Mof_C 	C 	0.177	0.1337	0.0806	0.302
Mof_C 	C 	0.845	0.3886	0.0781	0.301
Mof_C 	C 	0.2558	0.9947	0.985	0.007
Mof_H 	H 	0.17034	0.98083	0.97064	0.057
Mof_Zn	Zn	0.00867	0.25801	0.65896	1.209
Mof_O 	O 	0.066	0.3642	0.5537	-0.336
Mof_O 	O 	0.1966	0.3184	0.6398	-0.419
Mof_O 	O 	0.9531	0.063	0.5652	-0.287
Mof_O 	O 	0.8351	0.2067	0.6209	-0.434
Mof_N 	N 	0.8318	0.4483	0.7288	-0.058
Mof_N 	N 	0.9603	0.4183	0.7173	-0.25
Mof_N 	N 	0.1587	0.5186	0.7484	-0.349
Mof_H 	H 	0.20176	0.45642	0.72941	0.165
Mof_H 	H 	0.19853	0.58379	0.76849	0.158
Mof_N 	N 	0.9516	0.6003	0.7783	-0.249
Mof_N 	N 	0.829	0.5549	0.7661	-0.055
Mof_C 	C 	0.5156	0.4618	0.5289	0.032
Mof_C 	C 	0.4942	0.0357	0.5316	0.031
Mof_C 	C 	0.2856	0.4299	0.5437	-0.052
Mof_C 	C 	0.4118	0.4092	0.5671	-0.051
Mof_H 	H 	0.42896	0.36175	0.60727	0.063
Mof_C 	C 	0.7252	0.0613	0.5405	-0.044
Mof_C 	C 	0.3684	0.0556	0.5566	-0.078
Mof_H 	H 	0.35874	0.09834	0.59823	0.068
Mof_C 	C 	0.6074	0.084	0.5652	-0.054
Mof_H 	H 	0.60068	0.13257	0.60541	0.062
Mof_C 	C 	0.0275	0.514	0.7468	0.224
Mof_C 	C 	0.7375	0.9872	0.4798	-0.009
Mof_H 	H 	0.81918	0.96743	0.46462	0.06
Mof_C 	C 	0.6443	0.4412	0.5513	-0.082
Mof_H 	H 	0.66259	0.3916	0.59064	0.075
Mof_C 	C 	0.177	0.3663	0.5806	0.3
Mof_C 	C 	0.845	0.1114	0.5781	0.3
Mof_C 	C 	0.2558	0.5053	0.485	0.001
Mof_H 	H 	0.17034	0.51917	0.47064	0.057
Mof_Zn	Zn	0.99133	0.75801	0.84104	1.208
Mof_O 	O 	0.934	0.8642	0.9463	-0.339
Mof_O 	O 	0.8034	0.8184	0.8602	-0.42
Mof_O 	O 	0.0469	0.563	0.9348	-0.289
Mof_O 	O 	0.1649	0.7067	0.8791	-0.434
Mof_N 	N 	0.1682	0.9483	0.7712	-0.056
Mof_N 	N 	0.0397	0.9183	0.7827	-0.248
Mof_N 	N 	0.8413	0.0186	0.7516	-0.345
Mof_H 	H 	0.79824	0.95642	0.77059	0.161
Mof_H 	H 	0.80147	0.08379	0.73151	0.157
Mof_N 	N 	0.0484	0.1003	0.7217	-0.251
Mof_N 	N 	0.171	0.0549	0.7339	-0.057
Mof_C 	C 	0.4844	0.9618	0.9711	0.032
Mof_C 	C 	0.5058	0.5357	0.9684	0.031
Mof_C 	C 	0.7144	0.9299	0.9563	-0.058
Mof_C 	C 	0.5882	0.9092	0.9329	-0.049
Mof_H 	H 	0.57104	0.86175	0.89273	0.062
Mof_C 	C 	0.2748	0.5613	0.9595	-0.047
Mof_C 	C 	0.6316	0.5556	0.9434	-0.08
Mof_H 	H 	0.64126	0.59834	0.90177	0.069
Mof_C 	C 	0.3926	0.584	0.9348	-0.052
Mof_H 	H 	0.39932	0.63257	0.89459	0.061
Mof_C 	C 	0.9725	0.014	0.7532	0.227
Mof_C 	C 	0.2625	0.4872	0.0202	-0.004
Mof_H 	H 	0.18082	0.46743	0.03538	0.06
Mof_C 	C 	0.3557	0.9412	0.9487	-0.084
Mof_H 	H 	0.33741	0.8916	0.90936	0.076
Mof_C 	C 	0.823	0.8663	0.9194	0.302
Mof_C 	C 	0.155	0.6114	0.9219	0.301
Mof_C 	C 	0.7442	0.0053	0.015	0.007
Mof_H 	H 	0.82966	0.01917	0.02936	0.057
_end
