# CIF file generated by openbabel 3.1.0, see https://openbabel.org
data_I
_chemical_name_common 'image0'
_cell_length_a 15.1267
_cell_length_b 15.1267
_cell_length_c 12.0363
_cell_angle_alpha 90
_cell_angle_beta 90
_cell_angle_gamma 90
_space_group_name_H-M_alt 'P 1'
_space_group_name_Hall 'P 1'
loop_
    _symmetry_equiv_pos_as_xyz
    x,y,z
loop_
    _atom_site_label
    _atom_site_type_symbol
    _atom_site_fract_x
    _atom_site_fract_y
    _atom_site_fract_z
    _atom_site_occupancy
    O1       O        0.60130    0.29040    0.75590    1.000
    O2       O        0.61800    0.37710    0.60850    1.000
    C1       C        0.59580    0.36270    0.70520    1.000
    C2       C        0.54670    0.43560    0.76040    1.000
    C3       C        0.54760    0.43320    0.87940    1.000
    H1       H        0.57318    0.38162    0.90735    1.000
    O3       O        0.10130    0.79040    0.25590    1.000
    O4       O        0.11800    0.87710    0.10850    1.000
    C4       C        0.09580    0.86270    0.20520    1.000
    C5       C        0.04670    0.93560    0.26040    1.000
    C6       C        0.04760    0.93320    0.37940    1.000
    H2       H        0.07318    0.88162    0.40735    1.000
    O5       O        0.89870    0.20960    0.25590    1.000
    O6       O        0.88200    0.12290    0.10850    1.000
    C7       C        0.90420    0.13730    0.20520    1.000
    C8       C        0.95330    0.06440    0.26040    1.000
    C9       C        0.95240    0.06680    0.37940    1.000
    H3       H        0.92682    0.11838    0.40735    1.000
    O7       O        0.39870    0.70960    0.75590    1.000
    O8       O        0.38200    0.62290    0.60850    1.000
    C10      C        0.40420    0.63730    0.70520    1.000
    C11      C        0.45330    0.56440    0.76040    1.000
    C12      C        0.45240    0.56680    0.87940    1.000
    H4       H        0.42682    0.61838    0.90735    1.000
    O9       O        0.70960    0.10130    0.00590    1.000
    O10      O        0.62290    0.11800    0.85850    1.000
    C13      C        0.63730    0.09580    0.95520    1.000
    C14      C        0.56440    0.04670    0.01040    1.000
    C15      C        0.56680    0.04760    0.12940    1.000
    H5       H        0.61838    0.07318    0.15735    1.000
    O11      O        0.20960    0.60130    0.50590    1.000
    O12      O        0.12290    0.61800    0.35850    1.000
    C16      C        0.13730    0.59580    0.45520    1.000
    C17      C        0.06440    0.54670    0.51040    1.000
    C18      C        0.06680    0.54760    0.62940    1.000
    H6       H        0.11838    0.57318    0.65735    1.000
    O13      O        0.79040    0.39870    0.50590    1.000
    O14      O        0.87710    0.38200    0.35850    1.000
    C19      C        0.86270    0.40420    0.45520    1.000
    C20      C        0.93560    0.45330    0.51040    1.000
    C21      C        0.93320    0.45240    0.62940    1.000
    H7       H        0.88162    0.42682    0.65735    1.000
    O15      O        0.29040    0.89870    0.00590    1.000
    O16      O        0.37710    0.88200    0.85850    1.000
    C22      C        0.36270    0.90420    0.95520    1.000
    C23      C        0.43560    0.95330    0.01040    1.000
    C24      C        0.43320    0.95240    0.12940    1.000
    H8       H        0.38162    0.92682    0.15735    1.000
    O17      O        0.89870    0.29040    0.99410    1.000
    O18      O        0.88200    0.37710    0.14150    1.000
    C25      C        0.90420    0.36270    0.04480    1.000
    C26      C        0.95330    0.43560    0.98960    1.000
    C27      C        0.95240    0.43320    0.87060    1.000
    H9       H        0.92682    0.38162    0.84265    1.000
    O19      O        0.39870    0.79040    0.49410    1.000
    O20      O        0.38200    0.87710    0.64150    1.000
    C28      C        0.40420    0.86270    0.54480    1.000
    C29      C        0.45330    0.93560    0.48960    1.000
    C30      C        0.45240    0.93320    0.37060    1.000
    H10      H        0.42682    0.88162    0.34265    1.000
    O21      O        0.60130    0.20960    0.49410    1.000
    O22      O        0.61800    0.12290    0.64150    1.000
    C31      C        0.59580    0.13730    0.54480    1.000
    C32      C        0.54670    0.06440    0.48960    1.000
    C33      C        0.54760    0.06680    0.37060    1.000
    H11      H        0.57318    0.11838    0.34265    1.000
    O23      O        0.10130    0.70960    0.99410    1.000
    O24      O        0.11800    0.62290    0.14150    1.000
    C34      C        0.09580    0.63730    0.04480    1.000
    C35      C        0.04670    0.56440    0.98960    1.000
    C36      C        0.04760    0.56680    0.87060    1.000
    H12      H        0.07318    0.61838    0.84265    1.000
    O25      O        0.79040    0.10130    0.74410    1.000
    O26      O        0.87710    0.11800    0.89150    1.000
    C37      C        0.86270    0.09580    0.79480    1.000
    C38      C        0.93560    0.04670    0.73960    1.000
    C39      C        0.93320    0.04760    0.62060    1.000
    H13      H        0.88162    0.07318    0.59265    1.000
    O27      O        0.29040    0.60130    0.24410    1.000
    O28      O        0.37710    0.61800    0.39150    1.000
    C40      C        0.36270    0.59580    0.29480    1.000
    C41      C        0.43560    0.54670    0.23960    1.000
    C42      C        0.43320    0.54760    0.12060    1.000
    H14      H        0.38162    0.57318    0.09265    1.000
    O29      O        0.70960    0.39870    0.24410    1.000
    O30      O        0.62290    0.38200    0.39150    1.000
    C43      C        0.63730    0.40420    0.29480    1.000
    C44      C        0.56440    0.45330    0.23960    1.000
    C45      C        0.56680    0.45240    0.12060    1.000
    H15      H        0.61838    0.42682    0.09265    1.000
    O31      O        0.20960    0.89870    0.74410    1.000
    O32      O        0.12290    0.88200    0.89150    1.000
    C46      C        0.13730    0.90420    0.79480    1.000
    C47      C        0.06440    0.95330    0.73960    1.000
    C48      C        0.06680    0.95240    0.62060    1.000
    H16      H        0.11838    0.92682    0.59265    1.000
    V1       V        0.69016    0.30984    0.50000    1.000
    V2       V        0.19016    0.80984    0.00000    1.000
    V3       V        0.80984    0.19016    0.00000    1.000
    V4       V        0.30984    0.69016    0.50000    1.000
    V5       V        0.69016    0.19016    0.75000    1.000
    V6       V        0.19016    0.69016    0.25000    1.000
    V7       V        0.80984    0.30984    0.25000    1.000
    V8       V        0.30984    0.80984    0.75000    1.000
    O33      O        0.74630    0.25000    0.62500    1.000
    H17      H        0.80600    0.25000    0.62500    1.000
    O34      O        0.24630    0.75000    0.12500    1.000
    H18      H        0.30600    0.75000    0.12500    1.000
    O35      O        0.75370    0.25000    0.12500    1.000
    H19      H        0.69400    0.25000    0.12500    1.000
    O36      O        0.25370    0.75000    0.62500    1.000
    H20      H        0.19400    0.75000    0.62500    1.000
    O37      O        0.75000    0.24630    0.87500    1.000
    H21      H        0.75000    0.30600    0.87500    1.000
    O38      O        0.25000    0.74630    0.37500    1.000
    H22      H        0.25000    0.80600    0.37500    1.000
    O39      O        0.75000    0.25370    0.37500    1.000
    H23      H        0.75000    0.19400    0.37500    1.000
    O40      O        0.25000    0.75370    0.87500    1.000
    H24      H        0.25000    0.69400    0.87500    1.000
    C49      C        0.50000    0.50000    0.70300    1.000
    C50      C        0.50000    0.50000    0.93620    1.000
    H25      H        0.50000    0.50000    0.62600    1.000
    C51      C        0.00000    0.00000    0.20300    1.000
    C52      C        0.00000    0.00000    0.43620    1.000
    H26      H        0.00000    0.00000    0.12600    1.000
    C53      C        0.50000    0.00000    0.95300    1.000
    C54      C        0.50000    0.00000    0.18620    1.000
    H27      H        0.50000    0.00000    0.87600    1.000
    C55      C        0.00000    0.50000    0.45300    1.000
    C56      C        0.00000    0.50000    0.68620    1.000
    H28      H        0.00000    0.50000    0.37600    1.000
    C57      C        0.00000    0.50000    0.04700    1.000
    C58      C        0.00000    0.50000    0.81380    1.000
    H29      H        0.00000    0.50000    0.12400    1.000
    C59      C        0.50000    0.00000    0.54700    1.000
    C60      C        0.50000    0.00000    0.31380    1.000
    H30      H        0.50000    0.00000    0.62400    1.000
    C61      C        0.00000    0.00000    0.79700    1.000
    C62      C        0.00000    0.00000    0.56380    1.000
    H31      H        0.00000    0.00000    0.87400    1.000
    C63      C        0.50000    0.50000    0.29700    1.000
    C64      C        0.50000    0.50000    0.06380    1.000
    H32      H        0.50000    0.50000    0.37400    1.000
