# CIF file generated by openbabel 3.1.0, see https://openbabel.org
data_I
_chemical_name_common 'NETHOJ_clean_h'
_cell_length_a 8.462
_cell_length_b 9.721
_cell_length_c 17.266
_cell_angle_alpha 90
_cell_angle_beta 90
_cell_angle_gamma 112.17
_space_group_name_H-M_alt 'P 1'
_space_group_name_Hall 'P 1'
loop_
    _symmetry_equiv_pos_as_xyz
    x,y,z
loop_
    _atom_site_label
    _atom_site_type_symbol
    _atom_site_fract_x
    _atom_site_fract_y
    _atom_site_fract_z
    _atom_site_occupancy
    Dy1      Dy       0.84353    0.52470    0.74222    1.000
    Dy2      Dy       0.15647    0.97530    0.24222    1.000
    Dy3      Dy       0.15647    0.47530    0.25778    1.000
    Dy4      Dy       0.84353    0.02470    0.75778    1.000
    C1       C        0.90500    0.52400    0.90210    1.000
    C2       C        0.94400    0.52900    0.98630    1.000
    C3       C        0.13000    0.86700    0.78750    1.000
    C4       C        0.31400    0.96200    0.78440    1.000
    C5       C        0.37500    0.10500    0.80200    1.000
    C6       C        0.56000    0.20100    0.79050    1.000
    C7       C        0.09500    0.97600    0.40210    1.000
    C8       C        0.05600    0.97100    0.48630    1.000
    C9       C        0.87000    0.63300    0.28750    1.000
    C10      C        0.68600    0.53800    0.28440    1.000
    C11      C        0.62500    0.39500    0.30200    1.000
    C12      C        0.44000    0.29900    0.29050    1.000
    C13      C        0.09500    0.47600    0.09790    1.000
    C14      C        0.05600    0.47100    0.01370    1.000
    C15      C        0.87000    0.13300    0.21250    1.000
    C16      C        0.68600    0.03800    0.21560    1.000
    C17      C        0.62500    0.89500    0.19800    1.000
    C18      C        0.44000    0.79900    0.20950    1.000
    C19      C        0.90500    0.02400    0.59790    1.000
    C20      C        0.94400    0.02900    0.51370    1.000
    C21      C        0.13000    0.36700    0.71250    1.000
    C22      C        0.31400    0.46200    0.71560    1.000
    C23      C        0.37500    0.60500    0.69800    1.000
    C24      C        0.56000    0.70100    0.70950    1.000
    O1       O        0.96300    0.45370    0.85560    1.000
    O2       O        0.81300    0.59140    0.87810    1.000
    O3       O        0.09000    0.73300    0.76920    1.000
    O4       O        0.02510    0.92410    0.80610    1.000
    O5       O        0.66100    0.14300    0.77100    1.000
    O6       O        0.60100    0.33830    0.79790    1.000
    O7       O        0.03700    0.04630    0.35560    1.000
    O8       O        0.18700    0.90860    0.37810    1.000
    O9       O        0.91000    0.76700    0.26920    1.000
    O10      O        0.97490    0.57590    0.30610    1.000
    O11      O        0.33900    0.35700    0.27100    1.000
    O12      O        0.39900    0.16170    0.29790    1.000
    O13      O        0.03700    0.54630    0.14440    1.000
    O14      O        0.18700    0.40860    0.12190    1.000
    O15      O        0.91000    0.26700    0.23080    1.000
    O16      O        0.97490    0.07590    0.19390    1.000
    O17      O        0.33900    0.85700    0.22900    1.000
    O18      O        0.39900    0.66170    0.20210    1.000
    O19      O        0.96300    0.95370    0.64440    1.000
    O20      O        0.81300    0.09140    0.62190    1.000
    O21      O        0.09000    0.23300    0.73080    1.000
    O22      O        0.02510    0.42410    0.69390    1.000
    O23      O        0.66100    0.64300    0.72900    1.000
    O24      O        0.60100    0.83830    0.70210    1.000
    H1       H        0.87965    0.58184    0.02839    1.000
    H2       H        0.41075    0.91243    0.76614    1.000
    H3       H        0.28660    0.15826    0.82654    1.000
    H4       H        0.12035    0.91816    0.52839    1.000
    H5       H        0.58925    0.58757    0.26614    1.000
    H6       H        0.71340    0.34174    0.32654    1.000
    H7       H        0.12035    0.41816    0.97161    1.000
    H8       H        0.58925    0.08757    0.23386    1.000
    H9       H        0.71340    0.84174    0.17346    1.000
    H10      H        0.41075    0.41243    0.73386    1.000
    H11      H        0.28660    0.65826    0.67346    1.000
