data_functionalizedCrystal
_audit_creation_method	'EQeq! by Chris Wilmer'
_symmetry_space_group_name_H-M	'P1'
_symmetry_Int_Tables_number	1
_symmetry_cell_setting	triclinic
loop_
_symmetry_equiv_pos_as_xyz
  x,y,z
_cell_length_a	8.0576
_cell_length_b	22.1138
_cell_length_c	22.1138
_cell_angle_alpha	90
_cell_angle_beta	90
_cell_angle_gamma	90
loop_
_atom_site_label
_atom_site_type_symbol
_atom_site_fract_x
_atom_site_fract_y
_atom_site_fract_z
_atom_site_charge
Mof_Co	Co	0.24233	0.7448	0.24464	1.125
Mof_Co	Co	0.24233	0.2552	0.75537	1.125
Mof_Co	Co	0.75767	0.24464	0.2552	1.125
Mof_Co	Co	0.75767	0.75537	0.7448	1.125
Mof_Co	Co	0.25767	0.7552	0.74463	1.124
Mof_Co	Co	0.25767	0.2448	0.25537	1.124
Mof_Co	Co	0.74233	0.25537	0.7552	1.124
Mof_Co	Co	0.74233	0.74463	0.2448	1.124
Mof_H 	H 	0.9922	0.8155	0.2226	0.213
Mof_H 	H 	0.9922	0.7658	0.1736	0.214
Mof_H 	H 	0.362	0.7436	0.4944	-0.024
Mof_H 	H 	0.0004	0.831	0.585	-0.101
Mof_H 	H 	0.9892	0.8232	0.4036	-0.102
Mof_H 	H 	0.6652	0.7922	0.4874	0.553
Mof_H 	H 	0.563	0.8499	0.4696	0.521
Mof_H 	H 	0.6916	0.8225	0.424	0.542
Mof_H 	H 	0.7237	0.9475	0.4511	0.484
Mof_H 	H 	0.9123	0.9504	0.4683	0.464
Mof_H 	H 	0.8548	0.9123	0.4124	0.506
Mof_H 	H 	0.7383	0.8576	0.5814	0.535
Mof_H 	H 	0.835	0.9183	0.5713	0.501
Mof_H 	H 	0.6482	0.9132	0.5521	0.492
Mof_H 	H 	0.9922	0.1845	0.7774	0.213
Mof_H 	H 	0.9922	0.2342	0.8264	0.214
Mof_H 	H 	0.362	0.2564	0.5056	-0.024
Mof_H 	H 	0.0004	0.169	0.415	-0.101
Mof_H 	H 	0.9892	0.1768	0.5964	-0.102
Mof_H 	H 	0.6652	0.2078	0.5126	0.553
Mof_H 	H 	0.563	0.1501	0.5304	0.521
Mof_H 	H 	0.6916	0.1775	0.576	0.542
Mof_H 	H 	0.7237	0.0525	0.5489	0.484
Mof_H 	H 	0.9123	0.0496	0.5317	0.464
Mof_H 	H 	0.8548	0.0877	0.5876	0.506
Mof_H 	H 	0.7383	0.1424	0.4186	0.535
Mof_H 	H 	0.835	0.0817	0.4287	0.501
Mof_H 	H 	0.6482	0.0868	0.4479	0.492
Mof_H 	H 	0.0078	0.2226	0.1845	0.213
Mof_H 	H 	0.0078	0.1736	0.2342	0.214
Mof_H 	H 	0.638	0.4944	0.2564	-0.024
Mof_H 	H 	0.9996	0.585	0.169	-0.101
Mof_H 	H 	0.0108	0.4036	0.1768	-0.102
Mof_H 	H 	0.3348	0.4874	0.2078	0.553
Mof_H 	H 	0.437	0.4696	0.1501	0.521
Mof_H 	H 	0.3084	0.424	0.1775	0.542
Mof_H 	H 	0.2763	0.4511	0.0525	0.484
Mof_H 	H 	0.0877	0.4683	0.0496	0.464
Mof_H 	H 	0.1452	0.4124	0.0877	0.506
Mof_H 	H 	0.2617	0.5814	0.1424	0.535
Mof_H 	H 	0.165	0.5713	0.0817	0.501
Mof_H 	H 	0.3518	0.5521	0.0868	0.492
Mof_H 	H 	0.0078	0.7774	0.8155	0.213
Mof_H 	H 	0.0078	0.8264	0.7658	0.214
Mof_H 	H 	0.638	0.5056	0.7436	-0.024
Mof_H 	H 	0.9996	0.415	0.831	-0.101
Mof_H 	H 	0.0108	0.5964	0.8232	-0.102
Mof_H 	H 	0.3348	0.5126	0.7922	0.553
Mof_H 	H 	0.437	0.5304	0.8499	0.521
Mof_H 	H 	0.3084	0.576	0.8225	0.542
Mof_H 	H 	0.2763	0.5489	0.9475	0.484
Mof_H 	H 	0.0877	0.5317	0.9504	0.464
Mof_H 	H 	0.1452	0.5876	0.9123	0.506
Mof_H 	H 	0.2617	0.4186	0.8576	0.535
Mof_H 	H 	0.165	0.4287	0.9183	0.501
Mof_H 	H 	0.3518	0.4479	0.9132	0.492
Mof_H 	H 	0.5078	0.6845	0.7226	0.213
Mof_H 	H 	0.5078	0.7342	0.6736	0.214
Mof_H 	H 	0.138	0.7564	0.9944	-0.025
Mof_H 	H 	0.4996	0.669	0.085	-0.103
Mof_H 	H 	0.5108	0.6768	0.9036	-0.107
Mof_H 	H 	0.8348	0.7078	0.9874	0.553
Mof_H 	H 	0.937	0.6501	0.9696	0.521
Mof_H 	H 	0.8084	0.6775	0.924	0.542
Mof_H 	H 	0.7763	0.5525	0.9511	0.484
Mof_H 	H 	0.5877	0.5496	0.9683	0.464
Mof_H 	H 	0.6452	0.5877	0.9124	0.506
Mof_H 	H 	0.7617	0.6424	0.0814	0.535
Mof_H 	H 	0.665	0.5817	0.0713	0.501
Mof_H 	H 	0.8518	0.5868	0.0521	0.492
Mof_H 	H 	0.5078	0.3155	0.2774	0.213
Mof_H 	H 	0.5078	0.2658	0.3264	0.214
Mof_H 	H 	0.138	0.2436	0.0056	-0.025
Mof_H 	H 	0.4996	0.331	0.915	-0.103
Mof_H 	H 	0.5108	0.3232	0.0964	-0.107
Mof_H 	H 	0.8348	0.2922	0.0126	0.553
Mof_H 	H 	0.937	0.3499	0.0304	0.521
Mof_H 	H 	0.8084	0.3225	0.076	0.542
Mof_H 	H 	0.7763	0.4475	0.0489	0.484
Mof_H 	H 	0.5877	0.4504	0.0317	0.464
Mof_H 	H 	0.6452	0.4123	0.0876	0.506
Mof_H 	H 	0.7617	0.3576	0.9186	0.535
Mof_H 	H 	0.665	0.4183	0.9287	0.501
Mof_H 	H 	0.8518	0.4132	0.9479	0.492
Mof_H 	H 	0.4922	0.2774	0.6845	0.213
Mof_H 	H 	0.4922	0.3264	0.7342	0.214
Mof_H 	H 	0.862	0.0056	0.7564	-0.025
Mof_H 	H 	0.5004	0.915	0.669	-0.103
Mof_H 	H 	0.4892	0.0964	0.6768	-0.107
Mof_H 	H 	0.1652	0.0126	0.7078	0.553
Mof_H 	H 	0.063	0.0304	0.6501	0.521
Mof_H 	H 	0.1916	0.076	0.6775	0.542
Mof_H 	H 	0.2237	0.0489	0.5525	0.484
Mof_H 	H 	0.4123	0.0317	0.5496	0.464
Mof_H 	H 	0.3548	0.0876	0.5877	0.506
Mof_H 	H 	0.2383	0.9186	0.6424	0.535
Mof_H 	H 	0.335	0.9287	0.5817	0.501
Mof_H 	H 	0.1482	0.9479	0.5868	0.492
Mof_H 	H 	0.4922	0.7226	0.3155	0.213
Mof_H 	H 	0.4922	0.6736	0.2658	0.214
Mof_H 	H 	0.862	0.9944	0.2436	-0.025
Mof_H 	H 	0.5004	0.085	0.331	-0.103
Mof_H 	H 	0.4892	0.9036	0.3232	-0.107
Mof_H 	H 	0.1652	0.9874	0.2922	0.553
Mof_H 	H 	0.063	0.9696	0.3499	0.521
Mof_H 	H 	0.1916	0.924	0.3225	0.542
Mof_H 	H 	0.2237	0.9511	0.4475	0.484
Mof_H 	H 	0.4123	0.9683	0.4504	0.464
Mof_H 	H 	0.3548	0.9124	0.4123	0.506
Mof_H 	H 	0.2383	0.0814	0.3576	0.535
Mof_H 	H 	0.335	0.0713	0.4183	0.501
Mof_H 	H 	0.1482	0.0521	0.4132	0.492
Mof_C 	C 	0.1855	0.78014	0.44001	-0.278
Mof_C 	C 	0.26365	0.76562	0.49437	0.161
Mof_C 	C 	0.19272	0.78452	0.54884	-0.274
Mof_C 	C 	0.04604	0.81852	0.54842	0.275
Mof_C 	C 	0.96637	0.83418	0.49434	-0.555
Mof_C 	C 	0.03968	0.81384	0.44026	0.275
Mof_C 	C 	0.26126	0.75912	0.38152	0.384
Mof_C 	C 	0.27534	0.76832	0.60765	0.389
Mof_C 	C 	0.80443	0.87021	0.49275	1.257
Mof_C 	C 	0.6683	0.82995	0.46594	-1.756
Mof_C 	C 	0.8258	0.92513	0.45245	-1.706
Mof_C 	C 	0.7516	0.8918	0.55514	-1.731
Mof_C 	C 	0.1855	0.21986	0.55999	-0.278
Mof_C 	C 	0.26365	0.23438	0.50563	0.161
Mof_C 	C 	0.19272	0.21548	0.45116	-0.274
Mof_C 	C 	0.04604	0.18148	0.45158	0.275
Mof_C 	C 	0.96637	0.16582	0.50566	-0.555
Mof_C 	C 	0.03968	0.18616	0.55974	0.275
Mof_C 	C 	0.26126	0.24088	0.61848	0.384
Mof_C 	C 	0.27534	0.23168	0.39235	0.389
Mof_C 	C 	0.80443	0.12979	0.50725	1.257
Mof_C 	C 	0.6683	0.17005	0.53406	-1.756
Mof_C 	C 	0.8258	0.07487	0.54755	-1.706
Mof_C 	C 	0.7516	0.1082	0.44486	-1.731
Mof_C 	C 	0.8145	0.44001	0.21986	-0.278
Mof_C 	C 	0.73635	0.49437	0.23438	0.161
Mof_C 	C 	0.80728	0.54884	0.21548	-0.274
Mof_C 	C 	0.95396	0.54842	0.18148	0.275
Mof_C 	C 	0.03363	0.49434	0.16582	-0.555
Mof_C 	C 	0.96032	0.44026	0.18616	0.275
Mof_C 	C 	0.73874	0.38152	0.24088	0.384
Mof_C 	C 	0.72466	0.60765	0.23168	0.389
Mof_C 	C 	0.19557	0.49275	0.12979	1.257
Mof_C 	C 	0.3317	0.46594	0.17005	-1.756
Mof_C 	C 	0.1742	0.45245	0.07487	-1.706
Mof_C 	C 	0.2484	0.55514	0.1082	-1.731
Mof_C 	C 	0.8145	0.55999	0.78014	-0.278
Mof_C 	C 	0.73635	0.50563	0.76562	0.161
Mof_C 	C 	0.80728	0.45116	0.78452	-0.274
Mof_C 	C 	0.95396	0.45158	0.81852	0.275
Mof_C 	C 	0.03363	0.50566	0.83418	-0.555
Mof_C 	C 	0.96032	0.55974	0.81384	0.275
Mof_C 	C 	0.73874	0.61848	0.75912	0.384
Mof_C 	C 	0.72466	0.39235	0.76832	0.389
Mof_C 	C 	0.19557	0.50725	0.87021	1.257
Mof_C 	C 	0.3317	0.53406	0.82995	-1.756
Mof_C 	C 	0.1742	0.54755	0.92513	-1.706
Mof_C 	C 	0.2484	0.44486	0.8918	-1.731
Mof_C 	C 	0.3145	0.71986	0.94001	-0.283
Mof_C 	C 	0.23635	0.73438	0.99437	0.166
Mof_C 	C 	0.30728	0.71548	0.04884	-0.278
Mof_C 	C 	0.45396	0.68148	0.04842	0.283
Mof_C 	C 	0.53363	0.66582	0.99434	-0.564
Mof_C 	C 	0.46032	0.68616	0.94026	0.286
Mof_C 	C 	0.23874	0.74088	0.88152	0.386
Mof_C 	C 	0.22466	0.73168	0.10765	0.391
Mof_C 	C 	0.69557	0.62979	0.99275	1.26
Mof_C 	C 	0.8317	0.67005	0.96594	-1.757
Mof_C 	C 	0.6742	0.57487	0.95245	-1.708
Mof_C 	C 	0.7484	0.6082	0.05514	-1.733
Mof_C 	C 	0.3145	0.28014	0.05999	-0.283
Mof_C 	C 	0.23635	0.26562	0.00563	0.166
Mof_C 	C 	0.30728	0.28452	0.95116	-0.278
Mof_C 	C 	0.45396	0.31852	0.95158	0.283
Mof_C 	C 	0.53363	0.33418	0.00566	-0.564
Mof_C 	C 	0.46032	0.31384	0.05974	0.286
Mof_C 	C 	0.23874	0.25912	0.11848	0.386
Mof_C 	C 	0.22466	0.26832	0.89235	0.391
Mof_C 	C 	0.69557	0.37021	0.00725	1.26
Mof_C 	C 	0.8317	0.32995	0.03406	-1.757
Mof_C 	C 	0.6742	0.42513	0.04755	-1.708
Mof_C 	C 	0.7484	0.3918	0.94486	-1.733
Mof_C 	C 	0.6855	0.05999	0.71986	-0.283
Mof_C 	C 	0.76365	0.00563	0.73438	0.166
Mof_C 	C 	0.69272	0.95116	0.71548	-0.278
Mof_C 	C 	0.54604	0.95158	0.68148	0.283
Mof_C 	C 	0.46637	0.00566	0.66582	-0.564
Mof_C 	C 	0.53968	0.05974	0.68616	0.286
Mof_C 	C 	0.76126	0.11848	0.74088	0.386
Mof_C 	C 	0.77534	0.89235	0.73168	0.391
Mof_C 	C 	0.30443	0.00725	0.62979	1.26
Mof_C 	C 	0.1683	0.03406	0.67005	-1.757
Mof_C 	C 	0.3258	0.04755	0.57487	-1.708
Mof_C 	C 	0.2516	0.94486	0.6082	-1.733
Mof_C 	C 	0.6855	0.94001	0.28014	-0.283
Mof_C 	C 	0.76365	0.99437	0.26562	0.166
Mof_C 	C 	0.69272	0.04884	0.28452	-0.278
Mof_C 	C 	0.54604	0.04842	0.31852	0.283
Mof_C 	C 	0.46637	0.99434	0.33418	-0.564
Mof_C 	C 	0.53968	0.94026	0.31384	0.286
Mof_C 	C 	0.76126	0.88152	0.25912	0.386
Mof_C 	C 	0.77534	0.10765	0.26832	0.391
Mof_C 	C 	0.30443	0.99275	0.37021	1.26
Mof_C 	C 	0.1683	0.96594	0.32995	-1.757
Mof_C 	C 	0.3258	0.95245	0.42513	-1.708
Mof_C 	C 	0.2516	0.05514	0.3918	-1.733
Mof_O 	O 	0.1745	0.7647	0.33355	-0.471
Mof_O 	O 	0.4044	0.73739	0.38222	-0.362
Mof_O 	O 	0.1888	0.77392	0.65559	-0.472
Mof_O 	O 	0.42138	0.75016	0.6067	-0.367
Mof_O 	O 	0.99221	0.772	0.21698	-0.691
Mof_O 	O 	0.1745	0.2353	0.66645	-0.471
Mof_O 	O 	0.4044	0.26261	0.61778	-0.362
Mof_O 	O 	0.1888	0.22608	0.34441	-0.472
Mof_O 	O 	0.42138	0.24984	0.3933	-0.367
Mof_O 	O 	0.99221	0.228	0.78302	-0.691
Mof_O 	O 	0.8255	0.33355	0.2353	-0.471
Mof_O 	O 	0.5956	0.38222	0.26261	-0.362
Mof_O 	O 	0.8112	0.65559	0.22608	-0.472
Mof_O 	O 	0.57862	0.6067	0.24984	-0.367
Mof_O 	O 	0.00779	0.21698	0.228	-0.691
Mof_O 	O 	0.8255	0.66645	0.7647	-0.471
Mof_O 	O 	0.5956	0.61778	0.73739	-0.362
Mof_O 	O 	0.8112	0.34441	0.77392	-0.472
Mof_O 	O 	0.57862	0.3933	0.75016	-0.367
Mof_O 	O 	0.00779	0.78302	0.772	-0.691
Mof_O 	O 	0.3255	0.7353	0.83355	-0.471
Mof_O 	O 	0.0956	0.76261	0.88222	-0.362
Mof_O 	O 	0.3112	0.72608	0.15559	-0.472
Mof_O 	O 	0.07862	0.74984	0.1067	-0.367
Mof_O 	O 	0.50779	0.728	0.71698	-0.692
Mof_O 	O 	0.3255	0.2647	0.16645	-0.471
Mof_O 	O 	0.0956	0.23739	0.11778	-0.362
Mof_O 	O 	0.3112	0.27392	0.84441	-0.472
Mof_O 	O 	0.07862	0.25016	0.8933	-0.367
Mof_O 	O 	0.50779	0.272	0.28302	-0.692
Mof_O 	O 	0.6745	0.16645	0.7353	-0.471
Mof_O 	O 	0.9044	0.11778	0.76261	-0.362
Mof_O 	O 	0.6888	0.84441	0.72608	-0.472
Mof_O 	O 	0.92138	0.8933	0.74984	-0.367
Mof_O 	O 	0.49221	0.28302	0.728	-0.692
Mof_O 	O 	0.6745	0.83355	0.2647	-0.471
Mof_O 	O 	0.9044	0.88222	0.23739	-0.362
Mof_O 	O 	0.6888	0.15559	0.27392	-0.472
Mof_O 	O 	0.92138	0.1067	0.25016	-0.367
Mof_O 	O 	0.49221	0.71698	0.272	-0.692
_end
