data_functionalizedCrystal
_audit_creation_method	'EQeq! by Chris Wilmer'
_symmetry_space_group_name_H-M	'P1'
_symmetry_Int_Tables_number	1
_symmetry_cell_setting	triclinic
loop_
_symmetry_equiv_pos_as_xyz
  x,y,z
_cell_length_a	15.8225
_cell_length_b	16.8196
_cell_length_c	28.476
_cell_angle_alpha	96.7
_cell_angle_beta	100.221
_cell_angle_gamma	109.597
loop_
_atom_site_label
_atom_site_type_symbol
_atom_site_fract_x
_atom_site_fract_y
_atom_site_fract_z
_atom_site_charge
Mof_Zn	Zn	0.72541	0.76494	0.22552	1.199
Mof_Zn	Zn	0.71183	0.59183	0.88256	1.241
Mof_Zn	Zn	0.25754	0.17382	0.40692	1.237
Mof_Zn	Zn	0.92688	0.74062	0.28924	1.229
Mof_Zn	Zn	0.74246	0.82618	0.59308	1.237
Mof_Zn	Zn	0.82798	0.02548	0.68968	1.243
Mof_Zn	Zn	0.35296	0.59493	0.21057	1.188
Mof_Zn	Zn	0.28817	0.40817	0.11744	1.241
Mof_Zn	Zn	0.17202	0.97452	0.31032	1.243
Mof_Zn	Zn	0.27459	0.23506	0.77448	1.199
Mof_Zn	Zn	0.64704	0.40507	0.78943	1.188
Mof_Zn	Zn	0.07312	0.25938	0.71076	1.229
Mof_H 	H 	0.2319	0.9908	0.0278	0.057
Mof_H 	H 	0.329	0.4873	0.4648	0.035
Mof_H 	H 	0.2379	0.088	0.863	-0.067
Mof_H 	H 	0.7916	0.4006	0.2221	0.064
Mof_H 	H 	0.4835	0.2862	0.3554	0.027
Mof_H 	H 	0.2084	0.5994	0.7779	0.064
Mof_H 	H 	0.4033	0.0549	0.2628	0.025
Mof_H 	H 	0.6128	0.4838	0.1304	0.043
Mof_H 	H 	0.5406	0.9583	0.1704	-0.094
Mof_H 	H 	0.1558	0.6088	0.1399	0.064
Mof_H 	H 	0.573	0.1776	0.9375	0.08
Mof_H 	H 	0.2043	0.6206	0.9665	0.095
Mof_H 	H 	0.0982	0.8236	0.3896	0.02
Mof_H 	H 	0.7629	0.8735	0.939	0.041
Mof_H 	H 	0.0006	0.681	0.69	0.063
Mof_H 	H 	0.6635	0.1118	0.9655	0.065
Mof_H 	H 	0.4594	0.0417	0.8296	-0.094
Mof_H 	H 	0.789	0.4671	0.9788	0.038
Mof_H 	H 	0.8089	0.2895	0.7871	0.004
Mof_H 	H 	0.0474	0.4467	0.5059	0.067
Mof_H 	H 	0.8552	0.3858	0.1305	0.073
Mof_H 	H 	0.2568	0.0355	0.5043	0.018
Mof_H 	H 	0.8442	0.3912	0.8601	0.064
Mof_H 	H 	0.5374	0.9041	0.0158	0.061
Mof_H 	H 	0.3365	0.8882	0.0345	0.065
Mof_H 	H 	0.5347	0.7672	0.9841	0.039
Mof_H 	H 	0.9215	0.6748	0.5291	0.035
Mof_H 	H 	0.1203	0.4776	0.822	0.038
Mof_H 	H 	0.1911	0.7105	0.2129	0.004
Mof_H 	H 	0.2424	0.0564	0.6946	0.011
Mof_H 	H 	0.2435	0.5604	0.6014	0.09
Mof_H 	H 	0.7275	0.1598	0.2831	0.049
Mof_H 	H 	0.007	0.0189	0.3988	0.043
Mof_H 	H 	0.6989	0.3916	0.4973	0.061
Mof_H 	H 	0.989	0.5638	0.6046	0.09
Mof_H 	H 	0.9994	0.319	0.31	0.063
Mof_H 	H 	0.7621	0.912	0.137	-0.067
Mof_H 	H 	0.5241	0.2589	0.1927	0.065
Mof_H 	H 	0.0357	0.2754	0.1486	0.046
Mof_H 	H 	0.011	0.4362	0.3954	0.09
Mof_H 	H 	0.4387	0.9407	0.8751	0.181
Mof_H 	H 	0.5967	0.9451	0.7372	0.025
Mof_H 	H 	0.7799	0.0159	0.0898	0.169
Mof_H 	H 	0.0826	0.7325	0.4421	0.087
Mof_H 	H 	0.9389	0.7226	0.1679	0.023
Mof_H 	H 	0.7554	0.0584	0.4435	0.079
Mof_H 	H 	0.4604	0.8921	0.7629	0.076
Mof_H 	H 	0.7432	0.9645	0.4957	0.018
Mof_H 	H 	0.1902	0.9224	0.7647	0.066
Mof_H 	H 	0.9041	0.4736	0.7723	0.031
Mof_H 	H 	0.6929	0.2025	0.1303	0.033
Mof_H 	H 	0.9643	0.7246	0.8514	0.046
Mof_H 	H 	0.1068	0.2563	0.3344	0.039
Mof_H 	H 	0.5165	0.7138	0.6446	0.027
Mof_H 	H 	0.3872	0.5162	0.8696	0.043
Mof_H 	H 	0.671	0.5127	0.5352	0.035
Mof_H 	H 	0.4653	0.2328	0.0159	0.039
Mof_H 	H 	0.2725	0.8402	0.7169	0.049
Mof_H 	H 	0.5834	0.3444	0.0851	0.076
Mof_H 	H 	0.9627	0.4473	0.6429	0.016
Mof_H 	H 	0.6242	0.5647	0.256	0.016
Mof_H 	H 	0.2197	0.4518	0.6422	0.015
Mof_H 	H 	0.0881	0.3746	0.9072	0.064
Mof_H 	H 	0.8098	0.0776	0.2353	0.066
Mof_H 	H 	0.0611	0.2774	0.8321	0.023
Mof_H 	H 	0.8171	0.3143	0.5191	0.053
Mof_H 	H 	0.8897	0.2732	0.3723	0.055
Mof_H 	H 	0.1448	0.6142	0.8695	0.073
Mof_H 	H 	0.2726	0.5051	0.7271	0.07
Mof_H 	H 	0.427	0.8224	0.0625	0.08
Mof_H 	H 	0.9966	0.1467	0.439	0.08
Mof_H 	H 	0.3011	0.6084	0.5027	0.061
Mof_H 	H 	0.0372	0.5282	0.7426	0.068
Mof_H 	H 	0.9628	0.4718	0.2574	0.068
Mof_H 	H 	0.7803	0.5482	0.3578	0.015
Mof_H 	H 	0.2201	0.9841	0.9102	0.169
Mof_H 	H 	0.0373	0.5527	0.3571	0.016
Mof_H 	H 	0.7957	0.3794	0.0335	0.095
Mof_H 	H 	0.9526	0.5533	0.4941	0.067
Mof_H 	H 	0.3758	0.4353	0.744	0.016
Mof_H 	H 	0.9018	0.1764	0.6104	0.02
Mof_H 	H 	0.993	0.9811	0.6012	0.043
Mof_H 	H 	0.0818	0.9862	0.7439	0.042
Mof_H 	H 	0.6082	0.3409	0.3212	0.076
Mof_H 	H 	0.7274	0.4949	0.2729	0.07
Mof_H 	H 	0.2371	0.1265	0.061	0.041
Mof_H 	H 	0.4277	0.3423	0.1749	0.023
Mof_H 	H 	0.3071	0.7975	0.8697	0.033
Mof_H 	H 	0.7576	0.9436	0.3054	0.011
Mof_H 	H 	0.9107	0.2231	0.183	0.066
Mof_H 	H 	0.9174	0.2675	0.5579	0.087
Mof_H 	H 	0.3918	0.6591	0.6788	0.076
Mof_H 	H 	0.2581	0.9286	0.6521	0.058
Mof_H 	H 	0.8932	0.7437	0.6656	0.039
Mof_H 	H 	0.211	0.5329	0.0212	0.038
Mof_H 	H 	0.5723	0.6577	0.8251	0.023
Mof_H 	H 	0.4166	0.6556	0.9149	0.076
Mof_H 	H 	0.4266	0.7347	0.1161	0.018
Mof_H 	H 	0.1829	0.6857	0.4809	0.053
Mof_H 	H 	0.4759	0.7411	0.8073	0.065
Mof_H 	H 	0.5613	0.0593	0.1249	0.181
Mof_H 	H 	0.9119	0.6254	0.0928	0.064
Mof_H 	H 	0.7681	0.0092	0.9722	0.057
Mof_H 	H 	0.0785	0.3252	0.4709	0.035
Mof_H 	H 	0.4626	0.0959	0.9842	0.061
Mof_H 	H 	0.5734	0.2653	0.8839	0.018
Mof_H 	H 	0.5396	0.1079	0.2371	0.076
Mof_H 	H 	0.7565	0.4396	0.3986	0.09
Mof_H 	H 	0.1103	0.7268	0.6277	0.055
Mof_H 	H 	0.7419	0.0714	0.3479	0.058
Mof_H 	H 	0.0893	0.7769	0.817	0.066
Mof_H 	H 	0.0959	0.5264	0.2277	0.031
Mof_H 	H 	0.9182	0.0138	0.2561	0.042
Mof_H 	H 	0.8797	0.5224	0.178	0.038
Mof_H 	H 	0.0034	0.8533	0.561	0.08
Mof_H 	H 	0.2446	0.9416	0.5565	0.079
Mof_C 	C 	0.3284	0.9552	0.8963	0.328
Mof_C 	C 	0.318	0.7825	0.9789	0.005
Mof_C 	C 	0.5595	0.8428	0.6814	-0.126
Mof_C 	C 	0.3153	0.7255	0.0096	0.077
Mof_C 	C 	0.4705	0.8587	0.7367	-0.136
Mof_C 	C 	0.6297	0.3643	0.2388	0.035
Mof_C 	C 	0.6559	0.9759	0.9991	0.02
Mof_C 	C 	0.9477	0.2826	0.1902	-0.09
Mof_C 	C 	0.8341	0.3113	0.4887	-0.064
Mof_C 	C 	0.3241	0.5747	0.1045	0.363
Mof_C 	C 	0.3509	0.1289	0.8134	0.562
Mof_C 	C 	0.1872	0.5375	0.6112	-0.168
Mof_C 	C 	0.3345	0.9296	0.9752	0.058
Mof_C 	C 	0.8039	0.0073	0.5877	0.375
Mof_C 	C 	0.2225	0.6504	0.7647	-0.075
Mof_C 	C 	0.6777	0.2504	0.2664	-0.026
Mof_C 	C 	0.7454	0.4472	0.5034	-0.094
Mof_C 	C 	0.155	0.6226	0.5322	0.004
Mof_C 	C 	0.6655	0.0704	0.0248	0.058
Mof_C 	C 	0.6946	0.2504	0.0708	-0.028
Mof_C 	C 	0.0413	0.6195	0.102	0.001
Mof_C 	C 	0.2169	0.9222	0.5227	-0.135
Mof_C 	C 	0.8852	0.3615	0.8574	-0.074
Mof_C 	C 	0.7973	0.6111	0.5348	-0.102
Mof_C 	C 	0.9807	0.4353	0.2365	-0.093
Mof_C 	C 	0.9524	0.7766	0.6859	0.012
Mof_C 	C 	0.6153	0.2848	0.9148	0.088
Mof_C 	C 	0.3054	0.7496	0.9292	-0.028
Mof_C 	C 	0.4568	0.682	0.7932	-0.089
Mof_C 	C 	0.0795	0.3676	0.6686	0.311
Mof_C 	C 	0.1802	0.5104	0.8416	0.013
Mof_C 	C 	0.3847	0.7152	0.0852	0.088
Mof_C 	C 	0.0193	0.5647	0.7635	-0.093
Mof_C 	C 	0.6652	0.4637	0.2559	-0.096
Mof_C 	C 	0.3223	0.7496	0.7336	-0.026
Mof_C 	C 	0.8827	0.2077	0.5477	-0.149
Mof_C 	C 	0.9264	0.2593	0.8026	-0.133
Mof_C 	C 	0.2815	0.0393	0.0247	-0.08
Mof_C 	C 	0.5295	0.1413	0.2633	-0.136
Mof_C 	C 	0.971	0.646	0.1145	-0.064
Mof_C 	C 	0.9424	0.5328	0.7806	0.011
Mof_C 	C 	0.845	0.3774	0.4678	0.004
Mof_C 	C 	0.8612	0.2131	0.4237	0.002
Mof_C 	C 	0.7535	0.5224	0.1579	-0.09
Mof_C 	C 	0.1725	0.5432	0.509	0.038
Mof_C 	C 	0.5721	0.2813	0.3146	-0.122
Mof_C 	C 	0.1301	0.8888	0.7457	-0.094
Mof_C 	C 	0.8275	0.4568	0.491	0.038
Mof_C 	C 	0.9801	0.527	0.3655	0.085
Mof_C 	C 	0.0523	0.7174	0.8098	-0.09
Mof_C 	C 	0.6803	0.3717	0.9285	-0.146
Mof_C 	C 	0.8942	0.5438	0.5015	-0.092
Mof_C 	C 	0.8657	0.3594	0.4225	-0.037
Mof_C 	C 	0.1961	0.9927	0.4123	0.375
Mof_C 	C 	0.0576	0.4672	0.2194	0.011
Mof_C 	C 	0.9476	0.1091	0.4132	-0.091
Mof_C 	C 	0.4279	0.7187	0.6854	-0.122
Mof_C 	C 	0.4499	0.1085	0.2787	0.06
Mof_C 	C 	0.355	0.2901	0.0636	0.325
Mof_C 	C 	0.5836	0.8158	0.9805	0.009
Mof_C 	C 	0.331	0.8734	0.0006	-0.1
Mof_C 	C 	0.9253	0.3421	0.2218	0.037
Mof_C 	C 	0.645	0.7099	0.9364	0.325
Mof_C 	C 	0.3262	0.8971	0.9252	-0.145
Mof_C 	C 	0.3942	0.4957	0.754	0.027
Mof_C 	C 	0.3986	0.972	0.8719	-0.45
Mof_C 	C 	0.9791	0.6881	0.8288	0.015
Mof_C 	C 	0.154	0.7677	0.5309	-0.019
Mof_C 	C 	0.2027	0.3889	0.4652	-0.102
Mof_C 	C 	0.6632	0.4652	0.1305	0.016
Mof_C 	C 	0.1343	0.6406	0.5775	-0.037
Mof_C 	C 	0.7231	0.9444	0.134	0.344
Mof_C 	C 	0.4164	0.1842	0.0195	0.009
Mof_C 	C 	0.6847	0.2745	0.9904	0.077
Mof_C 	C 	0.048	0.9705	0.6118	0.015
Mof_C 	C 	0.9095	0.1893	0.7563	0.452
Mof_C 	C 	0.8259	0.2417	0.2591	-0.013
Mof_C 	C 	0.7775	0.3496	0.2353	-0.075
Mof_C 	C 	0.8198	0.4896	0.1584	0.013
Mof_C 	C 	0.1953	0.019	0.6679	0.011
Mof_C 	C 	0.0476	0.2234	0.3141	0.012
Mof_C 	C 	0.9205	0.6324	0.3314	0.311
Mof_C 	C 	0.4063	0.7811	0.7162	0.077
Mof_C 	C 	0.3608	0.1279	0.3387	0.356
Mof_C 	C 	0.8739	0.1572	0.5767	0.09
Mof_C 	C 	0.1566	0.6889	0.7599	0.004
Mof_C 	C 	0.6716	0.0448	0.1037	0.328
Mof_C 	C 	0.7747	0.0247	0.5061	0.073
Mof_C 	C 	0.196	0.5965	0.8705	-0.092
Mof_C 	C 	0.8361	0.1689	0.4969	0.079
Mof_C 	C 	0.6491	0.8711	0.1866	0.562
Mof_C 	C 	0.0351	0.5399	0.6123	-0.173
Mof_C 	C 	0.5898	0.9724	0.1543	0.399
Mof_C 	C 	0.6759	0.4253	0.8955	0.363
Mof_C 	C 	0.4859	0.3684	0.1973	0.022
Mof_C 	C 	0.1828	0.9354	0.4443	-0.139
Mof_C 	C 	0.7321	0.0029	0.1069	-0.403
Mof_C 	C 	0.1741	0.7583	0.7409	-0.013
Mof_C 	C 	0.078	0.4048	0.1874	-0.073
Mof_C 	C 	0.8637	0.3007	0.811	0.03
Mof_C 	C 	0.7831	0.0778	0.4773	-0.135
Mof_C 	C 	0.8335	0.5607	0.829	0.303
Mof_C 	C 	0.922	0.5952	0.8126	-0.073
Mof_C 	C 	0.9854	0.2592	0.3004	-0.091
Mof_C 	C 	0.8699	0.1112	0.2543	-0.094
Mof_C 	C 	0.6149	0.2355	0.9442	-0.146
Mof_C 	C 	0.1388	0.7869	0.5763	0.002
Mof_C 	C 	0.7185	0.9607	0.9753	-0.08
Mof_C 	C 	0.0905	0.8107	0.2437	0.452
Mof_C 	C 	0.3197	0.6283	0.0715	-0.146
Mof_C 	C 	0.1182	0.0349	0.651	-0.089
Mof_C 	C 	0.2253	0.9753	0.4939	0.073
Mof_C 	C 	0.1659	0.6887	0.5113	-0.064
Mof_C 	C 	0.8955	0.2029	0.2704	0.044
Mof_C 	C 	0.3043	0.6792	0.7523	0.012
Mof_C 	C 	0.883	0.4271	0.3989	0.113
Mof_C 	C 	0.5127	0.4519	0.2194	-0.092
Mof_C 	C 	0.5854	0.9005	0.0009	-0.08
Mof_C 	C 	0.9323	0.0735	0.2665	0.016
Mof_C 	C 	0.7709	0.6131	0.1917	0.369
Mof_C 	C 	0.669	0.1266	0.9994	-0.1
Mof_C 	C 	0.117	0.5729	0.6011	0.113
Mof_C 	C 	0.3703	0.6357	0.7612	0.035
Mof_C 	C 	0.13	0.8731	0.6022	0.039
Mof_C 	C 	0.5014	0.7505	0.6669	0.049
Mof_C 	C 	0.7975	0.0617	0.358	-0.088
Mof_C 	C 	0.2722	0.4783	0.474	0.009
Mof_C 	C 	0.173	0.4747	0.6336	0.096
Mof_C 	C 	0.9883	0.7062	0.1615	0.021
Mof_C 	C 	0.4509	0.5013	0.2101	0.265
Mof_C 	C 	0.9106	0.9089	0.688	0.285
Mof_C 	C 	0.647	0.8001	0.9562	-0.085
Mof_C 	C 	0.8128	0.4625	0.3888	-0.168
Mof_C 	C 	0.029	0.354	0.8855	-0.064
Mof_C 	C 	0.8738	0.2778	0.4029	-0.056
Mof_C 	C 	0.5491	0.4987	0.7899	0.265
Mof_C 	C 	0.7278	0.5217	0.526	0.009
Mof_C 	C 	0.1045	0.7971	0.7296	0.044
Mof_C 	C 	0.2769	0.0556	0.866	0.344
Mof_C 	C 	0.353	0.1999	0.0438	-0.085
Mof_C 	C 	0.6392	0.8721	0.6613	0.356
Mof_C 	C 	0.0736	0.7407	0.1974	-0.133
Mof_C 	C 	0.2025	0.9383	0.642	-0.088
Mof_C 	C 	0.312	0.8109	0.9037	0.006
Mof_C 	C 	0.0894	0.0911	0.312	0.285
Mof_C 	C 	0.6058	0.5043	0.246	0.027
Mof_C 	C 	0.1173	0.7923	0.4523	-0.149
Mof_C 	C 	0.2846	0.1235	0.0454	0.009
Mof_C 	C 	0.6448	0.3784	0.1022	-0.089
Mof_C 	C 	0.1148	0.6385	0.1426	-0.074
Mof_C 	C 	0.4146	0.0995	0.9991	-0.08
Mof_C 	C 	0.0146	0.7408	0.6996	-0.091
Mof_C 	C 	0.9752	0.4448	0.9455	0.206
Mof_C 	C 	0.7424	0.2117	0.2708	-0.05
Mof_C 	C 	0.804	0.4035	0.1295	-0.092
Mof_C 	C 	0.8751	0.6192	0.5234	0.024
Mof_C 	C 	0.8434	0.3111	0.2401	0.004
Mof_C 	C 	0.0117	0.2938	0.8385	0.021
Mof_C 	C 	0.827	0.5253	0.3664	0.096
Mof_C 	C 	0.8885	0.8767	0.3226	0.375
Mof_C 	C 	0.8172	0.0646	0.5557	-0.139
Mof_C 	C 	0.0677	0.9265	0.7335	0.016
Mof_C 	C 	0.8818	0.9651	0.349	-0.089
Mof_C 	C 	0.846	0.2323	0.4691	-0.019
Mof_C 	C 	0.3441	0.0241	0.0009	0.02
Mof_C 	C 	0.5501	0.8915	0.7213	0.06
Mof_C 	C 	0.1665	0.4393	0.171	0.303
Mof_C 	C 	0.6532	0.9334	0.1579	-0.417
Mof_C 	C 	0.2465	0.4776	0.8421	-0.09
Mof_C 	C 	0.2487	0.6401	0.9966	-0.134
Mof_C 	C 	0.8047	0.981	0.3321	0.011
Mof_C 	C 	0.9649	0.4601	0.3877	-0.173
Mof_C 	C 	0.5141	0.6316	0.8027	0.022
Mof_C 	C 	0.4102	0.0276	0.8457	0.399
Mof_C 	C 	0.2291	0.3869	0.8083	0.369
Mof_C 	C 	0.0248	0.5552	0.0545	0.206
Mof_C 	C 	0.1115	0.1233	0.6774	0.375
Mof_C 	C 	0.1261	0.8428	0.4233	0.09
Mof_C 	C 	0.9813	0.8724	0.7045	-0.07
Mof_C 	C 	0.87	0.1269	0.3978	0.039
Mof_C 	C 	0.7137	0.3447	0.0996	0.045
Mof_C 	C 	0.4405	0.1572	0.3186	-0.126
Mof_C 	C 	0.3468	0.0666	0.8421	-0.417
Mof_C 	C 	0.3552	0.6216	0.8978	-0.089
Mof_C 	C 	0.5937	0.2189	0.2838	0.077
Mof_C 	C 	0.0524	0.8909	0.5868	-0.091
Mof_C 	C 	0.1262	0.7222	0.5971	-0.056
Mof_C 	C 	0.6957	0.3208	0.2477	0.012
Mof_C 	C 	0.2519	0.5911	0.0275	0.086
Mof_C 	C 	0.0187	0.1276	0.2955	-0.07
Mof_C 	C 	0.0914	0.4417	0.6449	-0.138
Mof_C 	C 	0.2576	0.7883	0.7292	-0.05
Mof_C 	C 	0.682	0.2175	0.0211	0.005
Mof_C 	C 	0.688	0.1891	0.0963	0.006
Mof_C 	C 	0.1249	0.3808	0.4766	0.024
Mof_C 	C 	0.774	0.6896	0.5554	0.369
Mof_C 	C 	0.3851	0.7645	0.0558	-0.146
Mof_C 	C 	0.9587	0.3805	0.898	0.001
Mof_C 	C 	0.7513	0.3599	0.0034	-0.134
Mof_C 	C 	0.2679	0.9971	0.8931	-0.403
Mof_C 	C 	0.2863	0.6553	0.9004	0.045
Mof_C 	C 	0.5432	0.318	0.2068	-0.089
Mof_C 	C 	0.6014	0.028	0.1281	-0.45
Mof_C 	C 	0.1363	0.6993	0.189	0.03
Mof_C 	C 	0.7481	0.4089	0.9725	0.086
Mof_C 	C 	0.4986	0.2495	0.3331	0.049
Mof_C 	C 	0.3348	0.5363	0.7441	-0.096
Mof_C 	C 	0.0747	0.6579	0.7782	0.037
Mof_C 	C 	0.1058	0.4562	0.4985	-0.092
Mof_C 	C 	0.226	0.3104	0.4446	0.369
Mof_C 	C 	0.0209	0.3119	0.1712	0.015
Mof_C 	C 	0.7154	0.8765	0.9546	0.009
Mof_C 	C 	0.1639	0.8311	0.5031	0.079
Mof_C 	C 	0.4873	0.5481	0.7806	-0.092
Mof_C 	C 	0.2546	0.5528	0.4966	-0.094
Mof_C 	C 	0.6738	0.1029	0.0748	-0.145
Mof_C 	C 	0.3368	0.5348	0.8695	0.016
Mof_C 	C 	0.952	0.0295	0.3882	0.015
Mof_C 	C 	0.9086	0.5583	0.3551	-0.138
Mof_C 	C 	0.0199	0.473	0.6345	0.085
Mof_O 	O 	0.7032	0.9471	0.6874	-0.45
Mof_O 	O 	0.162	0.1716	0.7182	-0.56
Mof_O 	O 	0.2866	0.3539	0.8112	-0.475
Mof_O 	O 	0.6399	0.8253	0.6227	-0.462
Mof_O 	O 	0.1469	0.3428	0.6766	-0.441
Mof_O 	O 	0.3673	0.4538	0.1835	-0.502
Mof_O 	O 	0.0362	0.8083	0.2683	-0.529
Mof_O 	O 	0.0102	0.5827	0.0144	-0.162
Mof_O 	O 	0.3601	0.1747	0.3773	-0.462
Mof_O 	O 	0.0047	0.3428	0.679	-0.382
Mof_O 	O 	0.0154	0.4733	0.0467	-0.159
Mof_O 	O 	0.0474	0.1404	0.6583	-0.403
Mof_O 	O 	0.1759	0.2351	0.445	-0.381
Mof_O 	O 	0.7073	0.6855	0.5694	-0.411
Mof_O 	O 	0.5862	0.6423	0.9389	-0.294
Mof_O 	O 	0.7109	0.8432	0.1901	-0.594
Mof_O 	O 	0.0694	0.0103	0.2917	-0.43
Mof_O 	O 	0.2891	0.1568	0.8099	-0.594
Mof_O 	O 	0.8205	0.0532	0.63205	-0.505
Mof_O 	O 	0.5828	0.8512	0.205	-0.392
Mof_O 	O 	0.8531	0.6572	0.3234	-0.441
Mof_O 	O 	0.7083	0.704	0.9143	-0.419
Mof_O 	O 	0.9898	0.4173	0.9856	-0.162
Mof_O 	O 	0.1653	0.1465	0.3451	-0.445
Mof_O 	O 	0.8347	0.8535	0.6549	-0.445
Mof_O 	O 	0.7778	0.9259	0.56905	-0.5
Mof_O 	O 	0.8241	0.7649	0.555	-0.381
Mof_O 	O 	0.478	0.5862	0.2289	-0.447
Mof_O 	O 	0.8512	0.6533	0.2234	-0.442
Mof_O 	O 	0.522	0.4138	0.7711	-0.447
Mof_O 	O 	0.2968	0.0529	0.3126	-0.45
Mof_O 	O 	0.9846	0.5267	0.9533	-0.159
Mof_O 	O 	0.4172	0.1488	0.795	-0.392
Mof_O 	O 	0.4138	0.3577	0.0611	-0.294
Mof_O 	O 	0.9526	0.8596	0.3417	-0.403
Mof_O 	O 	0.1488	0.3467	0.7766	-0.442
Mof_O 	O 	0.9306	0.9897	0.7083	-0.43
Mof_O 	O 	0.8356	0.1288	0.7417	-0.444
Mof_O 	O 	0.9638	0.1917	0.7317	-0.529
Mof_O 	O 	0.3606	0.617	0.1481	-0.507
Mof_O 	O 	0.6327	0.5462	0.8165	-0.502
Mof_O 	O 	0.9953	0.6572	0.321	-0.382
Mof_O 	O 	0.1795	0.9468	0.36795	-0.505
Mof_O 	O 	0.7134	0.6461	0.1888	-0.475
Mof_O 	O 	0.2917	0.296	0.0857	-0.419
Mof_O 	O 	0.6394	0.383	0.8519	-0.507
Mof_O 	O 	0.2222	0.0741	0.43095	-0.5
Mof_O 	O 	0.2847	0.4899	0.08321	-0.483
Mof_O 	O 	0.1778	0.378	0.1398	-0.428
Mof_O 	O 	0.838	0.8284	0.2818	-0.56
Mof_O 	O 	0.7153	0.5101	0.91679	-0.483
Mof_O 	O 	0.7846	0.4795	0.813	-0.46
Mof_O 	O 	0.1644	0.8712	0.2583	-0.444
Mof_O 	O 	0.2927	0.3145	0.4306	-0.411
Mof_O 	O 	0.2154	0.5205	0.187	-0.46
Mof_O 	O 	0.8222	0.622	0.8602	-0.428
_end
