data_functionalizedCrystal
_audit_creation_method	'EQeq! by Chris Wilmer'
_symmetry_space_group_name_H-M	'P1'
_symmetry_Int_Tables_number	1
_symmetry_cell_setting	triclinic
loop_
_symmetry_equiv_pos_as_xyz
  x,y,z
_cell_length_a	12.847
_cell_length_b	14.844
_cell_length_c	15.148
_cell_angle_alpha	90
_cell_angle_beta	90
_cell_angle_gamma	90
loop_
_atom_site_label
_atom_site_type_symbol
_atom_site_fract_x
_atom_site_fract_y
_atom_site_fract_z
_atom_site_charge
Mof_Mg	Mg	0.55671	0.23764	-0	1.462
Mof_Mg	Mg	0.44329	0.76236	-0	1.462
Mof_Mg	Mg	0.94329	0.73764	0.5	1.476
Mof_Mg	Mg	0.05671	0.26236	0.5	1.462
Mof_Mg	Mg	6.57978e-33	0.5	0.5	1.481
Mof_Mg	Mg	0.5	0	-0	1.48
Mof_H 	H 	0.417	0.4651	0.1234	0.049
Mof_H 	H 	0.2258	0.5536	0.3139	0.083
Mof_H 	H 	0.2524	0.2888	0.2672	0.031
Mof_H 	H 	0.3244	0.6578	0.2233	0.157
Mof_H 	H 	0.3965	0.6247	0.1534	0.138
Mof_H 	H 	0.088	0.654	0.5458	0.448
Mof_H 	H 	0.583	0.5349	0.1234	0.052
Mof_H 	H 	0.7742	0.4464	0.3139	0.091
Mof_H 	H 	0.7476	0.7112	0.2672	0.041
Mof_H 	H 	0.6756	0.3422	0.2233	0.16
Mof_H 	H 	0.6035	0.3753	0.1534	0.141
Mof_H 	H 	0.912	0.346	0.5458	0.441
Mof_H 	H 	0.083	0.9651	0.3766	0.037
Mof_H 	H 	0.2742	0.0536	0.1861	0.088
Mof_H 	H 	0.2476	0.7888	0.2328	0.035
Mof_H 	H 	0.1756	0.1578	0.2767	0.144
Mof_H 	H 	0.1035	0.1247	0.3466	0.112
Mof_H 	H 	0.412	0.154	0.9542	0.565
Mof_H 	H 	0.917	0.0349	0.3766	0.09
Mof_H 	H 	0.7258	0.9464	0.1861	0.08
Mof_H 	H 	0.7524	0.2112	0.2328	0.035
Mof_H 	H 	0.8244	0.8422	0.2767	0.172
Mof_H 	H 	0.8965	0.8753	0.3466	0.177
Mof_H 	H 	0.588	0.846	0.9542	0.563
Mof_H 	H 	0.583	0.5349	0.8766	0.082
Mof_H 	H 	0.7742	0.4464	0.6861	0.097
Mof_H 	H 	0.7476	0.7112	0.7328	0.048
Mof_H 	H 	0.6756	0.3422	0.7767	0.168
Mof_H 	H 	0.6035	0.3753	0.8466	0.159
Mof_H 	H 	0.912	0.346	0.4542	0.44
Mof_H 	H 	0.417	0.4651	0.8766	0.079
Mof_H 	H 	0.2258	0.5536	0.6861	0.089
Mof_H 	H 	0.2524	0.2888	0.7328	0.038
Mof_H 	H 	0.3244	0.6578	0.7767	0.165
Mof_H 	H 	0.3965	0.6247	0.8466	0.156
Mof_H 	H 	0.088	0.654	0.4542	0.447
Mof_H 	H 	0.917	0.0349	0.6234	0.092
Mof_H 	H 	0.7258	0.9464	0.8139	0.094
Mof_H 	H 	0.7524	0.2112	0.7672	0.046
Mof_H 	H 	0.8244	0.8422	0.7233	0.179
Mof_H 	H 	0.8965	0.8753	0.6534	0.18
Mof_H 	H 	0.588	0.846	0.0458	0.493
Mof_H 	H 	0.083	0.9651	0.6234	0.04
Mof_H 	H 	0.2742	0.0536	0.8139	0.1
Mof_H 	H 	0.2476	0.7888	0.7672	0.044
Mof_H 	H 	0.1756	0.1578	0.7233	0.152
Mof_H 	H 	0.1035	0.1247	0.6534	0.116
Mof_H 	H 	0.412	0.154	0.0458	0.49
Mof_C 	C 	0.3406	0.36567	0.18641	-0.08
Mof_C 	C 	0.3262	0.52481	0.2158	0.114
Mof_C 	C 	0.369	0.45347	0.16798	-0.084
Mof_C 	C 	0.3862	0.28981	0.13283	0.359
Mof_C 	C 	0.2554	0.50641	0.28224	-0.081
Mof_C 	C 	0.22793	0.41847	0.30213	-0.098
Mof_C 	C 	0.27064	0.34794	0.25406	0.022
Mof_C 	C 	0.15133	0.4014	0.37537	0.453
Mof_C 	C 	0.6594	0.63433	0.18641	-0.067
Mof_C 	C 	0.6738	0.47519	0.2158	0.125
Mof_C 	C 	0.631	0.54653	0.16798	-0.087
Mof_C 	C 	0.6138	0.71019	0.13283	0.357
Mof_C 	C 	0.7446	0.49359	0.28224	-0.085
Mof_C 	C 	0.77207	0.58153	0.30213	-0.078
Mof_C 	C 	0.72936	0.65206	0.25406	0.019
Mof_C 	C 	0.84867	0.5986	0.37537	0.446
Mof_C 	C 	0.1594	0.86567	0.31359	-0.089
Mof_C 	C 	0.1738	0.02481	0.2842	0.059
Mof_C 	C 	0.131	0.95347	0.33202	-0.01
Mof_C 	C 	0.1138	0.78981	0.36717	0.366
Mof_C 	C 	0.2446	0.00641	0.21776	-0.146
Mof_C 	C 	0.27207	0.91847	0.19787	-0.034
Mof_C 	C 	0.22936	0.84794	0.24594	0.011
Mof_C 	C 	0.34867	0.9014	0.12463	0.431
Mof_C 	C 	0.8406	0.13433	0.31359	-0.042
Mof_C 	C 	0.8262	0.97519	0.2842	0.182
Mof_C 	C 	0.869	0.04653	0.33202	-0.157
Mof_C 	C 	0.8862	0.21019	0.36717	0.346
Mof_C 	C 	0.7554	0.99359	0.21776	-0.03
Mof_C 	C 	0.72793	0.08153	0.19787	-0.142
Mof_C 	C 	0.77064	0.15206	0.24594	0.025
Mof_C 	C 	0.65133	0.0986	0.12463	0.466
Mof_C 	C 	0.6594	0.63433	0.81359	-0.04
Mof_C 	C 	0.6738	0.47519	0.7842	0.15
Mof_C 	C 	0.631	0.54653	0.83202	-0.099
Mof_C 	C 	0.6138	0.71019	0.86717	0.353
Mof_C 	C 	0.7446	0.49359	0.71776	-0.093
Mof_C 	C 	0.77207	0.58153	0.69787	-0.064
Mof_C 	C 	0.72936	0.65206	0.74594	0.011
Mof_C 	C 	0.84867	0.5986	0.62463	0.445
Mof_C 	C 	0.3406	0.36567	0.81359	-0.052
Mof_C 	C 	0.3262	0.52481	0.7842	0.138
Mof_C 	C 	0.369	0.45347	0.83202	-0.096
Mof_C 	C 	0.3862	0.28981	0.86717	0.354
Mof_C 	C 	0.2554	0.50641	0.71776	-0.089
Mof_C 	C 	0.22793	0.41847	0.69787	-0.084
Mof_C 	C 	0.27064	0.34794	0.74594	0.013
Mof_C 	C 	0.15133	0.4014	0.62463	0.451
Mof_C 	C 	0.8406	0.13433	0.68641	-0.031
Mof_C 	C 	0.8262	0.97519	0.7158	0.194
Mof_C 	C 	0.869	0.04653	0.66798	-0.158
Mof_C 	C 	0.8862	0.21019	0.63283	0.346
Mof_C 	C 	0.7554	0.99359	0.78224	-0.043
Mof_C 	C 	0.72793	0.08153	0.80213	-0.112
Mof_C 	C 	0.77064	0.15206	0.75406	0.017
Mof_C 	C 	0.65133	0.0986	0.87537	0.457
Mof_C 	C 	0.1594	0.86567	0.68641	-0.08
Mof_C 	C 	0.1738	0.02481	0.7158	0.073
Mof_C 	C 	0.131	0.95347	0.66798	-0.018
Mof_C 	C 	0.1138	0.78981	0.63283	0.366
Mof_C 	C 	0.2446	0.00641	0.78224	-0.144
Mof_C 	C 	0.27207	0.91847	0.80213	-0.018
Mof_C 	C 	0.22936	0.84794	0.75406	0.008
Mof_C 	C 	0.34867	0.9014	0.87537	0.426
Mof_N 	N 	0.3524	0.6139	0.1948	-0.309
Mof_N 	N 	0.6476	0.3861	0.1948	-0.311
Mof_N 	N 	0.1476	0.1139	0.3052	-0.296
Mof_N 	N 	0.8524	0.8861	0.3052	-0.325
Mof_N 	N 	0.6476	0.3861	0.8052	-0.316
Mof_N 	N 	0.3524	0.6139	0.8052	-0.315
Mof_N 	N 	0.8524	0.8861	0.6948	-0.327
Mof_N 	N 	0.1476	0.1139	0.6948	-0.298
Mof_O 	O 	0.47116	0.3051	0.09454	-0.518
Mof_O 	O 	0.3368	0.21675	0.12913	-0.354
Mof_O 	O 	0.14142	0.32269	0.4015	-0.543
Mof_O 	O 	0.10404	0.46772	0.40486	-0.509
Mof_O 	O 	0.52884	0.6949	0.09454	-0.515
Mof_O 	O 	0.6632	0.78325	0.12913	-0.332
Mof_O 	O 	0.85858	0.67731	0.4015	-0.499
Mof_O 	O 	0.89596	0.53228	0.40486	-0.461
Mof_O 	O 	0.02884	0.8051	0.40546	-0.525
Mof_O 	O 	0.1632	0.71675	0.37087	-0.331
Mof_O 	O 	0.35858	0.82269	0.0985	-0.535
Mof_O 	O 	0.39596	0.96772	0.09514	-0.467
Mof_O 	O 	0.97116	0.1949	0.40546	-0.459
Mof_O 	O 	0.8368	0.28325	0.37087	-0.315
Mof_O 	O 	0.64142	0.17731	0.0985	-0.544
Mof_O 	O 	0.60404	0.03228	0.09514	-0.526
Mof_O 	O 	0.52884	0.6949	0.90546	-0.465
Mof_O 	O 	0.6632	0.78325	0.87087	-0.303
Mof_O 	O 	0.85858	0.67731	0.5985	-0.497
Mof_O 	O 	0.89596	0.53228	0.59514	-0.457
Mof_O 	O 	0.47116	0.3051	0.90546	-0.466
Mof_O 	O 	0.3368	0.21675	0.87087	-0.322
Mof_O 	O 	0.14142	0.32269	0.5985	-0.54
Mof_O 	O 	0.10404	0.46772	0.59514	-0.505
Mof_O 	O 	0.97116	0.1949	0.59454	-0.456
Mof_O 	O 	0.8368	0.28325	0.62913	-0.311
Mof_O 	O 	0.64142	0.17731	0.9015	-0.487
Mof_O 	O 	0.60404	0.03228	0.90486	-0.471
Mof_O 	O 	0.02884	0.8051	0.59454	-0.523
Mof_O 	O 	0.1632	0.71675	0.62913	-0.328
Mof_O 	O 	0.35858	0.82269	0.9015	-0.483
Mof_O 	O 	0.39596	0.96772	0.90486	-0.42
Mof_O 	O 	0.05996	0.63269	0.5	-1.151
Mof_O 	O 	0.94004	0.36731	0.5	-1.084
Mof_O 	O 	0.44004	0.13269	-0	-1.316
Mof_O 	O 	0.55996	0.86731	-0	-1.284
_end
