# CIF file generated by openbabel 3.1.0, see https://openbabel.org
data_I
_chemical_name_common 'image0'
_cell_length_a 13.87
_cell_length_b 13.87
_cell_length_c 15.222
_cell_angle_alpha 90
_cell_angle_beta 90
_cell_angle_gamma 120
_space_group_name_H-M_alt 'P 1'
_space_group_name_Hall 'P 1'
loop_
    _symmetry_equiv_pos_as_xyz
    x,y,z
loop_
    _atom_site_label
    _atom_site_type_symbol
    _atom_site_fract_x
    _atom_site_fract_y
    _atom_site_fract_z
    _atom_site_occupancy
    Al1      Al       0.56603    0.67507    0.26611    1.000
    P1       P        0.56852    0.67509    0.05768    1.000
    O1       O        0.60300    0.67610    0.15120    1.000
    O2       O        0.64820    0.66250    0.99760    1.000
    O3       O        0.44990    0.58200    0.04360    1.000
    O4       O        0.57660    0.78380    0.03560    1.000
    Al2      Al       0.23270    0.00840    0.59944    1.000
    P2       P        0.23519    0.00842    0.39101    1.000
    O5       O        0.26967    0.00943    0.48453    1.000
    O6       O        0.31487    0.99583    0.33093    1.000
    O7       O        0.11657    0.91533    0.37693    1.000
    O8       O        0.24327    0.11713    0.36893    1.000
    Al3      Al       0.89936    0.34174    0.93278    1.000
    P3       P        0.90185    0.34176    0.72435    1.000
    O9       O        0.93633    0.34277    0.81787    1.000
    O10      O        0.98153    0.32917    0.66427    1.000
    O11      O        0.78323    0.24867    0.71027    1.000
    O12      O        0.90993    0.45047    0.70227    1.000
    Al4      Al       0.32493    0.89096    0.26611    1.000
    P4       P        0.32491    0.89343    0.05768    1.000
    O13      O        0.32390    0.92690    0.15120    1.000
    O14      O        0.33750    0.98570    0.99760    1.000
    O15      O        0.41800    0.86790    0.04360    1.000
    O16      O        0.21620    0.79280    0.03560    1.000
    Al5      Al       0.99160    0.22429    0.59944    1.000
    P5       P        0.99158    0.22676    0.39101    1.000
    O17      O        0.99057    0.26023    0.48453    1.000
    O18      O        0.00417    0.31903    0.33093    1.000
    O19      O        0.08467    0.20123    0.37693    1.000
    O20      O        0.88287    0.12613    0.36893    1.000
    Al6      Al       0.65826    0.55763    0.93278    1.000
    P6       P        0.65824    0.56010    0.72435    1.000
    O21      O        0.65723    0.59357    0.81787    1.000
    O22      O        0.67083    0.65237    0.66427    1.000
    O23      O        0.75133    0.53457    0.71027    1.000
    O24      O        0.54953    0.45947    0.70227    1.000
    Al7      Al       0.10904    0.43397    0.26611    1.000
    P7       P        0.10657    0.43148    0.05768    1.000
    O25      O        0.07310    0.39700    0.15120    1.000
    O26      O        0.01430    0.35180    0.99760    1.000
    O27      O        0.13210    0.55010    0.04360    1.000
    O28      O        0.20720    0.42340    0.03560    1.000
    Al8      Al       0.77571    0.76730    0.59944    1.000
    P8       P        0.77324    0.76481    0.39101    1.000
    O29      O        0.73977    0.73033    0.48453    1.000
    O30      O        0.68097    0.68513    0.33093    1.000
    O31      O        0.79877    0.88343    0.37693    1.000
    O32      O        0.87387    0.75673    0.36893    1.000
    Al9      Al       0.44237    0.10064    0.93278    1.000
    P9       P        0.43990    0.09815    0.72435    1.000
    O33      O        0.40643    0.06367    0.81787    1.000
    O34      O        0.34763    0.01847    0.66427    1.000
    O35      O        0.46543    0.21677    0.71027    1.000
    O36      O        0.54053    0.09007    0.70227    1.000
    Al10     Al       0.43397    0.32493    0.73389    1.000
    P10      P        0.43148    0.32491    0.94232    1.000
    O37      O        0.39700    0.32390    0.84880    1.000
    O38      O        0.35180    0.33750    0.00240    1.000
    O39      O        0.55010    0.41800    0.95640    1.000
    O40      O        0.42340    0.21620    0.96440    1.000
    Al11     Al       0.10064    0.65826    0.06722    1.000
    P11      P        0.09815    0.65824    0.27565    1.000
    O41      O        0.06367    0.65723    0.18213    1.000
    O42      O        0.01847    0.67083    0.33573    1.000
    O43      O        0.21677    0.75133    0.28973    1.000
    O44      O        0.09007    0.54953    0.29773    1.000
    Al12     Al       0.76730    0.99160    0.40056    1.000
    P12      P        0.76481    0.99158    0.60899    1.000
    O45      O        0.73033    0.99057    0.51547    1.000
    O46      O        0.68513    0.00417    0.66907    1.000
    O47      O        0.88343    0.08467    0.62307    1.000
    O48      O        0.75673    0.88287    0.63107    1.000
    Al13     Al       0.67507    0.10904    0.73389    1.000
    P13      P        0.67509    0.10657    0.94232    1.000
    O49      O        0.67610    0.07310    0.84880    1.000
    O50      O        0.66250    0.01430    0.00240    1.000
    O51      O        0.58200    0.13210    0.95640    1.000
    O52      O        0.78380    0.20720    0.96440    1.000
    Al14     Al       0.34174    0.44237    0.06722    1.000
    P14      P        0.34176    0.43990    0.27565    1.000
    O53      O        0.34277    0.40643    0.18213    1.000
    O54      O        0.32917    0.34763    0.33573    1.000
    O55      O        0.24867    0.46543    0.28973    1.000
    O56      O        0.45047    0.54053    0.29773    1.000
    Al15     Al       0.00840    0.77571    0.40056    1.000
    P15      P        0.00842    0.77324    0.60899    1.000
    O57      O        0.00943    0.73977    0.51547    1.000
    O58      O        0.99583    0.68097    0.66907    1.000
    O59      O        0.91533    0.79877    0.62307    1.000
    O60      O        0.11713    0.87387    0.63107    1.000
    Al16     Al       0.89096    0.56603    0.73389    1.000
    P16      P        0.89343    0.56852    0.94232    1.000
    O61      O        0.92690    0.60300    0.84880    1.000
    O62      O        0.98570    0.64820    0.00240    1.000
    O63      O        0.86790    0.44990    0.95640    1.000
    O64      O        0.79280    0.57660    0.96440    1.000
    Al17     Al       0.55763    0.89936    0.06722    1.000
    P17      P        0.56010    0.90185    0.27565    1.000
    O65      O        0.59357    0.93633    0.18213    1.000
    O66      O        0.65237    0.98153    0.33573    1.000
    O67      O        0.53457    0.78323    0.28973    1.000
    O68      O        0.45947    0.90993    0.29773    1.000
    Al18     Al       0.22429    0.23270    0.40056    1.000
    P18      P        0.22676    0.23519    0.60899    1.000
    O69      O        0.26023    0.26967    0.51547    1.000
    O70      O        0.31903    0.31487    0.66907    1.000
    O71      O        0.20123    0.11657    0.62307    1.000
    O72      O        0.12613    0.24327    0.63107    1.000
