data_functionalizedCrystal
_audit_creation_method	'EQeq! by Chris Wilmer'
_symmetry_space_group_name_H-M	'P1'
_symmetry_Int_Tables_number	1
_symmetry_cell_setting	triclinic
loop_
_symmetry_equiv_pos_as_xyz
  x,y,z
_cell_length_a	18.6883
_cell_length_b	18.6883
_cell_length_c	18.6883
_cell_angle_alpha	60
_cell_angle_beta	60
_cell_angle_gamma	60
loop_
_atom_site_label
_atom_site_type_symbol
_atom_site_fract_x
_atom_site_fract_y
_atom_site_fract_z
_atom_site_charge
Mof_Co	Co	0.07904	0.5	0.92096	1.176
Mof_Co	Co	0.5	0.07904	0.5	1.176
Mof_Co	Co	0.92096	0.5	0.07904	1.176
Mof_Co	Co	0.5	0.92096	0.5	1.176
Mof_Co	Co	0.07904	0.92096	0.5	1.176
Mof_Co	Co	0.5	0.5	0.92096	1.176
Mof_Co	Co	0.92096	0.07904	0.5	1.176
Mof_Co	Co	0.5	0.5	0.07904	1.176
Mof_Co	Co	0.07904	0.5	0.5	1.176
Mof_Co	Co	0.5	0.92096	0.07904	1.176
Mof_Co	Co	0.92096	0.5	0.5	1.176
Mof_Co	Co	0.5	0.07904	0.92096	1.176
Mof_H 	H 	0.2294	0.2294	0.0106	0.059
Mof_H 	H 	0.2294	0.2294	0.5306	0.06
Mof_H 	H 	0.0106	0.5306	0.2294	0.059
Mof_H 	H 	0.5306	0.0106	0.2294	0.059
Mof_H 	H 	0.2294	0.0106	0.5306	0.059
Mof_H 	H 	0.2294	0.5306	0.0106	0.059
Mof_H 	H 	0.0106	0.2294	0.2294	0.06
Mof_H 	H 	0.5306	0.2294	0.2294	0.061
Mof_H 	H 	0.2294	0.5306	0.2294	0.061
Mof_H 	H 	0.2294	0.0106	0.2294	0.06
Mof_H 	H 	0.0106	0.2294	0.5306	0.06
Mof_H 	H 	0.5306	0.2294	0.0106	0.06
Mof_H 	H 	0.7706	0.7706	0.9894	0.06
Mof_H 	H 	0.7706	0.7706	0.4694	0.061
Mof_H 	H 	0.4694	0.9894	0.7706	0.06
Mof_H 	H 	0.9894	0.4694	0.7706	0.06
Mof_H 	H 	0.9894	0.7706	0.4694	0.06
Mof_H 	H 	0.4694	0.7706	0.9894	0.06
Mof_H 	H 	0.7706	0.9894	0.7706	0.06
Mof_H 	H 	0.7706	0.4694	0.7706	0.061
Mof_H 	H 	0.4694	0.7706	0.7706	0.061
Mof_H 	H 	0.9894	0.7706	0.7706	0.06
Mof_H 	H 	0.7706	0.9894	0.4694	0.06
Mof_H 	H 	0.7706	0.4694	0.9894	0.06
Mof_C 	C 	0.1121	0.2433	0.1121	-0.102
Mof_C 	C 	0.0693	0.3359	0.0693	0.359
Mof_C 	C 	0.2433	0.1121	0.5325	-0.109
Mof_C 	C 	0.3359	0.0693	0.5255	0.382
Mof_C 	C 	0.1121	0.5325	0.1121	-0.106
Mof_C 	C 	0.0693	0.5255	0.0693	0.368
Mof_C 	C 	0.5325	0.1121	0.2433	-0.109
Mof_C 	C 	0.5255	0.0693	0.3359	0.382
Mof_C 	C 	0.1121	0.1121	0.5325	-0.106
Mof_C 	C 	0.0693	0.0693	0.5255	0.368
Mof_C 	C 	0.2433	0.5325	0.1121	-0.109
Mof_C 	C 	0.3359	0.5255	0.0693	0.382
Mof_C 	C 	0.1121	0.1121	0.2433	-0.102
Mof_C 	C 	0.0693	0.0693	0.3359	0.359
Mof_C 	C 	0.5325	0.2433	0.1121	-0.109
Mof_C 	C 	0.5255	0.3359	0.0693	0.382
Mof_C 	C 	0.1121	0.5325	0.2433	-0.109
Mof_C 	C 	0.0693	0.5255	0.3359	0.382
Mof_C 	C 	0.2433	0.1121	0.1121	-0.102
Mof_C 	C 	0.3359	0.0693	0.0693	0.359
Mof_C 	C 	0.1121	0.2433	0.5325	-0.109
Mof_C 	C 	0.0693	0.3359	0.5255	0.382
Mof_C 	C 	0.5325	0.1121	0.1121	-0.106
Mof_C 	C 	0.5255	0.0693	0.0693	0.368
Mof_C 	C 	0.7567	0.8879	0.8879	-0.102
Mof_C 	C 	0.6641	0.9307	0.9307	0.359
Mof_C 	C 	0.8879	0.7567	0.4675	-0.109
Mof_C 	C 	0.9307	0.6641	0.4745	0.382
Mof_C 	C 	0.4675	0.8879	0.8879	-0.106
Mof_C 	C 	0.4745	0.9307	0.9307	0.368
Mof_C 	C 	0.8879	0.4675	0.7567	-0.109
Mof_C 	C 	0.9307	0.4745	0.6641	0.382
Mof_C 	C 	0.8879	0.8879	0.4675	-0.106
Mof_C 	C 	0.9307	0.9307	0.4745	0.368
Mof_C 	C 	0.4675	0.7567	0.8879	-0.109
Mof_C 	C 	0.4745	0.6641	0.9307	0.382
Mof_C 	C 	0.8879	0.8879	0.7567	-0.102
Mof_C 	C 	0.9307	0.9307	0.6641	0.359
Mof_C 	C 	0.7567	0.4675	0.8879	-0.109
Mof_C 	C 	0.6641	0.4745	0.9307	0.382
Mof_C 	C 	0.4675	0.8879	0.7567	-0.109
Mof_C 	C 	0.4745	0.9307	0.6641	0.382
Mof_C 	C 	0.8879	0.7567	0.8879	-0.102
Mof_C 	C 	0.9307	0.6641	0.9307	0.359
Mof_C 	C 	0.7567	0.8879	0.4675	-0.109
Mof_C 	C 	0.6641	0.9307	0.4745	0.382
Mof_C 	C 	0.8879	0.4675	0.8879	-0.106
Mof_C 	C 	0.9307	0.4745	0.9307	0.368
Mof_C 	C 	0.1997	0.1997	0.0689	0.048
Mof_C 	C 	0.1997	0.1997	0.5317	0.058
Mof_C 	C 	0.0689	0.5317	0.1997	0.056
Mof_C 	C 	0.5317	0.0689	0.1997	0.056
Mof_C 	C 	0.1997	0.0689	0.5317	0.056
Mof_C 	C 	0.1997	0.5317	0.0689	0.056
Mof_C 	C 	0.0689	0.1997	0.1997	0.048
Mof_C 	C 	0.5317	0.1997	0.1997	0.058
Mof_C 	C 	0.1997	0.5317	0.1997	0.058
Mof_C 	C 	0.1997	0.0689	0.1997	0.048
Mof_C 	C 	0.0689	0.1997	0.5317	0.056
Mof_C 	C 	0.5317	0.1997	0.0689	0.056
Mof_C 	C 	0.8003	0.8003	0.9311	0.048
Mof_C 	C 	0.8003	0.8003	0.4683	0.058
Mof_C 	C 	0.4683	0.9311	0.8003	0.056
Mof_C 	C 	0.9311	0.4683	0.8003	0.056
Mof_C 	C 	0.9311	0.8003	0.4683	0.056
Mof_C 	C 	0.4683	0.8003	0.9311	0.056
Mof_C 	C 	0.8003	0.9311	0.8003	0.048
Mof_C 	C 	0.8003	0.4683	0.8003	0.058
Mof_C 	C 	0.4683	0.8003	0.8003	0.058
Mof_C 	C 	0.9311	0.8003	0.8003	0.048
Mof_C 	C 	0.8003	0.9311	0.4683	0.056
Mof_C 	C 	0.8003	0.4683	0.9311	0.056
Mof_O 	O 	0.1133	0.3715	0.9931	-0.411
Mof_O 	O 	0.3715	0.1133	0.5221	-0.423
Mof_O 	O 	0.9931	0.5221	0.1133	-0.415
Mof_O 	O 	0.5221	0.9931	0.3715	-0.421
Mof_O 	O 	0.1133	0.9931	0.5221	-0.415
Mof_O 	O 	0.3715	0.5221	0.9931	-0.421
Mof_O 	O 	0.9931	0.1133	0.3715	-0.411
Mof_O 	O 	0.5221	0.3715	0.1133	-0.423
Mof_O 	O 	0.1133	0.5221	0.3715	-0.423
Mof_O 	O 	0.3715	0.9931	0.1133	-0.411
Mof_O 	O 	0.9931	0.3715	0.5221	-0.421
Mof_O 	O 	0.5221	0.1133	0.9931	-0.415
Mof_O 	O 	0.6285	0.8867	0.0069	-0.411
Mof_O 	O 	0.8867	0.6285	0.4779	-0.423
Mof_O 	O 	0.4779	0.0069	0.8867	-0.415
Mof_O 	O 	0.0069	0.4779	0.6285	-0.421
Mof_O 	O 	0.0069	0.8867	0.4779	-0.415
Mof_O 	O 	0.4779	0.6285	0.0069	-0.421
Mof_O 	O 	0.8867	0.0069	0.6285	-0.411
Mof_O 	O 	0.6285	0.4779	0.8867	-0.423
Mof_O 	O 	0.4779	0.8867	0.6285	-0.423
Mof_O 	O 	0.0069	0.6285	0.8867	-0.411
Mof_O 	O 	0.6285	0.0069	0.4779	-0.421
Mof_O 	O 	0.8867	0.4779	0.0069	-0.415
Mof_O 	O 	0.8867	0.6285	0.0069	-0.411
Mof_O 	O 	0.6285	0.8867	0.4779	-0.423
Mof_O 	O 	0.0069	0.4779	0.8867	-0.415
Mof_O 	O 	0.4779	0.0069	0.6285	-0.421
Mof_O 	O 	0.8867	0.0069	0.4779	-0.415
Mof_O 	O 	0.6285	0.4779	0.0069	-0.421
Mof_O 	O 	0.0069	0.8867	0.6285	-0.411
Mof_O 	O 	0.4779	0.6285	0.8867	-0.423
Mof_O 	O 	0.8867	0.4779	0.6285	-0.423
Mof_O 	O 	0.6285	0.0069	0.8867	-0.411
Mof_O 	O 	0.0069	0.6285	0.4779	-0.421
Mof_O 	O 	0.4779	0.8867	0.0069	-0.415
Mof_O 	O 	0.3715	0.1133	0.9931	-0.411
Mof_O 	O 	0.1133	0.3715	0.5221	-0.423
Mof_O 	O 	0.5221	0.9931	0.1133	-0.415
Mof_O 	O 	0.9931	0.5221	0.3715	-0.421
Mof_O 	O 	0.9931	0.1133	0.5221	-0.415
Mof_O 	O 	0.5221	0.3715	0.9931	-0.421
Mof_O 	O 	0.1133	0.9931	0.3715	-0.411
Mof_O 	O 	0.3715	0.5221	0.1133	-0.423
Mof_O 	O 	0.5221	0.1133	0.3715	-0.423
Mof_O 	O 	0.9931	0.3715	0.1133	-0.411
Mof_O 	O 	0.3715	0.9931	0.5221	-0.421
Mof_O 	O 	0.1133	0.5221	0.9931	-0.415
Mof_O 	O 	0.1718	0.5232	0.7818	-0.134
Mof_O 	O 	0.5232	0.1718	0.5232	-0.133
Mof_O 	O 	0.7818	0.5232	0.1718	-0.134
Mof_O 	O 	0.5232	0.7818	0.5232	-0.134
Mof_O 	O 	0.1718	0.7818	0.5232	-0.134
Mof_O 	O 	0.5232	0.5232	0.7818	-0.134
Mof_O 	O 	0.7818	0.1718	0.5232	-0.134
Mof_O 	O 	0.5232	0.5232	0.1718	-0.133
Mof_O 	O 	0.1718	0.5232	0.5232	-0.133
Mof_O 	O 	0.5232	0.7818	0.1718	-0.134
Mof_O 	O 	0.7818	0.5232	0.5232	-0.134
Mof_O 	O 	0.5232	0.1718	0.7818	-0.134
Mof_O 	O 	0.4768	0.8282	0.2182	-0.134
Mof_O 	O 	0.8282	0.4768	0.4768	-0.133
Mof_O 	O 	0.4768	0.2182	0.8282	-0.134
Mof_O 	O 	0.2182	0.4768	0.4768	-0.134
Mof_O 	O 	0.2182	0.8282	0.4768	-0.134
Mof_O 	O 	0.4768	0.4768	0.2182	-0.134
Mof_O 	O 	0.8282	0.2182	0.4768	-0.134
Mof_O 	O 	0.4768	0.4768	0.8282	-0.133
Mof_O 	O 	0.4768	0.8282	0.4768	-0.133
Mof_O 	O 	0.2182	0.4768	0.8282	-0.134
Mof_O 	O 	0.4768	0.2182	0.4768	-0.134
Mof_O 	O 	0.8282	0.4768	0.2182	-0.134
_end
