# CIF file generated by openbabel 3.1.0, see https://openbabel.org
data_I
_chemical_name_common 'image0'
_cell_length_a 28.0942
_cell_length_b 28.0942
_cell_length_c 6.2846
_cell_angle_alpha 90
_cell_angle_beta 90
_cell_angle_gamma 120
_space_group_name_H-M_alt 'P 1'
_space_group_name_Hall 'P 1'
loop_
    _symmetry_equiv_pos_as_xyz
    x,y,z
loop_
    _atom_site_label
    _atom_site_type_symbol
    _atom_site_fract_x
    _atom_site_fract_y
    _atom_site_fract_z
    _atom_site_occupancy
    Co1      Co       0.30680    0.03248    0.71680    1.000
    P1       P        0.42240    0.03100    0.57050    1.000
    O1       O        0.47470    0.08250    0.52200    1.000
    O2       O        0.38960    0.04450    0.71850    1.000
    O3       O        0.38500    0.00290    0.38420    1.000
    N1       N        0.44779    0.99440    0.95570    1.000
    C1       C        0.43940    0.98470    0.71730    1.000
    C2       C        0.49750    0.05080    0.00100    1.000
    C3       C        0.45150    0.94970    0.08000    1.000
    Co2      Co       0.97347    0.36581    0.05013    1.000
    P2       P        0.08907    0.36433    0.90383    1.000
    O4       O        0.14137    0.41583    0.85533    1.000
    O5       O        0.05627    0.37783    0.05183    1.000
    O6       O        0.05167    0.33623    0.71753    1.000
    N2       N        0.11446    0.32773    0.28903    1.000
    C4       C        0.10607    0.31803    0.05063    1.000
    C5       C        0.16417    0.38413    0.33433    1.000
    C6       C        0.11817    0.28303    0.41333    1.000
    Co3      Co       0.64013    0.69915    0.38347    1.000
    P3       P        0.75573    0.69767    0.23717    1.000
    O7       O        0.80803    0.74917    0.18867    1.000
    O8       O        0.72293    0.71117    0.38517    1.000
    O9       O        0.71833    0.66957    0.05087    1.000
    N3       N        0.78112    0.66107    0.62237    1.000
    C7       C        0.77273    0.65137    0.38397    1.000
    C8       C        0.83083    0.71747    0.66767    1.000
    C9       C        0.78483    0.61637    0.74667    1.000
    Co4      Co       0.96752    0.27432    0.71680    1.000
    P4       P        0.96900    0.39140    0.57050    1.000
    O10      O        0.91750    0.39220    0.52200    1.000
    O11      O        0.95550    0.34510    0.71850    1.000
    O12      O        0.99710    0.38210    0.38420    1.000
    N4       N        0.00560    0.45339    0.95570    1.000
    C10      C        0.01530    0.45470    0.71730    1.000
    C11      C        0.94920    0.44670    0.00100    1.000
    C12      C        0.05030    0.50180    0.08000    1.000
    Co5      Co       0.63419    0.60765    0.05013    1.000
    P5       P        0.63567    0.72473    0.90383    1.000
    O13      O        0.58417    0.72553    0.85533    1.000
    O14      O        0.62217    0.67843    0.05183    1.000
    O15      O        0.66377    0.71543    0.71753    1.000
    N5       N        0.67227    0.78672    0.28903    1.000
    C13      C        0.68197    0.78803    0.05063    1.000
    C14      C        0.61587    0.78003    0.33433    1.000
    C15      C        0.71697    0.83513    0.41333    1.000
    Co6      Co       0.30085    0.94099    0.38347    1.000
    P6       P        0.30233    0.05807    0.23717    1.000
    O16      O        0.25083    0.05887    0.18867    1.000
    O17      O        0.28883    0.01177    0.38517    1.000
    O18      O        0.33043    0.04877    0.05087    1.000
    N6       N        0.33893    0.12006    0.62237    1.000
    C16      C        0.34863    0.12137    0.38397    1.000
    C17      C        0.28253    0.11337    0.66767    1.000
    C18      C        0.38363    0.16847    0.74667    1.000
    Co7      Co       0.72568    0.69320    0.71680    1.000
    P7       P        0.60860    0.57760    0.57050    1.000
    O19      O        0.60780    0.52530    0.52200    1.000
    O20      O        0.65490    0.61040    0.71850    1.000
    O21      O        0.61790    0.61500    0.38420    1.000
    N7       N        0.54661    0.55221    0.95570    1.000
    C19      C        0.54530    0.56060    0.71730    1.000
    C20      C        0.55330    0.50250    0.00100    1.000
    C21      C        0.49820    0.54850    0.08000    1.000
    Co8      Co       0.39235    0.02653    0.05013    1.000
    P8       P        0.27527    0.91093    0.90383    1.000
    O22      O        0.27447    0.85863    0.85533    1.000
    O23      O        0.32157    0.94373    0.05183    1.000
    O24      O        0.28457    0.94833    0.71753    1.000
    N8       N        0.21328    0.88554    0.28903    1.000
    C22      C        0.21197    0.89393    0.05063    1.000
    C23      C        0.21997    0.83583    0.33433    1.000
    C24      C        0.16487    0.88183    0.41333    1.000
    Co9      Co       0.05901    0.35987    0.38347    1.000
    P9       P        0.94193    0.24427    0.23717    1.000
    O25      O        0.94113    0.19197    0.18867    1.000
    O26      O        0.98823    0.27707    0.38517    1.000
    O27      O        0.95123    0.28167    0.05087    1.000
    N9       N        0.87994    0.21888    0.62237    1.000
    C25      C        0.87863    0.22727    0.38397    1.000
    C26      C        0.88663    0.16917    0.66767    1.000
    C27      C        0.83153    0.21517    0.74667    1.000
    Co10     Co       0.69320    0.96752    0.28320    1.000
    P10      P        0.57760    0.96900    0.42950    1.000
    O28      O        0.52530    0.91750    0.47800    1.000
    O29      O        0.61040    0.95550    0.28150    1.000
    O30      O        0.61500    0.99710    0.61580    1.000
    N10      N        0.55221    0.00560    0.04430    1.000
    C28      C        0.56060    0.01530    0.28270    1.000
    C29      C        0.50250    0.94920    0.99900    1.000
    C30      C        0.54850    0.05030    0.92000    1.000
    Co11     Co       0.35987    0.30085    0.61653    1.000
    P11      P        0.24427    0.30233    0.76283    1.000
    O31      O        0.19197    0.25083    0.81133    1.000
    O32      O        0.27707    0.28883    0.61483    1.000
    O33      O        0.28167    0.33043    0.94913    1.000
    N11      N        0.21888    0.33893    0.37763    1.000
    C31      C        0.22727    0.34863    0.61603    1.000
    C32      C        0.16917    0.28253    0.33233    1.000
    C33      C        0.21517    0.38363    0.25333    1.000
    Co12     Co       0.02653    0.63419    0.94987    1.000
    P12      P        0.91093    0.63567    0.09617    1.000
    O34      O        0.85863    0.58417    0.14467    1.000
    O35      O        0.94373    0.62217    0.94817    1.000
    O36      O        0.94833    0.66377    0.28247    1.000
    N12      N        0.88554    0.67227    0.71097    1.000
    C34      C        0.89393    0.68197    0.94937    1.000
    C35      C        0.83583    0.61587    0.66567    1.000
    C36      C        0.88183    0.71697    0.58667    1.000
    Co13     Co       0.03248    0.72568    0.28320    1.000
    P13      P        0.03100    0.60860    0.42950    1.000
    O37      O        0.08250    0.60780    0.47800    1.000
    O38      O        0.04450    0.65490    0.28150    1.000
    O39      O        0.00290    0.61790    0.61580    1.000
    N13      N        0.99440    0.54661    0.04430    1.000
    C37      C        0.98470    0.54530    0.28270    1.000
    C38      C        0.05080    0.55330    0.99900    1.000
    C39      C        0.94970    0.49820    0.92000    1.000
    Co14     Co       0.69915    0.05901    0.61653    1.000
    P14      P        0.69767    0.94193    0.76283    1.000
    O40      O        0.74917    0.94113    0.81133    1.000
    O41      O        0.71117    0.98823    0.61483    1.000
    O42      O        0.66957    0.95123    0.94913    1.000
    N14      N        0.66107    0.87994    0.37763    1.000
    C40      C        0.65137    0.87863    0.61603    1.000
    C41      C        0.71747    0.88663    0.33233    1.000
    C42      C        0.61637    0.83153    0.25333    1.000
    Co15     Co       0.36581    0.39235    0.94987    1.000
    P15      P        0.36433    0.27527    0.09617    1.000
    O43      O        0.41583    0.27447    0.14467    1.000
    O44      O        0.37783    0.32157    0.94817    1.000
    O45      O        0.33623    0.28457    0.28247    1.000
    N15      N        0.32773    0.21328    0.71097    1.000
    C43      C        0.31803    0.21197    0.94937    1.000
    C44      C        0.38413    0.21997    0.66567    1.000
    C45      C        0.28303    0.16487    0.58667    1.000
    Co16     Co       0.27432    0.30680    0.28320    1.000
    P16      P        0.39140    0.42240    0.42950    1.000
    O46      O        0.39220    0.47470    0.47800    1.000
    O47      O        0.34510    0.38960    0.28150    1.000
    O48      O        0.38210    0.38500    0.61580    1.000
    N16      N        0.45339    0.44779    0.04430    1.000
    C46      C        0.45470    0.43940    0.28270    1.000
    C47      C        0.44670    0.49750    0.99900    1.000
    C48      C        0.50180    0.45150    0.92000    1.000
    Co17     Co       0.94099    0.64013    0.61653    1.000
    P17      P        0.05807    0.75573    0.76283    1.000
    O49      O        0.05887    0.80803    0.81133    1.000
    O50      O        0.01177    0.72293    0.61483    1.000
    O51      O        0.04877    0.71833    0.94913    1.000
    N17      N        0.12006    0.78112    0.37763    1.000
    C49      C        0.12137    0.77273    0.61603    1.000
    C50      C        0.11337    0.83083    0.33233    1.000
    C51      C        0.16847    0.78483    0.25333    1.000
    Co18     Co       0.60765    0.97347    0.94987    1.000
    P18      P        0.72473    0.08907    0.09617    1.000
    O52      O        0.72553    0.14137    0.14467    1.000
    O53      O        0.67843    0.05627    0.94817    1.000
    O54      O        0.71543    0.05167    0.28247    1.000
    N18      N        0.78672    0.11446    0.71097    1.000
    C52      C        0.78803    0.10607    0.94937    1.000
    C53      C        0.78003    0.16417    0.66567    1.000
    C54      C        0.83513    0.11817    0.58667    1.000
