# CIF file generated by openbabel 3.1.0, see https://openbabel.org
data_I
_chemical_name_common 'image0'
_cell_length_a 13.0126
_cell_length_b 13.1146
_cell_length_c 13.9071
_cell_angle_alpha 84.956
_cell_angle_beta 69.273
_cell_angle_gamma 84.608
_space_group_name_H-M_alt 'P 1'
_space_group_name_Hall 'P 1'
loop_
    _symmetry_equiv_pos_as_xyz
    x,y,z
loop_
    _atom_site_label
    _atom_site_type_symbol
    _atom_site_fract_x
    _atom_site_fract_y
    _atom_site_fract_z
    _atom_site_occupancy
    Zn1      Zn       0.20298    0.32206    0.16422    1.000
    Zn2      Zn       0.13367    0.32743    0.39017    1.000
    O1       O        0.13961    0.47954    0.34898    1.000
    O2       O        0.13954    0.17424    0.37276    1.000
    O3       O        0.97261    0.33681    0.40015    1.000
    O4       O        0.20370    0.16945    0.20129    1.000
    O5       O        0.36409    0.31510    0.15423    1.000
    O6       O        0.19350    0.47562    0.17756    1.000
    N1       N        0.19910    0.32217    0.01894    1.000
    N2       N        0.13180    0.32447    0.53670    1.000
    O7       O        0.30370    0.31724    0.32514    1.000
    O8       O        0.03173    0.32620    0.22994    1.000
    C1       C        0.16890    0.52110    0.25980    1.000
    C2       C        0.15520    0.79910    0.32510    1.000
    C3       C        0.17120    0.12740    0.29140    1.000
    C4       C        0.14950    0.69150    0.33420    1.000
    H1       H        0.12820    0.65700    0.40050    1.000
    C5       C        0.37850    0.31440    0.23880    1.000
    C6       C        0.13410    0.96260    0.40130    1.000
    H2       H        0.11470    0.00110    0.46060    1.000
    C7       C        0.12880    0.85810    0.41200    1.000
    H3       H        0.10700    0.82490    0.47900    1.000
    C8       C        0.82100    0.31080    0.23270    1.000
    H4       H        0.88130    0.29980    0.17070    1.000
    C9       C        0.71260    0.30920    0.23290    1.000
    C10      C        0.49500    0.31120    0.23720    1.000
    C11      C        0.16860    0.01330    0.30170    1.000
    C12      C        0.17410    0.63620    0.24880    1.000
    C13      C        0.16740    0.32150    0.83060    1.000
    C14      C        0.58470    0.29300    0.14530    1.000
    H5       H        0.57130    0.28120    0.08450    1.000
    C15      C        0.69010    0.29210    0.14350    1.000
    H6       H        0.74950    0.27970    0.08110    1.000
    C16      C        0.84090    0.32770    0.31960    1.000
    C17      C        0.19750    0.95710    0.21660    1.000
    H7       H        0.22250    0.99110    0.15010    1.000
    C18      C        0.15270    0.32170    0.72930    1.000
    C19      C        0.51500    0.32710    0.32490    1.000
    H8       H        0.45470    0.33860    0.38670    1.000
    C20      C        0.62310    0.32660    0.32520    1.000
    C21      C        0.10740    0.40460    0.69120    1.000
    H9       H        0.08230    0.46390    0.72990    1.000
    C22      C        0.64570    0.34450    0.41490    1.000
    H10      H        0.58630    0.35660    0.47730    1.000
    C23      C        0.75100    0.34440    0.41280    1.000
    H11      H        0.76460    0.35550    0.47370    1.000
    C24      C        0.09720    0.40360    0.59490    1.000
    H12      H        0.06380    0.46260    0.57010    1.000
    C25      C        0.19080    0.84960    0.22550    1.000
    C26      C        0.22290    0.68640    0.14710    1.000
    H13      H        0.24690    0.64720    0.08780    1.000
    C27      C        0.23430    0.78930    0.13650    1.000
    H14      H        0.27090    0.82110    0.07060    1.000
    C28      C        0.95760    0.33030    0.31580    1.000
    C29      C        0.12720    0.23670    0.59490    1.000
    H15      H        0.11750    0.17510    0.56880    1.000
    C30      C        0.13590    0.23230    0.69160    1.000
    H16      H        0.13050    0.16920    0.73160    1.000
    C31      C        0.12200    0.40450    0.89640    1.000
    H17      H        0.07970    0.46030    0.87730    1.000
    C32      C        0.14070    0.40170    0.98740    1.000
    H18      H        0.11190    0.45760    0.03050    1.000
    C33      C        0.23000    0.24040    0.96310    1.000
    H19      H        0.26390    0.18190    0.98820    1.000
    C34      C        0.21510    0.23670    0.86970    1.000
    H20      H        0.23740    0.17620    0.83260    1.000
    C35      C        0.20300    0.24040    0.66330    1.000
    H21      H        0.24400    0.18470    0.68420    1.000
    C36      C        0.19090    0.24440    0.56840    1.000
    H22      H        0.22430    0.19060    0.52370    1.000
    C37      C        0.13680    0.41120    0.57750    1.000
    H23      H        0.13190    0.47440    0.53980    1.000
    C38      C        0.14880    0.41380    0.67270    1.000
    H24      H        0.15420    0.47700    0.69840    1.000
    C39      C        0.18750    0.79270    0.14090    1.000
    H25      H        0.19180    0.82780    0.07700    1.000
    C40      C        0.17800    0.68810    0.15390    1.000
    H26      H        0.17420    0.65120    0.09960    1.000
    C41      C        0.19860    0.40870    0.96170    1.000
    H27      H        0.20720    0.47120    0.98690    1.000
    C42      C        0.18600    0.41110    0.86770    1.000
    H28      H        0.18990    0.47410    0.82750    1.000
    C43      C        0.18800    0.23590    0.98120    1.000
    H29      H        0.19120    0.17310    0.02010    1.000
    C44      C        0.17210    0.23220    0.88830    1.000
    H30      H        0.16450    0.16840    0.86480    1.000
    Zn3      Zn       0.79702    0.67794    0.83578    1.000
    Zn4      Zn       0.86633    0.67257    0.60983    1.000
    O9       O        0.86039    0.52046    0.65102    1.000
    O10      O        0.86046    0.82576    0.62724    1.000
    O11      O        0.02739    0.66319    0.59985    1.000
    O12      O        0.79630    0.83055    0.79871    1.000
    O13      O        0.63591    0.68490    0.84577    1.000
    O14      O        0.80650    0.52438    0.82244    1.000
    N3       N        0.80090    0.67783    0.98106    1.000
    N4       N        0.86820    0.67553    0.46330    1.000
    O15      O        0.69630    0.68276    0.67486    1.000
    O16      O        0.96827    0.67380    0.77006    1.000
    C45      C        0.83110    0.47890    0.74020    1.000
    C46      C        0.84480    0.20090    0.67490    1.000
    C47      C        0.82880    0.87260    0.70860    1.000
    C48      C        0.85050    0.30850    0.66580    1.000
    H31      H        0.87180    0.34300    0.59950    1.000
    C49      C        0.62150    0.68560    0.76120    1.000
    C50      C        0.86590    0.03740    0.59870    1.000
    H32      H        0.88530    0.99890    0.53940    1.000
    C51      C        0.87120    0.14190    0.58800    1.000
    H33      H        0.89300    0.17510    0.52100    1.000
    C52      C        0.17900    0.68920    0.76730    1.000
    H34      H        0.11870    0.70020    0.82930    1.000
    C53      C        0.28740    0.69080    0.76710    1.000
    C54      C        0.50500    0.68880    0.76280    1.000
    C55      C        0.83140    0.98670    0.69830    1.000
    C56      C        0.82590    0.36380    0.75120    1.000
    C57      C        0.83260    0.67850    0.16940    1.000
    C58      C        0.41530    0.70700    0.85470    1.000
    H35      H        0.42870    0.71880    0.91550    1.000
    C59      C        0.30990    0.70790    0.85650    1.000
    H36      H        0.25050    0.72030    0.91890    1.000
    C60      C        0.15910    0.67230    0.68040    1.000
    C61      C        0.80250    0.04290    0.78340    1.000
    H37      H        0.77750    0.00890    0.84990    1.000
    C62      C        0.84730    0.67830    0.27070    1.000
    C63      C        0.48500    0.67290    0.67510    1.000
    H38      H        0.54530    0.66140    0.61330    1.000
    C64      C        0.37690    0.67340    0.67480    1.000
    C65      C        0.89260    0.59540    0.30880    1.000
    H39      H        0.91770    0.53610    0.27010    1.000
    C66      C        0.35430    0.65550    0.58510    1.000
    H40      H        0.41370    0.64340    0.52270    1.000
    C67      C        0.24900    0.65560    0.58720    1.000
    H41      H        0.23540    0.64450    0.52630    1.000
    C68      C        0.90280    0.59640    0.40510    1.000
    H42      H        0.93620    0.53740    0.42990    1.000
    C69      C        0.80920    0.15040    0.77450    1.000
    C70      C        0.77710    0.31360    0.85290    1.000
    H43      H        0.75310    0.35280    0.91220    1.000
    C71      C        0.76570    0.21070    0.86350    1.000
    H44      H        0.72910    0.17890    0.92940    1.000
    C72      C        0.04240    0.66970    0.68420    1.000
    C73      C        0.87280    0.76330    0.40510    1.000
    H45      H        0.88250    0.82490    0.43120    1.000
    C74      C        0.86410    0.76770    0.30840    1.000
    H46      H        0.86950    0.83080    0.26840    1.000
    C75      C        0.87800    0.59550    0.10360    1.000
    H47      H        0.92030    0.53970    0.12270    1.000
    C76      C        0.85930    0.59830    0.01260    1.000
    H48      H        0.88810    0.54240    0.96950    1.000
    C77      C        0.77000    0.75960    0.03690    1.000
    H49      H        0.73610    0.81810    0.01180    1.000
    C78      C        0.78490    0.76330    0.13030    1.000
    H50      H        0.76260    0.82380    0.16740    1.000
    C79      C        0.79700    0.75960    0.33670    1.000
    H51      H        0.75600    0.81530    0.31580    1.000
    C80      C        0.80910    0.75560    0.43160    1.000
    H52      H        0.77570    0.80940    0.47630    1.000
    C81      C        0.86320    0.58880    0.42250    1.000
    H53      H        0.86810    0.52560    0.46020    1.000
    C82      C        0.85120    0.58620    0.32730    1.000
    H54      H        0.84580    0.52300    0.30160    1.000
    C83      C        0.81250    0.20730    0.85910    1.000
    H55      H        0.80820    0.17220    0.92300    1.000
    C84      C        0.82200    0.31190    0.84610    1.000
    H56      H        0.82580    0.34880    0.90040    1.000
    C85      C        0.80140    0.59130    0.03830    1.000
    H57      H        0.79280    0.52880    0.01310    1.000
    C86      C        0.81400    0.58890    0.13230    1.000
    H58      H        0.81010    0.52590    0.17250    1.000
    C87      C        0.81200    0.76410    0.01880    1.000
    H59      H        0.80880    0.82690    0.97990    1.000
    C88      C        0.82790    0.76780    0.11170    1.000
    H60      H        0.83550    0.83160    0.13520    1.000
