# CIF file generated by openbabel 3.1.0, see https://openbabel.org
data_I
_chemical_name_common 'image0'
_cell_length_a 10.508
_cell_length_b 10.464
_cell_length_c 6.336
_cell_angle_alpha 90
_cell_angle_beta 115.49
_cell_angle_gamma 90
_space_group_name_H-M_alt 'P 1'
_space_group_name_Hall 'P 1'
loop_
    _symmetry_equiv_pos_as_xyz
    x,y,z
loop_
    _atom_site_label
    _atom_site_type_symbol
    _atom_site_fract_x
    _atom_site_fract_y
    _atom_site_fract_z
    _atom_site_occupancy
    C1       C        0.31510    0.20970    0.54610    1.000
    H1       H        0.39640    0.26460    0.58390    1.000
    H2       H        0.32460    0.16880    0.68960    1.000
    N1       N        0.31500    0.11160    0.38250    1.000
    H3       H        0.30210    0.14960    0.24740    1.000
    H4       H        0.24110    0.05930    0.35190    1.000
    C2       C        0.81510    0.70970    0.54610    1.000
    H5       H        0.89640    0.76460    0.58390    1.000
    H6       H        0.82460    0.66880    0.68960    1.000
    N2       N        0.81500    0.61160    0.38250    1.000
    H7       H        0.80210    0.64960    0.24740    1.000
    H8       H        0.74110    0.55930    0.35190    1.000
    C3       C        0.68490    0.20970    0.95390    1.000
    H9       H        0.60360    0.26460    0.91610    1.000
    H10      H        0.67540    0.16880    0.81040    1.000
    N3       N        0.68500    0.11160    0.11750    1.000
    H11      H        0.69790    0.14960    0.25260    1.000
    H12      H        0.75890    0.05930    0.14810    1.000
    C4       C        0.18490    0.70970    0.95390    1.000
    H13      H        0.10360    0.76460    0.91610    1.000
    H14      H        0.17540    0.66880    0.81040    1.000
    N4       N        0.18500    0.61160    0.11750    1.000
    H15      H        0.19790    0.64960    0.25260    1.000
    H16      H        0.25890    0.55930    0.14810    1.000
    C5       C        0.68490    0.79030    0.45390    1.000
    H17      H        0.60360    0.73540    0.41610    1.000
    H18      H        0.67540    0.83120    0.31040    1.000
    N5       N        0.68500    0.88840    0.61750    1.000
    H19      H        0.69790    0.85040    0.75260    1.000
    H20      H        0.75890    0.94070    0.64810    1.000
    C6       C        0.18490    0.29030    0.45390    1.000
    H21      H        0.10360    0.23540    0.41610    1.000
    H22      H        0.17540    0.33120    0.31040    1.000
    N6       N        0.18500    0.38840    0.61750    1.000
    H23      H        0.19790    0.35040    0.75260    1.000
    H24      H        0.25890    0.44070    0.64810    1.000
    C7       C        0.31510    0.79030    0.04610    1.000
    H25      H        0.39640    0.73540    0.08390    1.000
    H26      H        0.32460    0.83120    0.18960    1.000
    N7       N        0.31500    0.88840    0.88250    1.000
    H27      H        0.30210    0.85040    0.74740    1.000
    H28      H        0.24110    0.94070    0.85190    1.000
    C8       C        0.81510    0.29030    0.04610    1.000
    H29      H        0.89640    0.23540    0.08390    1.000
    H30      H        0.82460    0.33120    0.18960    1.000
    N8       N        0.81500    0.38840    0.88250    1.000
    H31      H        0.80210    0.35040    0.74740    1.000
    H32      H        0.74110    0.44070    0.85190    1.000
    Ag1      Ag       0.50000    0.00000    0.50000    1.000
    Ag2      Ag       0.00000    0.50000    0.50000    1.000
    Ag3      Ag       0.50000    0.00000    0.00000    1.000
    Ag4      Ag       0.00000    0.50000    0.00000    1.000
