data_functionalizedCrystal
_audit_creation_method	'EQeq! by Chris Wilmer'
_symmetry_space_group_name_H-M	'P1'
_symmetry_Int_Tables_number	1
_symmetry_cell_setting	triclinic
loop_
_symmetry_equiv_pos_as_xyz
  x,y,z
_cell_length_a	13.6903
_cell_length_b	14.7432
_cell_length_c	15.6518
_cell_angle_alpha	95.222
_cell_angle_beta	112.945
_cell_angle_gamma	90.244
loop_
_atom_site_label
_atom_site_type_symbol
_atom_site_fract_x
_atom_site_fract_y
_atom_site_fract_z
_atom_site_charge
Mof_C 	C 	0.6536	0.9578	0.3018	0.339
Mof_C 	C 	0.7266	0.9169	0.3847	-0.127
Mof_C 	C 	0.837	0.9277	0.4137	0.052
Mof_H 	H 	0.8654	0.9584	0.3787	0.024
Mof_C 	C 	0.904	0.8925	0.4946	-0.138
Mof_H 	H 	0.9771	0.9004	0.5139	0.083
Mof_C 	C 	0.863	0.8458	0.5469	0.088
Mof_C 	C 	0.7545	0.8348	0.5173	-0.149
Mof_H 	H 	0.7256	0.8045	0.5521	0.079
Mof_C 	C 	0.6892	0.8682	0.4367	0.064
Mof_H 	H 	0.6163	0.8574	0.4165	0.017
Mof_C 	C 	0.9309	0.814	0.6376	-0.015
Mof_C 	C 	0.3373	0.8933	0.9745	0.49
Mof_C 	C 	0.2374	0.8376	0.9142	-0.157
Mof_C 	C 	0.1972	0.7751	0.9551	0.075
Mof_H 	H 	0.2333	0.7669	0.0178	0.02
Mof_C 	C 	0.1039	0.7253	0.903	-0.153
Mof_C 	C 	0.0474	0.7415	0.8106	-0.011
Mof_H 	H 	0.9829	0.71	0.7765	0.047
Mof_C 	C 	0.0857	0.8041	0.7686	0.037
Mof_C 	C 	0.1835	0.8497	0.8212	-0.008
Mof_H 	H 	0.2127	0.8887	0.7931	0.042
Mof_C 	C 	0.0622	0.655	0.9436	0.48
Mof_C 	C 	0.2975	0.1153	0.1896	0.114
Mof_H 	H 	0.3189	0.1658	0.1688	-0.033
Mof_C 	C 	0.2035	0.1194	0.2098	-0.182
Mof_H 	H 	0.1638	0.1713	0.2018	0.095
Mof_C 	C 	0.175	0.0451	0.2405	0.101
Mof_H 	H 	0.1139	0.0454	0.253	-0.003
Mof_C 	C 	0.2336	0.9704	0.2535	-0.185
Mof_H 	H 	0.2156	0.9199	0.2767	0.085
Mof_C 	C 	0.3219	0.972	0.2307	0.129
Mof_H 	H 	0.3614	0.92	0.2375	-0.02
Mof_C 	C 	0.8885	0.5207	0.6997	0.324
Mof_C 	C 	0.8866	0.5599	0.6148	-0.112
Mof_C 	C 	0.7917	0.5812	0.5456	0.041
Mof_H 	H 	0.7289	0.5755	0.5548	0.024
Mof_C 	C 	0.789	0.6105	0.4636	-0.127
Mof_H 	H 	0.7243	0.6221	0.4171	0.081
Mof_C 	C 	0.8822	0.623	0.4504	0.073
Mof_C 	C 	0.9784	0.6067	0.5221	-0.127
Mof_H 	H 	0.0419	0.6176	0.5154	0.074
Mof_C 	C 	0.9802	0.5749	0.6019	0.046
Mof_H 	H 	0.0449	0.5631	0.6483	0.027
Mof_C 	C 	0.8784	0.6517	0.361	-0.002
Mof_C 	C 	0.8446	0.5958	0.0058	0.449
Mof_C 	C 	0.8065	0.6584	0.0672	-0.146
Mof_C 	C 	0.8335	0.6438	0.1602	-0.025
Mof_H 	H 	0.8841	0.6019	0.1877	0.044
Mof_C 	C 	0.7844	0.6924	0.2116	0.046
Mof_C 	C 	0.7148	0.7587	0.1714	-0.009
Mof_H 	H 	0.6814	0.7907	0.2056	0.052
Mof_C 	C 	0.6938	0.7784	0.0805	-0.155
Mof_C 	C 	0.7388	0.7261	0.0285	0.082
Mof_H 	H 	0.7233	0.7367	0.967	0.012
Mof_C 	C 	0.6217	0.8548	0.0424	0.507
Mof_C 	C 	0.6587	0.329	0.8161	0.115
Mof_H 	H 	0.7118	0.2872	0.8346	-0.035
Mof_C 	C 	0.5552	0.2998	0.795	-0.175
Mof_H 	H 	0.539	0.2399	0.8006	0.098
Mof_C 	C 	0.4759	0.3619	0.7655	0.089
Mof_H 	H 	0.4052	0.3443	0.7498	0.005
Mof_C 	C 	0.5045	0.45	0.7601	-0.182
Mof_H 	H 	0.4536	0.4937	0.7415	0.089
Mof_C 	C 	0.6104	0.4722	0.7829	0.13
Mof_H 	H 	0.6291	0.5316	0.7781	-0.019
Mof_N 	N 	0.0295	0.8316	0.677	-0.112
Mof_N 	N 	0.354	0.0424	0.1998	-0.269
Mof_N 	N 	0.7931	0.672	0.3006	-0.116
Mof_N 	N 	0.6856	0.4143	0.8108	-0.261
Mof_O 	O 	0.5547	0.9414	0.2752	-0.471
Mof_O 	O 	0.6899	0.0069	0.2588	-0.436
Mof_O 	O 	0.3585	0.9081	0.0595	-0.516
Mof_O 	O 	0.3907	0.9271	0.9349	-0.632
Mof_O 	O 	0.9752	0.6155	0.8941	-0.525
Mof_O 	O 	0.1192	0.6395	0.0273	-0.542
Mof_O 	O 	0.9709	0.4884	0.7527	-0.434
Mof_O 	O 	0.8033	0.5213	0.7159	-0.457
Mof_O 	O 	0.9292	0.554	0.0434	-0.636
Mof_O 	O 	0.7888	0.584	0.9217	-0.49
Mof_O 	O 	0.5763	0.888	0.0936	-0.552
Mof_O 	O 	0.6133	0.8798	0.9655	-0.568
Mof_H 	H 	0.894	0.772	0.664	0.037
Mof_H 	H 	0.952	0.661	0.362	0.029
Mof_Eu	Eu	0.50368	0.0188	0.13457	2.208
Mof_Eu	Eu	0.89	0.47009	0.871	2.164
Mof_C 	C 	0.3464	0.0422	0.6982	0.34
Mof_C 	C 	0.2734	0.0831	0.6153	-0.126
Mof_C 	C 	0.163	0.0723	0.5863	0.053
Mof_H 	H 	0.1346	0.0416	0.6213	0.025
Mof_C 	C 	0.096	0.1075	0.5054	-0.137
Mof_H 	H 	0.0229	0.0996	0.4861	0.084
Mof_C 	C 	0.137	0.1542	0.4531	0.089
Mof_C 	C 	0.2455	0.1652	0.4827	-0.148
Mof_H 	H 	0.2744	0.1955	0.4479	0.08
Mof_C 	C 	0.3108	0.1318	0.5633	0.065
Mof_H 	H 	0.3837	0.1426	0.5835	0.017
Mof_C 	C 	0.0691	0.186	0.3624	-0.015
Mof_C 	C 	0.6627	0.1067	0.0255	0.49
Mof_C 	C 	0.7626	0.1624	0.0858	-0.157
Mof_C 	C 	0.8028	0.2249	0.0449	0.075
Mof_H 	H 	0.7667	0.2331	0.9822	0.02
Mof_C 	C 	0.8961	0.2747	0.097	-0.153
Mof_C 	C 	0.9526	0.2585	0.1894	-0.011
Mof_H 	H 	0.0171	0.29	0.2235	0.047
Mof_C 	C 	0.9143	0.1959	0.2314	0.037
Mof_C 	C 	0.8165	0.1503	0.1788	-0.008
Mof_H 	H 	0.7873	0.1113	0.2069	0.042
Mof_C 	C 	0.9378	0.345	0.0564	0.48
Mof_C 	C 	0.7025	0.8847	0.8104	0.114
Mof_H 	H 	0.6811	0.8342	0.8312	-0.033
Mof_C 	C 	0.7965	0.8806	0.7902	-0.182
Mof_H 	H 	0.8362	0.8287	0.7982	0.095
Mof_C 	C 	0.825	0.9549	0.7595	0.101
Mof_H 	H 	0.8861	0.9546	0.747	-0.003
Mof_C 	C 	0.7664	0.0296	0.7465	-0.185
Mof_H 	H 	0.7844	0.0801	0.7233	0.085
Mof_C 	C 	0.6781	0.028	0.7693	0.129
Mof_H 	H 	0.6386	0.08	0.7625	-0.02
Mof_C 	C 	0.1115	0.4793	0.3003	0.324
Mof_C 	C 	0.1134	0.4401	0.3852	-0.112
Mof_C 	C 	0.2083	0.4188	0.4544	0.041
Mof_H 	H 	0.2711	0.4245	0.4452	0.024
Mof_C 	C 	0.211	0.3895	0.5364	-0.127
Mof_H 	H 	0.2757	0.3779	0.5829	0.081
Mof_C 	C 	0.1178	0.377	0.5496	0.073
Mof_C 	C 	0.0216	0.3933	0.4779	-0.127
Mof_H 	H 	0.9581	0.3824	0.4846	0.074
Mof_C 	C 	0.0198	0.4251	0.3981	0.046
Mof_H 	H 	0.9551	0.4369	0.3517	0.027
Mof_C 	C 	0.1216	0.3483	0.639	-0.002
Mof_C 	C 	0.1554	0.4042	0.9942	0.449
Mof_C 	C 	0.1935	0.3416	0.9328	-0.146
Mof_C 	C 	0.1665	0.3562	0.8398	-0.025
Mof_H 	H 	0.1159	0.3981	0.8123	0.044
Mof_C 	C 	0.2156	0.3076	0.7884	0.046
Mof_C 	C 	0.2852	0.2413	0.8286	-0.009
Mof_H 	H 	0.3186	0.2093	0.7944	0.052
Mof_C 	C 	0.3062	0.2216	0.9195	-0.155
Mof_C 	C 	0.2612	0.2739	0.9715	0.082
Mof_H 	H 	0.2767	0.2633	0.033	0.012
Mof_C 	C 	0.3783	0.1452	0.9576	0.507
Mof_C 	C 	0.3413	0.671	0.1839	0.115
Mof_H 	H 	0.2882	0.7128	0.1654	-0.035
Mof_C 	C 	0.4448	0.7002	0.205	-0.175
Mof_H 	H 	0.461	0.7601	0.1994	0.098
Mof_C 	C 	0.5241	0.6381	0.2345	0.089
Mof_H 	H 	0.5948	0.6557	0.2502	0.005
Mof_C 	C 	0.4955	0.55	0.2399	-0.182
Mof_H 	H 	0.5464	0.5063	0.2585	0.089
Mof_C 	C 	0.3896	0.5278	0.2171	0.13
Mof_H 	H 	0.3709	0.4684	0.2219	-0.019
Mof_N 	N 	0.9705	0.1684	0.323	-0.112
Mof_N 	N 	0.646	0.9576	0.8002	-0.269
Mof_N 	N 	0.2069	0.328	0.6994	-0.116
Mof_N 	N 	0.3144	0.5857	0.1892	-0.261
Mof_O 	O 	0.4453	0.0586	0.7248	-0.471
Mof_O 	O 	0.3101	0.9931	0.7412	-0.436
Mof_O 	O 	0.6415	0.0919	0.9405	-0.516
Mof_O 	O 	0.6093	0.0729	0.0651	-0.632
Mof_O 	O 	0.0248	0.3845	0.1059	-0.525
Mof_O 	O 	0.8808	0.3605	0.9727	-0.542
Mof_O 	O 	0.0291	0.5116	0.2473	-0.434
Mof_O 	O 	0.1967	0.4787	0.2841	-0.457
Mof_O 	O 	0.0708	0.446	0.9566	-0.636
Mof_O 	O 	0.2112	0.416	0.0783	-0.49
Mof_O 	O 	0.4237	0.112	0.9064	-0.552
Mof_O 	O 	0.3867	0.1202	0.0345	-0.568
Mof_H 	H 	0.106	0.228	0.336	0.037
Mof_H 	H 	0.048	0.339	0.638	0.029
Mof_Eu	Eu	0.49632	0.9812	0.86543	2.208
Mof_Eu	Eu	0.11	0.52991	0.129	2.164
_end
