data_functionalizedCrystal
_audit_creation_method	'EQeq! by Chris Wilmer'
_symmetry_space_group_name_H-M	'P1'
_symmetry_Int_Tables_number	1
_symmetry_cell_setting	triclinic
loop_
_symmetry_equiv_pos_as_xyz
  x,y,z
_cell_length_a	18.7063
_cell_length_b	22.983
_cell_length_c	17.7139
_cell_angle_alpha	90
_cell_angle_beta	105.866
_cell_angle_gamma	90
loop_
_atom_site_label
_atom_site_type_symbol
_atom_site_fract_x
_atom_site_fract_y
_atom_site_fract_z
_atom_site_charge
Mof_N 	N 	0.1976	0.1812	0.4793	-0.13
Mof_N 	N 	0.0465	0.2451	0.6606	-0.192
Mof_N 	N 	0.4114	0.0531	0.4727	-0.236
Mof_O 	O 	0.0488	0.4469	0.0827	-0.448
Mof_O 	O 	0.0838	0.3832	0.0083	-0.321
Mof_O 	O 	0.0964	0.2509	0.8275	-0.515
Mof_O 	O 	0.1619	0.3245	0.8	-0.273
Mof_C 	C 	0.0749	0.4003	0.072	0.378
Mof_C 	C 	0.0978	0.3584	0.1408	-0.156
Mof_C 	C 	0.0845	0.3739	0.2085	0.065
Mof_H 	H 	0.0633	0.41	0.2121	0.007
Mof_C 	C 	0.1014	0.3377	0.2734	-0.141
Mof_H 	H 	0.0903	0.3494	0.3192	0.069
Mof_C 	C 	0.1341	0.285	0.2709	0.056
Mof_C 	C 	0.1482	0.2702	0.2013	-0.138
Mof_H 	H 	0.1702	0.2345	0.1971	0.076
Mof_C 	C 	0.1304	0.3075	0.1368	0.066
Mof_H 	H 	0.1414	0.2967	0.0906	0.014
Mof_C 	C 	0.0201	0.2731	0.5938	-0.083
Mof_H 	H 	0.9809	0.2989	0.5898	0.113
Mof_C 	C 	0.0478	0.266	0.529	-0.045
Mof_H 	H 	0.0269	0.2863	0.4828	0.031
Mof_C 	C 	0.107	0.2282	0.5341	0.02
Mof_C 	C 	0.1348	0.2003	0.6042	-0.109
Mof_H 	H 	0.1746	0.1748	0.6111	0.077
Mof_C 	C 	0.1031	0.2104	0.6647	0.07
Mof_H 	H 	0.1233	0.1911	0.7119	0.012
Mof_C 	C 	0.3819	0.0726	0.4013	0.116
Mof_H 	H 	0.4015	0.0598	0.3613	-0.022
Mof_C 	C 	0.3241	0.1105	0.383	-0.177
Mof_H 	H 	0.3057	0.1228	0.3313	0.1
Mof_C 	C 	0.2928	0.1308	0.4375	0.089
Mof_C 	C 	0.3217	0.109	0.5134	-0.16
Mof_H 	H 	0.3005	0.1193	0.5532	0.092
Mof_C 	C 	0.3813	0.0724	0.5283	0.094
Mof_H 	H 	0.402	0.0603	0.5798	-0.017
Mof_C 	C 	0.1418	0.2207	0.4683	0.081
Mof_C 	C 	0.1189	0.2527	0.4005	-0.13
Mof_H 	H 	0.0796	0.2787	0.3942	0.066
Mof_C 	C 	0.1537	0.2467	0.3415	0.045
Mof_C 	C 	0.2115	0.2059	0.3533	-0.121
Mof_H 	H 	0.2371	0.2008	0.3155	0.077
Mof_C 	C 	0.2301	0.1736	0.4216	0.062
Mof_C 	C 	0.1502	0.2834	0.8433	0.312
Mof_C 	C 	0.202	0.266	0.924	-0.029
Mof_C 	C 	0.259	0.302	0.963	0.071
Mof_H 	H 	0.2688	0.3359	0.9402	0.007
Mof_C 	C 	0.198	0.214	0.962	-0.093
Mof_H 	H 	0.1635	0.1872	0.935	0.021
Mof_O 	O 	0.0926	0.1668	0.8514	-0.295
Mof_C 	C 	0.1225	0.2128	0.874	0.341
Mof_C 	C 	0.187	0.231	0.941	0.039
Mof_C 	C 	0.215	0.196	0.005	0.02
Mof_H 	H 	0.1931	0.1604	0.0111	0.009
Mof_C 	C 	0.221	0.284	0.94	-0.118
Mof_H 	H 	0.1993	0.3095	0.8991	0.049
Mof_N 	N 	0.6976	0.6812	0.4793	-0.126
Mof_N 	N 	0.5465	0.7451	0.6606	-0.216
Mof_N 	N 	0.9114	0.5531	0.4727	-0.214
Mof_O 	O 	0.5488	0.9469	0.0827	-0.409
Mof_O 	O 	0.5838	0.8832	0.0083	-0.299
Mof_O 	O 	0.5964	0.7509	0.8275	-0.502
Mof_O 	O 	0.6619	0.8245	0.8	-0.262
Mof_C 	C 	0.5749	0.9003	0.072	0.374
Mof_C 	C 	0.5978	0.8584	0.1408	-0.132
Mof_C 	C 	0.5845	0.8739	0.2085	0.059
Mof_H 	H 	0.5633	0.91	0.2121	0.029
Mof_C 	C 	0.6014	0.8377	0.2734	-0.123
Mof_H 	H 	0.5903	0.8494	0.3192	0.074
Mof_C 	C 	0.6341	0.785	0.2709	0.055
Mof_C 	C 	0.6482	0.7702	0.2013	-0.124
Mof_H 	H 	0.6702	0.7345	0.1971	0.079
Mof_C 	C 	0.6304	0.8075	0.1368	0.061
Mof_H 	H 	0.6414	0.7967	0.0906	0.023
Mof_C 	C 	0.5201	0.7731	0.5938	0.088
Mof_H 	H 	0.4809	0.7989	0.5898	0.009
Mof_C 	C 	0.5478	0.766	0.529	-0.136
Mof_H 	H 	0.5269	0.7863	0.4828	0.084
Mof_C 	C 	0.607	0.7282	0.5341	0.073
Mof_C 	C 	0.6348	0.7003	0.6042	-0.144
Mof_H 	H 	0.6746	0.6748	0.6111	0.094
Mof_C 	C 	0.6031	0.7104	0.6647	0.101
Mof_H 	H 	0.6233	0.6911	0.7119	0.009
Mof_C 	C 	0.8819	0.5726	0.4013	0.12
Mof_H 	H 	0.9015	0.5598	0.3613	-0
Mof_C 	C 	0.8241	0.6105	0.383	-0.169
Mof_H 	H 	0.8057	0.6228	0.3313	0.104
Mof_C 	C 	0.7928	0.6308	0.4375	0.089
Mof_C 	C 	0.8217	0.609	0.5134	-0.152
Mof_H 	H 	0.8005	0.6193	0.5532	0.094
Mof_C 	C 	0.8813	0.5724	0.5283	0.099
Mof_H 	H 	0.902	0.5603	0.5798	0.003
Mof_C 	C 	0.6418	0.7207	0.4683	0.071
Mof_C 	C 	0.6189	0.7527	0.4005	-0.121
Mof_H 	H 	0.5796	0.7787	0.3942	0.073
Mof_C 	C 	0.6537	0.7467	0.3415	0.052
Mof_C 	C 	0.7115	0.7059	0.3533	-0.121
Mof_H 	H 	0.7371	0.7008	0.3155	0.079
Mof_C 	C 	0.7301	0.6736	0.4216	0.068
Mof_C 	C 	0.6502	0.7834	0.8433	0.306
Mof_C 	C 	0.702	0.766	0.924	-0.021
Mof_C 	C 	0.759	0.802	0.963	0.062
Mof_H 	H 	0.7688	0.8359	0.9402	0.016
Mof_C 	C 	0.698	0.714	0.962	-0.095
Mof_H 	H 	0.6635	0.6872	0.935	0.028
Mof_O 	O 	0.5926	0.6668	0.8514	-0.268
Mof_C 	C 	0.6225	0.7128	0.874	0.336
Mof_C 	C 	0.687	0.731	0.941	0.04
Mof_C 	C 	0.715	0.696	0.005	0.017
Mof_H 	H 	0.6931	0.6604	0.0111	0.018
Mof_C 	C 	0.721	0.784	0.94	-0.119
Mof_H 	H 	0.6993	0.8095	0.8991	0.052
Mof_N 	N 	0.8024	0.1812	0.0207	-0.129
Mof_N 	N 	0.9535	0.2451	0.8394	-0.228
Mof_N 	N 	0.5886	0.0531	0.0273	-0.248
Mof_O 	O 	0.9512	0.4469	0.4173	-0.395
Mof_O 	O 	0.9162	0.3832	0.4917	-0.279
Mof_O 	O 	0.9036	0.2509	0.6725	-0.485
Mof_O 	O 	0.8381	0.3245	0.7	-0.26
Mof_C 	C 	0.9251	0.4003	0.428	0.374
Mof_C 	C 	0.9022	0.3584	0.3592	-0.12
Mof_C 	C 	0.9155	0.3739	0.2915	0.059
Mof_H 	H 	0.9367	0.41	0.2879	0.037
Mof_C 	C 	0.8986	0.3377	0.2266	-0.116
Mof_H 	H 	0.9097	0.3494	0.1808	0.08
Mof_C 	C 	0.8659	0.285	0.2291	0.058
Mof_C 	C 	0.8518	0.2702	0.2987	-0.116
Mof_H 	H 	0.8298	0.2345	0.3029	0.081
Mof_C 	C 	0.8696	0.3075	0.3632	0.061
Mof_H 	H 	0.8586	0.2967	0.4094	0.032
Mof_C 	C 	0.9799	0.2731	0.9062	0.236
Mof_H 	H 	0.0191	0.2989	0.9102	-0.08
Mof_C 	C 	0.9522	0.266	0.971	-0.179
Mof_H 	H 	0.9731	0.2863	0.0172	0.105
Mof_C 	C 	0.893	0.2282	0.9659	0.131
Mof_C 	C 	0.8652	0.2003	0.8958	-0.18
Mof_H 	H 	0.8254	0.1748	0.8889	0.111
Mof_C 	C 	0.8969	0.2104	0.8353	0.129
Mof_H 	H 	0.8767	0.1911	0.7881	0.004
Mof_C 	C 	0.6181	0.0726	0.0987	0.104
Mof_H 	H 	0.5985	0.0598	0.1387	-0.017
Mof_C 	C 	0.6759	0.1105	0.117	-0.159
Mof_H 	H 	0.6943	0.1228	0.1687	0.098
Mof_C 	C 	0.7072	0.1308	0.0625	0.057
Mof_C 	C 	0.6783	0.109	0.9866	-0.123
Mof_H 	H 	0.6995	0.1193	0.9468	0.087
Mof_C 	C 	0.6187	0.0724	0.9717	0.108
Mof_H 	H 	0.598	0.0603	0.9202	-0.016
Mof_C 	C 	0.8582	0.2207	0.0317	0.037
Mof_C 	C 	0.8811	0.2527	0.0995	-0.106
Mof_H 	H 	0.9204	0.2787	0.1058	0.075
Mof_C 	C 	0.8463	0.2467	0.1585	0.052
Mof_C 	C 	0.7885	0.2059	0.1467	-0.122
Mof_H 	H 	0.7629	0.2008	0.1845	0.081
Mof_C 	C 	0.7699	0.1736	0.0784	0.074
Mof_C 	C 	0.8498	0.2834	0.6567	0.303
Mof_C 	C 	0.798	0.266	0.576	-0.007
Mof_C 	C 	0.741	0.302	0.537	0.037
Mof_H 	H 	0.7312	0.3359	0.5598	0.018
Mof_C 	C 	0.802	0.214	0.538	-0.085
Mof_H 	H 	0.8365	0.1872	0.565	0.029
Mof_O 	O 	0.9074	0.1668	0.6486	-0.257
Mof_C 	C 	0.8775	0.2128	0.626	0.348
Mof_C 	C 	0.813	0.231	0.559	-0.016
Mof_C 	C 	0.785	0.196	0.495	0.042
Mof_H 	H 	0.8069	0.1604	0.4889	0.019
Mof_C 	C 	0.779	0.284	0.56	-0.087
Mof_H 	H 	0.8007	0.3095	0.6009	0.037
Mof_N 	N 	0.3024	0.6812	0.0207	-0.132
Mof_N 	N 	0.4535	0.7451	0.8394	-0.212
Mof_N 	N 	0.0886	0.5531	0.0273	-0.25
Mof_O 	O 	0.4512	0.9469	0.4173	-0.406
Mof_O 	O 	0.4162	0.8832	0.4917	-0.288
Mof_O 	O 	0.4036	0.7509	0.6725	-0.508
Mof_O 	O 	0.3381	0.8245	0.7	-0.266
Mof_C 	C 	0.4251	0.9003	0.428	0.37
Mof_C 	C 	0.4022	0.8584	0.3592	-0.129
Mof_C 	C 	0.4155	0.8739	0.2915	0.055
Mof_H 	H 	0.4367	0.91	0.2879	0.029
Mof_C 	C 	0.3986	0.8377	0.2266	-0.122
Mof_H 	H 	0.4097	0.8494	0.1808	0.073
Mof_C 	C 	0.3659	0.785	0.2291	0.053
Mof_C 	C 	0.3518	0.7702	0.2987	-0.121
Mof_H 	H 	0.3298	0.7345	0.3029	0.079
Mof_C 	C 	0.3696	0.8075	0.3632	0.057
Mof_H 	H 	0.3586	0.7967	0.4094	0.028
Mof_C 	C 	0.4799	0.7731	0.9062	0.068
Mof_H 	H 	0.5191	0.7989	0.9102	0.021
Mof_C 	C 	0.4522	0.766	0.971	-0.089
Mof_H 	H 	0.4731	0.7863	0.0172	0.054
Mof_C 	C 	0.393	0.7282	0.9659	0.081
Mof_C 	C 	0.3652	0.7003	0.8958	-0.145
Mof_H 	H 	0.3254	0.6748	0.8889	0.099
Mof_C 	C 	0.3969	0.7104	0.8353	0.102
Mof_H 	H 	0.3767	0.6911	0.7881	0.009
Mof_C 	C 	0.1181	0.5726	0.0987	0.105
Mof_H 	H 	0.0985	0.5598	0.1387	-0.017
Mof_C 	C 	0.1759	0.6105	0.117	-0.16
Mof_H 	H 	0.1943	0.6228	0.1687	0.099
Mof_C 	C 	0.2072	0.6308	0.0625	0.059
Mof_C 	C 	0.1783	0.609	0.9866	-0.125
Mof_H 	H 	0.1995	0.6193	0.9468	0.089
Mof_C 	C 	0.1187	0.5724	0.9717	0.106
Mof_H 	H 	0.098	0.5603	0.9202	-0.022
Mof_C 	C 	0.3582	0.7207	0.0317	0.051
Mof_C 	C 	0.3811	0.7527	0.0995	-0.116
Mof_H 	H 	0.4204	0.7787	0.1058	0.069
Mof_C 	C 	0.3463	0.7467	0.1585	0.051
Mof_C 	C 	0.2885	0.7059	0.1467	-0.124
Mof_H 	H 	0.2629	0.7008	0.1845	0.081
Mof_C 	C 	0.2699	0.6736	0.0784	0.073
Mof_C 	C 	0.3498	0.7834	0.6567	0.307
Mof_C 	C 	0.298	0.766	0.576	-0.005
Mof_C 	C 	0.241	0.802	0.537	0.035
Mof_H 	H 	0.2312	0.8359	0.5598	0.019
Mof_C 	C 	0.302	0.714	0.538	-0.091
Mof_H 	H 	0.3365	0.6872	0.565	0.027
Mof_O 	O 	0.4074	0.6668	0.6486	-0.276
Mof_C 	C 	0.3775	0.7128	0.626	0.351
Mof_C 	C 	0.313	0.731	0.559	-0.014
Mof_C 	C 	0.285	0.696	0.495	0.039
Mof_H 	H 	0.3069	0.6604	0.4889	0.018
Mof_C 	C 	0.279	0.784	0.56	-0.091
Mof_H 	H 	0.3007	0.8095	0.6009	0.037
Mof_N 	N 	0.8024	0.8188	0.5207	-0.121
Mof_N 	N 	0.9535	0.7549	0.3394	-0.233
Mof_N 	N 	0.5886	0.9469	0.5273	-0.22
Mof_O 	O 	0.9512	0.5531	0.9173	-0.387
Mof_O 	O 	0.9162	0.6168	0.9917	-0.266
Mof_O 	O 	0.9036	0.7491	0.1725	-0.486
Mof_O 	O 	0.8381	0.6755	0.2	-0.26
Mof_C 	C 	0.9251	0.5997	0.928	0.37
Mof_C 	C 	0.9022	0.6416	0.8592	-0.114
Mof_C 	C 	0.9155	0.6261	0.7915	0.055
Mof_H 	H 	0.9367	0.59	0.7879	0.04
Mof_C 	C 	0.8986	0.6623	0.7266	-0.111
Mof_H 	H 	0.9097	0.6506	0.6808	0.079
Mof_C 	C 	0.8659	0.715	0.7291	0.056
Mof_C 	C 	0.8518	0.7298	0.7987	-0.111
Mof_H 	H 	0.8298	0.7655	0.8029	0.083
Mof_C 	C 	0.8696	0.6925	0.8632	0.057
Mof_H 	H 	0.8586	0.7033	0.9094	0.038
Mof_C 	C 	0.9799	0.7269	0.4062	0.261
Mof_H 	H 	0.0191	0.7011	0.4102	-0.095
Mof_C 	C 	0.9522	0.734	0.471	-0.227
Mof_H 	H 	0.9731	0.7137	0.5172	0.137
Mof_C 	C 	0.893	0.7718	0.4659	0.126
Mof_C 	C 	0.8652	0.7997	0.3958	-0.178
Mof_H 	H 	0.8254	0.8252	0.3889	0.112
Mof_C 	C 	0.8969	0.7896	0.3353	0.132
Mof_H 	H 	0.8767	0.8089	0.2881	0.007
Mof_C 	C 	0.6181	0.9274	0.5987	0.123
Mof_H 	H 	0.5985	0.9402	0.6387	-0
Mof_C 	C 	0.6759	0.8895	0.617	-0.169
Mof_H 	H 	0.6943	0.8772	0.6687	0.11
Mof_C 	C 	0.7072	0.8692	0.5625	0.095
Mof_C 	C 	0.6783	0.891	0.4866	-0.152
Mof_H 	H 	0.6995	0.8807	0.4468	0.098
Mof_C 	C 	0.6187	0.9276	0.4717	0.102
Mof_H 	H 	0.598	0.9397	0.4202	-0.004
Mof_C 	C 	0.8582	0.7793	0.5317	0.062
Mof_C 	C 	0.8811	0.7473	0.5995	-0.111
Mof_H 	H 	0.9204	0.7213	0.6058	0.08
Mof_C 	C 	0.8463	0.7533	0.6585	0.058
Mof_C 	C 	0.7885	0.7941	0.6467	-0.118
Mof_H 	H 	0.7629	0.7992	0.6845	0.082
Mof_C 	C 	0.7699	0.8264	0.5784	0.073
Mof_C 	C 	0.8498	0.7166	0.1567	0.298
Mof_C 	C 	0.798	0.734	0.076	0.022
Mof_C 	C 	0.741	0.698	0.037	-0.004
Mof_H 	H 	0.7312	0.6641	0.0598	0.032
Mof_C 	C 	0.802	0.786	0.038	-0.091
Mof_H 	H 	0.8365	0.8128	0.065	0.035
Mof_O 	O 	0.9074	0.8332	0.1486	-0.252
Mof_C 	C 	0.8775	0.7872	0.126	0.355
Mof_C 	C 	0.813	0.769	0.059	-0.06
Mof_C 	C 	0.785	0.804	0.995	0.052
Mof_H 	H 	0.8069	0.8396	0.9889	0.029
Mof_C 	C 	0.779	0.716	0.06	-0.068
Mof_H 	H 	0.8007	0.6905	0.1009	0.026
Mof_N 	N 	0.3024	0.3188	0.5207	-0.125
Mof_N 	N 	0.4535	0.2549	0.3394	-0.217
Mof_N 	N 	0.0886	0.4469	0.5273	-0.24
Mof_O 	O 	0.4512	0.0531	0.9173	-0.43
Mof_O 	O 	0.4162	0.1168	0.9917	-0.29
Mof_O 	O 	0.4036	0.2491	0.1725	-0.512
Mof_O 	O 	0.3381	0.1755	0.2	-0.274
Mof_C 	C 	0.4251	0.0997	0.928	0.374
Mof_C 	C 	0.4022	0.1416	0.8592	-0.139
Mof_C 	C 	0.4155	0.1261	0.7915	0.062
Mof_H 	H 	0.4367	0.09	0.7879	0.017
Mof_C 	C 	0.3986	0.1623	0.7266	-0.13
Mof_H 	H 	0.4097	0.1506	0.6808	0.074
Mof_C 	C 	0.3659	0.215	0.7291	0.057
Mof_C 	C 	0.3518	0.2298	0.7987	-0.126
Mof_H 	H 	0.3298	0.2655	0.8029	0.081
Mof_C 	C 	0.3696	0.1925	0.8632	0.062
Mof_H 	H 	0.3586	0.2033	0.9094	0.029
Mof_C 	C 	0.4799	0.2269	0.4062	0.089
Mof_H 	H 	0.5191	0.2011	0.4102	0.007
Mof_C 	C 	0.4522	0.234	0.471	-0.137
Mof_H 	H 	0.4731	0.2137	0.5172	0.084
Mof_C 	C 	0.393	0.2718	0.4659	0.074
Mof_C 	C 	0.3652	0.2997	0.3958	-0.144
Mof_H 	H 	0.3254	0.3252	0.3889	0.095
Mof_C 	C 	0.3969	0.2896	0.3353	0.101
Mof_H 	H 	0.3767	0.3089	0.2881	0.008
Mof_C 	C 	0.1181	0.4274	0.5987	0.119
Mof_H 	H 	0.0985	0.4402	0.6387	-0.02
Mof_C 	C 	0.1759	0.3895	0.617	-0.177
Mof_H 	H 	0.1943	0.3772	0.6687	0.106
Mof_C 	C 	0.2072	0.3692	0.5625	0.094
Mof_C 	C 	0.1783	0.391	0.4866	-0.16
Mof_H 	H 	0.1995	0.3807	0.4468	0.096
Mof_C 	C 	0.1187	0.4276	0.4717	0.096
Mof_H 	H 	0.098	0.4397	0.4202	-0.023
Mof_C 	C 	0.3582	0.2793	0.5317	0.071
Mof_C 	C 	0.3811	0.2473	0.5995	-0.12
Mof_H 	H 	0.4204	0.2213	0.6058	0.073
Mof_C 	C 	0.3463	0.2533	0.6585	0.051
Mof_C 	C 	0.2885	0.2941	0.6467	-0.118
Mof_H 	H 	0.2629	0.2992	0.6845	0.079
Mof_C 	C 	0.2699	0.3264	0.5784	0.067
Mof_C 	C 	0.3498	0.2166	0.1567	0.304
Mof_C 	C 	0.298	0.234	0.076	0.023
Mof_C 	C 	0.241	0.198	0.037	-0.006
Mof_H 	H 	0.2312	0.1641	0.0598	0.027
Mof_C 	C 	0.302	0.286	0.038	-0.097
Mof_H 	H 	0.3365	0.3128	0.065	0.03
Mof_O 	O 	0.4074	0.3332	0.1486	-0.284
Mof_C 	C 	0.3775	0.2872	0.126	0.362
Mof_C 	C 	0.313	0.269	0.059	-0.062
Mof_C 	C 	0.285	0.304	0.995	0.051
Mof_H 	H 	0.3069	0.3396	0.9889	0.022
Mof_C 	C 	0.279	0.216	0.06	-0.072
Mof_H 	H 	0.3007	0.1905	0.1009	0.022
Mof_N 	N 	0.1976	0.8188	0.9793	-0.122
Mof_N 	N 	0.0465	0.7549	0.1606	-0.197
Mof_N 	N 	0.4114	0.9469	0.9727	-0.208
Mof_O 	O 	0.0488	0.5531	0.5827	-0.444
Mof_O 	O 	0.0838	0.6168	0.5083	-0.31
Mof_O 	O 	0.0964	0.7491	0.3275	-0.517
Mof_O 	O 	0.1619	0.6755	0.3	-0.274
Mof_C 	C 	0.0749	0.5997	0.572	0.374
Mof_C 	C 	0.0978	0.6416	0.6408	-0.151
Mof_C 	C 	0.0845	0.6261	0.7085	0.061
Mof_H 	H 	0.0633	0.59	0.7121	0.009
Mof_C 	C 	0.1014	0.6623	0.7734	-0.137
Mof_H 	H 	0.0903	0.6506	0.8192	0.068
Mof_C 	C 	0.1341	0.715	0.7709	0.055
Mof_C 	C 	0.1482	0.7298	0.7013	-0.133
Mof_H 	H 	0.1702	0.7655	0.6971	0.079
Mof_C 	C 	0.1304	0.6925	0.6368	0.062
Mof_H 	H 	0.1414	0.7033	0.5906	0.021
Mof_C 	C 	0.0201	0.7269	0.0938	-0.06
Mof_H 	H 	0.9809	0.7011	0.0898	0.099
Mof_C 	C 	0.0478	0.734	0.029	-0.091
Mof_H 	H 	0.0269	0.7137	0.9828	0.062
Mof_C 	C 	0.107	0.7718	0.0341	0.016
Mof_C 	C 	0.1348	0.7997	0.1042	-0.108
Mof_H 	H 	0.1746	0.8252	0.1111	0.078
Mof_C 	C 	0.1031	0.7896	0.1647	0.073
Mof_H 	H 	0.1233	0.8089	0.2119	0.015
Mof_C 	C 	0.3819	0.9274	0.9013	0.133
Mof_H 	H 	0.4015	0.9402	0.8613	-0.004
Mof_C 	C 	0.3241	0.8895	0.883	-0.186
Mof_H 	H 	0.3057	0.8772	0.8313	0.111
Mof_C 	C 	0.2928	0.8692	0.9375	0.124
Mof_C 	C 	0.3217	0.891	0.0134	-0.187
Mof_H 	H 	0.3005	0.8807	0.0532	0.102
Mof_C 	C 	0.3813	0.9276	0.0283	0.089
Mof_H 	H 	0.402	0.9397	0.0798	-0.004
Mof_C 	C 	0.1418	0.7793	0.9683	0.104
Mof_C 	C 	0.1189	0.7473	0.9005	-0.135
Mof_H 	H 	0.0796	0.7213	0.8942	0.071
Mof_C 	C 	0.1537	0.7533	0.8415	0.051
Mof_C 	C 	0.2115	0.7941	0.8533	-0.117
Mof_H 	H 	0.2371	0.7992	0.8155	0.078
Mof_C 	C 	0.2301	0.8264	0.9216	0.062
Mof_C 	C 	0.1502	0.7166	0.3433	0.307
Mof_C 	C 	0.202	0.734	0.424	0.002
Mof_C 	C 	0.259	0.698	0.463	0.027
Mof_H 	H 	0.2688	0.6641	0.4402	0.021
Mof_C 	C 	0.198	0.786	0.462	-0.1
Mof_H 	H 	0.1635	0.8128	0.435	0.028
Mof_O 	O 	0.0926	0.8332	0.3514	-0.291
Mof_C 	C 	0.1225	0.7872	0.374	0.348
Mof_C 	C 	0.187	0.769	0.441	-0.008
Mof_C 	C 	0.215	0.804	0.505	0.031
Mof_H 	H 	0.1931	0.8396	0.5111	0.019
Mof_C 	C 	0.221	0.716	0.44	-0.098
Mof_H 	H 	0.1993	0.6905	0.3991	0.037
Mof_N 	N 	0.6976	0.3188	0.9793	-0.119
Mof_N 	N 	0.5465	0.2549	0.1606	-0.221
Mof_N 	N 	0.9114	0.4469	0.9727	-0.202
Mof_O 	O 	0.5488	0.0531	0.5827	-0.438
Mof_O 	O 	0.5838	0.1168	0.5083	-0.303
Mof_O 	O 	0.5964	0.2491	0.3275	-0.506
Mof_O 	O 	0.6619	0.1755	0.3	-0.27
Mof_C 	C 	0.5749	0.0997	0.572	0.38
Mof_C 	C 	0.5978	0.1416	0.6408	-0.143
Mof_C 	C 	0.5845	0.1261	0.7085	0.067
Mof_H 	H 	0.5633	0.09	0.7121	0.017
Mof_C 	C 	0.6014	0.1623	0.7734	-0.132
Mof_H 	H 	0.5903	0.1506	0.8192	0.075
Mof_C 	C 	0.6341	0.215	0.7709	0.06
Mof_C 	C 	0.6482	0.2298	0.7013	-0.129
Mof_H 	H 	0.6702	0.2655	0.6971	0.082
Mof_C 	C 	0.6304	0.1925	0.6368	0.067
Mof_H 	H 	0.6414	0.2033	0.5906	0.024
Mof_C 	C 	0.5201	0.2269	0.0938	0.11
Mof_H 	H 	0.4809	0.2011	0.0898	-0.006
Mof_C 	C 	0.5478	0.234	0.029	-0.187
Mof_H 	H 	0.5269	0.2137	0.9828	0.116
Mof_C 	C 	0.607	0.2718	0.0341	0.065
Mof_C 	C 	0.6348	0.2997	0.1042	-0.144
Mof_H 	H 	0.6746	0.3252	0.1111	0.09
Mof_C 	C 	0.6031	0.2896	0.1647	0.101
Mof_H 	H 	0.6233	0.3089	0.2119	0.008
Mof_C 	C 	0.8819	0.4274	0.9013	0.134
Mof_H 	H 	0.9015	0.4402	0.8613	-0.003
Mof_C 	C 	0.8241	0.3895	0.883	-0.186
Mof_H 	H 	0.8057	0.3772	0.8313	0.112
Mof_C 	C 	0.7928	0.3692	0.9375	0.125
Mof_C 	C 	0.8217	0.391	0.0134	-0.188
Mof_H 	H 	0.8005	0.3807	0.0532	0.101
Mof_C 	C 	0.8813	0.4276	0.0283	0.089
Mof_H 	H 	0.902	0.4397	0.0798	0.003
Mof_C 	C 	0.6418	0.2793	0.9683	0.092
Mof_C 	C 	0.6189	0.2473	0.9005	-0.125
Mof_H 	H 	0.5796	0.2213	0.8942	0.076
Mof_C 	C 	0.6537	0.2533	0.8415	0.052
Mof_C 	C 	0.7115	0.2941	0.8533	-0.115
Mof_H 	H 	0.7371	0.2992	0.8155	0.077
Mof_C 	C 	0.7301	0.3264	0.9216	0.062
Mof_C 	C 	0.6502	0.2166	0.3433	0.303
Mof_C 	C 	0.702	0.234	0.424	0.006
Mof_C 	C 	0.759	0.198	0.463	0.023
Mof_H 	H 	0.7688	0.1641	0.4402	0.023
Mof_C 	C 	0.698	0.286	0.462	-0.101
Mof_H 	H 	0.6635	0.3128	0.435	0.03
Mof_O 	O 	0.5926	0.3332	0.3514	-0.276
Mof_C 	C 	0.6225	0.2872	0.374	0.347
Mof_C 	C 	0.687	0.269	0.441	-0.005
Mof_C 	C 	0.715	0.304	0.505	0.028
Mof_H 	H 	0.6931	0.3396	0.5111	0.022
Mof_C 	C 	0.721	0.216	0.44	-0.1
Mof_H 	H 	0.6993	0.1905	0.3991	0.038
Mof_Cu	Cu	-3.10384e-17	0.25499	0.75	0.894
Mof_Cu	Cu	0.5	0.75499	0.75	0.923
Mof_Cu	Cu	7.75961e-18	0.74501	0.25	0.894
Mof_Cu	Cu	0.5	0.24501	0.25	0.922
Mof_Cu	Cu	-0	0.5	-0	0.869
Mof_Cu	Cu	0.5	0	-0	0.878
Mof_Cu	Cu	1.55192e-17	0.5	0.5	0.878
Mof_Cu	Cu	0.5	0	0.5	0.889
_end
