data_functionalizedCrystal
_audit_creation_method	'EQeq! by Chris Wilmer'
_symmetry_space_group_name_H-M	'P1'
_symmetry_Int_Tables_number	1
_symmetry_cell_setting	triclinic
loop_
_symmetry_equiv_pos_as_xyz
  x,y,z
_cell_length_a	14.001
_cell_length_b	19.9846
_cell_length_c	19.9846
_cell_angle_alpha	81.1209
_cell_angle_beta	69.4947
_cell_angle_gamma	69.4947
loop_
_atom_site_label
_atom_site_type_symbol
_atom_site_fract_x
_atom_site_fract_y
_atom_site_fract_z
_atom_site_charge
Mof_Cd	Cd	0.99194	0.75615	0.01975	0.358
Mof_Cd	Cd	0.26784	0.74385	0.48025	0.353
Mof_Cd	Cd	0.76784	0.48025	0.74385	0.353
Mof_Cd	Cd	0.49194	0.01975	0.75615	0.352
Mof_Ag	Ag	0.38104	0.68892	0.80742	0.394
Mof_Ag	Ag	0.63981	0.72663	0.24921	0.417
Mof_Ag	Ag	0.37738	0.81108	0.69258	0.399
Mof_Ag	Ag	0.11565	0.77337	0.25079	0.414
Mof_Ag	Ag	0.87738	0.69258	0.81108	0.397
Mof_Ag	Ag	0.61565	0.25079	0.77337	0.416
Mof_Ag	Ag	0.88104	0.80742	0.68892	0.4
Mof_Ag	Ag	0.13981	0.24921	0.72663	0.414
Mof_C 	C 	0.5307	0.6195	0.7539	-0.111
Mof_C 	C 	0.7643	0.7321	0.1559	-0.126
Mof_C 	C 	0.5116	0.7312	0.3444	-0.123
Mof_C 	C 	0.2297	0.7377	0.8783	-0.111
Mof_C 	C 	0.0986	0.6027	0.9525	0.051
Mof_C 	C 	0.1375	0.5275	0.9457	-0.106
Mof_C 	C 	0.1345	0.4842	0.0066	0.081
Mof_C 	C 	0.0871	0.5169	0.0735	-0.098
Mof_C 	C 	0.0504	0.5899	0.0753	0.049
Mof_C 	C 	0.1774	0.4028	0.9996	-0.171
Mof_C 	C 	0.8691	0.9122	0.081	0.059
Mof_C 	C 	0.8245	0.9848	0.0868	-0.101
Mof_C 	C 	0.8407	0.0282	0.023	0.082
Mof_C 	C 	0.9066	0.9908	0.9592	-0.099
Mof_C 	C 	0.9488	0.9182	0.9584	0.057
Mof_C 	C 	0.7912	0.11	0.0204	-0.173
Mof_C 	C 	0.4041	0.8805	0.7461	-0.111
Mof_C 	C 	0.1523	0.7679	0.3441	-0.127
Mof_C 	C 	0.0872	0.7688	0.1556	-0.124
Mof_C 	C 	0.3457	0.7623	0.6217	-0.111
Mof_C 	C 	0.1538	0.8973	0.5475	0.051
Mof_C 	C 	0.1107	0.9725	0.5543	-0.102
Mof_C 	C 	0.1253	0.0158	0.4934	0.075
Mof_C 	C 	0.1775	0.9831	0.4265	-0.094
Mof_C 	C 	0.2156	0.9101	0.4247	0.048
Mof_C 	C 	0.0798	0.0972	0.5004	-0.168
Mof_C 	C 	0.3623	0.5878	0.419	0.058
Mof_C 	C 	0.3961	0.5152	0.4132	-0.101
Mof_C 	C 	0.3919	0.4718	0.477	0.079
Mof_C 	C 	0.3566	0.5092	0.5408	-0.097
Mof_C 	C 	0.3254	0.5818	0.5416	0.053
Mof_C 	C 	0.4216	0.39	0.4796	-0.173
Mof_C 	C 	0.9041	0.7461	0.8805	-0.11
Mof_C 	C 	0.6523	0.3441	0.7679	-0.127
Mof_C 	C 	0.5872	0.1556	0.7688	-0.123
Mof_C 	C 	0.8457	0.6217	0.7623	-0.111
Mof_C 	C 	0.6538	0.5475	0.8973	0.053
Mof_C 	C 	0.6107	0.5543	0.9725	-0.106
Mof_C 	C 	0.6253	0.4934	0.0158	0.082
Mof_C 	C 	0.6775	0.4265	0.9831	-0.1
Mof_C 	C 	0.7156	0.4247	0.9101	0.051
Mof_C 	C 	0.5798	0.5004	0.0972	-0.17
Mof_C 	C 	0.8623	0.419	0.5878	0.058
Mof_C 	C 	0.8961	0.4132	0.5152	-0.099
Mof_C 	C 	0.8919	0.477	0.4718	0.079
Mof_C 	C 	0.8566	0.5408	0.5092	-0.096
Mof_C 	C 	0.8254	0.5416	0.5818	0.053
Mof_C 	C 	0.9216	0.4796	0.39	-0.167
Mof_C 	C 	0.0307	0.7539	0.6195	-0.115
Mof_C 	C 	0.2643	0.1559	0.7321	-0.126
Mof_C 	C 	0.0116	0.3444	0.7312	-0.129
Mof_C 	C 	0.7297	0.8783	0.7377	-0.112
Mof_C 	C 	0.5986	0.9525	0.6027	0.052
Mof_C 	C 	0.6375	0.9457	0.5275	-0.099
Mof_C 	C 	0.6345	0.0066	0.4842	0.072
Mof_C 	C 	0.5871	0.0735	0.5169	-0.092
Mof_C 	C 	0.5504	0.0753	0.5899	0.048
Mof_C 	C 	0.6774	0.9996	0.4028	-0.134
Mof_C 	C 	0.3691	0.081	0.9122	0.059
Mof_C 	C 	0.3245	0.0868	0.9848	-0.104
Mof_C 	C 	0.3407	0.023	0.0282	0.082
Mof_C 	C 	0.4066	0.9592	0.9908	-0.099
Mof_C 	C 	0.4488	0.9584	0.9182	0.054
Mof_C 	C 	0.2912	0.0204	0.11	-0.175
Mof_N 	N 	0.6082	0.5758	0.7362	-0.114
Mof_N 	N 	0.8317	0.7398	0.1064	-0.117
Mof_N 	N 	0.4351	0.7392	0.3934	-0.12
Mof_N 	N 	0.1527	0.7554	0.9222	-0.116
Mof_N 	N 	0.0567	0.6324	0.0142	-0.154
Mof_N 	N 	0.9291	0.8785	0.0199	-0.153
Mof_N 	N 	0.4202	0.9242	0.7638	-0.114
Mof_N 	N 	0.1779	0.7602	0.3936	-0.118
Mof_N 	N 	0.0677	0.7608	0.1066	-0.122
Mof_N 	N 	0.3303	0.7446	0.5778	-0.114
Mof_N 	N 	0.2033	0.8676	0.4858	-0.152
Mof_N 	N 	0.3275	0.6215	0.4801	-0.153
Mof_N 	N 	0.9202	0.7638	0.9242	-0.114
Mof_N 	N 	0.6779	0.3936	0.7602	-0.118
Mof_N 	N 	0.5677	0.1066	0.7608	-0.12
Mof_N 	N 	0.8303	0.5778	0.7446	-0.114
Mof_N 	N 	0.7033	0.4858	0.8676	-0.153
Mof_N 	N 	0.8275	0.4801	0.6215	-0.152
Mof_N 	N 	0.1082	0.7362	0.5758	-0.113
Mof_N 	N 	0.3317	0.1064	0.7398	-0.118
Mof_N 	N 	0.9351	0.3934	0.7392	-0.116
Mof_N 	N 	0.6527	0.9222	0.7554	-0.114
Mof_N 	N 	0.5567	0.0142	0.6324	-0.152
Mof_N 	N 	0.4291	0.0199	0.8785	-0.154
Mof_Cd	Cd	0.23216	0.51975	0.25615	0.352
Mof_Cd	Cd	0.50806	0.98025	0.24385	0.352
Mof_Cd	Cd	0.00806	0.24385	0.98025	0.346
Mof_Cd	Cd	0.73216	0.25615	0.51975	0.352
Mof_Ag	Ag	0.12262	0.30742	0.18892	0.393
Mof_Ag	Ag	0.38435	0.74921	0.22663	0.415
Mof_Ag	Ag	0.11896	0.19258	0.31108	0.388
Mof_Ag	Ag	0.86019	0.75079	0.27337	0.418
Mof_Ag	Ag	0.61896	0.31108	0.19258	0.394
Mof_Ag	Ag	0.36019	0.27337	0.75079	0.415
Mof_Ag	Ag	0.62262	0.18892	0.30742	0.398
Mof_Ag	Ag	0.88435	0.22663	0.74921	0.42
Mof_C 	C 	0.0959	0.2539	0.1195	-0.112
Mof_C 	C 	0.3477	0.6559	0.2321	-0.127
Mof_C 	C 	0.4128	0.8444	0.2312	-0.122
Mof_C 	C 	0.1543	0.3783	0.2377	-0.111
Mof_C 	C 	0.3462	0.4525	0.1027	0.053
Mof_C 	C 	0.3893	0.4457	0.0275	-0.103
Mof_C 	C 	0.3747	0.5066	0.9842	0.077
Mof_C 	C 	0.3225	0.5735	0.0169	-0.094
Mof_C 	C 	0.2844	0.5753	0.0899	0.049
Mof_C 	C 	0.4202	0.4996	0.9028	-0.169
Mof_C 	C 	0.1377	0.581	0.4122	0.058
Mof_C 	C 	0.1039	0.5868	0.4848	-0.101
Mof_C 	C 	0.1081	0.523	0.5282	0.079
Mof_C 	C 	0.1434	0.4592	0.4908	-0.096
Mof_C 	C 	0.1746	0.4584	0.4182	0.051
Mof_C 	C 	0.0784	0.5204	0.61	-0.173
Mof_C 	C 	0.9693	0.2461	0.3805	-0.106
Mof_C 	C 	0.7357	0.8441	0.2679	-0.125
Mof_C 	C 	0.9884	0.6556	0.2688	-0.116
Mof_C 	C 	0.2703	0.1217	0.2623	-0.109
Mof_C 	C 	0.4014	0.0475	0.3973	0.051
Mof_C 	C 	0.3625	0.0543	0.4725	-0.101
Mof_C 	C 	0.3655	0.9934	0.5158	0.074
Mof_C 	C 	0.4129	0.9265	0.4831	-0.093
Mof_C 	C 	0.4496	0.9247	0.4101	0.049
Mof_C 	C 	0.3226	0.0004	0.5972	-0.136
Mof_C 	C 	0.6309	0.919	0.0878	0.057
Mof_C 	C 	0.6755	0.9132	0.0152	-0.098
Mof_C 	C 	0.6593	0.977	0.9718	0.077
Mof_C 	C 	0.5934	0.0408	0.0092	-0.093
Mof_C 	C 	0.5512	0.0416	0.0818	0.05
Mof_C 	C 	0.7088	0.9796	0.89	-0.172
Mof_C 	C 	0.4693	0.3805	0.2461	-0.112
Mof_C 	C 	0.2357	0.2679	0.8441	-0.128
Mof_C 	C 	0.4884	0.2688	0.6556	-0.122
Mof_C 	C 	0.7703	0.2623	0.1217	-0.11
Mof_C 	C 	0.9014	0.3973	0.0475	0.055
Mof_C 	C 	0.8625	0.4725	0.0543	-0.102
Mof_C 	C 	0.8655	0.5158	0.9934	0.077
Mof_C 	C 	0.9129	0.4831	0.9265	-0.095
Mof_C 	C 	0.9496	0.4101	0.9247	0.05
Mof_C 	C 	0.8226	0.5972	0.0004	-0.166
Mof_C 	C 	0.1309	0.0878	0.919	0.058
Mof_C 	C 	0.1755	0.0152	0.9132	-0.103
Mof_C 	C 	0.1593	0.9718	0.977	0.081
Mof_C 	C 	0.0934	0.0092	0.0408	-0.097
Mof_C 	C 	0.0512	0.0818	0.0416	0.046
Mof_C 	C 	0.2088	0.89	0.9796	-0.176
Mof_C 	C 	0.5959	0.1195	0.2539	-0.111
Mof_C 	C 	0.8477	0.2321	0.6559	-0.126
Mof_C 	C 	0.9128	0.2312	0.8444	-0.121
Mof_C 	C 	0.6543	0.2377	0.3783	-0.11
Mof_C 	C 	0.8462	0.1027	0.4525	0.054
Mof_C 	C 	0.8893	0.0275	0.4457	-0.103
Mof_C 	C 	0.8747	0.9842	0.5066	0.079
Mof_C 	C 	0.8225	0.0169	0.5735	-0.096
Mof_C 	C 	0.7844	0.0899	0.5753	0.051
Mof_C 	C 	0.9202	0.9028	0.4996	-0.165
Mof_C 	C 	0.6377	0.4122	0.581	0.058
Mof_C 	C 	0.6039	0.4848	0.5868	-0.1
Mof_C 	C 	0.6081	0.5282	0.523	0.079
Mof_C 	C 	0.6434	0.4908	0.4592	-0.096
Mof_C 	C 	0.6746	0.4182	0.4584	0.051
Mof_C 	C 	0.5784	0.61	0.5204	-0.174
Mof_N 	N 	0.0798	0.2362	0.0758	-0.114
Mof_N 	N 	0.3221	0.6064	0.2398	-0.118
Mof_N 	N 	0.4323	0.8934	0.2392	-0.12
Mof_N 	N 	0.1697	0.4222	0.2554	-0.116
Mof_N 	N 	0.2967	0.5142	0.1324	-0.152
Mof_N 	N 	0.1725	0.5199	0.3785	-0.153
Mof_N 	N 	0.8918	0.2638	0.4242	-0.115
Mof_N 	N 	0.6683	0.8936	0.2602	-0.118
Mof_N 	N 	0.0649	0.6066	0.2608	-0.123
Mof_N 	N 	0.3473	0.0778	0.2446	-0.116
Mof_N 	N 	0.4433	0.9858	0.3676	-0.152
Mof_N 	N 	0.5709	0.9801	0.1215	-0.153
Mof_N 	N 	0.3918	0.4242	0.2638	-0.114
Mof_N 	N 	0.1683	0.2602	0.8936	-0.118
Mof_N 	N 	0.5649	0.2608	0.6066	-0.12
Mof_N 	N 	0.8473	0.2446	0.0778	-0.114
Mof_N 	N 	0.9433	0.3676	0.9858	-0.151
Mof_N 	N 	0.0709	0.1215	0.9801	-0.154
Mof_N 	N 	0.5798	0.0758	0.2362	-0.114
Mof_N 	N 	0.8221	0.2398	0.6064	-0.117
Mof_N 	N 	0.9323	0.2392	0.8934	-0.118
Mof_N 	N 	0.6697	0.2554	0.4222	-0.115
Mof_N 	N 	0.7967	0.1324	0.5142	-0.152
Mof_N 	N 	0.6725	0.3785	0.5199	-0.153
Mof_H 	H 	0.10341	0.63959	0.9027	-0.003
Mof_H 	H 	0.17044	0.50397	0.89057	0.031
Mof_H 	H 	0.07987	0.4825	0.125	0.034
Mof_H 	H 	0.01322	0.6171	0.12877	0.006
Mof_H 	H 	0.16713	0.38885	0.94987	0.053
Mof_H 	H 	0.13059	0.37674	0.04889	0.04
Mof_H 	H 	0.26636	0.38232	0.99483	0.043
Mof_H 	H 	0.85614	0.87559	0.13077	0.002
Mof_H 	H 	0.77615	0.00869	0.14156	0.046
Mof_H 	H 	0.92599	0.02169	0.90594	0.035
Mof_H 	H 	0.00091	0.89068	0.9058	0.001
Mof_H 	H 	0.71562	0.12728	0.0686	0.05
Mof_H 	H 	0.76934	0.12801	0.96918	0.045
Mof_H 	H 	0.85192	0.1354	0.02149	0.063
Mof_H 	H 	0.1457	0.86041	0.5973	-0.002
Mof_H 	H 	0.06498	0.99603	0.60943	0.03
Mof_H 	H 	0.18737	0.0175	0.375	0.033
Mof_H 	H 	0.25909	0.8829	0.37123	0.007
Mof_H 	H 	0.01049	0.11089	0.55266	0.051
Mof_H 	H 	0.04934	0.12291	0.45357	0.04
Mof_H 	H 	0.14576	0.11828	0.50017	0.043
Mof_H 	H 	0.3625	0.62441	0.36923	0.002
Mof_H 	H 	0.4264	0.49131	0.35844	0.046
Mof_H 	H 	0.35362	0.47831	0.59406	0.033
Mof_H 	H 	0.2974	0.60932	0.5942	0.005
Mof_H 	H 	0.4038	0.37311	0.43448	0.05
Mof_H 	H 	0.37212	0.37154	0.53317	0.046
Mof_H 	H 	0.51091	0.36466	0.47308	0.062
Mof_H 	H 	0.6457	0.5973	0.86041	-0.002
Mof_H 	H 	0.56498	0.60943	0.99603	0.031
Mof_H 	H 	0.68737	0.375	0.0175	0.036
Mof_H 	H 	0.75909	0.37123	0.8829	0.007
Mof_H 	H 	0.55684	0.45091	0.12329	0.04
Mof_H 	H 	0.50546	0.54988	0.11118	0.054
Mof_H 	H 	0.64328	0.50562	0.11762	0.043
Mof_H 	H 	0.8625	0.36923	0.62441	0.003
Mof_H 	H 	0.9264	0.35844	0.49131	0.047
Mof_H 	H 	0.85362	0.59406	0.47831	0.034
Mof_H 	H 	0.7974	0.5942	0.60932	0.005
Mof_H 	H 	0.86757	0.53131	0.37191	0.045
Mof_H 	H 	0.90999	0.43196	0.37279	0.049
Mof_H 	H 	0.00927	0.47746	0.36461	0.058
Mof_H 	H 	0.60341	0.9027	0.63959	-0.001
Mof_H 	H 	0.67044	0.89057	0.50397	0.032
Mof_H 	H 	0.57987	0.125	0.4825	0.035
Mof_H 	H 	0.51322	0.12877	0.6171	0.008
Mof_H 	H 	0.62341	0.99507	0.37342	0.053
Mof_H 	H 	0.76326	0.99893	0.37169	0.036
Mof_H 	H 	0.35614	0.13077	0.87559	0.002
Mof_H 	H 	0.27615	0.14156	0.00869	0.047
Mof_H 	H 	0.42599	0.90594	0.02169	0.034
Mof_H 	H 	0.50091	0.9058	0.89068	0.004
Mof_H 	H 	0.27939	0.96614	0.12862	0.047
Mof_H 	H 	0.21008	0.06438	0.12677	0.049
Mof_H 	H 	0.3474	0.02875	0.13531	0.062
Mof_H 	H 	0.3543	0.4027	0.13959	-0.002
Mof_H 	H 	0.43502	0.39057	0.00397	0.03
Mof_H 	H 	0.31263	0.625	0.9825	0.033
Mof_H 	H 	0.24091	0.62877	0.1171	0.007
Mof_H 	H 	0.3684	0.54561	0.87645	0.035
Mof_H 	H 	0.41978	0.44664	0.88856	0.043
Mof_H 	H 	0.50622	0.50135	0.8829	0.059
Mof_H 	H 	0.1375	0.63077	0.37559	0.002
Mof_H 	H 	0.0736	0.64156	0.50869	0.045
Mof_H 	H 	0.14638	0.40594	0.52169	0.033
Mof_H 	H 	0.2026	0.4058	0.39068	0.004
Mof_H 	H 	0.0521	0.47147	0.63326	0.055
Mof_H 	H 	0.00968	0.57083	0.63237	0.052
Mof_H 	H 	0.15138	0.51697	0.62507	0.048
Mof_H 	H 	0.39659	0.0973	0.36041	-0.001
Mof_H 	H 	0.32956	0.10943	0.49603	0.031
Mof_H 	H 	0.42013	0.875	0.5175	0.035
Mof_H 	H 	0.48678	0.87123	0.3829	0.008
Mof_H 	H 	0.23674	0.00107	0.62831	0.036
Mof_H 	H 	0.37659	0.00493	0.62658	0.053
Mof_H 	H 	0.64386	0.86923	0.12441	0.002
Mof_H 	H 	0.72385	0.85844	0.99131	0.044
Mof_H 	H 	0.57401	0.09406	0.97831	0.032
Mof_H 	H 	0.49909	0.0942	0.10932	0.005
Mof_H 	H 	0.65217	0.02487	0.8663	0.057
Mof_H 	H 	0.72148	0.92663	0.86816	0.052
Mof_H 	H 	0.78948	0.98924	0.87485	0.048
Mof_H 	H 	0.89659	0.36041	0.0973	-0.001
Mof_H 	H 	0.82956	0.49603	0.10943	0.031
Mof_H 	H 	0.75454	0.61146	0.05316	0.043
Mof_H 	H 	0.79108	0.62358	0.95414	0.034
Mof_H 	H 	0.14386	0.12441	0.86923	0.001
Mof_H 	H 	0.22385	0.99131	0.85844	0.047
Mof_H 	H 	0.07401	0.97831	0.09406	0.033
Mof_H 	H 	0.99909	0.10932	0.0942	0.009
Mof_H 	H 	0.21142	0.86754	0.92967	0.054
Mof_H 	H 	0.1577	0.86682	0.02909	0.056
Mof_H 	H 	0.294	0.87494	0.98198	0.049
Mof_H 	H 	0.8543	0.13959	0.4027	-0.001
Mof_H 	H 	0.93502	0.00397	0.39057	0.032
Mof_H 	H 	0.81263	0.9825	0.625	0.035
Mof_H 	H 	0.74091	0.1171	0.62877	0.007
Mof_H 	H 	0.91228	0.88818	0.4493	0.044
Mof_H 	H 	0.87343	0.87617	0.5484	0.034
Mof_H 	H 	0.0087	0.88356	0.4959	0.056
Mof_H 	H 	0.6375	0.37559	0.63077	0.002
Mof_H 	H 	0.5736	0.50869	0.64156	0.046
Mof_H 	H 	0.64638	0.52169	0.40594	0.033
Mof_H 	H 	0.7026	0.39068	0.4058	0.005
Mof_H 	H 	0.51423	0.632	0.57268	0.053
Mof_H 	H 	0.54591	0.63357	0.47399	0.057
Mof_H 	H 	0.65302	0.62512	0.5126	0.048
Mof_H 	H 	0.92013	0.5175	0.875	0.035
Mof_H 	H 	0.98678	0.3829	0.87123	0.009
Mof_H 	H 	0.8903	0.61705	0.9991	0.059
_end
