# CIF file generated by openbabel 3.1.0, see https://openbabel.org
data_I
_chemical_name_common 'image0'
_cell_length_a 14.745
_cell_length_b 11.024
_cell_length_c 13.287
_cell_angle_alpha 90
_cell_angle_beta 97.27
_cell_angle_gamma 90
_space_group_name_H-M_alt 'P 1'
_space_group_name_Hall 'P 1'
loop_
    _symmetry_equiv_pos_as_xyz
    x,y,z
loop_
    _atom_site_label
    _atom_site_type_symbol
    _atom_site_fract_x
    _atom_site_fract_y
    _atom_site_fract_z
    _atom_site_occupancy
    Cu1      Cu       0.01470    0.28742    0.23314    1.000
    Cu2      Cu       0.31441    0.19730    0.23652    1.000
    O1       O        0.94300    0.13870    0.21190    1.000
    O2       O        0.92091    0.94330    0.23920    1.000
    O3       O        0.12790    0.20970    0.21990    1.000
    O4       O        0.38620    0.34610    0.23080    1.000
    O5       O        0.45020    0.46590    0.12730    1.000
    O6       O        0.39890    0.42250    0.91980    1.000
    N1       N        0.22980    0.05780    0.24200    1.000
    N2       N        0.09490    0.89130    0.26220    1.000
    N3       N        0.30100    0.21500    0.08360    1.000
    N4       N        0.30490    0.26450    0.88180    1.000
    C1       C        0.14100    0.09610    0.23390    1.000
    C2       C        0.07320    0.00690    0.24280    1.000
    C3       C        0.97310    0.03350    0.23090    1.000
    C4       C        0.18250    0.85680    0.27260    1.000
    H1       H        0.19840    0.77460    0.28730    1.000
    C5       C        0.25010    0.94150    0.26180    1.000
    H2       H        0.31220    0.91630    0.26870    1.000
    C6       C        0.35380    0.33580    0.95230    1.000
    C7       C        0.35050    0.30810    0.05660    1.000
    C8       C        0.39920    0.37880    0.14310    1.000
    C9       C        0.25320    0.14650    0.01290    1.000
    H3       H        0.21770    0.08050    0.03210    1.000
    C10      C        0.25580    0.17220    0.91180    1.000
    H4       H        0.22170    0.12300    0.86190    1.000
    Cu3      Cu       0.98530    0.78742    0.26686    1.000
    Cu4      Cu       0.68559    0.69730    0.26348    1.000
    O7       O        0.05700    0.63870    0.28810    1.000
    O8       O        0.07909    0.44330    0.26080    1.000
    O9       O        0.87210    0.70970    0.28010    1.000
    O10      O        0.61380    0.84610    0.26920    1.000
    O11      O        0.54980    0.96590    0.37270    1.000
    O12      O        0.60110    0.92250    0.58020    1.000
    N5       N        0.77020    0.55780    0.25800    1.000
    N6       N        0.90510    0.39130    0.23780    1.000
    N7       N        0.69900    0.71500    0.41640    1.000
    N8       N        0.69510    0.76450    0.61820    1.000
    C11      C        0.85900    0.59610    0.26610    1.000
    C12      C        0.92680    0.50690    0.25720    1.000
    C13      C        0.02690    0.53350    0.26910    1.000
    C14      C        0.81750    0.35680    0.22740    1.000
    H5       H        0.80160    0.27460    0.21270    1.000
    C15      C        0.74990    0.44150    0.23820    1.000
    H6       H        0.68780    0.41630    0.23130    1.000
    C16      C        0.64620    0.83580    0.54770    1.000
    C17      C        0.64950    0.80810    0.44340    1.000
    C18      C        0.60080    0.87880    0.35690    1.000
    C19      C        0.74680    0.64650    0.48710    1.000
    H7       H        0.78230    0.58050    0.46790    1.000
    C20      C        0.74420    0.67220    0.58820    1.000
    H8       H        0.77830    0.62300    0.63810    1.000
    Cu5      Cu       0.98530    0.71258    0.76686    1.000
    Cu6      Cu       0.68559    0.80270    0.76348    1.000
    O13      O        0.05700    0.86130    0.78810    1.000
    O14      O        0.07909    0.05670    0.76080    1.000
    O15      O        0.87210    0.79030    0.78010    1.000
    O16      O        0.61380    0.65390    0.76920    1.000
    O17      O        0.54980    0.53410    0.87270    1.000
    O18      O        0.60110    0.57750    0.08020    1.000
    N9       N        0.77020    0.94220    0.75800    1.000
    N10      N        0.90510    0.10870    0.73780    1.000
    N11      N        0.69900    0.78500    0.91640    1.000
    N12      N        0.69510    0.73550    0.11820    1.000
    C21      C        0.85900    0.90390    0.76610    1.000
    C22      C        0.92680    0.99310    0.75720    1.000
    C23      C        0.02690    0.96650    0.76910    1.000
    C24      C        0.81750    0.14320    0.72740    1.000
    H9       H        0.80160    0.22540    0.71270    1.000
    C25      C        0.74990    0.05850    0.73820    1.000
    H10      H        0.68780    0.08370    0.73130    1.000
    C26      C        0.64620    0.66420    0.04770    1.000
    C27      C        0.64950    0.69190    0.94340    1.000
    C28      C        0.60080    0.62120    0.85690    1.000
    C29      C        0.74680    0.85350    0.98710    1.000
    H11      H        0.78230    0.91950    0.96790    1.000
    C30      C        0.74420    0.82780    0.08820    1.000
    H12      H        0.77830    0.87700    0.13810    1.000
    Cu7      Cu       0.01470    0.21258    0.73314    1.000
    Cu8      Cu       0.31441    0.30270    0.73652    1.000
    O19      O        0.94300    0.36130    0.71190    1.000
    O20      O        0.92091    0.55670    0.73920    1.000
    O21      O        0.12790    0.29030    0.71990    1.000
    O22      O        0.38620    0.15390    0.73080    1.000
    O23      O        0.45020    0.03410    0.62730    1.000
    O24      O        0.39890    0.07750    0.41980    1.000
    N13      N        0.22980    0.44220    0.74200    1.000
    N14      N        0.09490    0.60870    0.76220    1.000
    N15      N        0.30100    0.28500    0.58360    1.000
    N16      N        0.30490    0.23550    0.38180    1.000
    C31      C        0.14100    0.40390    0.73390    1.000
    C32      C        0.07320    0.49310    0.74280    1.000
    C33      C        0.97310    0.46650    0.73090    1.000
    C34      C        0.18250    0.64320    0.77260    1.000
    H13      H        0.19840    0.72540    0.78730    1.000
    C35      C        0.25010    0.55850    0.76180    1.000
    H14      H        0.31220    0.58370    0.76870    1.000
    C36      C        0.35380    0.16420    0.45230    1.000
    C37      C        0.35050    0.19190    0.55660    1.000
    C38      C        0.39920    0.12120    0.64310    1.000
    C39      C        0.25320    0.35350    0.51290    1.000
    H15      H        0.21770    0.41950    0.53210    1.000
    C40      C        0.25580    0.32780    0.41180    1.000
    H16      H        0.22170    0.37700    0.36190    1.000
    Cu9      Cu       0.50000    0.50000    0.00000    1.000
    Cu10     Cu       0.50000    0.00000    0.50000    1.000
