data_functionalizedCrystal
_audit_creation_method	'EQeq! by Chris Wilmer'
_symmetry_space_group_name_H-M	'P1'
_symmetry_Int_Tables_number	1
_symmetry_cell_setting	triclinic
loop_
_symmetry_equiv_pos_as_xyz
  x,y,z
_cell_length_a	13.5214
_cell_length_b	13.5214
_cell_length_c	8.0686
_cell_angle_alpha	90
_cell_angle_beta	90
_cell_angle_gamma	120
loop_
_atom_site_label
_atom_site_type_symbol
_atom_site_fract_x
_atom_site_fract_y
_atom_site_fract_z
_atom_site_charge
Mof_Mn	Mn	0.30139	0.33802	0.54531	0.789
Mof_O 	O 	0.23003	0.18142	0.4068	-0.338
Mof_C 	C 	0.53482	0.32273	0.5486	-0.143
Mof_C 	C 	0.3537	0.5599	0.7766	-0.137
Mof_O 	O 	0.24578	0.05806	0.2468	-0.342
Mof_C 	C 	0.2677	0.1579	0.2803	0.347
Mof_N 	N 	0.3468	0.2087	0.0007	-0.269
Mof_H 	H 	0.4112	0.2567	0.9459	0.098
Mof_H 	H 	0.2865	0.1987	0.9404	0.138
Mof_C 	C 	0.3456	0.2547	0.1639	-0.108
Mof_H 	H 	0.4231	0.2872	0.2084	0.049
Mof_N 	N 	0.3658	0.4276	0.3033	-0.293
Mof_H 	H 	0.3482	0.4834	0.2956	0.101
Mof_H 	H 	0.4425	0.4608	0.302	0.105
Mof_C 	C 	0.3195	0.3525	0.1567	-0.019
Mof_H 	H 	0.3527	0.397	0.057	0.028
Mof_H 	H 	0.2375	0.3213	0.1517	0.041
Mof_N 	N 	0.456	0.3214	0.6037	-0.148
Mof_N 	N 	0.368	0.5	0.691	-0.154
Mof_Mn	Mn	0.66198	0.96337	0.54531	0.788
Mof_O 	O 	0.81858	0.04861	0.4068	-0.339
Mof_C 	C 	0.67727	0.21209	0.5486	-0.144
Mof_C 	C 	0.4401	0.7938	0.7766	-0.138
Mof_O 	O 	0.94194	0.18772	0.2468	-0.343
Mof_C 	C 	0.8421	0.1098	0.2803	0.346
Mof_N 	N 	0.7913	0.1381	0.0007	-0.271
Mof_H 	H 	0.7433	0.1545	0.9459	0.099
Mof_H 	H 	0.8013	0.0878	0.9404	0.139
Mof_C 	C 	0.7453	0.0909	0.1639	-0.108
Mof_H 	H 	0.7128	0.1359	0.2084	0.049
Mof_N 	N 	0.5724	0.9382	0.3033	-0.293
Mof_H 	H 	0.5166	0.8648	0.2956	0.101
Mof_H 	H 	0.5392	0.9817	0.302	0.104
Mof_C 	C 	0.6475	0.967	0.1567	-0.019
Mof_H 	H 	0.603	0.9557	0.057	0.028
Mof_H 	H 	0.6787	0.9162	0.1517	0.041
Mof_N 	N 	0.6786	0.1346	0.6037	-0.148
Mof_N 	N 	0.5	0.868	0.691	-0.154
Mof_Mn	Mn	0.03663	0.69861	0.54531	0.787
Mof_O 	O 	0.95139	0.76997	0.4068	-0.339
Mof_C 	C 	0.78791	0.46518	0.5486	-0.144
Mof_C 	C 	0.2062	0.6463	0.7766	-0.139
Mof_O 	O 	0.81228	0.75422	0.2468	-0.343
Mof_C 	C 	0.8902	0.7323	0.2803	0.346
Mof_N 	N 	0.8619	0.6532	0.0007	-0.27
Mof_H 	H 	0.8455	0.5888	0.9459	0.098
Mof_H 	H 	0.9122	0.7135	0.9404	0.139
Mof_C 	C 	0.9091	0.6544	0.1639	-0.108
Mof_H 	H 	0.8641	0.5769	0.2084	0.049
Mof_N 	N 	0.0618	0.6342	0.3033	-0.293
Mof_H 	H 	0.1352	0.6518	0.2956	0.101
Mof_H 	H 	0.0183	0.5575	0.302	0.104
Mof_C 	C 	0.033	0.6805	0.1567	-0.019
Mof_H 	H 	0.0443	0.6473	0.057	0.028
Mof_H 	H 	0.0838	0.7625	0.1517	0.041
Mof_N 	N 	0.8654	0.544	0.6037	-0.147
Mof_N 	N 	0.132	0.632	0.691	-0.154
Mof_Mn	Mn	0.69861	0.66198	0.04531	0.792
Mof_O 	O 	0.76997	0.81858	0.9068	-0.341
Mof_C 	C 	0.46518	0.67727	0.0486	-0.14
Mof_C 	C 	0.6463	0.4401	0.2766	-0.138
Mof_O 	O 	0.75422	0.94194	0.7468	-0.344
Mof_C 	C 	0.7323	0.8421	0.7803	0.346
Mof_N 	N 	0.6532	0.7913	0.5007	-0.275
Mof_H 	H 	0.5888	0.7433	0.4459	0.101
Mof_H 	H 	0.7135	0.8013	0.4404	0.141
Mof_C 	C 	0.6544	0.7453	0.6639	-0.108
Mof_H 	H 	0.5769	0.7128	0.7084	0.048
Mof_N 	N 	0.6342	0.5724	0.8033	-0.294
Mof_H 	H 	0.6518	0.5166	0.7956	0.1
Mof_H 	H 	0.5575	0.5392	0.802	0.104
Mof_C 	C 	0.6805	0.6475	0.6567	-0.019
Mof_H 	H 	0.6473	0.603	0.557	0.027
Mof_H 	H 	0.7625	0.6787	0.6517	0.041
Mof_N 	N 	0.544	0.6786	0.1037	-0.148
Mof_N 	N 	0.632	0.5	0.191	-0.154
Mof_Mn	Mn	0.33802	0.03663	0.04531	0.792
Mof_O 	O 	0.18142	0.95139	0.9068	-0.342
Mof_C 	C 	0.32273	0.78791	0.0486	-0.14
Mof_C 	C 	0.5599	0.2062	0.2766	-0.138
Mof_O 	O 	0.05806	0.81228	0.7468	-0.344
Mof_C 	C 	0.1579	0.8902	0.7803	0.346
Mof_N 	N 	0.2087	0.8619	0.5007	-0.274
Mof_H 	H 	0.2567	0.8455	0.4459	0.101
Mof_H 	H 	0.1987	0.9122	0.4404	0.141
Mof_C 	C 	0.2547	0.9091	0.6639	-0.109
Mof_H 	H 	0.2872	0.8641	0.7084	0.048
Mof_N 	N 	0.4276	0.0618	0.8033	-0.294
Mof_H 	H 	0.4834	0.1352	0.7956	0.1
Mof_H 	H 	0.4608	0.0183	0.802	0.104
Mof_C 	C 	0.3525	0.033	0.6567	-0.018
Mof_H 	H 	0.397	0.0443	0.557	0.026
Mof_H 	H 	0.3213	0.0838	0.6517	0.04
Mof_N 	N 	0.3214	0.8654	0.1037	-0.148
Mof_N 	N 	0.5	0.132	0.191	-0.154
Mof_Mn	Mn	0.96337	0.30139	0.04531	0.792
Mof_O 	O 	0.04861	0.23003	0.9068	-0.342
Mof_C 	C 	0.21209	0.53482	0.0486	-0.14
Mof_C 	C 	0.7938	0.3537	0.2766	-0.138
Mof_O 	O 	0.18772	0.24578	0.7468	-0.344
Mof_C 	C 	0.1098	0.2677	0.7803	0.346
Mof_N 	N 	0.1381	0.3468	0.5007	-0.275
Mof_H 	H 	0.1545	0.4112	0.4459	0.101
Mof_H 	H 	0.0878	0.2865	0.4404	0.141
Mof_C 	C 	0.0909	0.3456	0.6639	-0.109
Mof_H 	H 	0.1359	0.4231	0.7084	0.048
Mof_N 	N 	0.9382	0.3658	0.8033	-0.294
Mof_H 	H 	0.8648	0.3482	0.7956	0.1
Mof_H 	H 	0.9817	0.4425	0.802	0.104
Mof_C 	C 	0.967	0.3195	0.6567	-0.018
Mof_H 	H 	0.9557	0.3527	0.557	0.026
Mof_H 	H 	0.9162	0.2375	0.6517	0.04
Mof_N 	N 	0.1346	0.456	0.1037	-0.148
Mof_N 	N 	0.868	0.368	0.191	-0.154
Mof_Mn	Mn	0.33333	0.66667	0.92189	0.78
Mof_Mn	Mn	0.66667	0.33333	0.42189	0.788
_end
