data_functionalizedCrystal
_audit_creation_method	'EQeq! by Chris Wilmer'
_symmetry_space_group_name_H-M	'P1'
_symmetry_Int_Tables_number	1
_symmetry_cell_setting	triclinic
loop_
_symmetry_equiv_pos_as_xyz
  x,y,z
_cell_length_a	9.2197
_cell_length_b	9.6228
_cell_length_c	10.5649
_cell_angle_alpha	90
_cell_angle_beta	90
_cell_angle_gamma	90
loop_
_atom_site_label
_atom_site_type_symbol
_atom_site_fract_x
_atom_site_fract_y
_atom_site_fract_z
_atom_site_charge
Mof_Ca	Ca	0.81393	0.68112	0.32289	1.359
Mof_Ca	Ca	0.31393	0.81888	0.67711	1.36
Mof_Ca	Ca	0.68607	0.31888	0.82289	1.365
Mof_Ca	Ca	0.18607	0.18112	0.17711	1.356
Mof_H 	H 	0.68912	0.26255	0.34276	0.026
Mof_H 	H 	0.75094	0.17378	0.14285	0.021
Mof_H 	H 	0.57131	0.45464	0.33983	0.123
Mof_H 	H 	0.87631	0.31303	0.03443	0.159
Mof_H 	H 	0.18912	0.23745	0.65724	0.025
Mof_H 	H 	0.25094	0.32622	0.85715	0.021
Mof_H 	H 	0.07131	0.04536	0.66017	0.122
Mof_H 	H 	0.37631	0.18697	0.96557	0.159
Mof_H 	H 	0.81088	0.73745	0.84276	0.025
Mof_H 	H 	0.74906	0.82622	0.64285	0.021
Mof_H 	H 	0.92869	0.54536	0.83983	0.123
Mof_H 	H 	0.62369	0.68697	0.53443	0.158
Mof_H 	H 	0.31088	0.76255	0.15724	0.026
Mof_H 	H 	0.24906	0.67378	0.35715	0.022
Mof_H 	H 	0.42869	0.95464	0.16017	0.123
Mof_H 	H 	0.12369	0.81303	0.46557	0.159
Mof_C 	C 	0.89	0.3569	0.2959	0.359
Mof_C 	C 	0.7263	0.339	0.2756	-0.021
Mof_C 	C 	0.7022	0.2736	0.1422	-0.006
Mof_C 	C 	0.5414	0.2607	0.1062	0.343
Mof_C 	C 	0.39	0.1431	0.7041	0.359
Mof_C 	C 	0.2263	0.161	0.7244	-0.021
Mof_C 	C 	0.2022	0.2264	0.8578	-0.006
Mof_C 	C 	0.0414	0.2393	0.8938	0.342
Mof_C 	C 	0.61	0.6431	0.7959	0.359
Mof_C 	C 	0.7737	0.661	0.7756	-0.021
Mof_C 	C 	0.7978	0.7264	0.6422	-0.007
Mof_C 	C 	0.9586	0.7393	0.6062	0.344
Mof_C 	C 	0.11	0.8569	0.2041	0.359
Mof_C 	C 	0.2737	0.839	0.2244	-0.021
Mof_C 	C 	0.2978	0.7736	0.3578	-0.007
Mof_C 	C 	0.4586	0.7607	0.3938	0.345
Mof_O 	O 	0.94201	0.47005	0.32557	-0.422
Mof_O 	O 	0.96154	0.2458	0.28371	-0.407
Mof_O 	O 	0.66052	0.47417	0.28152	-0.343
Mof_O 	O 	0.77303	0.35473	0.04798	-0.356
Mof_O 	O 	0.45173	0.23519	0.18936	-0.409
Mof_O 	O 	0.51541	0.26735	0.98667	-0.426
Mof_O 	O 	0.44201	0.02995	0.67443	-0.421
Mof_O 	O 	0.46154	0.2542	0.71629	-0.408
Mof_O 	O 	0.16052	0.02583	0.71848	-0.343
Mof_O 	O 	0.27303	0.14527	0.95202	-0.355
Mof_O 	O 	0.95173	0.26481	0.81064	-0.406
Mof_O 	O 	0.01541	0.23265	0.01333	-0.429
Mof_O 	O 	0.55799	0.52995	0.82557	-0.423
Mof_O 	O 	0.53846	0.7542	0.78371	-0.409
Mof_O 	O 	0.83948	0.52583	0.78152	-0.343
Mof_O 	O 	0.72697	0.64527	0.54798	-0.355
Mof_O 	O 	0.04827	0.76481	0.68936	-0.409
Mof_O 	O 	0.98459	0.73265	0.48667	-0.429
Mof_O 	O 	0.05799	0.97005	0.17443	-0.419
Mof_O 	O 	0.03846	0.7458	0.21629	-0.407
Mof_O 	O 	0.33948	0.97417	0.21848	-0.342
Mof_O 	O 	0.22697	0.85473	0.45202	-0.355
Mof_O 	O 	0.54827	0.73519	0.31064	-0.409
Mof_O 	O 	0.48459	0.76735	0.51333	-0.428
_end
