data_functionalizedCrystal
_audit_creation_method	'EQeq! by Chris Wilmer'
_symmetry_space_group_name_H-M	'P1'
_symmetry_Int_Tables_number	1
_symmetry_cell_setting	triclinic
loop_
_symmetry_equiv_pos_as_xyz
  x,y,z
_cell_length_a	8.2835
_cell_length_b	31.745
_cell_length_c	31.745
_cell_angle_alpha	90
_cell_angle_beta	90
_cell_angle_gamma	90
loop_
_atom_site_label
_atom_site_type_symbol
_atom_site_fract_x
_atom_site_fract_y
_atom_site_fract_z
_atom_site_charge
Mof_In	In	0.9031	0.46542	0.30696	2.516
Mof_In	In	0.9031	0.03458	0.19304	2.513
Mof_In	In	0.9031	0.19304	0.46542	2.515
Mof_In	In	0.9031	0.30696	0.03458	2.513
Mof_In	In	0.0969	0.53458	0.69304	2.516
Mof_In	In	0.0969	0.96542	0.80696	2.513
Mof_In	In	0.0969	0.80696	0.53458	2.515
Mof_In	In	0.0969	0.69304	0.96542	2.513
Mof_H 	H 	0.3565	0.3797	0.3247	0.059
Mof_H 	H 	0.6137	0.3382	0.3284	0.062
Mof_H 	H 	0.7636	0.2862	0.3575	0.048
Mof_H 	H 	0.376	0.246	0.4234	0.064
Mof_H 	H 	0.1165	0.2858	0.4162	0.093
Mof_H 	H 	0.9747	0.3424	0.3916	0.014
Mof_H 	H 	0.7218	0.5721	0.2112	0.029
Mof_H 	H 	0.7266	0.61	0.1513	0.068
Mof_H 	H 	0.8603	0.6309	0.0839	0.072
Mof_H 	H 	0.2884	0.5804	0.0542	0.046
Mof_H 	H 	0.278	0.5383	0.1122	0.05
Mof_H 	H 	0.1405	0.5181	0.1796	0.044
Mof_H 	H 	0.3565	0.1203	0.1753	0.058
Mof_H 	H 	0.6137	0.1618	0.1716	0.061
Mof_H 	H 	0.7636	0.2138	0.1425	0.047
Mof_H 	H 	0.376	0.254	0.0766	0.063
Mof_H 	H 	0.1165	0.2142	0.0838	0.093
Mof_H 	H 	0.9747	0.1576	0.1084	0.011
Mof_H 	H 	0.7218	0.9279	0.2888	0.028
Mof_H 	H 	0.7266	0.89	0.3487	0.067
Mof_H 	H 	0.8603	0.8691	0.4161	0.07
Mof_H 	H 	0.2884	0.9196	0.4458	0.045
Mof_H 	H 	0.278	0.9617	0.3878	0.049
Mof_H 	H 	0.1405	0.9819	0.3204	0.044
Mof_H 	H 	0.3565	0.1753	0.3797	0.057
Mof_H 	H 	0.6137	0.1716	0.3382	0.061
Mof_H 	H 	0.7636	0.1425	0.2862	0.047
Mof_H 	H 	0.376	0.0766	0.246	0.063
Mof_H 	H 	0.1165	0.0838	0.2858	0.093
Mof_H 	H 	0.9747	0.1084	0.3424	0.012
Mof_H 	H 	0.7218	0.2888	0.5721	0.028
Mof_H 	H 	0.7266	0.3487	0.61	0.067
Mof_H 	H 	0.8603	0.4161	0.6309	0.07
Mof_H 	H 	0.2884	0.4458	0.5804	0.045
Mof_H 	H 	0.278	0.3878	0.5383	0.049
Mof_H 	H 	0.1405	0.3204	0.5181	0.043
Mof_H 	H 	0.3565	0.3247	0.1203	0.057
Mof_H 	H 	0.6137	0.3284	0.1618	0.061
Mof_H 	H 	0.7636	0.3575	0.2138	0.047
Mof_H 	H 	0.376	0.4234	0.254	0.063
Mof_H 	H 	0.1165	0.4162	0.2142	0.092
Mof_H 	H 	0.9747	0.3916	0.1576	0.012
Mof_H 	H 	0.7218	0.2112	0.9279	0.028
Mof_H 	H 	0.7266	0.1513	0.89	0.067
Mof_H 	H 	0.8603	0.0839	0.8691	0.07
Mof_H 	H 	0.2884	0.0542	0.9196	0.045
Mof_H 	H 	0.278	0.1122	0.9617	0.049
Mof_H 	H 	0.1405	0.1796	0.9819	0.044
Mof_H 	H 	0.6435	0.6203	0.6753	0.058
Mof_H 	H 	0.3863	0.6618	0.6716	0.061
Mof_H 	H 	0.2364	0.7138	0.6425	0.047
Mof_H 	H 	0.624	0.754	0.5766	0.063
Mof_H 	H 	0.8835	0.7142	0.5838	0.092
Mof_H 	H 	0.0253	0.6576	0.6084	0.013
Mof_H 	H 	0.2782	0.4279	0.7888	0.028
Mof_H 	H 	0.2734	0.39	0.8487	0.067
Mof_H 	H 	0.1397	0.3691	0.9161	0.071
Mof_H 	H 	0.7116	0.4196	0.9458	0.045
Mof_H 	H 	0.722	0.4617	0.8878	0.049
Mof_H 	H 	0.8595	0.4819	0.8204	0.043
Mof_H 	H 	0.6435	0.8797	0.8247	0.057
Mof_H 	H 	0.3863	0.8382	0.8284	0.06
Mof_H 	H 	0.2364	0.7862	0.8575	0.047
Mof_H 	H 	0.624	0.746	0.9234	0.063
Mof_H 	H 	0.8835	0.7858	0.9162	0.093
Mof_H 	H 	0.0253	0.8424	0.8916	0.011
Mof_H 	H 	0.2782	0.0721	0.7112	0.028
Mof_H 	H 	0.2734	0.11	0.6513	0.067
Mof_H 	H 	0.1397	0.1309	0.5839	0.07
Mof_H 	H 	0.7116	0.0804	0.5542	0.045
Mof_H 	H 	0.722	0.0383	0.6122	0.049
Mof_H 	H 	0.8595	0.0181	0.6796	0.044
Mof_H 	H 	0.6435	0.8247	0.6203	0.057
Mof_H 	H 	0.3863	0.8284	0.6618	0.061
Mof_H 	H 	0.2364	0.8575	0.7138	0.047
Mof_H 	H 	0.624	0.9234	0.754	0.063
Mof_H 	H 	0.8835	0.9162	0.7142	0.093
Mof_H 	H 	0.0253	0.8916	0.6576	0.012
Mof_H 	H 	0.2782	0.7112	0.4279	0.028
Mof_H 	H 	0.2734	0.6513	0.39	0.067
Mof_H 	H 	0.1397	0.5839	0.3691	0.07
Mof_H 	H 	0.7116	0.5542	0.4196	0.045
Mof_H 	H 	0.722	0.6122	0.4617	0.049
Mof_H 	H 	0.8595	0.6796	0.4819	0.043
Mof_H 	H 	0.6435	0.6753	0.8797	0.057
Mof_H 	H 	0.3863	0.6716	0.8382	0.061
Mof_H 	H 	0.2364	0.6425	0.7862	0.047
Mof_H 	H 	0.624	0.5766	0.746	0.063
Mof_H 	H 	0.8835	0.5838	0.7858	0.092
Mof_H 	H 	0.0253	0.6084	0.8424	0.012
Mof_H 	H 	0.2782	0.7888	0.0721	0.028
Mof_H 	H 	0.2734	0.8487	0.11	0.067
Mof_H 	H 	0.1397	0.9161	0.1309	0.07
Mof_H 	H 	0.7116	0.9458	0.0804	0.045
Mof_H 	H 	0.722	0.8878	0.0383	0.049
Mof_H 	H 	0.8595	0.8204	0.0181	0.044
Mof_C 	C 	0.069	0.4051	0.3409	0.354
Mof_C 	C 	0.1564	0.3673	0.3558	-0.095
Mof_C 	C 	0.31	0.361	0.3437	-0.031
Mof_C 	C 	0.4033	0.3269	0.3589	0.007
Mof_C 	C 	0.5663	0.3204	0.3481	-0.075
Mof_C 	C 	0.6559	0.2897	0.3651	-0.003
Mof_C 	C 	0.5809	0.2622	0.3952	-0.058
Mof_C 	C 	0.4226	0.2654	0.4051	-0.065
Mof_C 	C 	0.326	0.2986	0.3874	0.052
Mof_C 	C 	0.1669	0.3049	0.3983	-0.127
Mof_C 	C 	0.0816	0.3385	0.3835	0.067
Mof_C 	C 	0.6876	0.2324	0.4181	0.325
Mof_C 	C 	0.929	0.5141	0.2412	0.331
Mof_C 	C 	0.9359	0.5402	0.2022	-0.087
Mof_C 	C 	0.8078	0.5691	0.1926	0.022
Mof_C 	C 	0.8116	0.5918	0.1571	-0.111
Mof_C 	C 	0.939	0.5889	0.1287	0.041
Mof_C 	C 	0.9449	0.6128	0.0905	-0.067
Mof_C 	C 	0.0701	0.6094	0.0641	-0.041
Mof_C 	C 	0.2006	0.5818	0.0724	-0.018
Mof_C 	C 	0.1951	0.5574	0.1072	-0.071
Mof_C 	C 	0.0651	0.5604	0.1363	0.004
Mof_C 	C 	0.0573	0.537	0.1739	-0.021
Mof_C 	C 	0.0762	0.6381	0.0261	0.308
Mof_C 	C 	0.069	0.0949	0.1591	0.355
Mof_C 	C 	0.1564	0.1327	0.1442	-0.097
Mof_C 	C 	0.31	0.139	0.1563	-0.029
Mof_C 	C 	0.4033	0.1731	0.1411	0.006
Mof_C 	C 	0.5663	0.1796	0.1519	-0.074
Mof_C 	C 	0.6559	0.2103	0.1349	-0.004
Mof_C 	C 	0.5809	0.2378	0.1048	-0.058
Mof_C 	C 	0.4226	0.2346	0.0949	-0.066
Mof_C 	C 	0.326	0.2014	0.1126	0.053
Mof_C 	C 	0.1669	0.1951	0.1017	-0.129
Mof_C 	C 	0.0816	0.1615	0.1165	0.07
Mof_C 	C 	0.6876	0.2676	0.0819	0.325
Mof_C 	C 	0.929	0.9859	0.2588	0.33
Mof_C 	C 	0.9359	0.9598	0.2978	-0.085
Mof_C 	C 	0.8078	0.9309	0.3074	0.021
Mof_C 	C 	0.8116	0.9082	0.3429	-0.11
Mof_C 	C 	0.939	0.9111	0.3713	0.041
Mof_C 	C 	0.9449	0.8872	0.4095	-0.065
Mof_C 	C 	0.0701	0.8906	0.4359	-0.042
Mof_C 	C 	0.2006	0.9182	0.4276	-0.017
Mof_C 	C 	0.1951	0.9426	0.3928	-0.072
Mof_C 	C 	0.0651	0.9396	0.3637	0.004
Mof_C 	C 	0.0573	0.963	0.3261	-0.023
Mof_C 	C 	0.0762	0.8619	0.4739	0.307
Mof_C 	C 	0.069	0.1591	0.4051	0.354
Mof_C 	C 	0.1564	0.1442	0.3673	-0.096
Mof_C 	C 	0.31	0.1563	0.361	-0.03
Mof_C 	C 	0.4033	0.1411	0.3269	0.007
Mof_C 	C 	0.5663	0.1519	0.3204	-0.075
Mof_C 	C 	0.6559	0.1349	0.2897	-0.003
Mof_C 	C 	0.5809	0.1048	0.2622	-0.058
Mof_C 	C 	0.4226	0.0949	0.2654	-0.065
Mof_C 	C 	0.326	0.1126	0.2986	0.053
Mof_C 	C 	0.1669	0.1017	0.3049	-0.128
Mof_C 	C 	0.0816	0.1165	0.3385	0.069
Mof_C 	C 	0.6876	0.0819	0.2324	0.325
Mof_C 	C 	0.929	0.2588	0.5141	0.33
Mof_C 	C 	0.9359	0.2978	0.5402	-0.086
Mof_C 	C 	0.8078	0.3074	0.5691	0.021
Mof_C 	C 	0.8116	0.3429	0.5918	-0.111
Mof_C 	C 	0.939	0.3713	0.5889	0.041
Mof_C 	C 	0.9449	0.4095	0.6128	-0.066
Mof_C 	C 	0.0701	0.4359	0.6094	-0.041
Mof_C 	C 	0.2006	0.4276	0.5818	-0.017
Mof_C 	C 	0.1951	0.3928	0.5574	-0.071
Mof_C 	C 	0.0651	0.3637	0.5604	0.004
Mof_C 	C 	0.0573	0.3261	0.537	-0.022
Mof_C 	C 	0.0762	0.4739	0.6381	0.307
Mof_C 	C 	0.069	0.3409	0.0949	0.354
Mof_C 	C 	0.1564	0.3558	0.1327	-0.096
Mof_C 	C 	0.31	0.3437	0.139	-0.03
Mof_C 	C 	0.4033	0.3589	0.1731	0.007
Mof_C 	C 	0.5663	0.3481	0.1796	-0.075
Mof_C 	C 	0.6559	0.3651	0.2103	-0.003
Mof_C 	C 	0.5809	0.3952	0.2378	-0.058
Mof_C 	C 	0.4226	0.4051	0.2346	-0.065
Mof_C 	C 	0.326	0.3874	0.2014	0.052
Mof_C 	C 	0.1669	0.3983	0.1951	-0.127
Mof_C 	C 	0.0816	0.3835	0.1615	0.068
Mof_C 	C 	0.6876	0.4181	0.2676	0.325
Mof_C 	C 	0.929	0.2412	0.9859	0.33
Mof_C 	C 	0.9359	0.2022	0.9598	-0.085
Mof_C 	C 	0.8078	0.1926	0.9309	0.021
Mof_C 	C 	0.8116	0.1571	0.9082	-0.111
Mof_C 	C 	0.939	0.1287	0.9111	0.041
Mof_C 	C 	0.9449	0.0905	0.8872	-0.066
Mof_C 	C 	0.0701	0.0641	0.8906	-0.041
Mof_C 	C 	0.2006	0.0724	0.9182	-0.017
Mof_C 	C 	0.1951	0.1072	0.9426	-0.071
Mof_C 	C 	0.0651	0.1363	0.9396	0.005
Mof_C 	C 	0.0573	0.1739	0.963	-0.023
Mof_C 	C 	0.0762	0.0261	0.8619	0.308
Mof_C 	C 	0.931	0.5949	0.6591	0.354
Mof_C 	C 	0.8436	0.6327	0.6442	-0.095
Mof_C 	C 	0.69	0.639	0.6563	-0.031
Mof_C 	C 	0.5967	0.6731	0.6411	0.007
Mof_C 	C 	0.4337	0.6796	0.6519	-0.075
Mof_C 	C 	0.3441	0.7103	0.6349	-0.003
Mof_C 	C 	0.4191	0.7378	0.6048	-0.058
Mof_C 	C 	0.5774	0.7346	0.5949	-0.065
Mof_C 	C 	0.674	0.7014	0.6126	0.052
Mof_C 	C 	0.8331	0.6951	0.6017	-0.127
Mof_C 	C 	0.9184	0.6615	0.6165	0.067
Mof_C 	C 	0.3124	0.7676	0.5819	0.325
Mof_C 	C 	0.071	0.4859	0.7588	0.331
Mof_C 	C 	0.0641	0.4598	0.7978	-0.087
Mof_C 	C 	0.1922	0.4309	0.8074	0.022
Mof_C 	C 	0.1884	0.4082	0.8429	-0.111
Mof_C 	C 	0.061	0.4111	0.8713	0.041
Mof_C 	C 	0.0551	0.3872	0.9095	-0.067
Mof_C 	C 	0.9299	0.3906	0.9359	-0.041
Mof_C 	C 	0.7994	0.4182	0.9276	-0.018
Mof_C 	C 	0.8049	0.4426	0.8928	-0.071
Mof_C 	C 	0.9349	0.4396	0.8637	0.004
Mof_C 	C 	0.9427	0.463	0.8261	-0.021
Mof_C 	C 	0.9238	0.3619	0.9739	0.308
Mof_C 	C 	0.931	0.9051	0.8409	0.355
Mof_C 	C 	0.8436	0.8673	0.8558	-0.097
Mof_C 	C 	0.69	0.861	0.8437	-0.029
Mof_C 	C 	0.5967	0.8269	0.8589	0.006
Mof_C 	C 	0.4337	0.8204	0.8481	-0.074
Mof_C 	C 	0.3441	0.7897	0.8651	-0.004
Mof_C 	C 	0.4191	0.7622	0.8952	-0.058
Mof_C 	C 	0.5774	0.7654	0.9051	-0.066
Mof_C 	C 	0.674	0.7986	0.8874	0.053
Mof_C 	C 	0.8331	0.8049	0.8983	-0.129
Mof_C 	C 	0.9184	0.8385	0.8835	0.07
Mof_C 	C 	0.3124	0.7324	0.9181	0.325
Mof_C 	C 	0.071	0.0141	0.7412	0.33
Mof_C 	C 	0.0641	0.0402	0.7022	-0.085
Mof_C 	C 	0.1922	0.0691	0.6926	0.021
Mof_C 	C 	0.1884	0.0918	0.6571	-0.11
Mof_C 	C 	0.061	0.0889	0.6287	0.041
Mof_C 	C 	0.0551	0.1128	0.5905	-0.065
Mof_C 	C 	0.9299	0.1094	0.5641	-0.042
Mof_C 	C 	0.7994	0.0818	0.5724	-0.017
Mof_C 	C 	0.8049	0.0574	0.6072	-0.072
Mof_C 	C 	0.9349	0.0604	0.6363	0.004
Mof_C 	C 	0.9427	0.037	0.6739	-0.023
Mof_C 	C 	0.9238	0.1381	0.5261	0.307
Mof_C 	C 	0.931	0.8409	0.5949	0.354
Mof_C 	C 	0.8436	0.8558	0.6327	-0.096
Mof_C 	C 	0.69	0.8437	0.639	-0.03
Mof_C 	C 	0.5967	0.8589	0.6731	0.007
Mof_C 	C 	0.4337	0.8481	0.6796	-0.075
Mof_C 	C 	0.3441	0.8651	0.7103	-0.003
Mof_C 	C 	0.4191	0.8952	0.7378	-0.058
Mof_C 	C 	0.5774	0.9051	0.7346	-0.065
Mof_C 	C 	0.674	0.8874	0.7014	0.053
Mof_C 	C 	0.8331	0.8983	0.6951	-0.128
Mof_C 	C 	0.9184	0.8835	0.6615	0.069
Mof_C 	C 	0.3124	0.9181	0.7676	0.325
Mof_C 	C 	0.071	0.7412	0.4859	0.33
Mof_C 	C 	0.0641	0.7022	0.4598	-0.086
Mof_C 	C 	0.1922	0.6926	0.4309	0.021
Mof_C 	C 	0.1884	0.6571	0.4082	-0.111
Mof_C 	C 	0.061	0.6287	0.4111	0.041
Mof_C 	C 	0.0551	0.5905	0.3872	-0.066
Mof_C 	C 	0.9299	0.5641	0.3906	-0.041
Mof_C 	C 	0.7994	0.5724	0.4182	-0.017
Mof_C 	C 	0.8049	0.6072	0.4426	-0.071
Mof_C 	C 	0.9349	0.6363	0.4396	0.004
Mof_C 	C 	0.9427	0.6739	0.463	-0.022
Mof_C 	C 	0.9238	0.5261	0.3619	0.307
Mof_C 	C 	0.931	0.6591	0.9051	0.354
Mof_C 	C 	0.8436	0.6442	0.8673	-0.096
Mof_C 	C 	0.69	0.6563	0.861	-0.03
Mof_C 	C 	0.5967	0.6411	0.8269	0.007
Mof_C 	C 	0.4337	0.6519	0.8204	-0.075
Mof_C 	C 	0.3441	0.6349	0.7897	-0.003
Mof_C 	C 	0.4191	0.6048	0.7622	-0.058
Mof_C 	C 	0.5774	0.5949	0.7654	-0.065
Mof_C 	C 	0.674	0.6126	0.7986	0.052
Mof_C 	C 	0.8331	0.6017	0.8049	-0.127
Mof_C 	C 	0.9184	0.6165	0.8385	0.068
Mof_C 	C 	0.3124	0.5819	0.7324	0.325
Mof_C 	C 	0.071	0.7588	0.0141	0.33
Mof_C 	C 	0.0641	0.7978	0.0402	-0.085
Mof_C 	C 	0.1922	0.8074	0.0691	0.021
Mof_C 	C 	0.1884	0.8429	0.0918	-0.111
Mof_C 	C 	0.061	0.8713	0.0889	0.041
Mof_C 	C 	0.0551	0.9095	0.1128	-0.066
Mof_C 	C 	0.9299	0.9359	0.1094	-0.041
Mof_C 	C 	0.7994	0.9276	0.0818	-0.017
Mof_C 	C 	0.8049	0.8928	0.0574	-0.071
Mof_C 	C 	0.9349	0.8637	0.0604	0.005
Mof_C 	C 	0.9427	0.8261	0.037	-0.023
Mof_C 	C 	0.9238	0.9739	0.1381	0.308
Mof_O 	O 	0.9281	0.4121	0.3528	-0.551
Mof_O 	O 	0.1365	0.4295	0.315	-0.529
Mof_O 	O 	0.6324	0.2026	0.4405	-0.485
Mof_O 	O 	0.8368	0.2391	0.4173	-0.554
Mof_O 	O 	0.044	0.4903	0.2497	-0.503
Mof_O 	O 	0.8065	0.5153	0.2642	-0.539
Mof_O 	O 	0.202	0.641	0.0045	-0.527
Mof_O 	O 	0.9531	0.6592	0.0167	-0.503
Mof_O 	O 	0.9281	0.0879	0.1472	-0.552
Mof_O 	O 	0.1365	0.0705	0.185	-0.529
Mof_O 	O 	0.6324	0.2974	0.0595	-0.484
Mof_O 	O 	0.8368	0.2609	0.0827	-0.554
Mof_O 	O 	0.044	0.0097	0.2503	-0.502
Mof_O 	O 	0.8065	0.9847	0.2358	-0.539
Mof_O 	O 	0.202	0.859	0.4955	-0.527
Mof_O 	O 	0.9531	0.8408	0.4833	-0.502
Mof_O 	O 	0.9281	0.1472	0.4121	-0.551
Mof_O 	O 	0.1365	0.185	0.4295	-0.529
Mof_O 	O 	0.6324	0.0595	0.2026	-0.484
Mof_O 	O 	0.8368	0.0827	0.2391	-0.554
Mof_O 	O 	0.044	0.2503	0.4903	-0.503
Mof_O 	O 	0.8065	0.2358	0.5153	-0.539
Mof_O 	O 	0.202	0.4955	0.641	-0.528
Mof_O 	O 	0.9531	0.4833	0.6592	-0.502
Mof_O 	O 	0.9281	0.3528	0.0879	-0.551
Mof_O 	O 	0.1365	0.315	0.0705	-0.529
Mof_O 	O 	0.6324	0.4405	0.2974	-0.485
Mof_O 	O 	0.8368	0.4173	0.2609	-0.554
Mof_O 	O 	0.044	0.2497	0.0097	-0.503
Mof_O 	O 	0.8065	0.2642	0.9847	-0.539
Mof_O 	O 	0.202	0.0045	0.859	-0.527
Mof_O 	O 	0.9531	0.0167	0.8408	-0.502
Mof_O 	O 	0.0719	0.5879	0.6472	-0.551
Mof_O 	O 	0.8635	0.5705	0.685	-0.529
Mof_O 	O 	0.3676	0.7974	0.5595	-0.485
Mof_O 	O 	0.1632	0.7609	0.5827	-0.554
Mof_O 	O 	0.956	0.5097	0.7503	-0.503
Mof_O 	O 	0.1935	0.4847	0.7358	-0.539
Mof_O 	O 	0.798	0.359	0.9955	-0.527
Mof_O 	O 	0.0469	0.3408	0.9833	-0.503
Mof_O 	O 	0.0719	0.9121	0.8528	-0.552
Mof_O 	O 	0.8635	0.9295	0.815	-0.529
Mof_O 	O 	0.3676	0.7026	0.9405	-0.484
Mof_O 	O 	0.1632	0.7391	0.9173	-0.554
Mof_O 	O 	0.956	0.9903	0.7497	-0.502
Mof_O 	O 	0.1935	0.0153	0.7642	-0.539
Mof_O 	O 	0.798	0.141	0.5045	-0.527
Mof_O 	O 	0.0469	0.1592	0.5167	-0.502
Mof_O 	O 	0.0719	0.8528	0.5879	-0.551
Mof_O 	O 	0.8635	0.815	0.5705	-0.529
Mof_O 	O 	0.3676	0.9405	0.7974	-0.484
Mof_O 	O 	0.1632	0.9173	0.7609	-0.554
Mof_O 	O 	0.956	0.7497	0.5097	-0.503
Mof_O 	O 	0.1935	0.7642	0.4847	-0.539
Mof_O 	O 	0.798	0.5045	0.359	-0.528
Mof_O 	O 	0.0469	0.5167	0.3408	-0.502
Mof_O 	O 	0.0719	0.6472	0.9121	-0.551
Mof_O 	O 	0.8635	0.685	0.9295	-0.529
Mof_O 	O 	0.3676	0.5595	0.7026	-0.485
Mof_O 	O 	0.1632	0.5827	0.7391	-0.554
Mof_O 	O 	0.956	0.7503	0.9903	-0.503
Mof_O 	O 	0.1935	0.7358	0.0153	-0.539
Mof_O 	O 	0.798	0.9955	0.141	-0.527
Mof_O 	O 	0.0469	0.9833	0.1592	-0.502
Mof_H 	H 	0.4642	0.4759	0.3172	0.171
Mof_H 	H 	0.2937	0.4864	0.3206	0.16
Mof_H 	H 	0.5148	0.5174	0.3754	-0.073
Mof_H 	H 	0.3271	0.5209	0.3803	-0.078
Mof_H 	H 	0.4842	0.4425	0.3829	0.282
Mof_H 	H 	0.4466	0.4682	0.4239	0.277
Mof_H 	H 	0.3048	0.4511	0.396	0.281
Mof_H 	H 	0.3418	0.5556	0.3083	-0.073
Mof_H 	H 	0.528	0.5459	0.3076	-0.072
Mof_H 	H 	0.3912	0.5495	0.2383	0.278
Mof_H 	H 	0.5116	0.5119	0.2448	0.288
Mof_H 	H 	0.3252	0.5045	0.2493	0.291
Mof_C 	C 	0.4136	0.5028	0.3704	0.37
Mof_C 	C 	0.412	0.4625	0.3956	-0.848
Mof_C 	C 	0.4222	0.5345	0.3011	0.349
Mof_C 	C 	0.4116	0.5241	0.254	-0.833
Mof_N 	N 	0.3943	0.4959	0.3256	-0.374
Mof_H 	H 	0.4642	0.0241	0.1828	0.171
Mof_H 	H 	0.2937	0.0136	0.1794	0.16
Mof_H 	H 	0.5148	0.9826	0.1246	-0.073
Mof_H 	H 	0.3271	0.9791	0.1197	-0.078
Mof_H 	H 	0.4842	0.0575	0.1171	0.282
Mof_H 	H 	0.4466	0.0318	0.0761	0.277
Mof_H 	H 	0.3048	0.0489	0.104	0.281
Mof_H 	H 	0.3418	0.9444	0.1917	-0.073
Mof_H 	H 	0.528	0.9541	0.1924	-0.071
Mof_H 	H 	0.3912	0.9505	0.2617	0.278
Mof_H 	H 	0.5116	0.9881	0.2552	0.288
Mof_H 	H 	0.3252	0.9955	0.2507	0.291
Mof_C 	C 	0.4136	0.9972	0.1296	0.37
Mof_C 	C 	0.412	0.0375	0.1044	-0.848
Mof_C 	C 	0.4222	0.9655	0.1989	0.349
Mof_C 	C 	0.4116	0.9759	0.246	-0.832
Mof_N 	N 	0.3943	0.0041	0.1744	-0.374
Mof_H 	H 	0.4642	0.1828	0.4759	0.171
Mof_H 	H 	0.2937	0.1794	0.4864	0.16
Mof_H 	H 	0.5148	0.1246	0.5174	-0.073
Mof_H 	H 	0.3271	0.1197	0.5209	-0.078
Mof_H 	H 	0.4842	0.1171	0.4425	0.282
Mof_H 	H 	0.4466	0.0761	0.4682	0.277
Mof_H 	H 	0.3048	0.104	0.4511	0.281
Mof_H 	H 	0.3418	0.1917	0.5556	-0.073
Mof_H 	H 	0.528	0.1924	0.5459	-0.072
Mof_H 	H 	0.3912	0.2617	0.5495	0.278
Mof_H 	H 	0.5116	0.2552	0.5119	0.288
Mof_H 	H 	0.3252	0.2507	0.5045	0.291
Mof_C 	C 	0.4136	0.1296	0.5028	0.37
Mof_C 	C 	0.412	0.1044	0.4625	-0.848
Mof_C 	C 	0.4222	0.1989	0.5345	0.349
Mof_C 	C 	0.4116	0.246	0.5241	-0.833
Mof_N 	N 	0.3943	0.1744	0.4959	-0.374
Mof_H 	H 	0.4642	0.3172	0.0241	0.171
Mof_H 	H 	0.2937	0.3206	0.0136	0.16
Mof_H 	H 	0.5148	0.3754	0.9826	-0.073
Mof_H 	H 	0.3271	0.3803	0.9791	-0.078
Mof_H 	H 	0.4842	0.3829	0.0575	0.282
Mof_H 	H 	0.4466	0.4239	0.0318	0.277
Mof_H 	H 	0.3048	0.396	0.0489	0.281
Mof_H 	H 	0.3418	0.3083	0.9444	-0.073
Mof_H 	H 	0.528	0.3076	0.9541	-0.071
Mof_H 	H 	0.3912	0.2383	0.9505	0.278
Mof_H 	H 	0.5116	0.2448	0.9881	0.288
Mof_H 	H 	0.3252	0.2493	0.9955	0.291
Mof_C 	C 	0.4136	0.3704	0.9972	0.369
Mof_C 	C 	0.412	0.3956	0.0375	-0.847
Mof_C 	C 	0.4222	0.3011	0.9655	0.349
Mof_C 	C 	0.4116	0.254	0.9759	-0.832
Mof_N 	N 	0.3943	0.3256	0.0041	-0.374
Mof_H 	H 	0.5358	0.5241	0.6828	0.171
Mof_H 	H 	0.7063	0.5136	0.6794	0.16
Mof_H 	H 	0.4852	0.4826	0.6246	-0.073
Mof_H 	H 	0.6729	0.4791	0.6197	-0.078
Mof_H 	H 	0.5158	0.5575	0.6171	0.282
Mof_H 	H 	0.5534	0.5318	0.5761	0.277
Mof_H 	H 	0.6952	0.5489	0.604	0.281
Mof_H 	H 	0.6582	0.4444	0.6917	-0.073
Mof_H 	H 	0.472	0.4541	0.6924	-0.072
Mof_H 	H 	0.6088	0.4505	0.7617	0.278
Mof_H 	H 	0.4884	0.4881	0.7552	0.288
Mof_H 	H 	0.6748	0.4955	0.7507	0.291
Mof_C 	C 	0.5864	0.4972	0.6296	0.37
Mof_C 	C 	0.588	0.5375	0.6044	-0.848
Mof_C 	C 	0.5778	0.4655	0.6989	0.349
Mof_C 	C 	0.5884	0.4759	0.746	-0.833
Mof_N 	N 	0.6057	0.5041	0.6744	-0.374
Mof_H 	H 	0.5358	0.9759	0.8172	0.171
Mof_H 	H 	0.7063	0.9864	0.8206	0.16
Mof_H 	H 	0.4852	0.0174	0.8754	-0.073
Mof_H 	H 	0.6729	0.0209	0.8803	-0.078
Mof_H 	H 	0.5158	0.9425	0.8829	0.282
Mof_H 	H 	0.5534	0.9682	0.9239	0.277
Mof_H 	H 	0.6952	0.9511	0.896	0.281
Mof_H 	H 	0.6582	0.0556	0.8083	-0.073
Mof_H 	H 	0.472	0.0459	0.8076	-0.071
Mof_H 	H 	0.6088	0.0495	0.7383	0.278
Mof_H 	H 	0.4884	0.0119	0.7448	0.288
Mof_H 	H 	0.6748	0.0045	0.7493	0.291
Mof_C 	C 	0.5864	0.0028	0.8704	0.37
Mof_C 	C 	0.588	0.9625	0.8956	-0.848
Mof_C 	C 	0.5778	0.0345	0.8011	0.349
Mof_C 	C 	0.5884	0.0241	0.754	-0.832
Mof_N 	N 	0.6057	0.9959	0.8256	-0.374
Mof_H 	H 	0.5358	0.8172	0.5241	0.171
Mof_H 	H 	0.7063	0.8206	0.5136	0.16
Mof_H 	H 	0.4852	0.8754	0.4826	-0.073
Mof_H 	H 	0.6729	0.8803	0.4791	-0.078
Mof_H 	H 	0.5158	0.8829	0.5575	0.282
Mof_H 	H 	0.5534	0.9239	0.5318	0.277
Mof_H 	H 	0.6952	0.896	0.5489	0.281
Mof_H 	H 	0.6582	0.8083	0.4444	-0.073
Mof_H 	H 	0.472	0.8076	0.4541	-0.072
Mof_H 	H 	0.6088	0.7383	0.4505	0.278
Mof_H 	H 	0.4884	0.7448	0.4881	0.288
Mof_H 	H 	0.6748	0.7493	0.4955	0.291
Mof_C 	C 	0.5864	0.8704	0.4972	0.37
Mof_C 	C 	0.588	0.8956	0.5375	-0.848
Mof_C 	C 	0.5778	0.8011	0.4655	0.349
Mof_C 	C 	0.5884	0.754	0.4759	-0.833
Mof_N 	N 	0.6057	0.8256	0.5041	-0.374
Mof_H 	H 	0.5358	0.6828	0.9759	0.171
Mof_H 	H 	0.7063	0.6794	0.9864	0.16
Mof_H 	H 	0.4852	0.6246	0.0174	-0.073
Mof_H 	H 	0.6729	0.6197	0.0209	-0.078
Mof_H 	H 	0.5158	0.6171	0.9425	0.282
Mof_H 	H 	0.5534	0.5761	0.9682	0.277
Mof_H 	H 	0.6952	0.604	0.9511	0.281
Mof_H 	H 	0.6582	0.6917	0.0556	-0.073
Mof_H 	H 	0.472	0.6924	0.0459	-0.071
Mof_H 	H 	0.6088	0.7617	0.0495	0.278
Mof_H 	H 	0.4884	0.7552	0.0119	0.288
Mof_H 	H 	0.6748	0.7507	0.0045	0.291
Mof_C 	C 	0.5864	0.6296	0.0028	0.369
Mof_C 	C 	0.588	0.6044	0.9625	-0.847
Mof_C 	C 	0.5778	0.6989	0.0345	0.349
Mof_C 	C 	0.5884	0.746	0.0241	-0.832
Mof_N 	N 	0.6057	0.6744	0.9959	-0.374
_end
