data_functionalizedCrystal
_audit_creation_method	'EQeq! by Chris Wilmer'
_symmetry_space_group_name_H-M	'P1'
_symmetry_Int_Tables_number	1
_symmetry_cell_setting	triclinic
loop_
_symmetry_equiv_pos_as_xyz
  x,y,z
_cell_length_a	8.7525
_cell_length_b	8.7492
_cell_length_c	27.498
_cell_angle_alpha	90
_cell_angle_beta	102.074
_cell_angle_gamma	90
loop_
_atom_site_label
_atom_site_type_symbol
_atom_site_fract_x
_atom_site_fract_y
_atom_site_fract_z
_atom_site_charge
Mof_Dy	Dy	0.49668	0.06372	0.23349	1.865
Mof_O 	O 	0.5713	0.843	0.28149	-0.629
Mof_O 	O 	0.3982	0.1412	0.30323	-0.554
Mof_O 	O 	0.7139	0.1262	0.29112	-0.503
Mof_O 	O 	0.5011	0.8721	0.1762	-0.554
Mof_O 	O 	0.3373	0.1786	0.16025	-0.486
Mof_C 	C 	0.6556	0.8141	0.32457	0.435
Mof_C 	C 	0.4398	0.2499	0.33421	0.525
Mof_C 	C 	0.7625	0.0849	0.33803	0.301
Mof_C 	C 	0.7415	0.9362	0.35588	-0.232
Mof_C 	C 	0.4158	0.2283	0.38579	-0.283
Mof_C 	C 	0.8444	0.1912	0.3723	-0.225
Mof_C 	C 	0.8096	0.8998	0.40528	0.063
Mof_C 	C 	0.3437	0.0961	0.39927	0.325
Mof_C 	C 	0.4631	0.3409	0.42094	0.078
Mof_H 	H 	0.8554	0.2908	0.3617	0.106
Mof_C 	C 	0.908	0.1541	0.42025	0.045
Mof_C 	C 	0.8937	0.0044	0.4377	-0.015
Mof_H 	H 	0.7975	0.8013	0.4166	0.032
Mof_C 	C 	0.3225	0.081	0.44755	-0.283
Mof_O 	O 	0.2945	0.9824	0.36667	-0.417
Mof_C 	C 	0.4367	0.3262	0.46868	-0.011
Mof_H 	H 	0.5132	0.4276	0.4125	0.022
Mof_H 	H 	0.9612	0.2278	0.4417	0.029
Mof_N 	N 	0.9622	0.9508	0.48572	-0.066
Mof_H 	H 	0.2765	0.9928	0.4568	0.163
Mof_C 	C 	0.3683	0.1938	0.4816	0.078
Mof_H 	H 	0.324	0	0.3399	0.227
Mof_N 	N 	0.476	0.4384	0.50688	-0.073
Mof_H 	H 	0.3535	0.1817	0.5139	0.017
Mof_Dy	Dy	0.50332	0.56372	0.26651	1.907
Mof_O 	O 	0.4287	0.343	0.21851	-0.639
Mof_O 	O 	0.6018	0.6412	0.19677	-0.554
Mof_O 	O 	0.2861	0.6262	0.20888	-0.504
Mof_O 	O 	0.4989	0.3721	0.3238	-0.567
Mof_O 	O 	0.6627	0.6786	0.33975	-0.483
Mof_C 	C 	0.3444	0.3141	0.17543	0.439
Mof_C 	C 	0.5602	0.7499	0.16579	0.525
Mof_C 	C 	0.2375	0.5849	0.16197	0.321
Mof_C 	C 	0.2585	0.4362	0.14412	-0.25
Mof_C 	C 	0.5842	0.7283	0.11421	-0.284
Mof_C 	C 	0.1556	0.6912	0.1277	-0.225
Mof_C 	C 	0.1904	0.3998	0.09472	0.041
Mof_C 	C 	0.6563	0.5961	0.10073	0.339
Mof_C 	C 	0.5369	0.8409	0.07906	0.077
Mof_H 	H 	0.1446	0.7908	0.1383	0.11
Mof_C 	C 	0.092	0.6541	0.07975	0.038
Mof_C 	C 	0.1063	0.5044	0.0623	0.015
Mof_H 	H 	0.2025	0.3013	0.0834	0.037
Mof_C 	C 	0.6775	0.581	0.05245	-0.258
Mof_O 	O 	0.7055	0.4824	0.13333	-0.456
Mof_C 	C 	0.5633	0.8262	0.03132	-0.003
Mof_H 	H 	0.4868	0.9276	0.0875	0.027
Mof_H 	H 	0.0388	0.7278	0.0583	0.034
Mof_N 	N 	0.0378	0.4508	0.01428	-0.08
Mof_H 	H 	0.7235	0.4928	0.0432	0.145
Mof_C 	C 	0.6317	0.6938	0.0184	0.066
Mof_H 	H 	0.676	0.5	0.1601	0.254
Mof_N 	N 	0.524	0.9384	0.99312	-0.068
Mof_H 	H 	0.6465	0.6817	0.9861	0.023
Mof_Dy	Dy	0.50332	0.93628	0.76651	1.911
Mof_O 	O 	0.4287	0.157	0.71851	-0.642
Mof_O 	O 	0.6018	0.8588	0.69677	-0.555
Mof_O 	O 	0.2861	0.8738	0.70888	-0.506
Mof_O 	O 	0.4989	0.1279	0.8238	-0.57
Mof_O 	O 	0.6627	0.8214	0.83975	-0.484
Mof_C 	C 	0.3444	0.1859	0.67543	0.437
Mof_C 	C 	0.5602	0.7501	0.66579	0.528
Mof_C 	C 	0.2375	0.9151	0.66197	0.32
Mof_C 	C 	0.2585	0.0638	0.64412	-0.246
Mof_C 	C 	0.5842	0.7717	0.61421	-0.284
Mof_C 	C 	0.1556	0.8088	0.6277	-0.217
Mof_C 	C 	0.1904	0.1002	0.59472	0.023
Mof_C 	C 	0.6563	0.9039	0.60073	0.336
Mof_C 	C 	0.5369	0.6591	0.57906	0.074
Mof_H 	H 	0.1446	0.7092	0.6383	0.103
Mof_C 	C 	0.092	0.8459	0.57975	0.027
Mof_C 	C 	0.1063	0.9956	0.5623	0.035
Mof_H 	H 	0.2025	0.1987	0.5834	0.044
Mof_C 	C 	0.6775	0.919	0.55245	-0.233
Mof_O 	O 	0.7055	0.0176	0.63333	-0.457
Mof_C 	C 	0.5633	0.6738	0.53132	-0
Mof_H 	H 	0.4868	0.5724	0.5875	0.023
Mof_H 	H 	0.0388	0.7722	0.5583	0.036
Mof_N 	N 	0.0378	0.0492	0.51428	-0.09
Mof_H 	H 	0.7235	0.0072	0.5432	0.131
Mof_C 	C 	0.6317	0.8062	0.5184	0.052
Mof_H 	H 	0.676	2.45185e-32	0.6601	0.253
Mof_N 	N 	0.524	0.5616	0.49312	-0.074
Mof_H 	H 	0.6465	0.8183	0.4861	0.03
Mof_Dy	Dy	0.49668	0.43628	0.73349	1.905
Mof_O 	O 	0.5713	0.657	0.78149	-0.641
Mof_O 	O 	0.3982	0.3588	0.80323	-0.556
Mof_O 	O 	0.7139	0.3738	0.79112	-0.506
Mof_O 	O 	0.5011	0.6279	0.6762	-0.568
Mof_O 	O 	0.3373	0.3214	0.66025	-0.484
Mof_C 	C 	0.6556	0.6859	0.82457	0.438
Mof_C 	C 	0.4398	0.2501	0.83421	0.529
Mof_C 	C 	0.7625	0.4151	0.83803	0.32
Mof_C 	C 	0.7415	0.5638	0.85588	-0.248
Mof_C 	C 	0.4158	0.2717	0.88579	-0.29
Mof_C 	C 	0.8444	0.3088	0.8723	-0.224
Mof_C 	C 	0.8096	0.6002	0.90528	0.04
Mof_C 	C 	0.3437	0.4039	0.89927	0.341
Mof_C 	C 	0.4631	0.1591	0.92094	0.079
Mof_H 	H 	0.8554	0.2092	0.8617	0.105
Mof_C 	C 	0.908	0.3459	0.92025	0.037
Mof_C 	C 	0.8937	0.4956	0.9377	0.016
Mof_H 	H 	0.7975	0.6987	0.9166	0.04
Mof_C 	C 	0.3225	0.419	0.94755	-0.261
Mof_O 	O 	0.2945	0.5176	0.86667	-0.455
Mof_C 	C 	0.4367	0.1738	0.96868	-0.009
Mof_H 	H 	0.5132	0.0724	0.9125	0.019
Mof_H 	H 	0.9612	0.2722	0.9417	0.032
Mof_N 	N 	0.9622	0.5492	0.98572	-0.08
Mof_H 	H 	0.2765	0.5072	0.9568	0.147
Mof_C 	C 	0.3683	0.3062	0.9816	0.067
Mof_H 	H 	0.324	0.5	0.8399	0.254
Mof_N 	N 	0.476	0.0616	0.00688	-0.08
Mof_H 	H 	0.3535	0.3183	0.0139	0.021
_end
