data_functionalizedCrystal
_audit_creation_method	'EQeq! by Chris Wilmer'
_symmetry_space_group_name_H-M	'P1'
_symmetry_Int_Tables_number	1
_symmetry_cell_setting	triclinic
loop_
_symmetry_equiv_pos_as_xyz
  x,y,z
_cell_length_a	10.4135
_cell_length_b	10.5541
_cell_length_c	14.0372
_cell_angle_alpha	99.595
_cell_angle_beta	99.62
_cell_angle_gamma	108.843
loop_
_atom_site_label
_atom_site_type_symbol
_atom_site_fract_x
_atom_site_fract_y
_atom_site_fract_z
_atom_site_charge
Mof_Er	Er	0.96416	0.46417	0.82145	1.797
Mof_Er	Er	0.54178	0.06538	0.18199	1.476
Mof_Er	Er	0.03584	0.53583	0.17855	1.797
Mof_Er	Er	0.45822	0.93462	0.81801	1.476
Mof_H 	H 	0.7921	0.8183	0.9217	0.017
Mof_H 	H 	0.3015	0.3345	0.8915	0.038
Mof_H 	H 	0.0857	0.7373	0.5513	0.022
Mof_H 	H 	0.2079	0.1817	0.0783	0.017
Mof_H 	H 	0.6985	0.6655	0.1085	0.038
Mof_H 	H 	0.9143	0.2627	0.4487	0.022
Mof_C 	C 	0.0017	0.8792	0.9443	-0.038
Mof_C 	C 	0.1277	0.988	0.9905	-0.107
Mof_C 	C 	0.8752	0.8911	0.9532	-0.001
Mof_C 	C 	0.0009	0.7414	0.8944	0.316
Mof_C 	C 	0.265	0.9823	0.973	0.45
Mof_C 	C 	0.4881	0.6018	0.0719	-0.051
Mof_C 	C 	0.3684	0.5016	0.0068	-0.118
Mof_C 	C 	0.3812	0.4007	0.9351	0.016
Mof_C 	C 	0.4849	0.7205	0.147	0.344
Mof_C 	C 	0.2252	0.4986	0.0118	0.483
Mof_C 	C 	0.0302	0.4199	0.5651	-0.099
Mof_C 	C 	0.0829	0.5648	0.5961	-0.118
Mof_C 	C 	0.0511	0.6417	0.5303	0.023
Mof_C 	C 	0.0562	0.326	0.6303	0.393
Mof_C 	C 	0.1769	0.6423	0.6967	0.434
Mof_C 	C 	0.9983	0.1208	0.0557	-0.038
Mof_C 	C 	0.8723	0.012	0.0095	-0.107
Mof_C 	C 	0.1248	0.1089	0.0468	-0.001
Mof_C 	C 	0.9991	0.2586	0.1056	0.316
Mof_C 	C 	0.735	0.0177	0.027	0.45
Mof_C 	C 	0.5119	0.3982	0.9281	-0.051
Mof_C 	C 	0.6316	0.4984	0.9932	-0.118
Mof_C 	C 	0.6188	0.5993	0.0649	0.016
Mof_C 	C 	0.5151	0.2795	0.853	0.344
Mof_C 	C 	0.7748	0.5014	0.9882	0.483
Mof_C 	C 	0.9698	0.5801	0.4349	-0.099
Mof_C 	C 	0.9171	0.4352	0.4039	-0.118
Mof_C 	C 	0.9489	0.3583	0.4697	0.023
Mof_C 	C 	0.9438	0.674	0.3697	0.393
Mof_C 	C 	0.8231	0.3577	0.3033	0.434
Mof_O 	O 	0.3624	0.0069	0.0469	-0.516
Mof_O 	O 	0.273	0.958	0.8836	-0.449
Mof_O 	O 	0.0762	0.6899	0.9426	-0.387
Mof_O 	O 	0.9198	0.6751	0.811	-0.418
Mof_O 	O 	0.1312	0.4425	0.9323	-0.517
Mof_O 	O 	0.2068	0.5494	0.0932	-0.531
Mof_O 	O 	0.4744	0.8217	0.1144	-0.419
Mof_O 	O 	0.5027	0.7151	0.2363	-0.304
Mof_O 	O 	0.1543	0.593	0.7706	-0.478
Mof_O 	O 	0.2738	0.7523	0.7009	-0.484
Mof_O 	O 	0.0002	0.3158	0.7011	-0.502
Mof_O 	O 	0.1247	0.2549	0.6058	-0.272
Mof_O 	O 	0.6376	0.9931	0.9531	-0.516
Mof_O 	O 	0.727	0.042	0.1164	-0.449
Mof_O 	O 	0.9238	0.3101	0.0574	-0.387
Mof_O 	O 	0.0802	0.3249	0.189	-0.418
Mof_O 	O 	0.8688	0.5575	0.0677	-0.517
Mof_O 	O 	0.7932	0.4506	0.9068	-0.531
Mof_O 	O 	0.5256	0.1783	0.8856	-0.419
Mof_O 	O 	0.4973	0.2849	0.7637	-0.304
Mof_O 	O 	0.8457	0.407	0.2294	-0.478
Mof_O 	O 	0.7262	0.2477	0.2991	-0.484
Mof_O 	O 	0.9998	0.6842	0.2989	-0.502
Mof_O 	O 	0.8753	0.7451	0.3942	-0.272
_end
