data_functionalizedCrystal
_audit_creation_method	'EQeq! by Chris Wilmer'
_symmetry_space_group_name_H-M	'P1'
_symmetry_Int_Tables_number	1
_symmetry_cell_setting	triclinic
loop_
_symmetry_equiv_pos_as_xyz
  x,y,z
_cell_length_a	6.5681
_cell_length_b	16.3927
_cell_length_c	13.1667
_cell_angle_alpha	90
_cell_angle_beta	90
_cell_angle_gamma	90
loop_
_atom_site_label
_atom_site_type_symbol
_atom_site_fract_x
_atom_site_fract_y
_atom_site_fract_z
_atom_site_charge
Mof_O 	O 	0.1658	0.16882	0.8394	-1.698
Mof_C 	C 	0.8051	0.0266	0.9538	0.022
Mof_O 	O 	0.6658	0.66882	0.3394	-1.689
Mof_C 	C 	0.3051	0.5266	0.4538	0.063
Mof_O 	O 	0.8342	0.33118	0.8394	-1.716
Mof_C 	C 	0.1949	0.4734	0.9538	0.051
Mof_O 	O 	0.3342	0.83118	0.3394	-1.691
Mof_C 	C 	0.6949	0.9734	0.4538	0.042
Mof_O 	O 	0.8342	0.66882	0.1606	-1.717
Mof_C 	C 	0.1949	0.5266	0.0462	0.05
Mof_O 	O 	0.3342	0.16882	0.6606	-1.691
Mof_C 	C 	0.6949	0.0266	0.5462	0.042
Mof_O 	O 	0.1658	0.83118	0.1606	-1.699
Mof_C 	C 	0.8051	0.9734	0.0462	0.021
Mof_O 	O 	0.6658	0.33118	0.6606	-1.69
Mof_C 	C 	0.3051	0.4734	0.5462	0.062
Mof_O 	O 	0.8342	0.83118	0.1606	-1.717
Mof_C 	C 	0.1949	0.9734	0.0462	0.05
Mof_O 	O 	0.3342	0.33118	0.6606	-1.691
Mof_C 	C 	0.6949	0.4734	0.5462	0.042
Mof_O 	O 	0.1658	0.66882	0.1606	-1.699
Mof_C 	C 	0.8051	0.5266	0.0462	0.021
Mof_O 	O 	0.6658	0.16882	0.6606	-1.69
Mof_C 	C 	0.3051	0.0266	0.5462	0.062
Mof_O 	O 	0.1658	0.33118	0.8394	-1.699
Mof_C 	C 	0.8051	0.4734	0.9538	0.021
Mof_O 	O 	0.6658	0.83118	0.3394	-1.69
Mof_C 	C 	0.3051	0.9734	0.4538	0.062
Mof_O 	O 	0.8342	0.16882	0.8394	-1.717
Mof_C 	C 	0.1949	0.0266	0.9538	0.05
Mof_O 	O 	0.3342	0.66882	0.3394	-1.691
Mof_C 	C 	0.6949	0.5266	0.4538	0.042
Mof_Al	Al	0.25	0.25	0.75	7.098
Mof_Al	Al	0.75	0.25	0.75	7.015
Mof_Al	Al	0.75	0.75	0.25	7.015
Mof_Al	Al	0.25	0.75	0.25	7.098
Mof_F 	F 	5.19596e-33	0.25	0.6913	-2.318
Mof_F 	F 	0.5	0.75	0.1913	-2.338
Mof_F 	F 	1.56753e-32	0.75	0.3087	-2.318
Mof_F 	F 	0.5	0.25	0.8087	-2.338
Mof_C 	C 	7.14641e-33	0.0631	0.9508	-0.273
Mof_C 	C 	6.55188e-33	0.1363	0.8717	1.255
Mof_C 	C 	0.5	0.5631	0.4508	-0.306
Mof_C 	C 	0.5	0.6363	0.3717	1.216
Mof_C 	C 	2.49531e-32	0.4369	0.9508	-0.273
Mof_C 	C 	6.55188e-33	0.3637	0.8717	1.255
Mof_C 	C 	0.5	0.9369	0.4508	-0.306
Mof_C 	C 	0.5	0.8637	0.3717	1.216
Mof_C 	C 	-2.96896e-33	0.5631	0.0492	-0.273
Mof_C 	C 	3.19017e-33	0.6363	0.1283	1.255
Mof_C 	C 	0.5	0.0631	0.5492	-0.306
Mof_C 	C 	0.5	0.1363	0.6283	1.216
Mof_C 	C 	3.26444e-32	0.9369	0.0492	-0.273
Mof_C 	C 	3.19017e-33	0.8637	0.1283	1.255
Mof_C 	C 	0.5	0.4369	0.5492	-0.306
Mof_C 	C 	0.5	0.3637	0.6283	1.216
_end
