data_functionalizedCrystal
_audit_creation_method	'EQeq! by Chris Wilmer'
_symmetry_space_group_name_H-M	'P1'
_symmetry_Int_Tables_number	1
_symmetry_cell_setting	triclinic
loop_
_symmetry_equiv_pos_as_xyz
  x,y,z
_cell_length_a	22.748
_cell_length_b	15.8466
_cell_length_c	15.1126
_cell_angle_alpha	90
_cell_angle_beta	90
_cell_angle_gamma	90
loop_
_atom_site_label
_atom_site_type_symbol
_atom_site_fract_x
_atom_site_fract_y
_atom_site_fract_z
_atom_site_charge
Mof_In	In	0.17101	0.60203	0.86692	2.492
Mof_O 	O 	0.1317	0.7015	0.7731	-0.484
Mof_O 	O 	0.11024	0.6714	0.9615	-0.475
Mof_O 	O 	0.70119	0.9602	0.8551	-0.45
Mof_O 	O 	0.73672	0.802	0.4236	-0.491
Mof_O 	O 	0.14635	0.5719	0.7257	-0.494
Mof_O 	O 	0.07655	0.5589	0.8943	-0.494
Mof_O 	O 	0.7609	0.8756	0.3089	-0.525
Mof_O 	O 	0.70414	0.0257	0.9834	-0.495
Mof_O 	O 	0.01125	0.7182	0.3915	-0.286
Mof_O 	O 	0.84266	0.6902	0.0832	-0.282
Mof_C 	C 	0.0092	0.6375	0.9828	-0.048
Mof_C 	C 	0.836	0.7913	0.3742	-0.176
Mof_C 	C 	0.8776	0.8144	0.3097	0.141
Mof_H 	H 	0.866	0.8467	0.2614	-0.002
Mof_C 	C 	0.7754	0.824	0.3687	0.37
Mof_C 	C 	0.0977	0.6665	0.6273	-0.159
Mof_C 	C 	0.0747	0.7459	0.6122	0.144
Mof_H 	H 	0.0796	0.7879	0.6546	0.006
Mof_C 	C 	0.0379	0.7006	0.4721	0.3
Mof_C 	C 	0.9946	0.7187	0.0131	-0.009
Mof_H 	H 	0.0226	0.7614	0.0104	0.06
Mof_C 	C 	0.0619	0.6225	0.4833	-0.27
Mof_H 	H 	0.0582	0.5818	0.4393	0.156
Mof_C 	C 	0.0445	0.764	0.5349	-0.27
Mof_H 	H 	0.0289	0.8175	0.5252	0.143
Mof_C 	C 	0.0923	0.604	0.5625	0.14
Mof_H 	H 	0.1086	0.5508	0.5714	0.008
Mof_C 	C 	0.9532	0.7424	0.3897	0.269
Mof_C 	C 	0.9666	0.5747	0.9885	0.08
Mof_H 	H 	0.9756	0.5204	0.9696	0.016
Mof_C 	C 	0.1265	0.6458	0.7128	0.339
Mof_C 	C 	0.8534	0.744	0.4447	0.138
Mof_H 	H 	0.8259	0.7278	0.4869	0.005
Mof_C 	C 	0.898	0.6729	0.0495	0.241
Mof_C 	C 	0.9109	0.5918	0.0219	-0.235
Mof_H 	H 	0.8828	0.5494	0.0257	0.123
Mof_C 	C 	0.7485	0.8889	0.9735	-0.102
Mof_C 	C 	0.7777	0.8324	0.9199	0.093
Mof_H 	H 	0.775	0.8386	0.8589	0.022
Mof_C 	C 	0.9402	0.7362	0.0464	-0.187
Mof_H 	H 	0.9314	0.7901	0.0669	0.1
Mof_C 	C 	0.8105	0.7674	0.9534	-0.198
Mof_H 	H 	0.8311	0.7314	0.9159	0.117
Mof_C 	C 	0.9126	0.7191	0.4547	-0.257
Mof_H 	H 	0.9244	0.6877	0.5036	0.124
Mof_C 	C 	0.9355	0.7895	0.3173	-0.257
Mof_H 	H 	0.9626	0.8044	0.274	0.134
Mof_C 	C 	0.7822	0.8103	0.101	-0.211
Mof_H 	H 	0.7831	0.8018	0.1618	0.13
Mof_C 	C 	0.8124	0.7564	0.0453	0.231
Mof_C 	C 	0.7505	0.877	0.0661	0.069
Mof_H 	H 	0.7306	0.9139	0.1035	0.032
Mof_C 	C 	0.7164	0.9622	0.9366	0.32
Mof_C 	C 	0.068	0.6204	0.9444	0.318
Mof_In	In	0.67101	0.10203	0.86692	2.491
Mof_O 	O 	0.6317	0.2015	0.7731	-0.484
Mof_O 	O 	0.61024	0.1714	0.9615	-0.484
Mof_O 	O 	0.20119	0.4602	0.8551	-0.449
Mof_O 	O 	0.23672	0.302	0.4236	-0.492
Mof_O 	O 	0.64635	0.0719	0.7257	-0.495
Mof_O 	O 	0.57655	0.0589	0.8943	-0.508
Mof_O 	O 	0.2609	0.3756	0.3089	-0.525
Mof_O 	O 	0.20414	0.5257	0.9834	-0.494
Mof_O 	O 	0.51125	0.2182	0.3915	-0.306
Mof_O 	O 	0.34266	0.1902	0.0832	-0.295
Mof_C 	C 	0.5092	0.1375	0.9828	-0.154
Mof_C 	C 	0.336	0.2913	0.3742	-0.185
Mof_C 	C 	0.3776	0.3144	0.3097	0.156
Mof_H 	H 	0.366	0.3467	0.2614	-0.007
Mof_C 	C 	0.2754	0.324	0.3687	0.374
Mof_C 	C 	0.5977	0.1665	0.6273	-0.163
Mof_C 	C 	0.5747	0.2459	0.6122	0.145
Mof_H 	H 	0.5796	0.2879	0.6546	0.003
Mof_C 	C 	0.5379	0.2006	0.4721	0.302
Mof_C 	C 	0.4946	0.2187	0.0131	0.128
Mof_H 	H 	0.5226	0.2614	0.0104	0.002
Mof_C 	C 	0.5619	0.1225	0.4833	-0.275
Mof_H 	H 	0.5582	0.0818	0.4393	0.155
Mof_C 	C 	0.5445	0.264	0.5349	-0.276
Mof_H 	H 	0.5289	0.3175	0.5252	0.14
Mof_C 	C 	0.5923	0.104	0.5625	0.142
Mof_H 	H 	0.6086	0.0508	0.5714	0.006
Mof_C 	C 	0.4532	0.2424	0.3897	0.3
Mof_C 	C 	0.4666	0.0747	0.9885	0.174
Mof_H 	H 	0.4756	0.0204	0.9696	-0.01
Mof_C 	C 	0.6265	0.1458	0.7128	0.339
Mof_C 	C 	0.3534	0.244	0.4447	0.153
Mof_H 	H 	0.3259	0.2278	0.4869	0.001
Mof_C 	C 	0.398	0.1729	0.0495	0.298
Mof_C 	C 	0.4109	0.0918	0.0219	-0.303
Mof_H 	H 	0.3828	0.0494	0.0257	0.148
Mof_C 	C 	0.2485	0.3889	0.9735	-0.105
Mof_C 	C 	0.2777	0.3324	0.9199	0.097
Mof_H 	H 	0.275	0.3386	0.8589	0.022
Mof_C 	C 	0.4402	0.2362	0.0464	-0.276
Mof_H 	H 	0.4314	0.2901	0.0669	0.134
Mof_C 	C 	0.3105	0.2674	0.9534	-0.204
Mof_H 	H 	0.3311	0.2314	0.9159	0.12
Mof_C 	C 	0.4126	0.2191	0.4547	-0.274
Mof_H 	H 	0.4244	0.1877	0.5036	0.135
Mof_C 	C 	0.4355	0.2895	0.3173	-0.276
Mof_H 	H 	0.4626	0.3044	0.274	0.146
Mof_C 	C 	0.2822	0.3103	0.101	-0.216
Mof_H 	H 	0.2831	0.3018	0.1618	0.132
Mof_C 	C 	0.3124	0.2564	0.0453	0.239
Mof_C 	C 	0.2505	0.377	0.0661	0.073
Mof_H 	H 	0.2306	0.4139	0.1035	0.031
Mof_C 	C 	0.2164	0.4622	0.9366	0.32
Mof_C 	C 	0.568	0.1204	0.9444	0.353
Mof_In	In	0.17101	0.39797	0.36692	2.49
Mof_O 	O 	0.1317	0.2985	0.2731	-0.484
Mof_O 	O 	0.11024	0.3286	0.4615	-0.48
Mof_O 	O 	0.70119	0.0398	0.3551	-0.456
Mof_O 	O 	0.73672	0.198	0.9236	-0.486
Mof_O 	O 	0.14635	0.4281	0.2257	-0.496
Mof_O 	O 	0.07655	0.4411	0.3943	-0.497
Mof_O 	O 	0.7609	0.1244	0.8089	-0.522
Mof_O 	O 	0.70414	0.9743	0.4834	-0.504
Mof_O 	O 	0.01125	0.2818	0.8915	-0.279
Mof_O 	O 	0.84266	0.3098	0.5832	-0.292
Mof_C 	C 	0.0092	0.3625	0.4828	-0.066
Mof_C 	C 	0.836	0.2087	0.8742	-0.153
Mof_C 	C 	0.8776	0.1856	0.8097	0.121
Mof_H 	H 	0.866	0.1533	0.7614	0.006
Mof_C 	C 	0.7754	0.176	0.8687	0.362
Mof_C 	C 	0.0977	0.3335	0.1273	-0.156
Mof_C 	C 	0.0747	0.2541	0.1122	0.148
Mof_H 	H 	0.0796	0.2121	0.1546	0.002
Mof_C 	C 	0.0379	0.2994	0.9721	0.315
Mof_C 	C 	0.9946	0.2813	0.5131	0.02
Mof_H 	H 	0.0226	0.2386	0.5104	0.058
Mof_C 	C 	0.0619	0.3775	0.9833	-0.244
Mof_H 	H 	0.0582	0.4182	0.9393	0.149
Mof_C 	C 	0.0445	0.236	0.0349	-0.295
Mof_H 	H 	0.0289	0.1825	0.0252	0.145
Mof_C 	C 	0.0923	0.396	0.0625	0.111
Mof_H 	H 	0.1086	0.4492	0.0714	0.011
Mof_C 	C 	0.9532	0.2576	0.8897	0.245
Mof_C 	C 	0.9666	0.4253	0.4885	0.055
Mof_H 	H 	0.9756	0.4796	0.4696	0.02
Mof_C 	C 	0.1265	0.3542	0.2128	0.337
Mof_C 	C 	0.8534	0.256	0.9447	0.103
Mof_H 	H 	0.8259	0.2722	0.9869	0.022
Mof_C 	C 	0.898	0.3271	0.5495	0.244
Mof_C 	C 	0.9109	0.4082	0.5219	-0.209
Mof_H 	H 	0.8828	0.4506	0.5257	0.12
Mof_C 	C 	0.7485	0.1111	0.4735	-0.163
Mof_C 	C 	0.7777	0.1676	0.4199	0.148
Mof_H 	H 	0.775	0.1614	0.3589	-0
Mof_C 	C 	0.9402	0.2638	0.5464	-0.195
Mof_H 	H 	0.9314	0.2099	0.5669	0.106
Mof_C 	C 	0.8105	0.2326	0.4534	-0.272
Mof_H 	H 	0.8311	0.2686	0.4159	0.135
Mof_C 	C 	0.9126	0.2809	0.9547	-0.195
Mof_H 	H 	0.9244	0.3123	0.0036	0.088
Mof_C 	C 	0.9355	0.2105	0.8173	-0.234
Mof_H 	H 	0.9626	0.1956	0.774	0.128
Mof_C 	C 	0.7822	0.1897	0.601	-0.265
Mof_H 	H 	0.7831	0.1982	0.6618	0.149
Mof_C 	C 	0.8124	0.2436	0.5453	0.289
Mof_C 	C 	0.7505	0.123	0.5661	0.139
Mof_H 	H 	0.7306	0.0861	0.6035	0.012
Mof_C 	C 	0.7164	0.0378	0.4366	0.337
Mof_C 	C 	0.068	0.3796	0.4444	0.321
Mof_In	In	0.67101	0.89797	0.36692	2.489
Mof_O 	O 	0.6317	0.7985	0.2731	-0.486
Mof_O 	O 	0.61024	0.8286	0.4615	-0.49
Mof_O 	O 	0.20119	0.5398	0.3551	-0.456
Mof_O 	O 	0.23672	0.698	0.9236	-0.486
Mof_O 	O 	0.64635	0.9281	0.2257	-0.497
Mof_O 	O 	0.57655	0.9411	0.3943	-0.51
Mof_O 	O 	0.2609	0.6244	0.8089	-0.523
Mof_O 	O 	0.20414	0.4743	0.4834	-0.505
Mof_O 	O 	0.51125	0.7818	0.8915	-0.298
Mof_O 	O 	0.34266	0.8098	0.5832	-0.306
Mof_C 	C 	0.5092	0.8625	0.4828	-0.173
Mof_C 	C 	0.336	0.7087	0.8742	-0.161
Mof_C 	C 	0.3776	0.6856	0.8097	0.135
Mof_H 	H 	0.366	0.6533	0.7614	0.002
Mof_C 	C 	0.2754	0.676	0.8687	0.365
Mof_C 	C 	0.5977	0.8335	0.1273	-0.159
Mof_C 	C 	0.5747	0.7541	0.1122	0.149
Mof_H 	H 	0.5796	0.7121	0.1546	-0.001
Mof_C 	C 	0.5379	0.7994	0.9721	0.318
Mof_C 	C 	0.4946	0.7813	0.5131	0.158
Mof_H 	H 	0.5226	0.7386	0.5104	-0.002
Mof_C 	C 	0.5619	0.8775	0.9833	-0.248
Mof_H 	H 	0.5582	0.9182	0.9393	0.15
Mof_C 	C 	0.5445	0.736	0.0349	-0.302
Mof_H 	H 	0.5289	0.6825	0.0252	0.142
Mof_C 	C 	0.5923	0.896	0.0625	0.111
Mof_H 	H 	0.6086	0.9492	0.0714	0.01
Mof_C 	C 	0.4532	0.7576	0.8897	0.275
Mof_C 	C 	0.4666	0.9253	0.4885	0.152
Mof_H 	H 	0.4756	0.9796	0.4696	-0.006
Mof_C 	C 	0.6265	0.8542	0.2128	0.337
Mof_C 	C 	0.3534	0.756	0.9447	0.116
Mof_H 	H 	0.3259	0.7722	0.9869	0.019
Mof_C 	C 	0.398	0.8271	0.5495	0.303
Mof_C 	C 	0.4109	0.9082	0.5219	-0.278
Mof_H 	H 	0.3828	0.9506	0.5257	0.146
Mof_C 	C 	0.2485	0.6111	0.4735	-0.165
Mof_C 	C 	0.2777	0.6676	0.4199	0.153
Mof_H 	H 	0.275	0.6614	0.3589	-0
Mof_C 	C 	0.4402	0.7638	0.5464	-0.286
Mof_H 	H 	0.4314	0.7099	0.5669	0.141
Mof_C 	C 	0.3105	0.7326	0.4534	-0.277
Mof_H 	H 	0.3311	0.7686	0.4159	0.139
Mof_C 	C 	0.4126	0.7809	0.9547	-0.209
Mof_H 	H 	0.4244	0.8123	0.0036	0.097
Mof_C 	C 	0.4355	0.7105	0.8173	-0.252
Mof_H 	H 	0.4626	0.6956	0.774	0.14
Mof_C 	C 	0.2822	0.6897	0.601	-0.269
Mof_H 	H 	0.2831	0.6982	0.6618	0.152
Mof_C 	C 	0.3124	0.7436	0.5453	0.296
Mof_C 	C 	0.2505	0.623	0.5661	0.143
Mof_H 	H 	0.2306	0.5861	0.6035	0.011
Mof_C 	C 	0.2164	0.5378	0.4366	0.339
Mof_C 	C 	0.568	0.8796	0.4444	0.357
_end
