data_functionalizedCrystal
_audit_creation_method	'EQeq! by Chris Wilmer'
_symmetry_space_group_name_H-M	'P1'
_symmetry_Int_Tables_number	1
_symmetry_cell_setting	triclinic
loop_
_symmetry_equiv_pos_as_xyz
  x,y,z
_cell_length_a	13.7548
_cell_length_b	13.7548
_cell_length_c	38.1612
_cell_angle_alpha	90
_cell_angle_beta	90
_cell_angle_gamma	90
loop_
_atom_site_label
_atom_site_type_symbol
_atom_site_fract_x
_atom_site_fract_y
_atom_site_fract_z
_atom_site_charge
Mof_In	In	0.2866	0.94973	0.08505	2.503
Mof_O 	O 	0.4175	0.893	0.0566	-0.527
Mof_O 	O 	0.4388	0.9542	0.1088	-0.531
Mof_O 	O 	0.7378	0.6083	0.1121	-0.474
Mof_O 	O 	0.7677	0.712	0.1544	-0.502
Mof_O 	O 	0.3154	0.089	0.0565	-0.517
Mof_O 	O 	0.2692	0.0963	0.1113	-0.494
Mof_O 	O 	0.53	0.467	0.0747	-0.287
Mof_O 	O 	0.4889	0.4671	0.1302	-0.275
Mof_O 	O 	0.2079	0.9097	0.0324	-0.481
Mof_O 	O 	0.1245	0.9689	0.0743	-0.502
Mof_C 	C 	0.5768	0.8867	0.0795	-0.254
Mof_H 	H 	0.5947	0.8829	0.0546	0.106
Mof_C 	C 	0.5991	0.7904	0.0957	0.232
Mof_C 	C 	0.7133	0.7778	0.0995	0.055
Mof_C 	C 	0.7165	0.8829	0.1178	-0.205
Mof_H 	H 	0.783	0.9064	0.1179	0.096
Mof_H 	H 	0.6955	0.8767	0.142	0.097
Mof_C 	C 	0.6455	0.9645	0.0974	0.002
Mof_H 	H 	0.611	0.0065	0.1136	0.029
Mof_H 	H 	0.681	0.0033	0.0804	0.022
Mof_C 	C 	0.7451	0.7623	0.0628	-0.558
Mof_H 	H 	0.7289	0.6974	0.0556	0.21
Mof_H 	H 	0.8141	0.7716	0.0612	0.193
Mof_H 	H 	0.7128	0.8081	0.0478	0.189
Mof_C 	C 	0.5395	0.7519	0.1245	-0.744
Mof_H 	H 	0.5529	0.7878	0.1455	0.253
Mof_H 	H 	0.5548	0.6846	0.1281	0.264
Mof_H 	H 	0.4719	0.7583	0.1187	0.256
Mof_C 	C 	0.4737	0.9175	0.0813	0.371
Mof_C 	C 	0.7432	0.6991	0.1241	0.247
Mof_C 	C 	0.2918	0.2453	0.0824	0.025
Mof_C 	C 	0.3839	0.296	0.1014	0.23
Mof_C 	C 	0.3834	0.3991	0.0898	-0.261
Mof_H 	H 	0.3334	0.4319	0.1038	0.108
Mof_C 	C 	0.348	0.4028	0.0515	0.028
Mof_H 	H 	0.4016	0.4145	0.0355	0.036
Mof_H 	H 	0.2991	0.4527	0.0483	0.018
Mof_C 	C 	0.3044	0.2992	0.0463	-0.192
Mof_H 	H 	0.347	0.2614	0.0313	0.094
Mof_H 	H 	0.2417	0.3044	0.0349	0.091
Mof_C 	C 	0.1909	0.2835	0.099	-0.478
Mof_H 	H 	0.1824	0.256	0.1219	0.177
Mof_H 	H 	0.1378	0.264	0.0842	0.174
Mof_H 	H 	0.1923	0.3531	0.1007	0.165
Mof_C 	C 	0.4716	0.2379	0.0948	-0.74
Mof_H 	H 	0.4612	0.1723	0.1025	0.25
Mof_H 	H 	0.5254	0.2656	0.1073	0.252
Mof_H 	H 	0.4855	0.2379	0.0701	0.255
Mof_C 	C 	0.2901	0.1341	0.0827	0.28
Mof_C 	C 	0.4807	0.4492	0.0989	0.394
Mof_C 	C 	0.0443	0.9412	0.02	-0.124
Mof_C 	C 	0.059	0.894	0.9803	0.018
Mof_C 	C 	0.952	0.939	0.0411	0.017
Mof_C 	C 	0.1276	0.9378	0.0433	0.373
Mof_In	In	0.7134	0.05027	0.58505	2.504
Mof_O 	O 	0.5825	0.107	0.5566	-0.526
Mof_O 	O 	0.5612	0.0458	0.6088	-0.53
Mof_O 	O 	0.2622	0.3917	0.6121	-0.473
Mof_O 	O 	0.2323	0.288	0.6544	-0.501
Mof_O 	O 	0.6846	0.911	0.5565	-0.516
Mof_O 	O 	0.7308	0.9037	0.6113	-0.493
Mof_O 	O 	0.47	0.533	0.5747	-0.286
Mof_O 	O 	0.5111	0.5329	0.6302	-0.275
Mof_O 	O 	0.7921	0.0903	0.5324	-0.481
Mof_O 	O 	0.8755	0.0311	0.5743	-0.502
Mof_C 	C 	0.4232	0.1133	0.5795	-0.254
Mof_H 	H 	0.4053	0.1171	0.5546	0.106
Mof_C 	C 	0.4009	0.2096	0.5957	0.232
Mof_C 	C 	0.2867	0.2222	0.5995	0.055
Mof_C 	C 	0.2835	0.1171	0.6178	-0.205
Mof_H 	H 	0.217	0.0936	0.6179	0.096
Mof_H 	H 	0.3045	0.1233	0.642	0.097
Mof_C 	C 	0.3545	0.0355	0.5974	0.002
Mof_H 	H 	0.389	0.9935	0.6136	0.029
Mof_H 	H 	0.319	0.9967	0.5804	0.022
Mof_C 	C 	0.2549	0.2377	0.5628	-0.558
Mof_H 	H 	0.2711	0.3026	0.5556	0.21
Mof_H 	H 	0.1859	0.2284	0.5612	0.193
Mof_H 	H 	0.2872	0.1919	0.5478	0.189
Mof_C 	C 	0.4605	0.2481	0.6245	-0.744
Mof_H 	H 	0.4471	0.2122	0.6455	0.253
Mof_H 	H 	0.4452	0.3154	0.6281	0.264
Mof_H 	H 	0.5281	0.2417	0.6187	0.256
Mof_C 	C 	0.5263	0.0825	0.5813	0.371
Mof_C 	C 	0.2568	0.3009	0.6241	0.247
Mof_C 	C 	0.7082	0.7547	0.5824	0.025
Mof_C 	C 	0.6161	0.704	0.6014	0.23
Mof_C 	C 	0.6166	0.6009	0.5898	-0.261
Mof_H 	H 	0.6666	0.5681	0.6038	0.108
Mof_C 	C 	0.652	0.5972	0.5515	0.028
Mof_H 	H 	0.5984	0.5855	0.5355	0.036
Mof_H 	H 	0.7009	0.5473	0.5483	0.018
Mof_C 	C 	0.6956	0.7008	0.5463	-0.192
Mof_H 	H 	0.653	0.7386	0.5313	0.094
Mof_H 	H 	0.7583	0.6956	0.5349	0.091
Mof_C 	C 	0.8091	0.7165	0.599	-0.479
Mof_H 	H 	0.8176	0.744	0.6219	0.177
Mof_H 	H 	0.8622	0.736	0.5842	0.174
Mof_H 	H 	0.8077	0.6469	0.6007	0.165
Mof_C 	C 	0.5284	0.7621	0.5948	-0.74
Mof_H 	H 	0.5388	0.8277	0.6025	0.25
Mof_H 	H 	0.4746	0.7344	0.6073	0.252
Mof_H 	H 	0.5145	0.7621	0.5701	0.255
Mof_C 	C 	0.7099	0.8659	0.5827	0.28
Mof_C 	C 	0.5193	0.5508	0.5989	0.394
Mof_C 	C 	0.9557	0.0588	0.52	-0.124
Mof_C 	C 	0.941	0.106	0.4803	0.018
Mof_C 	C 	0.048	0.061	0.5411	0.017
Mof_C 	C 	0.8724	0.0622	0.5433	0.373
Mof_In	In	0.55027	0.7866	0.83505	2.509
Mof_O 	O 	0.607	0.9175	0.8066	-0.526
Mof_O 	O 	0.5458	0.9388	0.8588	-0.53
Mof_O 	O 	0.8917	0.2378	0.8621	-0.473
Mof_O 	O 	0.788	0.2677	0.9044	-0.5
Mof_O 	O 	0.411	0.8154	0.8065	-0.518
Mof_O 	O 	0.4037	0.7692	0.8613	-0.495
Mof_O 	O 	0.033	0.03	0.8247	-0.282
Mof_O 	O 	0.0329	0.9889	0.8802	-0.274
Mof_O 	O 	0.5903	0.7079	0.7824	-0.481
Mof_O 	O 	0.5311	0.6245	0.8243	-0.501
Mof_C 	C 	0.6133	0.0768	0.8295	-0.257
Mof_H 	H 	0.6171	0.0947	0.8046	0.107
Mof_C 	C 	0.7096	0.0991	0.8457	0.232
Mof_C 	C 	0.7222	0.2133	0.8495	0.056
Mof_C 	C 	0.6171	0.2165	0.8678	-0.209
Mof_H 	H 	0.5936	0.283	0.8679	0.097
Mof_H 	H 	0.6233	0.1955	0.892	0.098
Mof_C 	C 	0.5355	0.1455	0.8474	0.012
Mof_H 	H 	0.4935	0.111	0.8636	0.025
Mof_H 	H 	0.4967	0.181	0.8304	0.017
Mof_C 	C 	0.7377	0.2451	0.8128	-0.559
Mof_H 	H 	0.8026	0.2289	0.8056	0.21
Mof_H 	H 	0.7284	0.3141	0.8112	0.194
Mof_H 	H 	0.6919	0.2128	0.7978	0.19
Mof_C 	C 	0.7481	0.0395	0.8745	-0.743
Mof_H 	H 	0.7122	0.0529	0.8955	0.253
Mof_H 	H 	0.8154	0.0548	0.8781	0.263
Mof_H 	H 	0.7417	0.9719	0.8687	0.255
Mof_C 	C 	0.5825	0.9737	0.8313	0.372
Mof_C 	C 	0.8009	0.2432	0.8741	0.247
Mof_C 	C 	0.2547	0.7918	0.8324	0.024
Mof_C 	C 	0.204	0.8839	0.8514	0.232
Mof_C 	C 	0.1009	0.8834	0.8398	-0.261
Mof_H 	H 	0.0681	0.8334	0.8538	0.108
Mof_C 	C 	0.0972	0.848	0.8015	0.028
Mof_H 	H 	0.0855	0.9016	0.7855	0.036
Mof_H 	H 	0.0473	0.7991	0.7983	0.018
Mof_C 	C 	0.2008	0.8044	0.7963	-0.191
Mof_H 	H 	0.2386	0.847	0.7813	0.093
Mof_H 	H 	0.1956	0.7417	0.7849	0.09
Mof_C 	C 	0.2165	0.6909	0.849	-0.477
Mof_H 	H 	0.244	0.6824	0.8719	0.177
Mof_H 	H 	0.236	0.6378	0.8342	0.173
Mof_H 	H 	0.1469	0.6923	0.8507	0.165
Mof_C 	C 	0.2621	0.9716	0.8448	-0.748
Mof_H 	H 	0.3277	0.9612	0.8525	0.251
Mof_H 	H 	0.2344	0.0254	0.8573	0.255
Mof_H 	H 	0.2621	0.9855	0.8201	0.257
Mof_C 	C 	0.3659	0.7901	0.8327	0.28
Mof_C 	C 	0.0508	0.9807	0.8489	0.391
Mof_C 	C 	0.5588	0.5443	0.77	-0.12
Mof_C 	C 	0.606	0.559	0.7303	0.018
Mof_C 	C 	0.561	0.452	0.7911	0.018
Mof_C 	C 	0.5622	0.6276	0.7933	0.372
Mof_In	In	0.44973	0.2134	0.33505	2.509
Mof_O 	O 	0.393	0.0825	0.3066	-0.526
Mof_O 	O 	0.4542	0.0612	0.3588	-0.53
Mof_O 	O 	0.1083	0.7622	0.3621	-0.473
Mof_O 	O 	0.212	0.7323	0.4044	-0.5
Mof_O 	O 	0.589	0.1846	0.3065	-0.518
Mof_O 	O 	0.5963	0.2308	0.3613	-0.495
Mof_O 	O 	0.967	0.97	0.3247	-0.282
Mof_O 	O 	0.9671	0.0111	0.3802	-0.274
Mof_O 	O 	0.4097	0.2921	0.2824	-0.481
Mof_O 	O 	0.4689	0.3755	0.3243	-0.501
Mof_C 	C 	0.3867	0.9232	0.3295	-0.257
Mof_H 	H 	0.3829	0.9053	0.3046	0.107
Mof_C 	C 	0.2904	0.9009	0.3457	0.232
Mof_C 	C 	0.2778	0.7867	0.3495	0.056
Mof_C 	C 	0.3829	0.7835	0.3678	-0.209
Mof_H 	H 	0.4064	0.717	0.3679	0.097
Mof_H 	H 	0.3767	0.8045	0.392	0.098
Mof_C 	C 	0.4645	0.8545	0.3474	0.012
Mof_H 	H 	0.5065	0.889	0.3636	0.025
Mof_H 	H 	0.5033	0.819	0.3304	0.018
Mof_C 	C 	0.2623	0.7549	0.3128	-0.559
Mof_H 	H 	0.1974	0.7711	0.3056	0.21
Mof_H 	H 	0.2716	0.6859	0.3112	0.194
Mof_H 	H 	0.3081	0.7872	0.2978	0.19
Mof_C 	C 	0.2519	0.9605	0.3745	-0.743
Mof_H 	H 	0.2878	0.9471	0.3955	0.253
Mof_H 	H 	0.1846	0.9452	0.3781	0.263
Mof_H 	H 	0.2583	0.0281	0.3687	0.255
Mof_C 	C 	0.4175	0.0263	0.3313	0.372
Mof_C 	C 	0.1991	0.7568	0.3741	0.247
Mof_C 	C 	0.7453	0.2082	0.3324	0.024
Mof_C 	C 	0.796	0.1161	0.3514	0.232
Mof_C 	C 	0.8991	0.1166	0.3398	-0.261
Mof_H 	H 	0.9319	0.1666	0.3538	0.108
Mof_C 	C 	0.9028	0.152	0.3015	0.028
Mof_H 	H 	0.9145	0.0984	0.2855	0.036
Mof_H 	H 	0.9527	0.2009	0.2983	0.018
Mof_C 	C 	0.7992	0.1956	0.2963	-0.191
Mof_H 	H 	0.7614	0.153	0.2813	0.093
Mof_H 	H 	0.8044	0.2583	0.2849	0.09
Mof_C 	C 	0.7835	0.3091	0.349	-0.477
Mof_H 	H 	0.756	0.3176	0.3719	0.177
Mof_H 	H 	0.764	0.3622	0.3342	0.173
Mof_H 	H 	0.8531	0.3077	0.3507	0.165
Mof_C 	C 	0.7379	0.0284	0.3448	-0.748
Mof_H 	H 	0.6723	0.0388	0.3525	0.251
Mof_H 	H 	0.7656	0.9746	0.3573	0.255
Mof_H 	H 	0.7379	0.0145	0.3201	0.257
Mof_C 	C 	0.6341	0.2099	0.3327	0.28
Mof_C 	C 	0.9492	0.0193	0.3489	0.391
Mof_C 	C 	0.4412	0.4557	0.27	-0.12
Mof_C 	C 	0.394	0.441	0.2303	0.018
Mof_C 	C 	0.439	0.548	0.2911	0.018
Mof_C 	C 	0.4378	0.3724	0.2933	0.372
Mof_In	In	0.2134	0.44973	0.66495	2.509
Mof_O 	O 	0.0825	0.393	0.6934	-0.526
Mof_O 	O 	0.0612	0.4542	0.6412	-0.53
Mof_O 	O 	0.7622	0.1083	0.6379	-0.473
Mof_O 	O 	0.7323	0.212	0.5956	-0.5
Mof_O 	O 	0.1846	0.589	0.6935	-0.518
Mof_O 	O 	0.2308	0.5963	0.6387	-0.495
Mof_O 	O 	0.97	0.967	0.6753	-0.282
Mof_O 	O 	0.0111	0.9671	0.6198	-0.274
Mof_O 	O 	0.2921	0.4097	0.7176	-0.481
Mof_O 	O 	0.3755	0.4689	0.6757	-0.501
Mof_C 	C 	0.9232	0.3867	0.6705	-0.257
Mof_H 	H 	0.9053	0.3829	0.6954	0.107
Mof_C 	C 	0.9009	0.2904	0.6543	0.232
Mof_C 	C 	0.7867	0.2778	0.6505	0.056
Mof_C 	C 	0.7835	0.3829	0.6322	-0.209
Mof_H 	H 	0.717	0.4064	0.6321	0.097
Mof_H 	H 	0.8045	0.3767	0.608	0.098
Mof_C 	C 	0.8545	0.4645	0.6526	0.012
Mof_H 	H 	0.889	0.5065	0.6364	0.025
Mof_H 	H 	0.819	0.5033	0.6696	0.017
Mof_C 	C 	0.7549	0.2623	0.6872	-0.559
Mof_H 	H 	0.7711	0.1974	0.6944	0.21
Mof_H 	H 	0.6859	0.2716	0.6888	0.194
Mof_H 	H 	0.7872	0.3081	0.7022	0.19
Mof_C 	C 	0.9605	0.2519	0.6255	-0.743
Mof_H 	H 	0.9471	0.2878	0.6045	0.253
Mof_H 	H 	0.9452	0.1846	0.6219	0.263
Mof_H 	H 	0.0281	0.2583	0.6313	0.255
Mof_C 	C 	0.0263	0.4175	0.6687	0.372
Mof_C 	C 	0.7568	0.1991	0.6259	0.247
Mof_C 	C 	0.2082	0.7453	0.6676	0.024
Mof_C 	C 	0.1161	0.796	0.6486	0.232
Mof_C 	C 	0.1166	0.8991	0.6602	-0.261
Mof_H 	H 	0.1666	0.9319	0.6462	0.108
Mof_C 	C 	0.152	0.9028	0.6985	0.028
Mof_H 	H 	0.0984	0.9145	0.7145	0.036
Mof_H 	H 	0.2009	0.9527	0.7017	0.018
Mof_C 	C 	0.1956	0.7992	0.7037	-0.191
Mof_H 	H 	0.153	0.7614	0.7187	0.093
Mof_H 	H 	0.2583	0.8044	0.7151	0.09
Mof_C 	C 	0.3091	0.7835	0.651	-0.477
Mof_H 	H 	0.3176	0.756	0.6281	0.177
Mof_H 	H 	0.3622	0.764	0.6658	0.173
Mof_H 	H 	0.3077	0.8531	0.6493	0.165
Mof_C 	C 	0.0284	0.7379	0.6552	-0.748
Mof_H 	H 	0.0388	0.6723	0.6475	0.251
Mof_H 	H 	0.9746	0.7656	0.6427	0.255
Mof_H 	H 	0.0145	0.7379	0.6799	0.257
Mof_C 	C 	0.2099	0.6341	0.6673	0.28
Mof_C 	C 	0.0193	0.9492	0.6511	0.391
Mof_C 	C 	0.4557	0.4412	0.73	-0.12
Mof_C 	C 	0.441	0.394	0.7697	0.018
Mof_C 	C 	0.548	0.439	0.7089	0.018
Mof_C 	C 	0.3724	0.4378	0.7067	0.372
Mof_In	In	0.7866	0.55027	0.16495	2.509
Mof_O 	O 	0.9175	0.607	0.1934	-0.526
Mof_O 	O 	0.9388	0.5458	0.1412	-0.53
Mof_O 	O 	0.2378	0.8917	0.1379	-0.473
Mof_O 	O 	0.2677	0.788	0.0956	-0.5
Mof_O 	O 	0.8154	0.411	0.1935	-0.518
Mof_O 	O 	0.7692	0.4037	0.1387	-0.495
Mof_O 	O 	0.03	0.033	0.1753	-0.282
Mof_O 	O 	0.9889	0.0329	0.1198	-0.274
Mof_O 	O 	0.7079	0.5903	0.2176	-0.481
Mof_O 	O 	0.6245	0.5311	0.1757	-0.501
Mof_C 	C 	0.0768	0.6133	0.1705	-0.257
Mof_H 	H 	0.0947	0.6171	0.1954	0.107
Mof_C 	C 	0.0991	0.7096	0.1543	0.232
Mof_C 	C 	0.2133	0.7222	0.1505	0.056
Mof_C 	C 	0.2165	0.6171	0.1322	-0.209
Mof_H 	H 	0.283	0.5936	0.1321	0.097
Mof_H 	H 	0.1955	0.6233	0.108	0.098
Mof_C 	C 	0.1455	0.5355	0.1526	0.012
Mof_H 	H 	0.111	0.4935	0.1364	0.025
Mof_H 	H 	0.181	0.4967	0.1696	0.017
Mof_C 	C 	0.2451	0.7377	0.1872	-0.559
Mof_H 	H 	0.2289	0.8026	0.1944	0.21
Mof_H 	H 	0.3141	0.7284	0.1888	0.194
Mof_H 	H 	0.2128	0.6919	0.2022	0.19
Mof_C 	C 	0.0395	0.7481	0.1255	-0.743
Mof_H 	H 	0.0529	0.7122	0.1045	0.253
Mof_H 	H 	0.0548	0.8154	0.1219	0.263
Mof_H 	H 	0.9719	0.7417	0.1313	0.255
Mof_C 	C 	0.9737	0.5825	0.1687	0.372
Mof_C 	C 	0.2432	0.8009	0.1259	0.247
Mof_C 	C 	0.7918	0.2547	0.1676	0.024
Mof_C 	C 	0.8839	0.204	0.1486	0.232
Mof_C 	C 	0.8834	0.1009	0.1602	-0.261
Mof_H 	H 	0.8334	0.0681	0.1462	0.108
Mof_C 	C 	0.848	0.0972	0.1985	0.028
Mof_H 	H 	0.9016	0.0855	0.2145	0.036
Mof_H 	H 	0.7991	0.0473	0.2017	0.018
Mof_C 	C 	0.8044	0.2008	0.2037	-0.191
Mof_H 	H 	0.847	0.2386	0.2187	0.093
Mof_H 	H 	0.7417	0.1956	0.2151	0.09
Mof_C 	C 	0.6909	0.2165	0.151	-0.477
Mof_H 	H 	0.6824	0.244	0.1281	0.177
Mof_H 	H 	0.6378	0.236	0.1658	0.173
Mof_H 	H 	0.6923	0.1469	0.1493	0.165
Mof_C 	C 	0.9716	0.2621	0.1552	-0.748
Mof_H 	H 	0.9612	0.3277	0.1475	0.251
Mof_H 	H 	0.0254	0.2344	0.1427	0.255
Mof_H 	H 	0.9855	0.2621	0.1799	0.257
Mof_C 	C 	0.7901	0.3659	0.1673	0.28
Mof_C 	C 	0.9807	0.0508	0.1511	0.391
Mof_C 	C 	0.5443	0.5588	0.23	-0.12
Mof_C 	C 	0.559	0.606	0.2697	0.018
Mof_C 	C 	0.452	0.561	0.2089	0.018
Mof_C 	C 	0.6276	0.5622	0.2067	0.372
Mof_In	In	0.94973	0.2866	0.91495	2.504
Mof_O 	O 	0.893	0.4175	0.9434	-0.526
Mof_O 	O 	0.9542	0.4388	0.8912	-0.53
Mof_O 	O 	0.6083	0.7378	0.8879	-0.473
Mof_O 	O 	0.712	0.7677	0.8456	-0.501
Mof_O 	O 	0.089	0.3154	0.9435	-0.516
Mof_O 	O 	0.0963	0.2692	0.8887	-0.493
Mof_O 	O 	0.467	0.53	0.9253	-0.286
Mof_O 	O 	0.4671	0.4889	0.8698	-0.275
Mof_O 	O 	0.9097	0.2079	0.9676	-0.481
Mof_O 	O 	0.9689	0.1245	0.9257	-0.502
Mof_C 	C 	0.8867	0.5768	0.9205	-0.254
Mof_H 	H 	0.8829	0.5947	0.9454	0.106
Mof_C 	C 	0.7904	0.5991	0.9043	0.232
Mof_C 	C 	0.7778	0.7133	0.9005	0.055
Mof_C 	C 	0.8829	0.7165	0.8822	-0.205
Mof_H 	H 	0.9064	0.783	0.8821	0.096
Mof_H 	H 	0.8767	0.6955	0.858	0.097
Mof_C 	C 	0.9645	0.6455	0.9026	0.002
Mof_H 	H 	0.0065	0.611	0.8864	0.029
Mof_H 	H 	0.0033	0.681	0.9196	0.022
Mof_C 	C 	0.7623	0.7451	0.9372	-0.558
Mof_H 	H 	0.6974	0.7289	0.9444	0.21
Mof_H 	H 	0.7716	0.8141	0.9388	0.193
Mof_H 	H 	0.8081	0.7128	0.9522	0.189
Mof_C 	C 	0.7519	0.5395	0.8755	-0.744
Mof_H 	H 	0.7878	0.5529	0.8545	0.253
Mof_H 	H 	0.6846	0.5548	0.8719	0.264
Mof_H 	H 	0.7583	0.4719	0.8813	0.256
Mof_C 	C 	0.9175	0.4737	0.9187	0.371
Mof_C 	C 	0.6991	0.7432	0.8759	0.247
Mof_C 	C 	0.2453	0.2918	0.9176	0.025
Mof_C 	C 	0.296	0.3839	0.8986	0.23
Mof_C 	C 	0.3991	0.3834	0.9102	-0.261
Mof_H 	H 	0.4319	0.3334	0.8962	0.108
Mof_C 	C 	0.4028	0.348	0.9485	0.028
Mof_H 	H 	0.4145	0.4016	0.9645	0.036
Mof_H 	H 	0.4527	0.2991	0.9517	0.018
Mof_C 	C 	0.2992	0.3044	0.9537	-0.192
Mof_H 	H 	0.2614	0.347	0.9687	0.094
Mof_H 	H 	0.3044	0.2417	0.9651	0.091
Mof_C 	C 	0.2835	0.1909	0.901	-0.479
Mof_H 	H 	0.256	0.1824	0.8781	0.177
Mof_H 	H 	0.264	0.1378	0.9158	0.174
Mof_H 	H 	0.3531	0.1923	0.8993	0.165
Mof_C 	C 	0.2379	0.4716	0.9052	-0.74
Mof_H 	H 	0.1723	0.4612	0.8975	0.25
Mof_H 	H 	0.2656	0.5254	0.8927	0.252
Mof_H 	H 	0.2379	0.4855	0.9299	0.255
Mof_C 	C 	0.1341	0.2901	0.9173	0.28
Mof_C 	C 	0.4492	0.4807	0.9011	0.394
Mof_C 	C 	0.9412	0.0443	0.98	-0.123
Mof_C 	C 	0.894	0.059	0.0197	0.018
Mof_C 	C 	0.939	0.952	0.9589	0.017
Mof_C 	C 	0.9378	0.1276	0.9567	0.373
Mof_In	In	0.05027	0.7134	0.41495	2.504
Mof_O 	O 	0.107	0.5825	0.4434	-0.526
Mof_O 	O 	0.0458	0.5612	0.3912	-0.53
Mof_O 	O 	0.3917	0.2622	0.3879	-0.473
Mof_O 	O 	0.288	0.2323	0.3456	-0.501
Mof_O 	O 	0.911	0.6846	0.4435	-0.516
Mof_O 	O 	0.9037	0.7308	0.3887	-0.493
Mof_O 	O 	0.533	0.47	0.4253	-0.286
Mof_O 	O 	0.5329	0.5111	0.3698	-0.275
Mof_O 	O 	0.0903	0.7921	0.4676	-0.481
Mof_O 	O 	0.0311	0.8755	0.4257	-0.502
Mof_C 	C 	0.1133	0.4232	0.4205	-0.254
Mof_H 	H 	0.1171	0.4053	0.4454	0.106
Mof_C 	C 	0.2096	0.4009	0.4043	0.232
Mof_C 	C 	0.2222	0.2867	0.4005	0.055
Mof_C 	C 	0.1171	0.2835	0.3822	-0.205
Mof_H 	H 	0.0936	0.217	0.3821	0.096
Mof_H 	H 	0.1233	0.3045	0.358	0.097
Mof_C 	C 	0.0355	0.3545	0.4026	0.002
Mof_H 	H 	0.9935	0.389	0.3864	0.029
Mof_H 	H 	0.9967	0.319	0.4196	0.022
Mof_C 	C 	0.2377	0.2549	0.4372	-0.558
Mof_H 	H 	0.3026	0.2711	0.4444	0.21
Mof_H 	H 	0.2284	0.1859	0.4388	0.193
Mof_H 	H 	0.1919	0.2872	0.4522	0.189
Mof_C 	C 	0.2481	0.4605	0.3755	-0.744
Mof_H 	H 	0.2122	0.4471	0.3545	0.253
Mof_H 	H 	0.3154	0.4452	0.3719	0.264
Mof_H 	H 	0.2417	0.5281	0.3813	0.256
Mof_C 	C 	0.0825	0.5263	0.4187	0.371
Mof_C 	C 	0.3009	0.2568	0.3759	0.247
Mof_C 	C 	0.7547	0.7082	0.4176	0.025
Mof_C 	C 	0.704	0.6161	0.3986	0.23
Mof_C 	C 	0.6009	0.6166	0.4102	-0.261
Mof_H 	H 	0.5681	0.6666	0.3962	0.108
Mof_C 	C 	0.5972	0.652	0.4485	0.028
Mof_H 	H 	0.5855	0.5984	0.4645	0.036
Mof_H 	H 	0.5473	0.7009	0.4517	0.018
Mof_C 	C 	0.7008	0.6956	0.4537	-0.192
Mof_H 	H 	0.7386	0.653	0.4687	0.094
Mof_H 	H 	0.6956	0.7583	0.4651	0.091
Mof_C 	C 	0.7165	0.8091	0.401	-0.479
Mof_H 	H 	0.744	0.8176	0.3781	0.177
Mof_H 	H 	0.736	0.8622	0.4158	0.174
Mof_H 	H 	0.6469	0.8077	0.3993	0.165
Mof_C 	C 	0.7621	0.5284	0.4052	-0.74
Mof_H 	H 	0.8277	0.5388	0.3975	0.25
Mof_H 	H 	0.7344	0.4746	0.3927	0.252
Mof_H 	H 	0.7621	0.5145	0.4299	0.255
Mof_C 	C 	0.8659	0.7099	0.4173	0.28
Mof_C 	C 	0.5508	0.5193	0.4011	0.394
Mof_C 	C 	0.0588	0.9557	0.48	-0.124
Mof_C 	C 	0.106	0.941	0.5197	0.018
Mof_C 	C 	0.061	0.048	0.4589	0.017
Mof_C 	C 	0.0622	0.8724	0.4567	0.373
Mof_C 	C 	0.036	0.036	-0	0.09
Mof_C 	C 	0.098	0.098	-0	-0.035
Mof_C 	C 	0.964	0.964	0.5	0.091
Mof_C 	C 	0.902	0.902	0.5	-0.035
Mof_C 	C 	0.464	0.536	0.75	0.083
Mof_C 	C 	0.402	0.598	0.75	-0.034
Mof_C 	C 	0.536	0.464	0.25	0.083
Mof_C 	C 	0.598	0.402	0.25	-0.034
_end
