data_functionalizedCrystal
_audit_creation_method	'EQeq! by Chris Wilmer'
_symmetry_space_group_name_H-M	'P1'
_symmetry_Int_Tables_number	1
_symmetry_cell_setting	triclinic
loop_
_symmetry_equiv_pos_as_xyz
  x,y,z
_cell_length_a	10.306
_cell_length_b	26.232
_cell_length_c	27.776
_cell_angle_alpha	90
_cell_angle_beta	90
_cell_angle_gamma	91.84
loop_
_atom_site_label
_atom_site_type_symbol
_atom_site_fract_x
_atom_site_fract_y
_atom_site_fract_z
_atom_site_charge
Mof_Zn	Zn	0.31448	0.22739	0.16849	1.22
Mof_Zn	Zn	0.04443	0.37254	0.66291	1.217
Mof_Zn	Zn	0.89193	0.26662	0.66326	1.219
Mof_Zn	Zn	0.04077	0.29993	0.56787	1.218
Mof_Zn	Zn	0.68552	0.77261	0.83151	1.22
Mof_Zn	Zn	0.81448	0.72739	0.33151	1.22
Mof_Zn	Zn	0.95557	0.62746	0.33709	1.217
Mof_Zn	Zn	0.45557	0.12746	0.16291	1.217
Mof_Zn	Zn	0.95923	0.70007	0.43213	1.218
Mof_Zn	Zn	0.18552	0.27261	0.66849	1.22
Mof_Zn	Zn	0.54077	0.79993	0.93213	1.218
Mof_Zn	Zn	0.60807	0.23338	0.16326	1.219
Mof_Zn	Zn	0.54443	0.87254	0.83709	1.217
Mof_Zn	Zn	0.39193	0.76662	0.83674	1.219
Mof_Zn	Zn	0.10807	0.73338	0.33674	1.22
Mof_Zn	Zn	0.45923	0.20007	0.06787	1.219
Mof_H 	H 	0.2079	0.7725	0.103	0.09
Mof_H 	H 	0.5479	0.3419	0.6842	0.047
Mof_H 	H 	0.8612	0.963	0.7655	0.042
Mof_H 	H 	0.3418	0.2454	0.4724	0.04
Mof_H 	H 	0.2921	0.7275	0.603	0.09
Mof_H 	H 	0.3631	0.1896	0.3228	0.021
Mof_H 	H 	0.6351	0.8028	0.5944	0.09
Mof_H 	H 	0.2711	0.4513	0.2723	0.09
Mof_H 	H 	0.2511	0.9651	0.769	0.045
Mof_H 	H 	0.0245	0.4217	0.466	0.052
Mof_H 	H 	0.3649	0.1972	0.4056	0.09
Mof_H 	H 	0.7968	0.2358	0.815	0.022
Mof_H 	H 	0.9008	0.1011	0.6737	0.022
Mof_H 	H 	0.7315	0.244	0.4739	0.039
Mof_H 	H 	0.7289	0.5487	0.7277	0.09
Mof_H 	H 	0.1072	0.9795	0.2941	0.089
Mof_H 	H 	0.5149	0.0083	0.9188	0.052
Mof_H 	H 	0.8649	0.6972	0.0944	0.09
Mof_H 	H 	0.4755	0.0783	0.966	0.052
Mof_H 	H 	0.1582	0.2546	0.9724	0.041
Mof_H 	H 	0.7349	0.6299	0.7578	0.023
Mof_H 	H 	0.7685	0.256	0.9739	0.039
Mof_H 	H 	0.1351	0.3028	0.9056	0.09
Mof_H 	H 	0.2315	0.744	0.0261	0.039
Mof_H 	H 	0.5245	0.9217	0.034	0.052
Mof_H 	H 	0.9521	0.1581	0.1842	0.047
Mof_H 	H 	0.0479	0.8419	0.8158	0.047
Mof_H 	H 	0.5357	0.2547	0.5975	0.043
Mof_H 	H 	0.0992	0.8989	0.3263	0.022
Mof_H 	H 	0.6582	0.7546	0.5276	0.04
Mof_H 	H 	0.2968	0.7358	0.685	0.022
Mof_H 	H 	0.7711	0.9513	0.2277	0.09
Mof_H 	H 	0.9851	0.4917	0.4188	0.052
Mof_H 	H 	0.4008	0.6011	0.8263	0.022
Mof_H 	H 	0.9755	0.5783	0.534	0.052
Mof_H 	H 	0.8631	0.6896	0.1772	0.021
Mof_H 	H 	0.6388	0.537	0.2655	0.042
Mof_H 	H 	0.7651	0.8701	0.2578	0.023
Mof_H 	H 	0.7511	0.4651	0.731	0.045
Mof_H 	H 	0.1369	0.3104	0.8228	0.021
Mof_H 	H 	0.8418	0.7454	0.0276	0.041
Mof_H 	H 	0.3928	0.5205	0.7941	0.09
Mof_H 	H 	0.5992	0.3989	0.1737	0.022
Mof_H 	H 	0.1388	0.037	0.2345	0.042
Mof_H 	H 	0.6369	0.8104	0.6772	0.021
Mof_H 	H 	0.6072	0.4795	0.2059	0.09
Mof_H 	H 	0.2032	0.7642	0.185	0.022
Mof_H 	H 	0.4521	0.6581	0.3158	0.047
Mof_H 	H 	0.9643	0.2453	0.0975	0.043
Mof_H 	H 	0.2489	0.5349	0.269	0.045
Mof_H 	H 	0.2289	0.0487	0.7723	0.09
Mof_H 	H 	0.2651	0.3701	0.2422	0.023
Mof_H 	H 	0.4851	0.9917	0.0812	0.052
Mof_H 	H 	0.7921	0.2275	0.897	0.09
Mof_H 	H 	0.8928	0.0205	0.7059	0.089
Mof_H 	H 	0.2685	0.756	0.5261	0.039
Mof_H 	H 	0.7032	0.2642	0.315	0.022
Mof_H 	H 	0.0149	0.5083	0.5812	0.052
Mof_H 	H 	0.4643	0.7453	0.4025	0.043
Mof_H 	H 	0.7489	0.0349	0.231	0.045
Mof_H 	H 	0.7079	0.2725	0.397	0.09
Mof_H 	H 	0.0357	0.7547	0.9025	0.043
Mof_H 	H 	0.2349	0.1299	0.7422	0.023
Mof_H 	H 	0.3612	0.463	0.7345	0.042
Mof_C 	C 	0.2949	0.25889	0.56575	0.392
Mof_C 	C 	0.8629	0.2441	0.88242	-0.156
Mof_C 	C 	0.9872	0.54675	0.51961	-0.014
Mof_C 	C 	0.1517	0.74951	0.96042	-0.115
Mof_C 	C 	0.1657	0.10783	0.73441	0.082
Mof_C 	C 	0.4196	0.25155	0.53892	-0.115
Mof_C 	C 	0.5369	0.24248	0.46359	-0.052
Mof_C 	C 	0.993	0.4957	0.45191	-0.013
Mof_C 	C 	0.7769	0.25418	0.56723	0.399
Mof_C 	C 	0.0804	0.24845	0.03892	-0.114
Mof_C 	C 	0.8483	0.25049	0.03958	-0.115
Mof_C 	C 	0.6657	0.60783	0.76559	0.083
Mof_C 	C 	0.3323	0.60006	0.29467	-0.102
Mof_C 	C 	0.5614	0.55287	0.27224	0.013
Mof_C 	C 	0.5666	0.7887	0.61233	-0.154
Mof_C 	C 	0.5799	0.75365	0.51089	0.018
Mof_C 	C 	0.4274	0.32205	0.18547	0.39
Mof_C 	C 	0.4643	0.76327	0.58918	0.106
Mof_C 	C 	0.5804	0.74845	0.46108	-0.115
Mof_C 	C 	0.7899	0.37543	0.68888	0.377
Mof_C 	C 	0.0317	0.7263	0.18975	-0.147
Mof_C 	C 	0.4683	0.7737	0.68975	-0.148
Mof_C 	C 	0.3381	0.44099	0.2525	-0.156
Mof_C 	C 	0.2051	0.24111	0.06575	0.392
Mof_C 	C 	0.55	0.37461	0.69719	0.042
Mof_C 	C 	0.8343	0.89217	0.26559	0.082
Mof_C 	C 	0.9196	0.75155	0.96108	-0.114
Mof_C 	C 	0.9641	0.24769	0.06407	0.054
Mof_C 	C 	0.0688	0.12442	0.70492	-0.142
Mof_C 	C 	0.2899	0.87543	0.81112	0.377
Mof_C 	C 	0.972	0.27923	0.75666	0.394
Mof_C 	C 	0.6677	0.39994	0.70533	-0.102
Mof_C 	C 	0.5331	0.40911	0.1939	0.079
Mof_C 	C 	0.9201	0.74635	0.01089	0.016
Mof_C 	C 	0.9673	0.5892	0.43992	0.391
Mof_C 	C 	0.9632	0.04225	0.71289	-0.152
Mof_C 	C 	0.9683	0.2737	0.81025	-0.147
Mof_C 	C 	0.0359	0.75231	0.93593	0.054
Mof_C 	C 	0.507	0.0043	0.95191	-0.014
Mof_C 	C 	0.0368	0.95775	0.28711	-0.152
Mof_C 	C 	0.1344	0.7508	0.16685	0.085
Mof_C 	C 	0.0612	0.02504	0.74199	0.103
Mof_C 	C 	0.8475	0.25482	0.98999	0.019
Mof_C 	C 	0.5152	0.95724	0.9711	-0.083
Mof_C 	C 	0.9348	0.89815	0.79159	-0.105
Mof_C 	C 	0.6517	0.24951	0.53958	-0.116
Mof_C 	C 	0.4201	0.24635	0.48911	0.018
Mof_C 	C 	0.6903	0.62979	0.3039	0.39
Mof_C 	C 	0.3656	0.7492	0.66685	0.085
Mof_C 	C 	0.4348	0.39815	0.70841	-0.106
Mof_C 	C 	0.8381	0.94099	0.2475	-0.155
Mof_C 	C 	0.9631	0.25752	0.96359	-0.051
Mof_C 	C 	0.0568	0.97291	0.76282	-0.046
Mof_C 	C 	0.472	0.77923	0.74334	0.393
Mof_C 	C 	0.5726	0.67795	0.81453	0.39
Mof_C 	C 	0.0799	0.25365	0.98911	0.016
Mof_C 	C 	0.9334	0.7113	0.11233	-0.154
Mof_C 	C 	0.0128	0.45325	0.48039	-0.014
Mof_C 	C 	0.0673	0.2934	0.83776	0.081
Mof_C 	C 	0.1677	0.89994	0.79467	-0.102
Mof_C 	C 	0.6371	0.2559	0.38242	-0.156
Mof_C 	C 	0.4669	0.59089	0.8061	0.079
Mof_C 	C 	0.3343	0.39217	0.23441	0.083
Mof_C 	C 	0.6525	0.24518	0.48999	0.02
Mof_C 	C 	0.2231	0.74582	0.43277	0.399
Mof_C 	C 	0.4388	0.47496	0.24199	0.106
Mof_C 	C 	0.5612	0.52504	0.75801	0.106
Mof_C 	C 	0.4312	0.37558	0.20492	-0.142
Mof_C 	C 	0.1371	0.7559	0.11758	-0.156
Mof_C 	C 	0.0652	0.10185	0.20841	-0.105
Mof_C 	C 	0.4327	0.2066	0.33776	0.082
Mof_C 	C 	0.8656	0.2492	0.83315	0.085
Mof_C 	C 	0.5327	0.9108	0.93992	0.391
Mof_C 	C 	0.2101	0.62457	0.31112	0.377
Mof_C 	C 	0.1714	0.94854	0.77465	0.01
Mof_C 	C 	0.4631	0.75752	0.53641	-0.052
Mof_C 	C 	0.9312	0.87558	0.29508	-0.142
Mof_C 	C 	0.6714	0.44854	0.72535	0.01
Mof_C 	C 	0.5673	0.7934	0.66224	0.082
Mof_C 	C 	0.8323	0.10006	0.20533	-0.102
Mof_C 	C 	0.9386	0.94713	0.77224	0.013
Mof_C 	C 	0.0614	0.05287	0.22776	0.013
Mof_C 	C 	0.1525	0.74518	0.01001	0.019
Mof_C 	C 	0.5688	0.62442	0.79508	-0.142
Mof_C 	C 	0.4872	0.04675	0.98039	-0.015
Mof_C 	C 	0.493	0.9957	0.04809	-0.014
Mof_C 	C 	0.05	0.87461	0.80281	0.042
Mof_C 	C 	0.7101	0.12457	0.18888	0.377
Mof_C 	C 	0.7051	0.74111	0.43425	0.392
Mof_C 	C 	0.007	0.5043	0.54809	-0.013
Mof_C 	C 	0.9274	0.82205	0.31453	0.389
Mof_C 	C 	0.3097	0.37021	0.6961	0.39
Mof_C 	C 	0.4632	0.54225	0.78711	-0.154
Mof_C 	C 	0.5652	0.60185	0.29159	-0.106
Mof_C 	C 	0.5317	0.2263	0.31025	-0.148
Mof_C 	C 	0.3475	0.75482	0.51001	0.02
Mof_C 	C 	0.9432	0.02709	0.23718	-0.046
Mof_C 	C 	0.5568	0.47291	0.73718	-0.047
Mof_C 	C 	0.528	0.22077	0.25666	0.393
Mof_C 	C 	0.4848	0.04276	0.0289	-0.083
Mof_C 	C 	0.028	0.72077	0.24334	0.394
Mof_C 	C 	0.8286	0.05146	0.22535	0.01
Mof_C 	C 	0.9388	0.97496	0.25801	0.103
Mof_C 	C 	0.0152	0.45724	0.5289	-0.083
Mof_C 	C 	0.6344	0.2508	0.33315	0.085
Mof_C 	C 	0.4386	0.44713	0.72776	0.013
Mof_C 	C 	0.5368	0.45775	0.21289	-0.154
Mof_C 	C 	0.3629	0.7441	0.61758	-0.156
Mof_C 	C 	0.4673	0.0892	0.06008	0.391
Mof_C 	C 	0.0327	0.4108	0.56008	0.391
Mof_C 	C 	0.0369	0.74248	0.03641	-0.051
Mof_C 	C 	0.5357	0.23673	0.41082	0.106
Mof_C 	C 	0.9643	0.26327	0.91082	0.106
Mof_C 	C 	0.7231	0.24582	0.06723	0.399
Mof_C 	C 	0.0666	0.2887	0.88767	-0.154
Mof_C 	C 	0.5128	0.95325	0.01961	-0.015
Mof_C 	C 	0.45	0.62539	0.30281	0.042
Mof_C 	C 	0.4334	0.2113	0.38767	-0.154
Mof_C 	C 	0.2769	0.75418	0.93277	0.399
Mof_C 	C 	0.4432	0.52709	0.26282	-0.047
Mof_C 	C 	0.3483	0.75049	0.46042	-0.116
Mof_C 	C 	0.1903	0.12979	0.1961	0.39
Mof_C 	C 	0.95	0.12539	0.19719	0.042
Mof_C 	C 	0.7949	0.75889	0.93425	0.392
Mof_C 	C 	0.9848	0.54276	0.4711	-0.083
Mof_C 	C 	0.4641	0.74769	0.43593	0.054
Mof_C 	C 	0.9327	0.7066	0.16224	0.081
Mof_C 	C 	0.6619	0.55901	0.7475	-0.156
Mof_C 	C 	0.3286	0.55146	0.27465	0.01
Mof_C 	C 	0.0357	0.73673	0.08918	0.106
Mof_C 	C 	0.5359	0.25231	0.56407	0.054
Mof_C 	C 	0.1619	0.05901	0.7525	-0.155
Mof_C 	C 	0.0331	0.90911	0.3061	0.08
Mof_C 	C 	0.9669	0.09089	0.6939	0.08
Mof_C 	C 	0.8097	0.87021	0.8039	0.39
Mof_C 	C 	0.0726	0.17795	0.68547	0.389
Mof_O 	O 	0.6221	0.23303	0.04424	-0.488
Mof_O 	O 	0.0359	0.36828	0.53896	-0.484
Mof_O 	O 	0.3272	0.295	0.19573	-0.473
Mof_O 	O 	0.8272	0.795	0.30427	-0.473
Mof_O 	O 	0.6222	0.24053	0.23345	-0.465
Mof_O 	O 	0.3961	0.89923	0.80275	-0.466
Mof_O 	O 	0.1956	0.26968	0.54094	-0.484
Mof_O 	O 	0.2702	0.74523	0.88852	-0.47
Mof_O 	O 	0.2216	0.66584	0.33268	-0.46
Mof_O 	O 	0.6039	0.10077	0.19725	-0.466
Mof_O 	O 	0.7298	0.25477	0.11148	-0.47
Mof_O 	O 	0.7216	0.16584	0.16732	-0.46
Mof_O 	O 	0.1221	0.73303	0.45576	-0.488
Mof_O 	O 	0.7702	0.24523	0.61148	-0.47
Mof_O 	O 	0.45771	0.19544	0.13662	-0.934
Mof_O 	O 	0.4584	0.08201	0.10414	-0.48
Mof_O 	O 	0.9323	0.69919	0.26196	-0.463
Mof_O 	O 	0.3158	0.32303	0.69061	-0.482
Mof_O 	O 	0.8779	0.26697	0.54424	-0.488
Mof_O 	O 	0.6842	0.67697	0.30939	-0.482
Mof_O 	O 	0.7901	0.60333	0.30865	-0.476
Mof_O 	O 	0.2901	0.10333	0.19135	-0.475
Mof_O 	O 	0.3779	0.76697	0.95576	-0.488
Mof_O 	O 	0.8158	0.82303	0.80939	-0.482
Mof_O 	O 	0.0213	0.8073	0.33823	-0.459
Mof_O 	O 	0.4641	0.13172	0.03896	-0.484
Mof_O 	O 	0.2017	0.2457	0.11004	-0.47
Mof_O 	O 	0.0677	0.30081	0.73804	-0.463
Mof_O 	O 	0.5359	0.86828	0.96104	-0.484
Mof_O 	O 	0.1039	0.60077	0.30275	-0.466
Mof_O 	O 	0.7099	0.89667	0.80865	-0.475
Mof_O 	O 	0.04229	0.30456	0.63662	-0.935
Mof_O 	O 	0.54229	0.80456	0.86338	-0.934
Mof_O 	O 	0.2099	0.39667	0.69135	-0.476
Mof_O 	O 	0.1842	0.17697	0.19061	-0.482
Mof_O 	O 	0.8778	0.25947	0.73345	-0.465
Mof_O 	O 	0.95771	0.69544	0.36338	-0.935
Mof_O 	O 	0.6728	0.705	0.80427	-0.473
Mof_O 	O 	0.8044	0.73032	0.45906	-0.484
Mof_O 	O 	0.2983	0.2543	0.61004	-0.47
Mof_O 	O 	0.6956	0.76968	0.95906	-0.484
Mof_O 	O 	0.5416	0.91799	0.89586	-0.48
Mof_O 	O 	0.4787	0.6927	0.83823	-0.461
Mof_O 	O 	0.3044	0.23032	0.04094	-0.484
Mof_O 	O 	0.5213	0.3073	0.16177	-0.461
Mof_O 	O 	0.9584	0.58201	0.39586	-0.48
Mof_O 	O 	0.4323	0.19919	0.23804	-0.462
Mof_O 	O 	0.5677	0.80081	0.76196	-0.462
Mof_O 	O 	0.7784	0.33416	0.66732	-0.46
Mof_O 	O 	0.7983	0.7543	0.88996	-0.47
Mof_O 	O 	0.2298	0.75477	0.38852	-0.47
Mof_O 	O 	0.1222	0.74053	0.26655	-0.465
Mof_O 	O 	0.3778	0.75947	0.76655	-0.465
Mof_O 	O 	0.7017	0.7457	0.38996	-0.47
Mof_O 	O 	0.9787	0.1927	0.66177	-0.459
Mof_O 	O 	0.1728	0.205	0.69573	-0.473
Mof_O 	O 	0.9641	0.63172	0.46104	-0.484
Mof_O 	O 	0.2784	0.83416	0.83268	-0.46
Mof_O 	O 	0.0416	0.41799	0.60414	-0.48
Mof_O 	O 	0.8961	0.39923	0.69725	-0.466
_end
