# CIF file generated by openbabel 3.1.0, see https://openbabel.org
data_I
_chemical_name_common 'XAFFAN_clean'
_cell_length_a 17.178
_cell_length_b 23.0653
_cell_length_c 23.0653
_cell_angle_alpha 60.8269
_cell_angle_beta 68.1377
_cell_angle_gamma 68.1377
_space_group_name_H-M_alt 'P 1'
_space_group_name_Hall 'P 1'
loop_
    _symmetry_equiv_pos_as_xyz
    x,y,z
loop_
    _atom_site_label
    _atom_site_type_symbol
    _atom_site_fract_x
    _atom_site_fract_y
    _atom_site_fract_z
    _atom_site_occupancy
    Zn1      Zn       0.02823    0.53003    0.53003    1.000
    Zn2      Zn       0.58829    0.96997    0.96996    1.000
    Zn3      Zn       0.41171    0.03003    0.03004    1.000
    Zn4      Zn       0.97177    0.46997    0.46997    1.000
    H1       H        0.77000    0.38970    0.64650    1.000
    H2       H        0.66720    0.35350    0.74610    1.000
    H3       H        0.75560    0.42370    0.83130    1.000
    H4       H        0.85270    0.46550    0.72990    1.000
    H5       H        0.61660    0.32500    0.99060    1.000
    H6       H        0.54650    0.38900    0.05500    1.000
    H7       H        0.30620    0.11030    0.85350    1.000
    H8       H        0.26680    0.14650    0.75390    1.000
    H9       H        0.51060    0.07630    0.66870    1.000
    H10      H        0.54810    0.03450    0.77010    1.000
    H11      H        0.43220    0.17500    0.50940    1.000
    H12      H        0.49050    0.11100    0.44500    1.000
    H13      H        0.69380    0.14650    0.88970    1.000
    H14      H        0.73320    0.24610    0.85350    1.000
    H15      H        0.48940    0.33130    0.92370    1.000
    H16      H        0.45190    0.22990    0.96550    1.000
    H17      H        0.56780    0.49060    0.82500    1.000
    H18      H        0.50950    0.55500    0.88900    1.000
    H19      H        0.23000    0.35350    0.61030    1.000
    H20      H        0.33280    0.25390    0.64650    1.000
    H21      H        0.24440    0.16870    0.57630    1.000
    H22      H        0.14730    0.27010    0.53450    1.000
    H23      H        0.38340    0.00940    0.67500    1.000
    H24      H        0.45350    0.94500    0.61100    1.000
    H25      H        0.23000    0.61030    0.35350    1.000
    H26      H        0.33280    0.64650    0.25390    1.000
    H27      H        0.24440    0.57630    0.16870    1.000
    H28      H        0.14730    0.53450    0.27010    1.000
    H29      H        0.38340    0.67500    0.00940    1.000
    H30      H        0.45350    0.61100    0.94500    1.000
    H31      H        0.69380    0.88970    0.14650    1.000
    H32      H        0.73320    0.85350    0.24610    1.000
    H33      H        0.48940    0.92370    0.33130    1.000
    H34      H        0.45190    0.96550    0.22990    1.000
    H35      H        0.56780    0.82500    0.49060    1.000
    H36      H        0.50950    0.88900    0.55500    1.000
    H37      H        0.30620    0.85350    0.11030    1.000
    H38      H        0.26680    0.75390    0.14650    1.000
    H39      H        0.51060    0.66870    0.07630    1.000
    H40      H        0.54810    0.77010    0.03450    1.000
    H41      H        0.43220    0.50940    0.17500    1.000
    H42      H        0.49050    0.44500    0.11100    1.000
    H43      H        0.77000    0.64650    0.38970    1.000
    H44      H        0.66720    0.74610    0.35350    1.000
    H45      H        0.75560    0.83130    0.42370    1.000
    H46      H        0.85270    0.72990    0.46550    1.000
    H47      H        0.61660    0.99060    0.32500    1.000
    H48      H        0.54650    0.05500    0.38900    1.000
    C1       C        0.88770    0.45659    0.61221    1.000
    C2       C        0.76669    0.39730    0.68352    1.000
    C3       C        0.70559    0.37486    0.74344    1.000
    C4       C        0.75746    0.41734    0.79388    1.000
    C5       C        0.81675    0.44167    0.73321    1.000
    C6       C        0.70123    0.38414    0.80004    1.000
    C7       C        0.59318    0.37150    0.96954    1.000
    C8       C        0.55232    0.41059    0.00797    1.000
    C9       C        0.82328    0.43100    0.67758    1.000
    C10      C        0.45650    0.04341    0.88779    1.000
    C11      C        0.34751    0.10270    0.81648    1.000
    C12      C        0.32389    0.12514    0.75656    1.000
    C13      C        0.46868    0.08266    0.70612    1.000
    C14      C        0.49163    0.05833    0.76679    1.000
    C15      C        0.38541    0.11586    0.69996    1.000
    C16      C        0.43422    0.12850    0.53046    1.000
    C17      C        0.47088    0.08941    0.49203    1.000
    C18      C        0.43186    0.06900    0.82242    1.000
    C19      C        0.54350    0.11221    0.95659    1.000
    C20      C        0.65249    0.18352    0.89730    1.000
    C21      C        0.67611    0.24344    0.87486    1.000
    C22      C        0.53132    0.29388    0.91734    1.000
    C23      C        0.50837    0.23321    0.94167    1.000
    C24      C        0.61459    0.30004    0.88414    1.000
    C25      C        0.56578    0.46954    0.87150    1.000
    C26      C        0.52912    0.50797    0.91059    1.000
    C27      C        0.56814    0.17758    0.93100    1.000
    C28      C        0.11230    0.38779    0.54341    1.000
    C29      C        0.23331    0.31648    0.60270    1.000
    C30      C        0.29441    0.25656    0.62514    1.000
    C31      C        0.24254    0.20612    0.58266    1.000
    C32      C        0.18325    0.26679    0.55833    1.000
    C33      C        0.29877    0.19996    0.61586    1.000
    C34      C        0.40682    0.03046    0.62850    1.000
    C35      C        0.44768    0.99203    0.58941    1.000
    C36      C        0.17672    0.32242    0.56900    1.000
    C37      C        0.11230    0.54341    0.38779    1.000
    C38      C        0.23331    0.60270    0.31648    1.000
    C39      C        0.29441    0.62514    0.25656    1.000
    C40      C        0.24254    0.58266    0.20612    1.000
    C41      C        0.18325    0.55833    0.26679    1.000
    C42      C        0.29877    0.61586    0.19996    1.000
    C43      C        0.40682    0.62850    0.03046    1.000
    C44      C        0.44768    0.58941    0.99203    1.000
    C45      C        0.17672    0.56900    0.32242    1.000
    C46      C        0.54350    0.95659    0.11221    1.000
    C47      C        0.65249    0.89730    0.18352    1.000
    C48      C        0.67611    0.87486    0.24344    1.000
    C49      C        0.53132    0.91734    0.29388    1.000
    C50      C        0.50837    0.94167    0.23321    1.000
    C51      C        0.61459    0.88414    0.30004    1.000
    C52      C        0.56578    0.87150    0.46954    1.000
    C53      C        0.52912    0.91059    0.50797    1.000
    C54      C        0.56814    0.93100    0.17758    1.000
    C55      C        0.45650    0.88779    0.04341    1.000
    C56      C        0.34751    0.81648    0.10270    1.000
    C57      C        0.32389    0.75656    0.12514    1.000
    C58      C        0.46868    0.70612    0.08266    1.000
    C59      C        0.49163    0.76679    0.05833    1.000
    C60      C        0.38541    0.69996    0.11586    1.000
    C61      C        0.43422    0.53046    0.12850    1.000
    C62      C        0.47088    0.49203    0.08941    1.000
    C63      C        0.43186    0.82242    0.06900    1.000
    C64      C        0.88770    0.61221    0.45659    1.000
    C65      C        0.76669    0.68352    0.39730    1.000
    C66      C        0.70559    0.74344    0.37486    1.000
    C67      C        0.75746    0.79388    0.41734    1.000
    C68      C        0.81675    0.73321    0.44167    1.000
    C69      C        0.70123    0.80004    0.38414    1.000
    C70      C        0.59318    0.96954    0.37150    1.000
    C71      C        0.55232    0.00797    0.41059    1.000
    C72      C        0.82328    0.67758    0.43100    1.000
    C73      C        0.59872    0.40128    0.90128    1.000
    C74      C        0.52077    0.47923    0.97923    1.000
    C75      C        0.40128    0.09872    0.59872    1.000
    C76      C        0.47923    0.02077    0.52077    1.000
    C77      C        0.40128    0.59872    0.09872    1.000
    C78      C        0.47923    0.52077    0.02077    1.000
    C79      C        0.59872    0.90128    0.40128    1.000
    C80      C        0.52077    0.97923    0.47923    1.000
    N1       N        0.63886    0.36114    0.86114    1.000
    N2       N        0.36114    0.13886    0.63886    1.000
    N3       N        0.36114    0.63886    0.13886    1.000
    N4       N        0.63886    0.86114    0.36114    1.000
    O1       O        0.93430    0.48890    0.61002    1.000
    O2       O        0.89114    0.44293    0.56423    1.000
    O3       O        0.53322    0.01110    0.88998    1.000
    O4       O        0.39830    0.05707    0.93577    1.000
    O5       O        0.46678    0.11002    0.98890    1.000
    O6       O        0.60170    0.06423    0.94293    1.000
    O7       O        0.06570    0.38998    0.51110    1.000
    O8       O        0.10886    0.43577    0.55707    1.000
    O9       O        0.06570    0.51110    0.38998    1.000
    O10      O        0.10886    0.55707    0.43577    1.000
    O11      O        0.46678    0.98890    0.11002    1.000
    O12      O        0.60170    0.94293    0.06423    1.000
    O13      O        0.53322    0.88998    0.01110    1.000
    O14      O        0.39830    0.93577    0.05707    1.000
    O15      O        0.93430    0.61002    0.48890    1.000
    O16      O        0.89114    0.56423    0.44293    1.000
