data_functionalizedCrystal
_audit_creation_method	'EQeq! by Chris Wilmer'
_symmetry_space_group_name_H-M	'P1'
_symmetry_Int_Tables_number	1
_symmetry_cell_setting	triclinic
loop_
_symmetry_equiv_pos_as_xyz
  x,y,z
_cell_length_a	10.042
_cell_length_b	15.9029
_cell_length_c	24.753
_cell_angle_alpha	72.8858
_cell_angle_beta	78.2967
_cell_angle_gamma	71.5952
loop_
_atom_site_label
_atom_site_type_symbol
_atom_site_fract_x
_atom_site_fract_y
_atom_site_fract_z
_atom_site_charge
Mof_Ni	Ni	0.97281	0.14757	0.72877	1.118
Mof_Ni	Ni	0.15085	0.64757	0.22877	1.119
Mof_Ni	Ni	0.84915	0.35243	0.77123	1.119
Mof_Ni	Ni	0.02719	0.85243	0.27123	1.118
Mof_H 	H 	0.5371	0.3051	0.6383	0.106
Mof_H 	H 	0.992	0.3279	0.4361	0.08
Mof_H 	H 	0.7551	0.4702	0.5466	0.075
Mof_H 	H 	0.731	0.2791	0.9019	0.019
Mof_H 	H 	0.5005	0.4502	0.7878	0.005
Mof_H 	H 	0.9838	0.3603	0.0571	0.058
Mof_H 	H 	0.5402	0.2862	0.9916	0.093
Mof_H 	H 	0.9455	0.4335	0.5949	0.043
Mof_H 	H 	0.9446	0.6241	0.0373	0.062
Mof_H 	H 	0.9125	0.617	0.1704	0.007
Mof_H 	H 	0.4805	0.1949	0.8617	0.106
Mof_H 	H 	0.7003	0.1624	0.5218	0.085
Mof_H 	H 	0.5194	0.2405	0.3503	0.001
Mof_H 	H 	0.4628	0.9771	0.3737	0.084
Mof_H 	H 	0.6999	0.883	0.3296	0.006
Mof_H 	H 	0.1036	0.5813	0.8611	0.081
Mof_H 	H 	0.0162	0.6397	0.9429	0.057
Mof_H 	H 	0.9541	0.2131	0.0131	0.029
Mof_H 	H 	0.7719	0.0298	0.9534	0.075
Mof_H 	H 	0.3242	0.3102	0.695	0.018
Mof_H 	H 	0.4806	0.7595	0.6497	0.001
Mof_H 	H 	0.5873	0.8207	0.0421	0.015
Mof_H 	H 	0.8136	0.5229	0.1263	0.084
Mof_H 	H 	0.5195	0.8051	0.1383	0.106
Mof_H 	H 	0.2716	0.447	0.2002	-0
Mof_H 	H 	0.422	0.9955	0.1105	0.107
Mof_H 	H 	0.088	0.7791	0.4019	0.017
Mof_H 	H 	0.6431	0.0216	0.084	0.055
Mof_H 	H 	0.6751	0.2329	0.4081	0.118
Mof_H 	H 	0.912	0.2209	0.5981	0.017
Mof_H 	H 	0.6155	0.6624	0.0218	0.085
Mof_H 	H 	0.394	0.1241	0.5373	0.061
Mof_H 	H 	0.6758	0.6898	0.305	0.018
Mof_H 	H 	0.4995	0.5498	0.2122	0.004
Mof_H 	H 	0.1864	0.4771	0.8737	0.084
Mof_H 	H 	0.454	0.0813	0.3611	0.081
Mof_H 	H 	0.9188	0.053	0.2998	0
Mof_H 	H 	0.546	0.9187	0.6389	0.081
Mof_H 	H 	0.818	0.2138	0.5084	0.092
Mof_H 	H 	0.3668	0.376	0.3118	0.09
Mof_H 	H 	0.244	0.8279	0.9361	0.08
Mof_H 	H 	0.0875	0.383	0.8296	0.006
Mof_H 	H 	0.6445	0.4643	0.4725	0.046
Mof_H 	H 	0.2303	0.9638	0.5172	0.066
Mof_H 	H 	0.578	0.0045	0.8895	0.107
Mof_H 	H 	0.5988	0.8603	0.5571	0.057
Mof_H 	H 	0.0261	0.9335	0.0949	0.04
Mof_H 	H 	0.1968	0.1536	0.9982	0.087
Mof_H 	H 	0.528	0.5045	0.3895	0.108
Mof_H 	H 	0.6514	0.6536	0.4982	0.085
Mof_H 	H 	0.472	0.4955	0.6105	0.108
Mof_H 	H 	0.6992	0.4086	0.9606	0.062
Mof_H 	H 	0.4012	0.1397	0.4429	0.057
Mof_H 	H 	0.8032	0.8464	0.0018	0.087
Mof_H 	H 	0.8964	0.4187	0.1389	0.081
Mof_H 	H 	0.5372	0.0229	0.6263	0.084
Mof_H 	H 	0.2281	0.9702	0.0466	0.075
Mof_H 	H 	0.8898	0.7405	0.8503	0.001
Mof_H 	H 	0.4629	0.6949	0.3617	0.105
Mof_H 	H 	0.7724	0.2002	0.771	0.336
Mof_H 	H 	0.4187	0.9643	0.9725	0.047
Mof_H 	H 	0.3008	0.5914	0.0394	0.062
Mof_H 	H 	0.7436	0.2998	0.729	0.336
Mof_H 	H 	0.6706	0.8102	0.195	0.017
Mof_H 	H 	0.9739	0.0665	0.9051	0.04
Mof_H 	H 	0.2449	0.5298	0.4534	0.074
Mof_H 	H 	0.7113	0.5362	0.9828	0.065
Mof_H 	H 	0.1803	0.2869	0.4869	0.031
Mof_H 	H 	0.7697	0.0362	0.4828	0.066
Mof_H 	H 	0.7284	0.553	0.7998	-0
Mof_H 	H 	0.9454	0.876	0.8118	0.09
Mof_H 	H 	0.0684	0.0914	0.5394	0.061
Mof_H 	H 	0.0812	0.947	0.7002	0
Mof_H 	H 	0.0546	0.124	0.1882	0.09
Mof_H 	H 	0.3001	0.117	0.6704	0.006
Mof_H 	H 	0.7385	0.0498	0.7122	0.003
Mof_H 	H 	0.182	0.7862	0.4916	0.092
Mof_H 	H 	0.3486	0.3464	0.5018	0.085
Mof_H 	H 	0.6839	0.7329	0.9081	0.118
Mof_H 	H 	0.3569	0.9784	0.916	0.055
Mof_H 	H 	0.4127	0.1793	0.9579	0.015
Mof_H 	H 	0.5499	0.3207	0.5421	0.017
Mof_H 	H 	0.9316	0.9086	0.4606	0.061
Mof_H 	H 	0.6332	0.624	0.6882	0.09
Mof_H 	H 	0.7487	0.4784	0.416	0.055
Mof_H 	H 	0.3555	0.5357	0.5275	0.046
Mof_H 	H 	0.3845	0.3376	0.9782	0.085
Mof_H 	H 	0.0545	0.5665	0.4051	0.042
Mof_H 	H 	0.269	0.7209	0.0981	0.018
Mof_H 	H 	0.2513	0.5216	0.584	0.055
Mof_H 	H 	0.8197	0.7131	0.5131	0.031
Mof_H 	H 	0.2997	0.8376	0.4782	0.085
Mof_H 	H 	0.2564	0.7002	0.271	0.336
Mof_H 	H 	0.2615	0.9502	0.2878	0.003
Mof_H 	H 	0.2276	0.7998	0.229	0.336
Mof_H 	H 	0.5813	0.0357	0.0275	0.047
Mof_H 	H 	0.756	0.1721	0.0639	0.08
Mof_H 	H 	0.0459	0.7869	0.9869	0.029
Mof_H 	H 	0.1102	0.2595	0.1497	0.001
Mof_H 	H 	0.4598	0.7138	0.0084	0.092
Mof_H 	H 	0.4501	0.6793	0.4579	0.017
Mof_H 	H 	0.3161	0.2671	0.0919	0.118
Mof_H 	H 	0.606	0.8759	0.4627	0.061
Mof_H 	H 	0.2887	0.4638	0.0172	0.065
Mof_H 	H 	0.0554	0.3759	0.9627	0.061
Mof_H 	H 	0.3249	0.7671	0.5919	0.118
Mof_H 	H 	0.008	0.6721	0.5639	0.079
Mof_H 	H 	0.3294	0.1898	0.805	0.017
Mof_C 	C 	0.3441	0.6791	0.1165	0.087
Mof_C 	C 	0.0326	0.4267	0.9777	-0.072
Mof_C 	C 	0.9048	0.6742	0.5016	-0.003
Mof_C 	C 	0.3889	0.1313	0.0953	0.22
Mof_C 	C 	0.7997	0.1506	0.0318	-0.108
Mof_C 	C 	0.5437	0.6868	0.3776	-0.147
Mof_C 	C 	0.4906	0.4232	0.986	0.078
Mof_C 	C 	0.6081	0.8132	0.1224	-0.151
Mof_C 	C 	0.2951	0.2113	0.1073	-0.218
Mof_C 	C 	0.8606	0.8745	0.8351	-0.13
Mof_C 	C 	0.8998	0.0768	0.514	0.076
Mof_C 	C 	0.3586	0.0486	0.1184	-0.184
Mof_C 	C 	0.6481	0.8234	0.065	0.07
Mof_C 	C 	0.1904	0.9345	0.0335	-0.113
Mof_C 	C 	0.16594	0.17472	0.867	-0.151
Mof_C 	C 	0.4946	0.9899	0.5585	0.07
Mof_C 	C 	0.4563	0.3132	0.6224	-0.147
Mof_C 	C 	0.9194	0.1742	0.0016	0.002
Mof_C 	C 	0.7926	0.1583	0.5303	-0.145
Mof_C 	C 	0.9908	0.5665	0.1721	0.104
Mof_C 	C 	0.5365	0.6766	0.435	0.066
Mof_C 	C 	0.08181	0.30738	0.6748	0.385
Mof_C 	C 	0.6559	0.3209	0.8835	0.087
Mof_C 	C 	0.6155	0.3687	0.4047	0.22
Mof_C 	C 	0.6414	0.9514	0.8816	-0.184
Mof_C 	C 	0.1831	0.474	0.1876	0.109
Mof_C 	C 	0.0694	0.9121	0.0627	0.011
Mof_C 	C 	0.2706	0.0665	0.6721	0.103
Mof_C 	C 	0.7976	0.046	0.8176	0.305
Mof_C 	C 	0.91819	0.69262	0.3252	0.385
Mof_C 	C 	0.618	0.4456	0.9764	-0.066
Mof_C 	C 	0.7657	0.0864	0.6774	0.099
Mof_C 	C 	0.563	0.9267	0.4777	-0.072
Mof_C 	C 	0.8169	0.526	0.8124	0.109
Mof_C 	C 	0.91463	0.64194	0.4548	-0.033
Mof_C 	C 	0.87407	0.83836	0.0743	0.108
Mof_C 	C 	0.5077	0.02	0.3784	-0.133
Mof_C 	C 	0.78673	0.66164	0.4257	0.102
Mof_C 	C 	0.3829	0.9351	0.9515	-0.044
Mof_C 	C 	0.9061	0.48	0.1216	-0.132
Mof_C 	C 	0.827	0.7937	0.8583	0.099
Mof_C 	C 	0.3746	0.4781	0.0099	-0.079
Mof_C 	C 	0.8447	0.026	0.3124	0.108
Mof_C 	C 	0.7305	0.4351	0.4515	-0.041
Mof_C 	C 	0.479	0.7063	0.6417	0.098
Mof_C 	C 	0.9558	0.4121	0.5627	0.005
Mof_C 	C 	0.3863	0.7113	0.6073	-0.218
Mof_C 	C 	0.8626	0.0219	0.4901	-0.083
Mof_C 	C 	0.699	0.8153	0.1563	0.077
Mof_C 	C 	0.1394	0.1255	0.1649	-0.13
Mof_C 	C 	0.6254	0.5219	0.9901	-0.079
Mof_C 	C 	0.9674	0.5733	0.0223	-0.072
Mof_C 	C 	0.21327	0.33836	0.5743	0.102
Mof_C 	C 	0.01137	0.85806	0.0452	-0.041
Mof_C 	C 	0.0952	0.3258	0.4984	-0.003
Mof_C 	C 	0.8096	0.0655	0.9665	-0.113
Mof_C 	C 	0.4312	0.4549	0.3465	0.024
Mof_C 	C 	0.5188	0.6583	0.0303	-0.146
Mof_C 	C 	0.3919	0.1868	0.8776	-0.151
Mof_C 	C 	0.4744	0.5486	0.6184	-0.185
Mof_C 	C 	0.1473	0.5944	0.514	0.078
Mof_C 	C 	0.3294	0.3153	0.6563	0.074
Mof_C 	C 	0.93601	0.80738	0.1748	0.389
Mof_C 	C 	0.382	0.5544	0.0236	-0.066
Mof_C 	C 	0.0092	0.4335	0.8279	0.104
Mof_C 	C 	0.96	0.9456	0.4764	-0.059
Mof_C 	C 	0.98863	0.14194	0.9548	-0.041
Mof_C 	C 	0.20766	0.32528	0.633	-0.147
Mof_C 	C 	0.6137	0.2887	0.3927	-0.218
Mof_C 	C 	0.5256	0.4514	0.3816	-0.185
Mof_C 	C 	0.9904	0.4171	0.0343	-0.076
Mof_C 	C 	0.6706	0.6847	0.3437	0.074
Mof_C 	C 	0.1584	0.5655	0.4665	-0.108
Mof_C 	C 	0.2695	0.5649	0.5485	-0.041
Mof_C 	C 	0.5094	0.5768	0.014	0.078
Mof_C 	C 	0.301	0.1847	0.8437	0.077
Mof_C 	C 	0.0179	0.6506	0.5318	-0.104
Mof_C 	C 	0.4923	0.98	0.6216	-0.133
Mof_C 	C 	0.1397	0.8209	0.3835	0.086
Mof_C 	C 	0.3429	0.3374	0.541	-0.155
Mof_C 	C 	0.0442	0.5879	0.4373	0.005
Mof_C 	C 	0.7674	0.9549	0.8465	0.026
Mof_C 	C 	0.06399	0.19262	0.8252	0.389
Mof_C 	C 	0.2557	0.9056	0.986	0.081
Mof_C 	C 	0.5054	0.0101	0.4415	0.07
Mof_C 	C 	0.4298	0.3745	0.3351	-0.13
Mof_C 	C 	0.6171	0.0649	0.0485	-0.044
Mof_C 	C 	0.2074	0.8417	0.4697	-0.145
Mof_C 	C 	0.521	0.2937	0.3583	0.098
Mof_C 	C 	0.83406	0.82528	0.133	-0.151
Mof_C 	C 	0.8416	0.4345	0.5335	-0.108
Mof_C 	C 	0.79234	0.67472	0.367	-0.147
Mof_C 	C 	0.1553	0.974	0.6876	0.108
Mof_C 	C 	0.957	0.4899	0.0585	0.07
Mof_C 	C 	0.7049	0.7887	0.8927	-0.218
Mof_C 	C 	0.6571	0.6626	0.459	-0.155
Mof_C 	C 	0.4705	0.5864	0.1774	0.099
Mof_C 	C 	0.1374	0.9781	0.5099	-0.083
Mof_C 	C 	0.437	0.0733	0.5223	-0.072
Mof_C 	C 	0.6111	0.8687	0.9047	0.22
Mof_C 	C 	0.043	0.5101	0.9415	0.07
Mof_C 	C 	0.2343	0.9136	0.3226	0.099
Mof_C 	C 	0.8603	0.1791	0.6165	0.086
Mof_C 	C 	0.2003	0.8494	0.9682	-0.108
Mof_C 	C 	0.3388	0.546	0.3176	0.307
Mof_C 	C 	0.5295	0.4136	0.8226	0.099
Mof_C 	C 	0.5582	0.9171	0.5343	-0.076
Mof_C 	C 	0.4635	0.3234	0.565	0.066
Mof_C 	C 	0.9821	0.3494	0.4682	-0.104
Mof_C 	C 	0.7294	0.9335	0.3279	0.103
Mof_C 	C 	0.4418	0.0829	0.4657	-0.076
Mof_C 	C 	0.5702	0.6255	0.6649	-0.13
Mof_C 	C 	0.5688	0.5451	0.6535	0.024
Mof_C 	C 	0.2024	0.954	0.1824	0.305
Mof_C 	C 	0.7787	0.8374	0.041	-0.159
Mof_C 	C 	0.6612	0.454	0.6824	0.307
Mof_C 	C 	0.1002	0.9232	0.486	0.076
Mof_C 	C 	0.3845	0.6313	0.5953	0.22
Mof_C 	C 	0.0806	0.8258	0.9984	0.002
Mof_C 	C 	0.12593	0.16164	0.9257	0.108
Mof_C 	C 	0.3519	0.1766	0.935	0.07
Mof_C 	C 	0.08537	0.35806	0.5452	-0.033
Mof_C 	C 	0.0096	0.5829	0.9657	-0.076
Mof_C 	C 	0.0939	0.52	0.8784	-0.132
Mof_C 	C 	0.9306	0.0879	0.9373	0.011
Mof_C 	C 	0.173	0.2063	0.1417	0.099
Mof_C 	C 	0.2326	0.0451	0.1535	0.026
Mof_C 	C 	0.04	0.0544	0.5236	-0.059
Mof_C 	C 	0.2213	0.1626	0.959	-0.159
Mof_C 	C 	0.8527	0.4056	0.486	0.078
Mof_C 	C 	0.4812	0.3417	0.9697	-0.146
Mof_C 	C 	0.7443	0.0944	0.014	0.081
Mof_N 	N 	0.89787	0.44553	0.80373	-0.225
Mof_N 	N 	0.78658	0.15004	0.5916	-0.077
Mof_N 	N 	0.65289	0.00252	0.3491	-0.083
Mof_N 	N 	0.14713	0.05447	0.69627	-0.223
Mof_N 	N 	0.34711	0.99748	0.6509	-0.083
Mof_N 	N 	0.85287	0.94553	0.30373	-0.223
Mof_N 	N 	0.14934	0.85979	0.32793	-0.223
Mof_N 	N 	0.33706	0.64021	0.17207	-0.222
Mof_N 	N 	0.86868	0.56404	0.8396	-0.099
Mof_N 	N 	0.27481	0.91038	0.3702	-0.099
Mof_N 	N 	0.10213	0.55447	0.19627	-0.225
Mof_N 	N 	0.00451	0.49748	0.1509	-0.083
Mof_N 	N 	0.47178	0.65004	0.0916	-0.077
Mof_N 	N 	0.85066	0.14021	0.67207	-0.223
Mof_N 	N 	0.99549	0.50252	0.8491	-0.083
Mof_N 	N 	0.21342	0.84996	0.4084	-0.077
Mof_N 	N 	0.72768	0.06404	0.3396	-0.099
Mof_N 	N 	0.72519	0.08962	0.6298	-0.099
Mof_N 	N 	0.52822	0.34996	0.9084	-0.077
Mof_N 	N 	0.13132	0.43596	0.1604	-0.099
Mof_N 	N 	0.44461	0.41038	0.8702	-0.099
Mof_N 	N 	0.27232	0.93596	0.6604	-0.099
Mof_N 	N 	0.55539	0.58962	0.1298	-0.099
Mof_N 	N 	0.66294	0.35979	0.82793	-0.222
Mof_O 	O 	0.90207	0.84968	0.21318	-0.403
Mof_O 	O 	0.96493	0.65032	0.28682	-0.402
Mof_O 	O 	0.03682	0.24684	0.66752	-0.421
Mof_O 	O 	0.95118	0.25316	0.83248	-0.425
Mof_O 	O 	0.2049	0.75	0.25	-0.855
Mof_O 	O 	0.91534	0.04228	0.78724	-0.403
Mof_O 	O 	0.7951	0.25	0.75	-0.855
Mof_O 	O 	0.70948	0.11704	0.8238	-0.315
Mof_O 	O 	0.65032	0.38296	0.6762	-0.315
Mof_O 	O 	0.48845	0.85588	0.94042	-0.227
Mof_O 	O 	0.04882	0.74684	0.16752	-0.425
Mof_O 	O 	0.28475	0.64412	0.55958	-0.227
Mof_O 	O 	0.09793	0.15032	0.78682	-0.403
Mof_O 	O 	0.96318	0.75316	0.33248	-0.421
Mof_O 	O 	0.03507	0.34968	0.71318	-0.402
Mof_O 	O 	0.71525	0.35588	0.44042	-0.227
Mof_O 	O 	0.29052	0.88296	0.1762	-0.315
Mof_O 	O 	0.34968	0.61704	0.3238	-0.315
Mof_O 	O 	0.25514	0.54228	0.28724	-0.403
Mof_O 	O 	0.74486	0.45772	0.71276	-0.403
Mof_O 	O 	0.51155	0.14412	0.05958	-0.227
Mof_O 	O 	0.08466	0.95772	0.21276	-0.403
_end
