data_functionalizedCrystal
_audit_creation_method	'EQeq! by Chris Wilmer'
_symmetry_space_group_name_H-M	'P1'
_symmetry_Int_Tables_number	1
_symmetry_cell_setting	triclinic
loop_
_symmetry_equiv_pos_as_xyz
  x,y,z
_cell_length_a	10.0103
_cell_length_b	9.9896
_cell_length_c	12.852
_cell_angle_alpha	90
_cell_angle_beta	91.113
_cell_angle_gamma	90
loop_
_atom_site_label
_atom_site_type_symbol
_atom_site_fract_x
_atom_site_fract_y
_atom_site_fract_z
_atom_site_charge
Mof_Co	Co	0.3711	0.0494	0.5463	1.162
Mof_Co	Co	0.1183	0.8009	0.5497	1.197
Mof_Co	Co	0.1289	0.0434	0.956	1.169
Mof_Co	Co	0.3761	0.7931	0.9465	1.199
Mof_Co	Co	0.2516	0.9053	0.249	1.203
Mof_P 	P 	0.113	0.7623	0.062	0.572
Mof_P 	P 	0.3968	0.055	0.0746	0.429
Mof_P 	P 	0.1011	0.0609	0.4217	0.505
Mof_P 	P 	0.2468	0.9356	0.7502	0.623
Mof_P 	P 	0.3928	0.778	0.4384	0.568
Mof_O 	O 	0.2989	0.7386	0.5251	-0.444
Mof_O 	O 	0.3328	0.7596	0.3326	-0.428
Mof_O 	O 	0.4834	0.1752	0.0846	-0.418
Mof_O 	O 	0.1253	0.8961	0.6797	-0.396
Mof_O 	O 	0.4406	0.9666	0.9847	-0.371
Mof_O 	O 	0.1983	0.1074	0.5081	-0.49
Mof_O 	O 	0.2972	0.8145	0.8098	-0.431
Mof_O 	O 	0.1043	0.8173	0.1711	-0.405
Mof_O 	O 	0.3598	0.9926	0.6851	-0.379
Mof_O 	O 	0.2593	0.7196	0.0452	-0.452
Mof_O 	O 	0.4365	0.9234	0.4509	-0.41
Mof_O 	O 	0.4095	0.9758	0.1746	-0.33
Mof_O 	O 	0.1704	0.0568	0.3191	-0.475
Mof_O 	O 	0.2007	0.046	0.8224	-0.522
Mof_O 	O 	0.0693	0.8672	0.9824	-0.423
Mof_O 	O 	0.0534	0.9207	0.4438	-0.396
Mof_O 	O 	0.517	0.6919	0.4532	-0.42
Mof_O 	O 	0.9903	0.1589	0.4105	-0.432
Mof_O 	O 	0.023	0.6432	0.0485	-0.427
Mof_O 	O 	0.2532	0.1018	0.0591	-0.475
Mof_Co	Co	0.6289	0.5494	0.4537	1.212
Mof_Co	Co	0.8817	0.3009	0.4503	1.189
Mof_Co	Co	0.8711	0.5434	0.044	1.21
Mof_Co	Co	0.6239	0.2931	0.0535	1.194
Mof_Co	Co	0.7484	0.4053	0.751	1.178
Mof_P 	P 	0.887	0.2623	0.938	0.563
Mof_P 	P 	0.6032	0.555	0.9254	0.562
Mof_P 	P 	0.8989	0.5609	0.5783	0.591
Mof_P 	P 	0.7532	0.4356	0.2498	0.551
Mof_P 	P 	0.6072	0.278	0.5616	0.568
Mof_O 	O 	0.7011	0.2386	0.4749	-0.467
Mof_O 	O 	0.6672	0.2596	0.6674	-0.452
Mof_O 	O 	0.5166	0.6752	0.9154	-0.414
Mof_O 	O 	0.8747	0.3961	0.3203	-0.42
Mof_O 	O 	0.5594	0.4666	0.0153	-0.452
Mof_O 	O 	0.8017	0.6074	0.4919	-0.458
Mof_O 	O 	0.7028	0.3145	0.1902	-0.441
Mof_O 	O 	0.8957	0.3173	0.8289	-0.433
Mof_O 	O 	0.6402	0.4926	0.3149	-0.43
Mof_O 	O 	0.7407	0.2196	0.9548	-0.483
Mof_O 	O 	0.5635	0.4234	0.5491	-0.464
Mof_O 	O 	0.5905	0.4758	0.8254	-0.422
Mof_O 	O 	0.8296	0.5568	0.6809	-0.429
Mof_O 	O 	0.7993	0.546	0.1776	-0.429
Mof_O 	O 	0.9307	0.3672	0.0176	-0.457
Mof_O 	O 	0.9466	0.4207	0.5562	-0.473
Mof_O 	O 	0.483	0.1919	0.5468	-0.451
Mof_O 	O 	0.0097	0.6589	0.5895	-0.432
Mof_O 	O 	0.977	0.1432	0.9515	-0.451
Mof_O 	O 	0.7468	0.6018	0.9409	-0.463
_end
