data_functionalizedCrystal
_audit_creation_method	'EQeq! by Chris Wilmer'
_symmetry_space_group_name_H-M	'P1'
_symmetry_Int_Tables_number	1
_symmetry_cell_setting	triclinic
loop_
_symmetry_equiv_pos_as_xyz
  x,y,z
_cell_length_a	12.5175
_cell_length_b	17.86
_cell_length_c	12.3435
_cell_angle_alpha	90
_cell_angle_beta	112.601
_cell_angle_gamma	90
loop_
_atom_site_label
_atom_site_type_symbol
_atom_site_fract_x
_atom_site_fract_y
_atom_site_fract_z
_atom_site_charge
Mof_O 	O 	0.99822	0.0775	0.37195	-0.398
Mof_O 	O 	0.14158	0.04259	0.3159	-0.309
Mof_C 	C 	0.0555	0.08329	0.3079	0.303
Mof_C 	C 	0.0161	0.14214	0.2128	-0.171
Mof_C 	C 	0.9184	0.18521	0.1973	0.117
Mof_H 	H 	0.8788	0.1787	0.2487	0.011
Mof_C 	C 	0.8782	0.2379	0.1068	-0.141
Mof_C 	C 	0.9386	0.24859	0.0332	0.048
Mof_H 	H 	0.9122	0.2845	0.9719	0.053
Mof_C 	C 	0.0377	0.2064	0.0502	-0.117
Mof_C 	C 	0.076	0.15366	0.1397	0.056
Mof_H 	H 	0.1436	0.1252	0.1512	0.019
Mof_C 	C 	0.7716	0.28265	0.0907	0.344
Mof_O 	O 	0.73383	0.32823	0.00439	-0.336
Mof_O 	O 	0.72582	0.27172	0.16384	-0.475
Mof_C 	C 	0.1006	0.21637	0.9692	0.147
Mof_H 	H 	0.0888	0.2675	0.9358	0.001
Mof_H 	H 	0.1846	0.2077	0.0114	-0.032
Mof_O 	O 	0.0511	0.1611	0.87773	-0.254
Mof_C 	C 	0.1018	0.15274	0.7982	0.18
Mof_C 	C 	0.0506	0.09924	0.7121	-0.141
Mof_H 	H 	0.9843	0.0735	0.7125	0.094
Mof_N 	N 	0.09035	0.08235	0.62886	-0.213
Mof_C 	C 	0.1844	0.11884	0.6293	0.026
Mof_H 	H 	0.2141	0.1066	0.5713	0.005
Mof_C 	C 	0.2397	0.1738	0.7115	-0.062
Mof_C 	C 	0.1966	0.1926	0.7973	-0.118
Mof_H 	H 	0.2309	0.2312	0.8527	0.081
Mof_C 	C 	0.3467	0.21287	0.7108	0.317
Mof_O 	O 	0.39737	0.18194	0.65209	-0.471
Mof_O 	O 	0.37613	0.2725	0.76881	-0.315
Mof_Co	Co	0.56249	0.29553	0.1574	1.057
Mof_O 	O 	0.00178	0.5775	0.12805	-0.475
Mof_O 	O 	0.85842	0.54259	0.1841	-0.293
Mof_C 	C 	0.9445	0.58329	0.1921	0.346
Mof_C 	C 	0.9839	0.64214	0.2872	-0.002
Mof_C 	C 	0.0816	0.68521	0.3027	-0.077
Mof_H 	H 	0.1212	0.6787	0.2513	0.062
Mof_C 	C 	0.1218	0.7379	0.3932	-0.029
Mof_C 	C 	0.0614	0.74859	0.4668	-0.137
Mof_H 	H 	0.0878	0.7845	0.5281	0.077
Mof_C 	C 	0.9623	0.7064	0.4498	0.122
Mof_C 	C 	0.924	0.65366	0.3603	-0.093
Mof_H 	H 	0.8564	0.6252	0.3488	0.08
Mof_C 	C 	0.2284	0.78265	0.4093	0.301
Mof_O 	O 	0.26617	0.82823	0.49561	-0.305
Mof_O 	O 	0.27418	0.77172	0.33616	-0.463
Mof_C 	C 	0.8994	0.71637	0.5308	-0.069
Mof_H 	H 	0.9112	0.7675	0.5642	0.068
Mof_H 	H 	0.8154	0.7077	0.4886	0.053
Mof_O 	O 	0.9489	0.6611	0.62227	-0.176
Mof_C 	C 	0.8982	0.65274	0.7018	0.11
Mof_C 	C 	0.9494	0.59924	0.7879	0.023
Mof_H 	H 	0.0157	0.5735	0.7875	0.003
Mof_N 	N 	0.90965	0.58235	0.87114	-0.212
Mof_C 	C 	0.8156	0.61884	0.8707	0.049
Mof_H 	H 	0.7859	0.6066	0.9287	0.018
Mof_C 	C 	0.7603	0.6738	0.7885	-0.081
Mof_C 	C 	0.8034	0.6926	0.7027	-0.072
Mof_H 	H 	0.7691	0.7312	0.6473	0.061
Mof_C 	C 	0.6533	0.71287	0.7892	0.322
Mof_O 	O 	0.60263	0.68194	0.84791	-0.461
Mof_O 	O 	0.62387	0.7725	0.73119	-0.316
Mof_Co	Co	0.43751	0.79553	0.3426	1.063
Mof_O 	O 	0.00178	0.9225	0.62805	-0.44
Mof_O 	O 	0.85842	0.95741	0.6841	-0.26
Mof_C 	C 	0.9445	0.91671	0.6921	0.339
Mof_C 	C 	0.9839	0.85786	0.7872	0.009
Mof_C 	C 	0.0816	0.81479	0.8027	-0.067
Mof_H 	H 	0.1212	0.8213	0.7513	0.066
Mof_C 	C 	0.1218	0.7621	0.8932	-0.04
Mof_C 	C 	0.0614	0.75141	0.9668	-0.086
Mof_H 	H 	0.0878	0.7155	0.0281	0.036
Mof_C 	C 	0.9623	0.7936	0.9498	0.154
Mof_C 	C 	0.924	0.84634	0.8603	-0.107
Mof_H 	H 	0.8564	0.8748	0.8488	0.097
Mof_C 	C 	0.2284	0.71735	0.9093	0.31
Mof_O 	O 	0.26617	0.67177	0.99561	-0.302
Mof_O 	O 	0.27418	0.72828	0.83616	-0.459
Mof_C 	C 	0.8994	0.78363	0.0308	-0.161
Mof_H 	H 	0.9112	0.7325	0.0642	0.088
Mof_H 	H 	0.8154	0.7923	0.9886	0.101
Mof_O 	O 	0.9489	0.8389	0.12227	-0.16
Mof_C 	C 	0.8982	0.84726	0.2018	0.103
Mof_C 	C 	0.9494	0.90076	0.2879	0.029
Mof_H 	H 	0.0157	0.9265	0.2875	0.013
Mof_N 	N 	0.90965	0.91765	0.37114	-0.208
Mof_C 	C 	0.8156	0.88116	0.3707	0.053
Mof_H 	H 	0.7859	0.8934	0.4287	0.015
Mof_C 	C 	0.7603	0.8262	0.2885	-0.086
Mof_C 	C 	0.8034	0.8074	0.2027	-0.065
Mof_H 	H 	0.7691	0.7688	0.1473	0.052
Mof_C 	C 	0.6533	0.78713	0.2892	0.325
Mof_O 	O 	0.60263	0.81806	0.34791	-0.465
Mof_O 	O 	0.62387	0.7275	0.23119	-0.33
Mof_Co	Co	0.43751	0.70447	0.8426	1.067
Mof_O 	O 	0.99822	0.4225	0.87195	-0.377
Mof_O 	O 	0.14158	0.45741	0.8159	-0.277
Mof_C 	C 	0.0555	0.41671	0.8079	0.302
Mof_C 	C 	0.0161	0.35786	0.7128	-0.144
Mof_C 	C 	0.9184	0.31479	0.6973	0.106
Mof_H 	H 	0.8788	0.3213	0.7487	0.021
Mof_C 	C 	0.8782	0.2621	0.6068	-0.136
Mof_C 	C 	0.9386	0.25141	0.5332	0.067
Mof_H 	H 	0.9122	0.2155	0.4719	0.026
Mof_C 	C 	0.0377	0.2936	0.5502	-0.06
Mof_C 	C 	0.076	0.34634	0.6397	0.026
Mof_H 	H 	0.1436	0.3748	0.6512	0.041
Mof_C 	C 	0.7716	0.21735	0.5907	0.346
Mof_O 	O 	0.73383	0.17177	0.50439	-0.331
Mof_O 	O 	0.72582	0.22828	0.66384	-0.47
Mof_C 	C 	0.1006	0.28363	0.4692	0.034
Mof_H 	H 	0.0888	0.2325	0.4358	0.024
Mof_H 	H 	0.1846	0.2923	0.5114	0.024
Mof_O 	O 	0.0511	0.3389	0.37773	-0.236
Mof_C 	C 	0.1018	0.34726	0.2982	0.171
Mof_C 	C 	0.0506	0.40076	0.2121	-0.137
Mof_H 	H 	0.9843	0.4265	0.2125	0.104
Mof_N 	N 	0.09035	0.41765	0.12886	-0.211
Mof_C 	C 	0.1844	0.38116	0.1293	0.029
Mof_H 	H 	0.2141	0.3934	0.0713	0.001
Mof_C 	C 	0.2397	0.3262	0.2115	-0.066
Mof_C 	C 	0.1966	0.3074	0.2973	-0.111
Mof_H 	H 	0.2309	0.2688	0.3527	0.072
Mof_C 	C 	0.3467	0.28713	0.2108	0.32
Mof_O 	O 	0.39737	0.31806	0.15209	-0.475
Mof_O 	O 	0.37613	0.2275	0.26881	-0.328
Mof_Co	Co	0.56249	0.20447	0.6574	1.061
Mof_Co	Co	-2.23124e-17	0	0.5	1.074
Mof_Co	Co	-0	0.5	-0	1.086
_end
