data_functionalizedCrystal
_audit_creation_method	'EQeq! by Chris Wilmer'
_symmetry_space_group_name_H-M	'P1'
_symmetry_Int_Tables_number	1
_symmetry_cell_setting	triclinic
loop_
_symmetry_equiv_pos_as_xyz
  x,y,z
_cell_length_a	14.3712
_cell_length_b	18.1258
_cell_length_c	19.907
_cell_angle_alpha	90.9918
_cell_angle_beta	90
_cell_angle_gamma	90
loop_
_atom_site_label
_atom_site_type_symbol
_atom_site_fract_x
_atom_site_fract_y
_atom_site_fract_z
_atom_site_charge
Mof_Fe	Fe	0.81523	0.70107	0.40928	0.884
Mof_Fe	Fe	0.05234	0.75041	0.42522	0.914
Mof_Fe	Fe	0.19936	0.80318	0.5624	0.878
Mof_Fe	Fe	0.31523	0.79893	0.09072	0.884
Mof_Fe	Fe	0.55234	0.74959	0.07478	0.913
Mof_Fe	Fe	0.69936	0.69682	0.9376	0.879
Mof_Fe	Fe	0.18477	0.29893	0.59072	0.884
Mof_Fe	Fe	0.94766	0.24959	0.57478	0.914
Mof_Fe	Fe	0.80064	0.19682	0.4376	0.878
Mof_Fe	Fe	0.68477	0.20107	0.90928	0.884
Mof_Fe	Fe	0.44766	0.25041	0.92522	0.913
Mof_Fe	Fe	0.30064	0.30318	0.0624	0.879
Mof_H 	H 	0.1335	0.5345	0.4236	0.028
Mof_H 	H 	0.8132	0.9647	0.481	0.024
Mof_H 	H 	0.8693	0.4622	0.401	0.03
Mof_H 	H 	0.9953	0.0332	0.6231	0.03
Mof_H 	H 	0.9818	0.8163	0.5715	0.028
Mof_H 	H 	0.4395	0.7072	0.4655	0.045
Mof_H 	H 	0.2967	0.7462	0.2969	0.013
Mof_H 	H 	0.5731	0.7062	0.2881	0.026
Mof_H 	H 	0.0748	0.3202	0.447	0.032
Mof_H 	H 	0.6335	0.9655	0.0764	0.025
Mof_H 	H 	0.3132	0.5353	0.019	0.023
Mof_H 	H 	0.3693	0.0378	0.099	0.029
Mof_H 	H 	0.4953	0.4668	0.8769	0.027
Mof_H 	H 	0.4818	0.6837	0.9285	0.028
Mof_H 	H 	0.9395	0.7928	0.0345	0.045
Mof_H 	H 	0.7967	0.7538	0.2031	0.013
Mof_H 	H 	0.0731	0.7938	0.2119	0.026
Mof_H 	H 	0.5748	0.1798	0.053	0.031
Mof_H 	H 	0.8665	0.4655	0.5764	0.028
Mof_H 	H 	0.1868	0.0353	0.519	0.024
Mof_H 	H 	0.1307	0.5378	0.599	0.03
Mof_H 	H 	0.0047	0.9668	0.3769	0.03
Mof_H 	H 	0.0182	0.1837	0.4285	0.028
Mof_H 	H 	0.5605	0.2928	0.5345	0.045
Mof_H 	H 	0.7033	0.2538	0.7031	0.013
Mof_H 	H 	0.4269	0.2938	0.7119	0.026
Mof_H 	H 	0.9252	0.6798	0.553	0.032
Mof_H 	H 	0.3665	0.0345	0.9236	0.025
Mof_H 	H 	0.6868	0.4647	0.981	0.023
Mof_H 	H 	0.6307	0.9622	0.901	0.029
Mof_H 	H 	0.5047	0.5332	0.1231	0.027
Mof_H 	H 	0.5182	0.3163	0.0715	0.028
Mof_H 	H 	0.0605	0.2072	0.9655	0.045
Mof_H 	H 	0.2033	0.2462	0.7969	0.013
Mof_H 	H 	0.9269	0.2062	0.7881	0.026
Mof_H 	H 	0.4252	0.8202	0.947	0.031
Mof_C 	C 	0.0893	0.4955	0.424	0.064
Mof_C 	C 	0.9961	0.5112	0.4121	-0.146
Mof_C 	C 	0.9012	0.0105	0.5501	-0.14
Mof_C 	C 	0.0764	0.9025	0.6548	0.354
Mof_C 	C 	0.8609	0.954	0.5124	0.065
Mof_C 	C 	0.9328	0.4531	0.4113	0.068
Mof_C 	C 	0.4322	0.7409	0.2052	0.377
Mof_C 	C 	0.9688	0.9944	0.5969	0.06
Mof_C 	C 	0.2678	0.7375	0.4271	0.4
Mof_C 	C 	0.8904	0.8813	0.5204	-0.133
Mof_C 	C 	0.4337	0.7283	0.28	-0.153
Mof_C 	C 	0.9605	0.8656	0.5669	0.062
Mof_C 	C 	0.4382	0.7118	0.4181	0.079
Mof_C 	C 	0.3549	0.7272	0.3867	-0.156
Mof_C 	C 	0.52	0.7029	0.3821	-0.134
Mof_C 	C 	0.3539	0.7354	0.3185	0.076
Mof_C 	C 	0.5174	0.7116	0.3134	0.07
Mof_C 	C 	0.9637	0.5895	0.4063	0.383
Mof_C 	C 	0.8544	0.821	0.4768	0.352
Mof_C 	C 	0.8776	0.0905	0.5353	0.391
Mof_C 	C 	0.9989	0.9221	0.6063	-0.129
Mof_C 	C 	0.6085	0.687	0.417	0.355
Mof_C 	C 	0.1193	0.4246	0.4365	-0.125
Mof_C 	C 	0.0551	0.3689	0.4376	0.062
Mof_C 	C 	0.2188	0.4101	0.4519	0.326
Mof_C 	C 	0.961	0.3827	0.4251	-0.124
Mof_C 	C 	0.8941	0.3192	0.4279	0.342
Mof_C 	C 	0.5893	0.0045	0.076	0.071
Mof_C 	C 	0.4961	0.9888	0.0879	-0.151
Mof_C 	C 	0.4012	0.4895	0.9499	-0.146
Mof_C 	C 	0.5764	0.5975	0.8452	0.354
Mof_C 	C 	0.3609	0.546	0.9876	0.07
Mof_C 	C 	0.4328	0.0469	0.0887	0.072
Mof_C 	C 	0.9322	0.7591	0.2948	0.376
Mof_C 	C 	0.4688	0.5056	0.9031	0.067
Mof_C 	C 	0.7678	0.7625	0.0729	0.4
Mof_C 	C 	0.3904	0.6187	0.9796	-0.135
Mof_C 	C 	0.9337	0.7717	0.22	-0.154
Mof_C 	C 	0.4605	0.6344	0.9331	0.064
Mof_C 	C 	0.9382	0.7882	0.0819	0.077
Mof_C 	C 	0.8549	0.7728	0.1133	-0.156
Mof_C 	C 	0.02	0.7971	0.1179	-0.133
Mof_C 	C 	0.8539	0.7646	0.1815	0.076
Mof_C 	C 	0.0174	0.7884	0.1866	0.071
Mof_C 	C 	0.4637	0.9105	0.0937	0.386
Mof_C 	C 	0.3544	0.679	0.0232	0.353
Mof_C 	C 	0.3776	0.4095	0.9647	0.392
Mof_C 	C 	0.4989	0.5779	0.8937	-0.131
Mof_C 	C 	0.1085	0.813	0.083	0.355
Mof_C 	C 	0.6193	0.0754	0.0635	-0.128
Mof_C 	C 	0.5551	0.1311	0.0624	0.065
Mof_C 	C 	0.7188	0.0899	0.0481	0.327
Mof_C 	C 	0.461	0.1173	0.0749	-0.127
Mof_C 	C 	0.3941	0.1808	0.0721	0.343
Mof_C 	C 	0.9107	0.5045	0.576	0.064
Mof_C 	C 	0.0039	0.4888	0.5879	-0.146
Mof_C 	C 	0.0988	0.9895	0.4499	-0.14
Mof_C 	C 	0.9236	0.0975	0.3452	0.354
Mof_C 	C 	0.1391	0.046	0.4876	0.065
Mof_C 	C 	0.0672	0.5469	0.5887	0.068
Mof_C 	C 	0.5678	0.2591	0.7948	0.377
Mof_C 	C 	0.0312	0.0056	0.4031	0.06
Mof_C 	C 	0.7322	0.2625	0.5729	0.4
Mof_C 	C 	0.1096	0.1187	0.4796	-0.133
Mof_C 	C 	0.5663	0.2717	0.72	-0.153
Mof_C 	C 	0.0395	0.1344	0.4331	0.062
Mof_C 	C 	0.5618	0.2882	0.5819	0.079
Mof_C 	C 	0.6451	0.2728	0.6133	-0.156
Mof_C 	C 	0.48	0.2971	0.6179	-0.134
Mof_C 	C 	0.6461	0.2646	0.6815	0.076
Mof_C 	C 	0.4826	0.2884	0.6866	0.07
Mof_C 	C 	0.0363	0.4105	0.5937	0.383
Mof_C 	C 	0.1456	0.179	0.5232	0.352
Mof_C 	C 	0.1224	0.9095	0.4647	0.391
Mof_C 	C 	0.0011	0.0779	0.3937	-0.129
Mof_C 	C 	0.3915	0.313	0.583	0.355
Mof_C 	C 	0.8807	0.5754	0.5635	-0.125
Mof_C 	C 	0.9449	0.6311	0.5624	0.062
Mof_C 	C 	0.7812	0.5899	0.5481	0.326
Mof_C 	C 	0.039	0.6173	0.5749	-0.124
Mof_C 	C 	0.1059	0.6808	0.5721	0.342
Mof_C 	C 	0.4107	0.9955	0.924	0.071
Mof_C 	C 	0.5039	0.0112	0.9121	-0.151
Mof_C 	C 	0.5988	0.5105	0.0501	-0.146
Mof_C 	C 	0.4236	0.4025	0.1548	0.354
Mof_C 	C 	0.6391	0.454	0.0124	0.07
Mof_C 	C 	0.5672	0.9531	0.9113	0.072
Mof_C 	C 	0.0678	0.2409	0.7052	0.376
Mof_C 	C 	0.5312	0.4944	0.0969	0.067
Mof_C 	C 	0.2322	0.2375	0.9271	0.4
Mof_C 	C 	0.6096	0.3813	0.0204	-0.135
Mof_C 	C 	0.0663	0.2283	0.78	-0.154
Mof_C 	C 	0.5395	0.3656	0.0669	0.064
Mof_C 	C 	0.0618	0.2118	0.9181	0.077
Mof_C 	C 	0.1451	0.2272	0.8867	-0.156
Mof_C 	C 	0.98	0.2029	0.8821	-0.133
Mof_C 	C 	0.1461	0.2354	0.8185	0.076
Mof_C 	C 	0.9826	0.2116	0.8134	0.071
Mof_C 	C 	0.5363	0.0895	0.9063	0.386
Mof_C 	C 	0.6456	0.321	0.9768	0.353
Mof_C 	C 	0.6224	0.5905	0.0353	0.392
Mof_C 	C 	0.5011	0.4221	0.1063	-0.131
Mof_C 	C 	0.8915	0.187	0.917	0.355
Mof_C 	C 	0.3807	0.9246	0.9365	-0.128
Mof_C 	C 	0.4449	0.8689	0.9376	0.065
Mof_C 	C 	0.2812	0.9101	0.9519	0.327
Mof_C 	C 	0.539	0.8827	0.9251	-0.127
Mof_C 	C 	0.6059	0.8192	0.9279	0.343
Mof_O 	O 	0.6823	0.6842	0.382	-0.359
Mof_O 	O 	0.908	0.7654	0.4638	-0.42
Mof_O 	O 	0.1922	0.7333	0.3972	-0.377
Mof_O 	O 	0.507	0.7322	0.173	-0.37
Mof_O 	O 	0.7746	0.8221	0.4536	-0.313
Mof_O 	O 	0.8773	0.6007	0.4008	-0.388
Mof_O 	O 	0.2796	0.7519	0.4886	-0.363
Mof_O 	O 	0.2367	0.3466	0.4789	-0.247
Mof_O 	O 	0.3542	0.7593	0.1813	-0.39
Mof_O 	O 	0.025	0.6385	0.4102	-0.383
Mof_O 	O 	0.8173	0.102	0.4911	-0.385
Mof_O 	O 	0.9238	0.138	0.5666	-0.386
Mof_O 	O 	0.124	0.8458	0.6436	-0.341
Mof_O 	O 	0.279	0.454	0.4397	-0.236
Mof_O 	O 	0.0873	0.9447	0.7043	-0.261
Mof_O 	O 	0.6054	0.6772	0.4787	-0.224
Mof_O 	O 	0.9126	0.2667	0.4688	-0.407
Mof_O 	O 	0.8248	0.3166	0.3906	-0.292
Mof_O 	O 	0.3255	0.8288	0.6139	-0.214
Mof_O 	O 	0.1823	0.8158	0.118	-0.359
Mof_O 	O 	0.408	0.7346	0.0362	-0.42
Mof_O 	O 	0.6922	0.7667	0.1028	-0.377
Mof_O 	O 	0.007	0.7678	0.327	-0.369
Mof_O 	O 	0.2746	0.6779	0.0464	-0.313
Mof_O 	O 	0.3773	0.8993	0.0992	-0.388
Mof_O 	O 	0.7796	0.7481	0.0114	-0.363
Mof_O 	O 	0.7367	0.1534	0.0211	-0.247
Mof_O 	O 	0.8542	0.7407	0.3187	-0.39
Mof_O 	O 	0.525	0.8615	0.0898	-0.384
Mof_O 	O 	0.3173	0.398	0.0089	-0.385
Mof_O 	O 	0.4238	0.362	0.9334	-0.387
Mof_O 	O 	0.624	0.6542	0.8564	-0.341
Mof_O 	O 	0.779	0.046	0.0603	-0.235
Mof_O 	O 	0.5873	0.5553	0.7957	-0.262
Mof_O 	O 	0.1054	0.8228	0.0213	-0.224
Mof_O 	O 	0.4126	0.2333	0.0312	-0.408
Mof_O 	O 	0.3248	0.1834	0.1094	-0.292
Mof_O 	O 	0.8255	0.6712	0.8861	-0.214
Mof_O 	O 	0.3177	0.3158	0.618	-0.359
Mof_O 	O 	0.092	0.2346	0.5362	-0.42
Mof_O 	O 	0.8078	0.2667	0.6028	-0.377
Mof_O 	O 	0.493	0.2678	0.827	-0.37
Mof_O 	O 	0.2254	0.1779	0.5464	-0.313
Mof_O 	O 	0.1227	0.3993	0.5992	-0.388
Mof_O 	O 	0.7204	0.2481	0.5114	-0.363
Mof_O 	O 	0.7633	0.6534	0.5211	-0.247
Mof_O 	O 	0.6458	0.2407	0.8187	-0.39
Mof_O 	O 	0.975	0.3615	0.5898	-0.383
Mof_O 	O 	0.1827	0.898	0.5089	-0.385
Mof_O 	O 	0.0762	0.862	0.4334	-0.386
Mof_O 	O 	0.876	0.1542	0.3564	-0.341
Mof_O 	O 	0.721	0.546	0.5603	-0.236
Mof_O 	O 	0.9127	0.0553	0.2957	-0.261
Mof_O 	O 	0.3946	0.3228	0.5213	-0.224
Mof_O 	O 	0.0874	0.7333	0.5312	-0.407
Mof_O 	O 	0.1752	0.6834	0.6094	-0.292
Mof_O 	O 	0.6745	0.1712	0.3861	-0.214
Mof_O 	O 	0.8177	0.1842	0.882	-0.359
Mof_O 	O 	0.592	0.2654	0.9638	-0.42
Mof_O 	O 	0.3078	0.2333	0.8972	-0.377
Mof_O 	O 	0.993	0.2322	0.673	-0.369
Mof_O 	O 	0.7254	0.3221	0.9536	-0.313
Mof_O 	O 	0.6227	0.1007	0.9008	-0.388
Mof_O 	O 	0.2204	0.2519	0.9886	-0.363
Mof_O 	O 	0.2633	0.8466	0.9789	-0.247
Mof_O 	O 	0.1458	0.2593	0.6813	-0.39
Mof_O 	O 	0.475	0.1385	0.9102	-0.384
Mof_O 	O 	0.6827	0.602	0.9911	-0.385
Mof_O 	O 	0.5762	0.638	0.0666	-0.387
Mof_O 	O 	0.376	0.3458	0.1436	-0.341
Mof_O 	O 	0.221	0.954	0.9397	-0.235
Mof_O 	O 	0.4127	0.4447	0.2043	-0.262
Mof_O 	O 	0.8946	0.1772	0.9787	-0.224
Mof_O 	O 	0.5874	0.7667	0.9688	-0.408
Mof_O 	O 	0.6752	0.8166	0.8906	-0.292
Mof_O 	O 	0.1745	0.3288	0.1139	-0.214
Mof_H 	H 	0.7076	0.9031	0.3623	0.164
Mof_H 	H 	0.7833	0.869	0.3116	0.164
Mof_H 	H 	0.7923	0.9528	0.3373	0.165
Mof_H 	H 	0.584	0.8673	0.2788	0.141
Mof_H 	H 	0.5953	0.8948	0.2033	0.15
Mof_H 	H 	0.6648	0.834	0.232	0.156
Mof_H 	H 	0.5962	0.9971	0.3196	0.142
Mof_H 	H 	0.684	0.0452	0.2973	0.163
Mof_H 	H 	0.6062	0.0223	0.2433	0.145
Mof_H 	H 	0.7945	0.9081	0.1994	0.165
Mof_H 	H 	0.7231	0.9673	0.1703	0.167
Mof_H 	H 	0.801	0.9928	0.2231	0.182
Mof_C 	C 	0.7486	0.9137	0.3243	-0.397
Mof_C 	C 	0.6288	0.8785	0.2433	-0.373
Mof_C 	C 	0.6403	0.0064	0.2832	-0.376
Mof_C 	C 	0.7586	0.9528	0.21	-0.402
Mof_N 	N 	0.6925	0.9378	0.267	0.064
Mof_H 	H 	0.2406	0.8558	0.2829	0.156
Mof_H 	H 	0.1691	0.9159	0.3123	0.156
Mof_H 	H 	0.1942	0.9145	0.234	0.16
Mof_H 	H 	0.399	0.8955	0.2471	0.139
Mof_H 	H 	0.355	0.9552	0.198	0.155
Mof_H 	H 	0.4276	0.9805	0.2548	0.133
Mof_H 	H 	0.3582	0.8977	0.3676	0.142
Mof_H 	H 	0.3877	0.9828	0.3709	0.138
Mof_H 	H 	0.2868	0.9583	0.3961	0.148
Mof_H 	H 	0.238	0.0446	0.2405	0.157
Mof_H 	H 	0.2146	0.0479	0.3191	0.153
Mof_H 	H 	0.3153	0.072	0.2931	0.152
Mof_C 	C 	0.2186	0.9068	0.2793	-0.38
Mof_C 	C 	0.3767	0.9465	0.2439	-0.36
Mof_C 	C 	0.336	0.9485	0.3631	-0.362
Mof_C 	C 	0.2633	0.0379	0.2857	-0.378
Mof_N 	N 	0.2976	0.9588	0.2926	0.047
Mof_H 	H 	0.2076	0.5969	0.1377	0.165
Mof_H 	H 	0.2833	0.631	0.1884	0.165
Mof_H 	H 	0.2923	0.5472	0.1627	0.166
Mof_H 	H 	0.084	0.6327	0.2212	0.141
Mof_H 	H 	0.0953	0.6052	0.2967	0.151
Mof_H 	H 	0.1648	0.666	0.268	0.156
Mof_H 	H 	0.0962	0.5029	0.1804	0.143
Mof_H 	H 	0.184	0.4548	0.2027	0.164
Mof_H 	H 	0.1062	0.4777	0.2567	0.146
Mof_H 	H 	0.2945	0.5919	0.3006	0.166
Mof_H 	H 	0.2231	0.5327	0.3297	0.168
Mof_H 	H 	0.301	0.5072	0.2769	0.183
Mof_C 	C 	0.2486	0.5863	0.1757	-0.398
Mof_C 	C 	0.1288	0.6215	0.2567	-0.374
Mof_C 	C 	0.1403	0.4936	0.2168	-0.38
Mof_C 	C 	0.2586	0.5472	0.29	-0.403
Mof_N 	N 	0.1925	0.5622	0.233	0.065
Mof_H 	H 	0.7406	0.6442	0.2171	0.156
Mof_H 	H 	0.6691	0.5841	0.1877	0.156
Mof_H 	H 	0.6942	0.5855	0.266	0.16
Mof_H 	H 	0.899	0.6045	0.2529	0.139
Mof_H 	H 	0.855	0.5448	0.302	0.155
Mof_H 	H 	0.9276	0.5195	0.2452	0.133
Mof_H 	H 	0.8582	0.6023	0.1324	0.142
Mof_H 	H 	0.8877	0.5172	0.1291	0.138
Mof_H 	H 	0.7868	0.5417	0.1039	0.147
Mof_H 	H 	0.738	0.4554	0.2595	0.157
Mof_H 	H 	0.7146	0.4521	0.1809	0.153
Mof_H 	H 	0.8153	0.428	0.2069	0.152
Mof_C 	C 	0.7186	0.5932	0.2207	-0.38
Mof_C 	C 	0.8767	0.5535	0.2561	-0.36
Mof_C 	C 	0.836	0.5515	0.1369	-0.362
Mof_C 	C 	0.7633	0.4621	0.2143	-0.377
Mof_N 	N 	0.7976	0.5412	0.2074	0.046
Mof_H 	H 	0.2924	0.0969	0.6377	0.164
Mof_H 	H 	0.2167	0.131	0.6884	0.164
Mof_H 	H 	0.2077	0.0472	0.6627	0.165
Mof_H 	H 	0.416	0.1327	0.7212	0.141
Mof_H 	H 	0.4047	0.1052	0.7967	0.15
Mof_H 	H 	0.3352	0.166	0.768	0.156
Mof_H 	H 	0.4038	0.0029	0.6804	0.142
Mof_H 	H 	0.316	0.9548	0.7027	0.163
Mof_H 	H 	0.3938	0.9777	0.7567	0.145
Mof_H 	H 	0.2055	0.0919	0.8006	0.165
Mof_H 	H 	0.2769	0.0327	0.8297	0.167
Mof_H 	H 	0.199	0.0072	0.7769	0.182
Mof_C 	C 	0.2514	0.0863	0.6757	-0.397
Mof_C 	C 	0.3712	0.1215	0.7567	-0.373
Mof_C 	C 	0.3597	0.9936	0.7168	-0.376
Mof_C 	C 	0.2414	0.0472	0.79	-0.402
Mof_N 	N 	0.3075	0.0622	0.733	0.064
Mof_H 	H 	0.7594	0.1442	0.7171	0.156
Mof_H 	H 	0.8309	0.0841	0.6877	0.156
Mof_H 	H 	0.8058	0.0855	0.766	0.16
Mof_H 	H 	0.601	0.1045	0.7529	0.139
Mof_H 	H 	0.645	0.0448	0.802	0.155
Mof_H 	H 	0.5724	0.0195	0.7452	0.133
Mof_H 	H 	0.6418	0.1023	0.6324	0.142
Mof_H 	H 	0.6123	0.0172	0.6291	0.138
Mof_H 	H 	0.7132	0.0417	0.6039	0.148
Mof_H 	H 	0.762	0.9554	0.7595	0.157
Mof_H 	H 	0.7854	0.9521	0.6809	0.153
Mof_H 	H 	0.6847	0.928	0.7069	0.152
Mof_C 	C 	0.7814	0.0932	0.7207	-0.38
Mof_C 	C 	0.6233	0.0535	0.7561	-0.36
Mof_C 	C 	0.664	0.0515	0.6369	-0.362
Mof_C 	C 	0.7367	0.9621	0.7143	-0.378
Mof_N 	N 	0.7024	0.0412	0.7074	0.047
Mof_H 	H 	0.7924	0.4031	0.8623	0.165
Mof_H 	H 	0.7167	0.369	0.8116	0.165
Mof_H 	H 	0.7077	0.4528	0.8373	0.166
Mof_H 	H 	0.916	0.3673	0.7788	0.141
Mof_H 	H 	0.9047	0.3948	0.7033	0.151
Mof_H 	H 	0.8352	0.334	0.732	0.156
Mof_H 	H 	0.9038	0.4971	0.8196	0.143
Mof_H 	H 	0.816	0.5452	0.7973	0.164
Mof_H 	H 	0.8938	0.5223	0.7433	0.146
Mof_H 	H 	0.7055	0.4081	0.6994	0.166
Mof_H 	H 	0.7769	0.4673	0.6703	0.168
Mof_H 	H 	0.699	0.4928	0.7231	0.183
Mof_C 	C 	0.7514	0.4137	0.8243	-0.398
Mof_C 	C 	0.8712	0.3785	0.7433	-0.374
Mof_C 	C 	0.8597	0.5064	0.7832	-0.38
Mof_C 	C 	0.7414	0.4528	0.71	-0.403
Mof_N 	N 	0.8075	0.4378	0.767	0.065
Mof_H 	H 	0.2594	0.3558	0.7829	0.156
Mof_H 	H 	0.3309	0.4159	0.8123	0.156
Mof_H 	H 	0.3058	0.4145	0.734	0.16
Mof_H 	H 	0.101	0.3955	0.7471	0.139
Mof_H 	H 	0.145	0.4552	0.698	0.155
Mof_H 	H 	0.0724	0.4805	0.7548	0.133
Mof_H 	H 	0.1418	0.3977	0.8676	0.142
Mof_H 	H 	0.1123	0.4828	0.8709	0.138
Mof_H 	H 	0.2132	0.4583	0.8961	0.147
Mof_H 	H 	0.262	0.5446	0.7405	0.157
Mof_H 	H 	0.2854	0.5479	0.8191	0.153
Mof_H 	H 	0.1847	0.572	0.7931	0.152
Mof_C 	C 	0.2814	0.4068	0.7793	-0.38
Mof_C 	C 	0.1233	0.4465	0.7439	-0.36
Mof_C 	C 	0.164	0.4485	0.8631	-0.362
Mof_C 	C 	0.2367	0.5379	0.7857	-0.377
Mof_N 	N 	0.2024	0.4588	0.7926	0.046
_end
