# CIF file generated by openbabel 3.1.0, see https://openbabel.org
data_I
_chemical_name_common 'image0'
_cell_length_a 23.2667
_cell_length_b 15.2352
_cell_length_c 16.8347
_cell_angle_alpha 90
_cell_angle_beta 90
_cell_angle_gamma 90
_space_group_name_H-M_alt 'P 1'
_space_group_name_Hall 'P 1'
loop_
    _symmetry_equiv_pos_as_xyz
    x,y,z
loop_
    _atom_site_label
    _atom_site_type_symbol
    _atom_site_fract_x
    _atom_site_fract_y
    _atom_site_fract_z
    _atom_site_occupancy
    Zn1      Zn       0.01173    0.58342    0.24360    1.000
    O1       O        0.95280    0.66890    0.26570    1.000
    O2       O        0.90390    0.62350    0.16280    1.000
    O3       O        0.59810    0.34940    0.17600    1.000
    O4       O        0.57530    0.34400    0.30120    1.000
    O5       O        0.78810    0.02570    0.36020    1.000
    N1       N        0.76800    0.97660    0.23800    1.000
    H1       H        0.74820    0.98600    0.19570    1.000
    N2       N        0.00790    0.99830    0.83940    1.000
    N3       N        0.00760    0.49210    0.15400    1.000
    C1       C        0.64610    0.24570    0.25780    1.000
    C2       C        0.67430    0.20900    0.19540    1.000
    H2       H        0.66810    0.23040    0.14440    1.000
    C3       C        0.71200    0.14010    0.20710    1.000
    H3       H        0.73130    0.11610    0.16390    1.000
    C4       C        0.72110    0.10770    0.27950    1.000
    C5       C        0.69520    0.14580    0.34350    1.000
    H4       H        0.70310    0.12580    0.39450    1.000
    C6       C        0.65720    0.21420    0.33230    1.000
    H5       H        0.63890    0.23920    0.37600    1.000
    C7       C        0.80440    0.90190    0.23880    1.000
    C8       C        0.79670    0.84450    0.17740    1.000
    H6       H        0.76830    0.85450    0.13960    1.000
    C9       C        0.83230    0.76990    0.17190    1.000
    H7       H        0.82610    0.73010    0.13090    1.000
    C10      C        0.87470    0.75460    0.22420    1.000
    C11      C        0.88540    0.81630    0.27910    1.000
    H8       H        0.91640    0.80970    0.31350    1.000
    C12      C        0.84990    0.89100    0.28510    1.000
    H9       H        0.85860    0.93390    0.32250    1.000
    C13      C        0.60380    0.31960    0.24090    1.000
    C14      C        0.91260    0.67360    0.22120    1.000
    C15      C        0.76240    0.03150    0.29540    1.000
    C16      C        0.04620    0.48640    0.09900    1.000
    H10      H        0.07570    0.52770    0.09760    1.000
    C17      C        0.04510    0.42020    0.04160    1.000
    H11      H        0.07330    0.41880    0.00240    1.000
    C18      C        0.00320    0.35780    0.04250    1.000
    C19      C        0.96280    0.36420    0.10090    1.000
    H12      H        0.93310    0.32340    0.10330    1.000
    C20      C        0.96560    0.43110    0.15680    1.000
    H13      H        0.93810    0.43390    0.19680    1.000
    C21      C        0.00180    0.28410    0.98230    1.000
    H14      H        0.03550    0.28790    0.94860    1.000
    H15      H        0.96810    0.29060    0.94890    1.000
    C22      C        0.00030    0.19430    0.02220    1.000
    H16      H        0.03310    0.18820    0.05750    1.000
    H17      H        0.96560    0.18870    0.05360    1.000
    C23      C        0.00200    0.12260    0.95910    1.000
    C24      C        0.05420    0.09650    0.92780    1.000
    H18      H        0.08820    0.12060    0.94690    1.000
    C25      C        0.05570    0.03460    0.86810    1.000
    H19      H        0.09100    0.01780    0.84720    1.000
    C26      C        0.95920    0.01980    0.87380    1.000
    H20      H        0.92600    0.99110    0.85700    1.000
    C27      C        0.95360    0.08150    0.93270    1.000
    H21      H        0.91780    0.09490    0.95410    1.000
    Zn2      Zn       0.51173    0.41658    0.25640    1.000
    O6       O        0.45280    0.33110    0.23430    1.000
    O7       O        0.40390    0.37650    0.33720    1.000
    O8       O        0.09810    0.65060    0.32400    1.000
    O9       O        0.07530    0.65600    0.19880    1.000
    O10      O        0.28810    0.97430    0.13980    1.000
    N4       N        0.26800    0.02340    0.26200    1.000
    H22      H        0.24820    0.01400    0.30430    1.000
    N5       N        0.50790    0.00170    0.66060    1.000
    N6       N        0.50760    0.50790    0.34600    1.000
    C28      C        0.14610    0.75430    0.24220    1.000
    C29      C        0.17430    0.79100    0.30460    1.000
    H23      H        0.16810    0.76960    0.35560    1.000
    C30      C        0.21200    0.85990    0.29290    1.000
    H24      H        0.23130    0.88390    0.33610    1.000
    C31      C        0.22110    0.89230    0.22050    1.000
    C32      C        0.19520    0.85420    0.15650    1.000
    H25      H        0.20310    0.87420    0.10550    1.000
    C33      C        0.15720    0.78580    0.16770    1.000
    H26      H        0.13890    0.76080    0.12400    1.000
    C34      C        0.30440    0.09810    0.26120    1.000
    C35      C        0.29670    0.15550    0.32260    1.000
    H27      H        0.26830    0.14550    0.36040    1.000
    C36      C        0.33230    0.23010    0.32810    1.000
    H28      H        0.32610    0.26990    0.36910    1.000
    C37      C        0.37470    0.24540    0.27580    1.000
    C38      C        0.38540    0.18370    0.22090    1.000
    H29      H        0.41640    0.19030    0.18650    1.000
    C39      C        0.34990    0.10900    0.21490    1.000
    H30      H        0.35860    0.06610    0.17750    1.000
    C40      C        0.10380    0.68040    0.25910    1.000
    C41      C        0.41260    0.32640    0.27880    1.000
    C42      C        0.26240    0.96850    0.20460    1.000
    C43      C        0.54620    0.51360    0.40100    1.000
    H31      H        0.57570    0.47230    0.40240    1.000
    C44      C        0.54510    0.57980    0.45840    1.000
    H32      H        0.57330    0.58120    0.49760    1.000
    C45      C        0.50320    0.64220    0.45750    1.000
    C46      C        0.46280    0.63580    0.39910    1.000
    H33      H        0.43310    0.67660    0.39670    1.000
    C47      C        0.46560    0.56890    0.34320    1.000
    H34      H        0.43810    0.56610    0.30320    1.000
    C48      C        0.50180    0.71590    0.51770    1.000
    H35      H        0.53550    0.71210    0.55140    1.000
    H36      H        0.46810    0.70940    0.55110    1.000
    C49      C        0.50030    0.80570    0.47780    1.000
    H37      H        0.53310    0.81180    0.44250    1.000
    H38      H        0.46560    0.81130    0.44640    1.000
    C50      C        0.50200    0.87740    0.54090    1.000
    C51      C        0.55420    0.90350    0.57220    1.000
    H39      H        0.58820    0.87940    0.55310    1.000
    C52      C        0.55570    0.96540    0.63190    1.000
    H40      H        0.59100    0.98220    0.65280    1.000
    C53      C        0.45920    0.98020    0.62620    1.000
    H41      H        0.42600    0.00890    0.64300    1.000
    C54      C        0.45360    0.91850    0.56730    1.000
    H42      H        0.41780    0.90510    0.54590    1.000
    Zn3      Zn       0.51173    0.08342    0.75640    1.000
    O11      O        0.45280    0.16890    0.73430    1.000
    O12      O        0.40390    0.12350    0.83720    1.000
    O13      O        0.09810    0.84940    0.82400    1.000
    O14      O        0.07530    0.84400    0.69880    1.000
    O15      O        0.28810    0.52570    0.63980    1.000
    N7       N        0.26800    0.47660    0.76200    1.000
    H43      H        0.24820    0.48600    0.80430    1.000
    N8       N        0.50790    0.49830    0.16060    1.000
    N9       N        0.50760    0.99210    0.84600    1.000
    C55      C        0.14610    0.74570    0.74220    1.000
    C56      C        0.17430    0.70900    0.80460    1.000
    H44      H        0.16810    0.73040    0.85560    1.000
    C57      C        0.21200    0.64010    0.79290    1.000
    H45      H        0.23130    0.61610    0.83610    1.000
    C58      C        0.22110    0.60770    0.72050    1.000
    C59      C        0.19520    0.64580    0.65650    1.000
    H46      H        0.20310    0.62580    0.60550    1.000
    C60      C        0.15720    0.71420    0.66770    1.000
    H47      H        0.13890    0.73920    0.62400    1.000
    C61      C        0.30440    0.40190    0.76120    1.000
    C62      C        0.29670    0.34450    0.82260    1.000
    H48      H        0.26830    0.35450    0.86040    1.000
    C63      C        0.33230    0.26990    0.82810    1.000
    H49      H        0.32610    0.23010    0.86910    1.000
    C64      C        0.37470    0.25460    0.77580    1.000
    C65      C        0.38540    0.31630    0.72090    1.000
    H50      H        0.41640    0.30970    0.68650    1.000
    C66      C        0.34990    0.39100    0.71490    1.000
    H51      H        0.35860    0.43390    0.67750    1.000
    C67      C        0.10380    0.81960    0.75910    1.000
    C68      C        0.41260    0.17360    0.77880    1.000
    C69      C        0.26240    0.53150    0.70460    1.000
    C70      C        0.54620    0.98640    0.90100    1.000
    H52      H        0.57570    0.02770    0.90240    1.000
    C71      C        0.54510    0.92020    0.95840    1.000
    H53      H        0.57330    0.91880    0.99760    1.000
    C72      C        0.50320    0.85780    0.95750    1.000
    C73      C        0.46280    0.86420    0.89910    1.000
    H54      H        0.43310    0.82340    0.89670    1.000
    C74      C        0.46560    0.93110    0.84320    1.000
    H55      H        0.43810    0.93390    0.80320    1.000
    C75      C        0.50180    0.78410    0.01770    1.000
    H56      H        0.53550    0.78790    0.05140    1.000
    H57      H        0.46810    0.79060    0.05110    1.000
    C76      C        0.50030    0.69430    0.97780    1.000
    H58      H        0.53310    0.68820    0.94250    1.000
    H59      H        0.46560    0.68870    0.94640    1.000
    C77      C        0.50200    0.62260    0.04090    1.000
    C78      C        0.55420    0.59650    0.07220    1.000
    H60      H        0.58820    0.62060    0.05310    1.000
    C79      C        0.55570    0.53460    0.13190    1.000
    H61      H        0.59100    0.51780    0.15280    1.000
    C80      C        0.45920    0.51980    0.12620    1.000
    H62      H        0.42600    0.49110    0.14300    1.000
    C81      C        0.45360    0.58150    0.06730    1.000
    H63      H        0.41780    0.59490    0.04590    1.000
    Zn4      Zn       0.01173    0.91658    0.74360    1.000
    O16      O        0.95280    0.83110    0.76570    1.000
    O17      O        0.90390    0.87650    0.66280    1.000
    O18      O        0.59810    0.15060    0.67600    1.000
    O19      O        0.57530    0.15600    0.80120    1.000
    O20      O        0.78810    0.47430    0.86020    1.000
    N10      N        0.76800    0.52340    0.73800    1.000
    H64      H        0.74820    0.51400    0.69570    1.000
    N11      N        0.00790    0.50170    0.33940    1.000
    N12      N        0.00760    0.00790    0.65400    1.000
    C82      C        0.64610    0.25430    0.75780    1.000
    C83      C        0.67430    0.29100    0.69540    1.000
    H65      H        0.66810    0.26960    0.64440    1.000
    C84      C        0.71200    0.35990    0.70710    1.000
    H66      H        0.73130    0.38390    0.66390    1.000
    C85      C        0.72110    0.39230    0.77950    1.000
    C86      C        0.69520    0.35420    0.84350    1.000
    H67      H        0.70310    0.37420    0.89450    1.000
    C87      C        0.65720    0.28580    0.83230    1.000
    H68      H        0.63890    0.26080    0.87600    1.000
    C88      C        0.80440    0.59810    0.73880    1.000
    C89      C        0.79670    0.65550    0.67740    1.000
    H69      H        0.76830    0.64550    0.63960    1.000
    C90      C        0.83230    0.73010    0.67190    1.000
    H70      H        0.82610    0.76990    0.63090    1.000
    C91      C        0.87470    0.74540    0.72420    1.000
    C92      C        0.88540    0.68370    0.77910    1.000
    H71      H        0.91640    0.69030    0.81350    1.000
    C93      C        0.84990    0.60900    0.78510    1.000
    H72      H        0.85860    0.56610    0.82250    1.000
    C94      C        0.60380    0.18040    0.74090    1.000
    C95      C        0.91260    0.82640    0.72120    1.000
    C96      C        0.76240    0.46850    0.79540    1.000
    C97      C        0.04620    0.01360    0.59900    1.000
    H73      H        0.07570    0.97230    0.59760    1.000
    C98      C        0.04510    0.07980    0.54160    1.000
    H74      H        0.07330    0.08120    0.50240    1.000
    C99      C        0.00320    0.14220    0.54250    1.000
    C100     C        0.96280    0.13580    0.60090    1.000
    H75      H        0.93310    0.17660    0.60330    1.000
    C101     C        0.96560    0.06890    0.65680    1.000
    H76      H        0.93810    0.06610    0.69680    1.000
    C102     C        0.00180    0.21590    0.48230    1.000
    H77      H        0.03550    0.21210    0.44860    1.000
    H78      H        0.96810    0.20940    0.44890    1.000
    C103     C        0.00030    0.30570    0.52220    1.000
    H79      H        0.03310    0.31180    0.55750    1.000
    H80      H        0.96560    0.31130    0.55360    1.000
    C104     C        0.00200    0.37740    0.45910    1.000
    C105     C        0.05420    0.40350    0.42780    1.000
    H81      H        0.08820    0.37940    0.44690    1.000
    C106     C        0.05570    0.46540    0.36810    1.000
    H82      H        0.09100    0.48220    0.34720    1.000
    C107     C        0.95920    0.48020    0.37380    1.000
    H83      H        0.92600    0.50890    0.35700    1.000
    C108     C        0.95360    0.41850    0.43270    1.000
    H84      H        0.91780    0.40510    0.45410    1.000
    Zn5      Zn       0.48827    0.91658    0.24360    1.000
    O21      O        0.54720    0.83110    0.26570    1.000
    O22      O        0.59610    0.87650    0.16280    1.000
    O23      O        0.90190    0.15060    0.17600    1.000
    O24      O        0.92470    0.15600    0.30120    1.000
    O25      O        0.71190    0.47430    0.36020    1.000
    N13      N        0.73200    0.52340    0.23800    1.000
    H85      H        0.75180    0.51400    0.19570    1.000
    N14      N        0.49210    0.50170    0.83940    1.000
    N15      N        0.49240    0.00790    0.15400    1.000
    C109     C        0.85390    0.25430    0.25780    1.000
    C110     C        0.82570    0.29100    0.19540    1.000
    H86      H        0.83190    0.26960    0.14440    1.000
    C111     C        0.78800    0.35990    0.20710    1.000
    H87      H        0.76870    0.38390    0.16390    1.000
    C112     C        0.77890    0.39230    0.27950    1.000
    C113     C        0.80480    0.35420    0.34350    1.000
    H88      H        0.79690    0.37420    0.39450    1.000
    C114     C        0.84280    0.28580    0.33230    1.000
    H89      H        0.86110    0.26080    0.37600    1.000
    C115     C        0.69560    0.59810    0.23880    1.000
    C116     C        0.70330    0.65550    0.17740    1.000
    H90      H        0.73170    0.64550    0.13960    1.000
    C117     C        0.66770    0.73010    0.17190    1.000
    H91      H        0.67390    0.76990    0.13090    1.000
    C118     C        0.62530    0.74540    0.22420    1.000
    C119     C        0.61460    0.68370    0.27910    1.000
    H92      H        0.58360    0.69030    0.31350    1.000
    C120     C        0.65010    0.60900    0.28510    1.000
    H93      H        0.64140    0.56610    0.32250    1.000
    C121     C        0.89620    0.18040    0.24090    1.000
    C122     C        0.58740    0.82640    0.22120    1.000
    C123     C        0.73760    0.46850    0.29540    1.000
    C124     C        0.45380    0.01360    0.09900    1.000
    H94      H        0.42430    0.97230    0.09760    1.000
    C125     C        0.45490    0.07980    0.04160    1.000
    H95      H        0.42670    0.08120    0.00240    1.000
    C126     C        0.49680    0.14220    0.04250    1.000
    C127     C        0.53720    0.13580    0.10090    1.000
    H96      H        0.56690    0.17660    0.10330    1.000
    C128     C        0.53440    0.06890    0.15680    1.000
    H97      H        0.56190    0.06610    0.19680    1.000
    C129     C        0.49820    0.21590    0.98230    1.000
    H98      H        0.46450    0.21210    0.94860    1.000
    H99      H        0.53190    0.20940    0.94890    1.000
    C130     C        0.49970    0.30570    0.02220    1.000
    H100     H        0.46690    0.31180    0.05750    1.000
    H101     H        0.53440    0.31130    0.05360    1.000
    C131     C        0.49800    0.37740    0.95910    1.000
    C132     C        0.44580    0.40350    0.92780    1.000
    H102     H        0.41180    0.37940    0.94690    1.000
    C133     C        0.44430    0.46540    0.86810    1.000
    H103     H        0.40900    0.48220    0.84720    1.000
    C134     C        0.54080    0.48020    0.87380    1.000
    H104     H        0.57400    0.50890    0.85700    1.000
    C135     C        0.54640    0.41850    0.93270    1.000
    H105     H        0.58220    0.40510    0.95410    1.000
    Zn6      Zn       0.98827    0.08342    0.25640    1.000
    O26      O        0.04720    0.16890    0.23430    1.000
    O27      O        0.09610    0.12350    0.33720    1.000
    O28      O        0.40190    0.84940    0.32400    1.000
    O29      O        0.42470    0.84400    0.19880    1.000
    O30      O        0.21190    0.52570    0.13980    1.000
    N16      N        0.23200    0.47660    0.26200    1.000
    H106     H        0.25180    0.48600    0.30430    1.000
    N17      N        0.99210    0.49830    0.66060    1.000
    N18      N        0.99240    0.99210    0.34600    1.000
    C136     C        0.35390    0.74570    0.24220    1.000
    C137     C        0.32570    0.70900    0.30460    1.000
    H107     H        0.33190    0.73040    0.35560    1.000
    C138     C        0.28800    0.64010    0.29290    1.000
    H108     H        0.26870    0.61610    0.33610    1.000
    C139     C        0.27890    0.60770    0.22050    1.000
    C140     C        0.30480    0.64580    0.15650    1.000
    H109     H        0.29690    0.62580    0.10550    1.000
    C141     C        0.34280    0.71420    0.16770    1.000
    H110     H        0.36110    0.73920    0.12400    1.000
    C142     C        0.19560    0.40190    0.26120    1.000
    C143     C        0.20330    0.34450    0.32260    1.000
    H111     H        0.23170    0.35450    0.36040    1.000
    C144     C        0.16770    0.26990    0.32810    1.000
    H112     H        0.17390    0.23010    0.36910    1.000
    C145     C        0.12530    0.25460    0.27580    1.000
    C146     C        0.11460    0.31630    0.22090    1.000
    H113     H        0.08360    0.30970    0.18650    1.000
    C147     C        0.15010    0.39100    0.21490    1.000
    H114     H        0.14140    0.43390    0.17750    1.000
    C148     C        0.39620    0.81960    0.25910    1.000
    C149     C        0.08740    0.17360    0.27880    1.000
    C150     C        0.23760    0.53150    0.20460    1.000
    C151     C        0.95380    0.98640    0.40100    1.000
    H115     H        0.92430    0.02770    0.40240    1.000
    C152     C        0.95490    0.92020    0.45840    1.000
    H116     H        0.92670    0.91880    0.49760    1.000
    C153     C        0.99680    0.85780    0.45750    1.000
    C154     C        0.03720    0.86420    0.39910    1.000
    H117     H        0.06690    0.82340    0.39670    1.000
    C155     C        0.03440    0.93110    0.34320    1.000
    H118     H        0.06190    0.93390    0.30320    1.000
    C156     C        0.99820    0.78410    0.51770    1.000
    H119     H        0.96450    0.78790    0.55140    1.000
    H120     H        0.03190    0.79060    0.55110    1.000
    C157     C        0.99970    0.69430    0.47780    1.000
    H121     H        0.96690    0.68820    0.44250    1.000
    H122     H        0.03440    0.68870    0.44640    1.000
    C158     C        0.99800    0.62260    0.54090    1.000
    C159     C        0.94580    0.59650    0.57220    1.000
    H123     H        0.91180    0.62060    0.55310    1.000
    C160     C        0.94430    0.53460    0.63190    1.000
    H124     H        0.90900    0.51780    0.65280    1.000
    C161     C        0.04080    0.51980    0.62620    1.000
    H125     H        0.07400    0.49110    0.64300    1.000
    C162     C        0.04640    0.58150    0.56730    1.000
    H126     H        0.08220    0.59490    0.54590    1.000
    Zn7      Zn       0.98827    0.41658    0.75640    1.000
    O31      O        0.04720    0.33110    0.73430    1.000
    O32      O        0.09610    0.37650    0.83720    1.000
    O33      O        0.40190    0.65060    0.82400    1.000
    O34      O        0.42470    0.65600    0.69880    1.000
    O35      O        0.21190    0.97430    0.63980    1.000
    N19      N        0.23200    0.02340    0.76200    1.000
    H127     H        0.25180    0.01400    0.80430    1.000
    N20      N        0.99210    0.00170    0.16060    1.000
    N21      N        0.99240    0.50790    0.84600    1.000
    C163     C        0.35390    0.75430    0.74220    1.000
    C164     C        0.32570    0.79100    0.80460    1.000
    H128     H        0.33190    0.76960    0.85560    1.000
    C165     C        0.28800    0.85990    0.79290    1.000
    H129     H        0.26870    0.88390    0.83610    1.000
    C166     C        0.27890    0.89230    0.72050    1.000
    C167     C        0.30480    0.85420    0.65650    1.000
    H130     H        0.29690    0.87420    0.60550    1.000
    C168     C        0.34280    0.78580    0.66770    1.000
    H131     H        0.36110    0.76080    0.62400    1.000
    C169     C        0.19560    0.09810    0.76120    1.000
    C170     C        0.20330    0.15550    0.82260    1.000
    H132     H        0.23170    0.14550    0.86040    1.000
    C171     C        0.16770    0.23010    0.82810    1.000
    H133     H        0.17390    0.26990    0.86910    1.000
    C172     C        0.12530    0.24540    0.77580    1.000
    C173     C        0.11460    0.18370    0.72090    1.000
    H134     H        0.08360    0.19030    0.68650    1.000
    C174     C        0.15010    0.10900    0.71490    1.000
    H135     H        0.14140    0.06610    0.67750    1.000
    C175     C        0.39620    0.68040    0.75910    1.000
    C176     C        0.08740    0.32640    0.77880    1.000
    C177     C        0.23760    0.96850    0.70460    1.000
    C178     C        0.95380    0.51360    0.90100    1.000
    H136     H        0.92430    0.47230    0.90240    1.000
    C179     C        0.95490    0.57980    0.95840    1.000
    H137     H        0.92670    0.58120    0.99760    1.000
    C180     C        0.99680    0.64220    0.95750    1.000
    C181     C        0.03720    0.63580    0.89910    1.000
    H138     H        0.06690    0.67660    0.89670    1.000
    C182     C        0.03440    0.56890    0.84320    1.000
    H139     H        0.06190    0.56610    0.80320    1.000
    C183     C        0.99820    0.71590    0.01770    1.000
    H140     H        0.96450    0.71210    0.05140    1.000
    H141     H        0.03190    0.70940    0.05110    1.000
    C184     C        0.99970    0.80570    0.97780    1.000
    H142     H        0.96690    0.81180    0.94250    1.000
    H143     H        0.03440    0.81130    0.94640    1.000
    C185     C        0.99800    0.87740    0.04090    1.000
    C186     C        0.94580    0.90350    0.07220    1.000
    H144     H        0.91180    0.87940    0.05310    1.000
    C187     C        0.94430    0.96540    0.13190    1.000
    H145     H        0.90900    0.98220    0.15280    1.000
    C188     C        0.04080    0.98020    0.12620    1.000
    H146     H        0.07400    0.00890    0.14300    1.000
    C189     C        0.04640    0.91850    0.06730    1.000
    H147     H        0.08220    0.90510    0.04590    1.000
    Zn8      Zn       0.48827    0.58342    0.74360    1.000
    O36      O        0.54720    0.66890    0.76570    1.000
    O37      O        0.59610    0.62350    0.66280    1.000
    O38      O        0.90190    0.34940    0.67600    1.000
    O39      O        0.92470    0.34400    0.80120    1.000
    O40      O        0.71190    0.02570    0.86020    1.000
    N22      N        0.73200    0.97660    0.73800    1.000
    H148     H        0.75180    0.98600    0.69570    1.000
    N23      N        0.49210    0.99830    0.33940    1.000
    N24      N        0.49240    0.49210    0.65400    1.000
    C190     C        0.85390    0.24570    0.75780    1.000
    C191     C        0.82570    0.20900    0.69540    1.000
    H149     H        0.83190    0.23040    0.64440    1.000
    C192     C        0.78800    0.14010    0.70710    1.000
    H150     H        0.76870    0.11610    0.66390    1.000
    C193     C        0.77890    0.10770    0.77950    1.000
    C194     C        0.80480    0.14580    0.84350    1.000
    H151     H        0.79690    0.12580    0.89450    1.000
    C195     C        0.84280    0.21420    0.83230    1.000
    H152     H        0.86110    0.23920    0.87600    1.000
    C196     C        0.69560    0.90190    0.73880    1.000
    C197     C        0.70330    0.84450    0.67740    1.000
    H153     H        0.73170    0.85450    0.63960    1.000
    C198     C        0.66770    0.76990    0.67190    1.000
    H154     H        0.67390    0.73010    0.63090    1.000
    C199     C        0.62530    0.75460    0.72420    1.000
    C200     C        0.61460    0.81630    0.77910    1.000
    H155     H        0.58360    0.80970    0.81350    1.000
    C201     C        0.65010    0.89100    0.78510    1.000
    H156     H        0.64140    0.93390    0.82250    1.000
    C202     C        0.89620    0.31960    0.74090    1.000
    C203     C        0.58740    0.67360    0.72120    1.000
    C204     C        0.73760    0.03150    0.79540    1.000
    C205     C        0.45380    0.48640    0.59900    1.000
    H157     H        0.42430    0.52770    0.59760    1.000
    C206     C        0.45490    0.42020    0.54160    1.000
    H158     H        0.42670    0.41880    0.50240    1.000
    C207     C        0.49680    0.35780    0.54250    1.000
    C208     C        0.53720    0.36420    0.60090    1.000
    H159     H        0.56690    0.32340    0.60330    1.000
    C209     C        0.53440    0.43110    0.65680    1.000
    H160     H        0.56190    0.43390    0.69680    1.000
    C210     C        0.49820    0.28410    0.48230    1.000
    H161     H        0.46450    0.28790    0.44860    1.000
    H162     H        0.53190    0.29060    0.44890    1.000
    C211     C        0.49970    0.19430    0.52220    1.000
    H163     H        0.46690    0.18820    0.55750    1.000
    H164     H        0.53440    0.18870    0.55360    1.000
    C212     C        0.49800    0.12260    0.45910    1.000
    C213     C        0.44580    0.09650    0.42780    1.000
    H165     H        0.41180    0.12060    0.44690    1.000
    C214     C        0.44430    0.03460    0.36810    1.000
    H166     H        0.40900    0.01780    0.34720    1.000
    C215     C        0.54080    0.01980    0.37380    1.000
    H167     H        0.57400    0.99110    0.35700    1.000
    C216     C        0.54640    0.08150    0.43270    1.000
    H168     H        0.58220    0.09490    0.45410    1.000
