data_functionalizedCrystal
_audit_creation_method	'EQeq! by Chris Wilmer'
_symmetry_space_group_name_H-M	'P1'
_symmetry_Int_Tables_number	1
_symmetry_cell_setting	triclinic
loop_
_symmetry_equiv_pos_as_xyz
  x,y,z
_cell_length_a	9.5384
_cell_length_b	12.1759
_cell_length_c	19.313
_cell_angle_alpha	101.152
_cell_angle_beta	100.351
_cell_angle_gamma	105.304
loop_
_atom_site_label
_atom_site_type_symbol
_atom_site_fract_x
_atom_site_fract_y
_atom_site_fract_z
_atom_site_charge
Mof_Co	Co	0.99594	0.4227	0.64661	1.165
Mof_Co	Co	0.00406	0.5773	0.35339	1.132
Mof_Co	Co	5.52269e-17	0.5	0.5	1.18
Mof_Co	Co	0.5	0	-0	1.102
Mof_H 	H 	0.1529	0.2575	0.2472	0.563
Mof_H 	H 	0.1295	0.3176	0.3219	0.582
Mof_H 	H 	0.2802	0.3664	0.3002	0.581
Mof_H 	H 	0.1733	0.0456	0.3442	0.517
Mof_H 	H 	0.0673	0.1237	0.3524	0.538
Mof_H 	H 	0.0855	0.0703	0.2751	0.546
Mof_H 	H 	0.33	0.1413	0.245	0.628
Mof_H 	H 	0.4573	0.2511	0.2971	0.64
Mof_H 	H 	0.4222	0.1299	0.3177	0.622
Mof_H 	H 	0.4948	0.4164	0.6145	-0.05
Mof_H 	H 	0.5513	0.298	0.4157	-0.11
Mof_H 	H 	0.14	0.2815	0.4415	-0.133
Mof_H 	H 	0.702	0.2071	0.2051	-0.033
Mof_H 	H 	0.5894	0.9146	0.2761	-0.116
Mof_H 	H 	0.8392	0.2203	0.4166	-0.102
Mof_H 	H 	0.7844	0.8619	0.3648	0.569
Mof_H 	H 	0.8289	0.8816	0.4495	0.552
Mof_H 	H 	0.9203	0.9698	0.4124	0.545
Mof_H 	H 	0.4916	0.9569	0.4134	0.526
Mof_H 	H 	0.5644	0.8791	0.4547	0.539
Mof_H 	H 	0.5302	0.8509	0.3696	0.559
Mof_H 	H 	0.8742	0.1301	0.5001	0.543
Mof_H 	H 	0.7709	0.0392	0.5313	0.504
Mof_H 	H 	0.7097	0.1309	0.4991	0.532
Mof_H 	H 	0.1579	0.298	0.7413	-0.017
Mof_H 	H 	0.1234	0.2	0.8298	0.103
Mof_H 	H 	0.6999	0.2065	0.7929	0.106
Mof_H 	H 	0.7444	0.301	0.7047	-0.028
Mof_H 	H 	0.1396	0.2454	0.9983	0.051
Mof_H 	H 	0.3487	0.1942	0.0395	0.008
Mof_H 	H 	0.1769	0.8838	0.9083	-0.028
Mof_H 	H 	0.9622	0.9247	0.8649	0.06
Mof_H 	H 	0.8471	0.7425	0.7528	0.626
Mof_H 	H 	0.8705	0.6824	0.6781	0.649
Mof_H 	H 	0.7198	0.6336	0.6998	0.637
Mof_H 	H 	0.8267	0.9544	0.6558	0.588
Mof_H 	H 	0.9327	0.8763	0.6476	0.619
Mof_H 	H 	0.9145	0.9297	0.7249	0.623
Mof_H 	H 	0.67	0.8587	0.755	0.681
Mof_H 	H 	0.5427	0.7489	0.7029	0.69
Mof_H 	H 	0.5778	0.8701	0.6823	0.675
Mof_H 	H 	0.5052	0.5836	0.3855	-0.055
Mof_H 	H 	0.4487	0.702	0.5843	-0.12
Mof_H 	H 	0.86	0.7185	0.5585	-0.13
Mof_H 	H 	0.298	0.7929	0.7949	0
Mof_H 	H 	0.4106	0.0854	0.7239	-0.05
Mof_H 	H 	0.1608	0.7797	0.5834	-0.065
Mof_H 	H 	0.2156	0.1381	0.6352	0.456
Mof_H 	H 	0.1711	0.1184	0.5505	0.432
Mof_H 	H 	0.0797	0.0302	0.5876	0.405
Mof_H 	H 	0.5084	0.0431	0.5866	0.421
Mof_H 	H 	0.4356	0.1209	0.5453	0.44
Mof_H 	H 	0.4698	0.1491	0.6304	0.463
Mof_H 	H 	0.1258	0.8699	0.4999	0.42
Mof_H 	H 	0.2291	0.9608	0.4687	0.398
Mof_H 	H 	0.2903	0.8691	0.5009	0.425
Mof_H 	H 	0.8421	0.702	0.2587	-0.027
Mof_H 	H 	0.8766	0.8	0.1702	0.083
Mof_H 	H 	0.3001	0.7935	0.2071	0.097
Mof_H 	H 	0.2556	0.699	0.2953	-0.025
Mof_H 	H 	0.8604	0.7546	0.0017	0.118
Mof_H 	H 	0.6513	0.8058	0.9605	-0.063
Mof_H 	H 	0.8231	0.1162	0.0917	-0.018
Mof_H 	H 	0.0378	0.0753	0.1351	0.003
Mof_C 	C 	0.2014	0.2966	0.2973	-1.865
Mof_C 	C 	0.1361	0.1029	0.3256	-1.82
Mof_C 	C 	0.3794	0.181	0.2949	-2.044
Mof_C 	C 	0.3017	0.3537	0.5346	-0.316
Mof_C 	C 	0.4555	0.3837	0.56483	0.22
Mof_C 	C 	0.5485	0.3638	0.51956	-0.319
Mof_C 	C 	0.4874	0.3103	0.44547	0.343
Mof_C 	C 	0.3337	0.2747	0.41479	-0.634
Mof_C 	C 	0.2425	0.3005	0.46079	0.338
Mof_C 	C 	0.1991	0.377	0.58223	0.375
Mof_C 	C 	0.716	0.3994	0.54584	0.425
Mof_C 	C 	0.2679	0.2133	0.3339	1.4
Mof_C 	C 	0.7868	0.2321	0.31275	-0.319
Mof_C 	C 	0.7057	0.1696	0.24271	0.207
Mof_C 	C 	0.6301	0.0503	0.22933	-0.33
Mof_C 	C 	0.6368	0.9951	0.28592	0.348
Mof_C 	C 	0.7133	0.0579	0.35733	-0.626
Mof_C 	C 	0.7876	0.1766	0.36954	0.332
Mof_C 	C 	0.8765	0.358	0.32851	0.392
Mof_C 	C 	0.5412	0.9818	0.15331	0.429
Mof_C 	C 	0.7174	0.9943	0.41871	1.311
Mof_C 	C 	0.8225	0.92	0.4106	-1.828
Mof_C 	C 	0.5614	0.9127	0.4136	-1.801
Mof_C 	C 	0.7733	0.0819	0.49444	-1.778
Mof_C 	C 	0.0646	0.2797	0.752	0.065
Mof_C 	C 	0.0451	0.2211	0.8056	-0.24
Mof_C 	C 	0.9077	0.1942	0.82298	0.144
Mof_C 	C 	0.7945	0.2248	0.7835	-0.211
Mof_C 	C 	0.8223	0.2818	0.73084	0.089
Mof_C 	C 	0.0286	0.091	0.92451	0.031
Mof_C 	C 	0.1451	0.1712	0.9785	-0.053
Mof_C 	C 	0.2706	0.1394	0.0029	-0.044
Mof_C 	C 	0.1701	0.9582	0.9266	0.097
Mof_C 	C 	0.0407	0.9823	0.8997	-0.161
Mof_C 	C 	0.7986	0.7034	0.7027	-2.033
Mof_C 	C 	0.8639	0.8971	0.6744	-2.011
Mof_C 	C 	0.6206	0.819	0.7051	-2.206
Mof_C 	C 	0.6983	0.6463	0.4654	-0.326
Mof_C 	C 	0.5445	0.6163	0.43517	0.229
Mof_C 	C 	0.4515	0.6362	0.48044	-0.335
Mof_C 	C 	0.5126	0.6897	0.55453	0.373
Mof_C 	C 	0.6663	0.7253	0.58521	-0.685
Mof_C 	C 	0.7575	0.6995	0.53921	0.362
Mof_C 	C 	0.8009	0.623	0.41777	0.373
Mof_C 	C 	0.284	0.6006	0.45416	0.433
Mof_C 	C 	0.7321	0.7867	0.6661	1.532
Mof_C 	C 	0.2132	0.7679	0.68725	-0.25
Mof_C 	C 	0.2943	0.8304	0.75729	0.106
Mof_C 	C 	0.3699	0.9497	0.77067	-0.2
Mof_C 	C 	0.3632	0.0049	0.71408	0.161
Mof_C 	C 	0.2867	0.9421	0.64267	-0.433
Mof_C 	C 	0.2124	0.8234	0.63046	0.202
Mof_C 	C 	0.1235	0.642	0.67149	0.362
Mof_C 	C 	0.4588	0.0182	0.84669	0.343
Mof_C 	C 	0.2826	0.0057	0.58129	1.011
Mof_C 	C 	0.1775	0.08	0.5894	-1.475
Mof_C 	C 	0.4386	0.0873	0.5864	-1.485
Mof_C 	C 	0.2267	0.9181	0.50556	-1.425
Mof_C 	C 	0.9354	0.7203	0.248	0.105
Mof_C 	C 	0.9549	0.7789	0.1944	-0.16
Mof_C 	C 	0.0923	0.8058	0.17702	0.076
Mof_C 	C 	0.2055	0.7752	0.2165	-0.188
Mof_C 	C 	0.1777	0.7182	0.26916	0.063
Mof_C 	C 	0.9714	0.909	0.07549	0.151
Mof_C 	C 	0.8549	0.8288	0.0215	-0.287
Mof_C 	C 	0.7294	0.8606	0.9971	0.23
Mof_C 	C 	0.8299	0.0418	0.0734	0.068
Mof_C 	C 	0.9593	0.0177	0.1003	-0.128
Mof_S 	S 	0.86145	0.12301	0.8908	-0.073
Mof_S 	S 	0.13855	0.87699	0.1092	-0.144
Mof_N 	N 	0.957	0.3117	0.7146	-0.248
Mof_N 	N 	0.2857	0.0357	0.97724	-0.205
Mof_N 	N 	0.043	0.6883	0.2854	-0.282
Mof_N 	N 	0.7143	0.9643	0.02276	-0.281
Mof_O 	O 	0.06225	0.36882	0.55162	-0.559
Mof_O 	O 	0.2398	0.402	0.64926	-0.397
Mof_O 	O 	0.7741	0.40196	0.61071	-0.487
Mof_O 	O 	0.7875	0.4216	0.4989	-0.46
Mof_O 	O 	0.8777	0.41396	0.27966	-0.42
Mof_O 	O 	0.9574	0.40996	0.39196	-0.51
Mof_O 	O 	0.5228	0.04354	0.10865	-0.487
Mof_O 	O 	0.4924	0.873	0.13928	-0.334
Mof_O 	O 	0.93775	0.63118	0.44838	-0.521
Mof_O 	O 	0.7602	0.598	0.35074	-0.39
Mof_O 	O 	0.2259	0.59804	0.38929	-0.498
Mof_O 	O 	0.2125	0.5784	0.5011	-0.475
Mof_O 	O 	0.1223	0.58604	0.72034	-0.435
Mof_O 	O 	0.0426	0.59004	0.60804	-0.539
Mof_O 	O 	0.4772	0.95646	0.89135	-0.436
Mof_O 	O 	0.5076	0.127	0.86072	-0.301
_end
