data_functionalizedCrystal
_audit_creation_method	'EQeq! by Chris Wilmer'
_symmetry_space_group_name_H-M	'P1'
_symmetry_Int_Tables_number	1
_symmetry_cell_setting	triclinic
loop_
_symmetry_equiv_pos_as_xyz
  x,y,z
_cell_length_a	14.5262
_cell_length_b	14.5262
_cell_length_c	14.5262
_cell_angle_alpha	63.0767
_cell_angle_beta	74.1213
_cell_angle_gamma	105.879
loop_
_atom_site_label
_atom_site_type_symbol
_atom_site_fract_x
_atom_site_fract_y
_atom_site_fract_z
_atom_site_charge
Mof_Cu	Cu	0.5878	0.09232	0.49085	0.913
Mof_Cu	Cu	0.9122	0.42135	0.49548	0.913
Mof_Cu	Cu	0.4122	0.90768	0.50915	0.912
Mof_Cu	Cu	0.0878	0.57865	0.50452	0.912
Mof_H 	H 	0.3589	0.119	0.4851	0.049
Mof_H 	H 	0.3229	0.2557	0.3406	0.083
Mof_H 	H 	0.3462	0.3566	0.153	0.003
Mof_H 	H 	0.4875	0.3883	0.006	0.083
Mof_H 	H 	0.6101	0.3265	0.041	-0.002
Mof_H 	H 	0.5879	0.2221	0.2306	0.087
Mof_H 	H 	0.7027	0.2662	0.5259	0.06
Mof_H 	H 	0.8073	0.0943	0.4764	0.044
Mof_H 	H 	0.7183	0.9734	0.5913	0.034
Mof_H 	H 	0.5698	0.9648	0.7314	0.028
Mof_H 	H 	0.5648	0.0802	0.7052	0.029
Mof_H 	H 	0.792	0.0165	0.7809	0.042
Mof_H 	H 	0.1411	0.656	0.2399	0.048
Mof_H 	H 	0.1771	0.8365	0.0672	0.082
Mof_H 	H 	0.1538	0.0008	0.9896	0.006
Mof_H 	H 	0.0125	0.0065	0.0992	0.072
Mof_H 	H 	0.8899	0.8489	0.2836	0.006
Mof_H 	H 	0.9121	0.6815	0.3658	0.084
Mof_H 	H 	0.7973	0.2714	0.4365	0.06
Mof_H 	H 	0.6927	0.2163	0.713	0.044
Mof_H 	H 	0.7817	0.1904	0.7449	0.036
Mof_H 	H 	0.9302	0.1988	0.605	0.03
Mof_H 	H 	0.9352	0.23	0.4846	0.03
Mof_H 	H 	0.708	0.9271	0.7755	0.039
Mof_H 	H 	0.6411	0.881	0.5149	0.049
Mof_H 	H 	0.6771	0.7443	0.6594	0.083
Mof_H 	H 	0.6538	0.6434	0.847	0.003
Mof_H 	H 	0.5125	0.6117	0.994	0.083
Mof_H 	H 	0.3899	0.6735	0.959	-0.002
Mof_H 	H 	0.4121	0.7779	0.7694	0.087
Mof_H 	H 	0.2973	0.7338	0.4741	0.06
Mof_H 	H 	0.1927	0.9057	0.5236	0.044
Mof_H 	H 	0.2817	0.0266	0.4087	0.034
Mof_H 	H 	0.4302	0.0352	0.2686	0.028
Mof_H 	H 	0.4352	0.9198	0.2948	0.029
Mof_H 	H 	0.208	0.9835	0.2191	0.042
Mof_H 	H 	0.8589	0.344	0.7601	0.048
Mof_H 	H 	0.8229	0.1635	0.9328	0.082
Mof_H 	H 	0.8462	0.9992	0.0104	0.006
Mof_H 	H 	0.9875	0.9935	0.9008	0.072
Mof_H 	H 	0.1101	0.1511	0.7164	0.006
Mof_H 	H 	0.0879	0.3185	0.6342	0.084
Mof_H 	H 	0.2027	0.7286	0.5635	0.06
Mof_H 	H 	0.3073	0.7837	0.287	0.044
Mof_H 	H 	0.2183	0.8096	0.2551	0.036
Mof_H 	H 	0.0698	0.8012	0.395	0.03
Mof_H 	H 	0.0648	0.77	0.5154	0.03
Mof_H 	H 	0.292	0.0729	0.2245	0.039
Mof_C 	C 	0.50033	0.24332	0.45187	0.323
Mof_C 	C 	0.43586	0.15747	0.43059	-0.061
Mof_C 	C 	0.4519	0.22648	0.30622	0.103
Mof_C 	C 	0.3808	0.2686	0.2808	-0.16
Mof_C 	C 	0.3946	0.3291	0.1687	0.073
Mof_C 	C 	0.479	0.3485	0.0815	-0.151
Mof_C 	C 	0.5516	0.3109	0.1023	0.068
Mof_C 	C 	0.53851	0.24841	0.2161	-0.158
Mof_C 	C 	0.75942	0.0554	0.55826	-0.013
Mof_C 	C 	0.61337	0.04697	0.69602	-0.011
Mof_C 	C 	0.99967	0.5478	0.25701	0.318
Mof_C 	C 	0.06414	0.63355	0.27839	-0.057
Mof_C 	C 	0.0481	0.74188	0.22542	0.098
Mof_C 	C 	0.1192	0.8384	0.1122	-0.151
Mof_C 	C 	0.1054	0.9367	0.0655	0.062
Mof_C 	C 	0.021	0.9395	0.1305	-0.125
Mof_C 	C 	0.9484	0.8461	0.2407	0.047
Mof_C 	C 	0.96149	0.74539	0.2901	-0.149
Mof_C 	C 	0.74058	0.18232	0.70402	-0.016
Mof_C 	C 	0.88663	0.19061	0.5664	-0.015
Mof_C 	C 	0.49967	0.75668	0.54813	0.323
Mof_C 	C 	0.56414	0.84253	0.56941	-0.061
Mof_C 	C 	0.5481	0.77352	0.69378	0.103
Mof_C 	C 	0.6192	0.7314	0.7192	-0.16
Mof_C 	C 	0.6054	0.6709	0.8313	0.073
Mof_C 	C 	0.521	0.6515	0.9185	-0.151
Mof_C 	C 	0.4484	0.6891	0.8977	0.068
Mof_C 	C 	0.46149	0.75159	0.7839	-0.158
Mof_C 	C 	0.24058	0.9446	0.44174	-0.013
Mof_C 	C 	0.38663	0.95303	0.30398	-0.011
Mof_C 	C 	0.00033	0.4522	0.74299	0.318
Mof_C 	C 	0.93586	0.36645	0.72161	-0.057
Mof_C 	C 	0.9519	0.25812	0.77458	0.098
Mof_C 	C 	0.8808	0.1616	0.8878	-0.151
Mof_C 	C 	0.8946	0.0633	0.9345	0.062
Mof_C 	C 	0.979	0.0605	0.8695	-0.125
Mof_C 	C 	0.0516	0.1539	0.7593	0.047
Mof_C 	C 	0.03851	0.25461	0.7099	-0.149
Mof_C 	C 	0.25942	0.81768	0.29598	-0.016
Mof_C 	C 	0.11337	0.80939	0.4336	-0.015
Mof_C 	C 	0.75	0.2312	0.5188	-0.047
Mof_C 	C 	0.75	0.0093	0.7407	-0.004
Mof_C 	C 	0.25	0.7688	0.4812	-0.047
Mof_C 	C 	0.25	0.9907	0.2593	-0.004
Mof_N 	N 	0.68379	0.1061	0.56935	-0.171
Mof_N 	N 	0.8234	0.06763	0.61731	-0.097
Mof_N 	N 	0.81621	0.24686	0.57769	-0.17
Mof_N 	N 	0.6766	0.05929	0.75577	-0.097
Mof_N 	N 	0.31621	0.8939	0.43065	-0.171
Mof_N 	N 	0.1766	0.93237	0.38269	-0.097
Mof_N 	N 	0.18379	0.75314	0.42231	-0.17
Mof_N 	N 	0.3234	0.94071	0.24423	-0.097
Mof_O 	O 	0.57263	0.22651	0.47754	-0.398
Mof_O 	O 	0.47997	0.32437	0.44046	-0.355
Mof_O 	O 	0.47113	0.07312	0.44997	-0.417
Mof_O 	O 	0.92737	0.44983	0.34612	-0.397
Mof_O 	O 	0.02003	0.57957	0.1556	-0.352
Mof_O 	O 	0.02887	0.5789	0.39801	-0.417
Mof_O 	O 	0.42737	0.77349	0.52246	-0.398
Mof_O 	O 	0.52003	0.67563	0.55954	-0.355
Mof_O 	O 	0.52887	0.92688	0.55003	-0.417
Mof_O 	O 	0.07263	0.55017	0.65388	-0.397
Mof_O 	O 	0.97997	0.42043	0.8444	-0.352
Mof_O 	O 	0.97113	0.4211	0.60199	-0.417
Mof_Cu	Cu	0.41683	0.50915	0.57865	0.912
Mof_Cu	Cu	0.08317	0.50452	0.90768	0.912
Mof_Cu	Cu	0.58317	0.49085	0.42135	0.912
Mof_Cu	Cu	0.91683	0.49548	0.09232	0.912
Mof_H 	H 	0.3959	0.5149	0.344	0.048
Mof_H 	H 	0.4037	0.6594	0.1635	0.084
Mof_H 	H 	0.4904	0.847	0.9992	0.001
Mof_H 	H 	0.6057	0.994	0.9935	0.079
Mof_H 	H 	0.6325	0.959	0.1511	0
Mof_H 	H 	0.5473	0.7694	0.3185	0.087
Mof_H 	H 	0.2079	0.4741	0.7286	0.06
Mof_H 	H 	0.4293	0.5236	0.7837	0.044
Mof_H 	H 	0.4353	0.4087	0.8096	0.036
Mof_H 	H 	0.3038	0.2686	0.8012	0.03
Mof_H 	H 	0.2146	0.2948	0.77	0.03
Mof_H 	H 	0.2026	0.2191	0.0729	0.042
Mof_H 	H 	0.1041	0.7601	0.881	0.048
Mof_H 	H 	0.0963	0.9328	0.7443	0.082
Mof_H 	H 	0.0096	0.0104	0.6434	0.005
Mof_H 	H 	0.8943	0.9008	0.6117	0.081
Mof_H 	H 	0.8675	0.7164	0.6735	0
Mof_H 	H 	0.9527	0.6342	0.7779	0.086
Mof_H 	H 	0.2921	0.5635	0.7338	0.06
Mof_H 	H 	0.0707	0.287	0.9057	0.044
Mof_H 	H 	0.0647	0.2551	0.0266	0.036
Mof_H 	H 	0.1962	0.395	0.0352	0.031
Mof_H 	H 	0.2854	0.5154	0.9198	0.03
Mof_H 	H 	0.2974	0.2245	0.9835	0.042
Mof_H 	H 	0.6041	0.4851	0.656	0.048
Mof_H 	H 	0.5963	0.3406	0.8365	0.084
Mof_H 	H 	0.5096	0.153	0.0008	0.001
Mof_H 	H 	0.3943	0.006	0.0065	0.079
Mof_H 	H 	0.3675	0.041	0.8489	0
Mof_H 	H 	0.4527	0.2306	0.6815	0.087
Mof_H 	H 	0.7921	0.5259	0.2714	0.06
Mof_H 	H 	0.5707	0.4764	0.2163	0.044
Mof_H 	H 	0.5647	0.5913	0.1904	0.036
Mof_H 	H 	0.6962	0.7314	0.1988	0.03
Mof_H 	H 	0.7854	0.7052	0.23	0.03
Mof_H 	H 	0.7974	0.7809	0.9271	0.042
Mof_H 	H 	0.8959	0.2399	0.119	0.048
Mof_H 	H 	0.9037	0.0672	0.2557	0.082
Mof_H 	H 	0.9904	0.9896	0.3566	0.005
Mof_H 	H 	0.1057	0.0992	0.3883	0.081
Mof_H 	H 	0.1325	0.2836	0.3265	0
Mof_H 	H 	0.0473	0.3658	0.2221	0.086
Mof_H 	H 	0.7079	0.4365	0.2662	0.06
Mof_H 	H 	0.9293	0.713	0.0943	0.044
Mof_H 	H 	0.9353	0.7449	0.9734	0.036
Mof_H 	H 	0.8038	0.605	0.9648	0.031
Mof_H 	H 	0.7146	0.4846	0.0802	0.03
Mof_H 	H 	0.7026	0.7755	0.0165	0.042
Mof_C 	C 	0.30481	0.54813	0.4522	0.323
Mof_C 	C 	0.41194	0.56941	0.36645	-0.061
Mof_C 	C 	0.4673	0.69378	0.25812	0.103
Mof_C 	C 	0.4506	0.7192	0.1616	-0.16
Mof_C 	C 	0.5022	0.8313	0.0633	0.073
Mof_C 	C 	0.57	0.9185	0.0605	-0.145
Mof_C 	C 	0.5868	0.8977	0.1539	0.064
Mof_C 	C 	0.53549	0.7839	0.25461	-0.156
Mof_C 	C 	0.38634	0.44174	0.81768	-0.016
Mof_C 	C 	0.25701	0.30398	0.80939	-0.015
Mof_C 	C 	0.19519	0.74299	0.75668	0.323
Mof_C 	C 	0.08806	0.72161	0.84253	-0.06
Mof_C 	C 	0.0327	0.77458	0.77352	0.1
Mof_C 	C 	0.0494	0.8878	0.7314	-0.154
Mof_C 	C 	0.9978	0.9345	0.6709	0.066
Mof_C 	C 	0.93	0.8695	0.6515	-0.146
Mof_C 	C 	0.9132	0.7593	0.6891	0.063
Mof_C 	C 	0.96451	0.7099	0.75159	-0.155
Mof_C 	C 	0.11366	0.29598	0.9446	-0.016
Mof_C 	C 	0.24299	0.4336	0.95303	-0.016
Mof_C 	C 	0.69519	0.45187	0.5478	0.323
Mof_C 	C 	0.58806	0.43059	0.63355	-0.061
Mof_C 	C 	0.5327	0.30622	0.74188	0.103
Mof_C 	C 	0.5494	0.2808	0.8384	-0.16
Mof_C 	C 	0.4978	0.1687	0.9367	0.073
Mof_C 	C 	0.43	0.0815	0.9395	-0.145
Mof_C 	C 	0.4132	0.1023	0.8461	0.064
Mof_C 	C 	0.46451	0.2161	0.74539	-0.156
Mof_C 	C 	0.61366	0.55826	0.18232	-0.016
Mof_C 	C 	0.74299	0.69602	0.19061	-0.015
Mof_C 	C 	0.80481	0.25701	0.24332	0.323
Mof_C 	C 	0.91194	0.27839	0.15747	-0.06
Mof_C 	C 	0.9673	0.22542	0.22648	0.1
Mof_C 	C 	0.9506	0.1122	0.2686	-0.154
Mof_C 	C 	0.0022	0.0655	0.3291	0.066
Mof_C 	C 	0.07	0.1305	0.3485	-0.146
Mof_C 	C 	0.0868	0.2407	0.3109	0.063
Mof_C 	C 	0.03549	0.2901	0.24841	-0.155
Mof_C 	C 	0.88634	0.70402	0.0554	-0.016
Mof_C 	C 	0.75701	0.5664	0.04697	-0.016
Mof_C 	C 	0.25	0.4812	0.7688	-0.047
Mof_C 	C 	0.25	0.2593	0.9907	-0.008
Mof_C 	C 	0.75	0.5188	0.2312	-0.047
Mof_C 	C 	0.75	0.7407	0.0093	-0.008
Mof_N 	N 	0.32455	0.43065	0.75314	-0.17
Mof_N 	N 	0.31506	0.38269	0.94071	-0.097
Mof_N 	N 	0.17545	0.42231	0.8939	-0.17
Mof_N 	N 	0.18494	0.24423	0.93237	-0.097
Mof_N 	N 	0.67545	0.56935	0.24686	-0.17
Mof_N 	N 	0.68494	0.61731	0.05929	-0.097
Mof_N 	N 	0.82455	0.57769	0.1061	-0.17
Mof_N 	N 	0.81506	0.75577	0.06763	-0.097
Mof_O 	O 	0.29595	0.52246	0.55017	-0.398
Mof_O 	O 	0.23517	0.55954	0.42043	-0.355
Mof_O 	O 	0.47691	0.55003	0.4211	-0.417
Mof_O 	O 	0.20405	0.65388	0.77349	-0.398
Mof_O 	O 	0.26483	0.8444	0.67563	-0.355
Mof_O 	O 	0.02309	0.60199	0.92688	-0.418
Mof_O 	O 	0.70405	0.47754	0.44983	-0.398
Mof_O 	O 	0.76483	0.44046	0.57957	-0.355
Mof_O 	O 	0.52309	0.44997	0.5789	-0.417
Mof_O 	O 	0.79595	0.34612	0.22651	-0.398
Mof_O 	O 	0.73517	0.1556	0.32437	-0.355
Mof_O 	O 	0.97691	0.39801	0.07312	-0.418
_end
