# CIF file generated by openbabel 3.1.0, see https://openbabel.org
data_I
_chemical_name_common 'image0'
_cell_length_a 21.2928
_cell_length_b 21.2928
_cell_length_c 10.7304
_cell_angle_alpha 90
_cell_angle_beta 90
_cell_angle_gamma 90
_space_group_name_H-M_alt 'P 1'
_space_group_name_Hall 'P 1'
loop_
    _symmetry_equiv_pos_as_xyz
    x,y,z
loop_
    _atom_site_label
    _atom_site_type_symbol
    _atom_site_fract_x
    _atom_site_fract_y
    _atom_site_fract_z
    _atom_site_occupancy
    Al1      Al       0.25540    0.31380    0.24430    1.000
    O1       O        0.24870    0.25940    0.38050    1.000
    C1       C        0.05640    0.33240    0.25860    1.000
    C2       C        0.93950    0.37490    0.34530    1.000
    C3       C        0.11880    0.31410    0.21030    1.000
    C4       C        0.05240    0.37560    0.35850    1.000
    C5       C        0.00080    0.31000    0.20300    1.000
    C6       C        0.88310    0.31260    0.18260    1.000
    C7       C        0.94200    0.33170    0.24520    1.000
    C8       C        0.99430    0.39640    0.40150    1.000
    O2       O        0.16850    0.33180    0.25900    1.000
    O3       O        0.83530    0.32960    0.24990    1.000
    O4       O        0.88490    0.26650    0.11490    1.000
    O5       O        0.12050    0.27730    0.11570    1.000
    C9       C        0.55780    0.26880    0.20510    1.000
    C10      C        0.44520    0.27300    0.07070    1.000
    C11      C        0.61640    0.27520    0.27560    1.000
    C12      C        0.55820    0.27780    0.07450    1.000
    C13      C        0.50070    0.26020    0.26770    1.000
    C14      C        0.38400    0.26520    0.26780    1.000
    C15      C        0.44420    0.26390    0.20130    1.000
    C16      C        0.50210    0.27970    0.00780    1.000
    O6       O        0.65750    0.31090    0.23500    1.000
    O7       O        0.34300    0.29910    0.22130    1.000
    O8       O        0.37690    0.23620    0.36950    1.000
    O9       O        0.61520    0.23830    0.36430    1.000
    Al2      Al       0.74570    0.31980    0.24330    1.000
    O10      O        0.74560    0.25840    0.37480    1.000
    Al3      Al       0.75540    0.81380    0.74430    1.000
    O11      O        0.74870    0.75940    0.88050    1.000
    C17      C        0.55640    0.83240    0.75860    1.000
    C18      C        0.43950    0.87490    0.84530    1.000
    C19      C        0.61880    0.81410    0.71030    1.000
    C20      C        0.55240    0.87560    0.85850    1.000
    C21      C        0.50080    0.81000    0.70300    1.000
    C22      C        0.38310    0.81260    0.68260    1.000
    C23      C        0.44200    0.83170    0.74520    1.000
    C24      C        0.49430    0.89640    0.90150    1.000
    O12      O        0.66850    0.83180    0.75900    1.000
    O13      O        0.33530    0.82960    0.74990    1.000
    O14      O        0.38490    0.76650    0.61490    1.000
    O15      O        0.62050    0.77730    0.61570    1.000
    C25      C        0.05780    0.76880    0.70510    1.000
    C26      C        0.94520    0.77300    0.57070    1.000
    C27      C        0.11640    0.77520    0.77560    1.000
    C28      C        0.05820    0.77780    0.57450    1.000
    C29      C        0.00070    0.76020    0.76770    1.000
    C30      C        0.88400    0.76520    0.76780    1.000
    C31      C        0.94420    0.76390    0.70130    1.000
    C32      C        0.00210    0.77970    0.50780    1.000
    O16      O        0.15750    0.81090    0.73500    1.000
    O17      O        0.84300    0.79910    0.72130    1.000
    O18      O        0.87690    0.73620    0.86950    1.000
    O19      O        0.11520    0.73830    0.86430    1.000
    Al4      Al       0.24570    0.81980    0.74330    1.000
    O20      O        0.24560    0.75840    0.87480    1.000
    Al5      Al       0.24460    0.18620    0.74430    1.000
    O21      O        0.25130    0.24060    0.88050    1.000
    C33      C        0.44360    0.16760    0.75860    1.000
    C34      C        0.56050    0.12510    0.84530    1.000
    C35      C        0.38120    0.18590    0.71030    1.000
    C36      C        0.44760    0.12440    0.85850    1.000
    C37      C        0.49920    0.19000    0.70300    1.000
    C38      C        0.61690    0.18740    0.68260    1.000
    C39      C        0.55800    0.16830    0.74520    1.000
    C40      C        0.50570    0.10360    0.90150    1.000
    O22      O        0.33150    0.16820    0.75900    1.000
    O23      O        0.66470    0.17040    0.74990    1.000
    O24      O        0.61510    0.23350    0.61490    1.000
    O25      O        0.37950    0.22270    0.61570    1.000
    C41      C        0.94220    0.23120    0.70510    1.000
    C42      C        0.05480    0.22700    0.57070    1.000
    C43      C        0.88360    0.22480    0.77560    1.000
    C44      C        0.94180    0.22220    0.57450    1.000
    C45      C        0.99930    0.23980    0.76770    1.000
    C46      C        0.11600    0.23480    0.76780    1.000
    C47      C        0.05580    0.23610    0.70130    1.000
    C48      C        0.99790    0.22030    0.50780    1.000
    O26      O        0.84250    0.18910    0.73500    1.000
    O27      O        0.15700    0.20090    0.72130    1.000
    O28      O        0.12310    0.26380    0.86950    1.000
    O29      O        0.88480    0.26170    0.86430    1.000
    Al6      Al       0.75430    0.18020    0.74330    1.000
    O30      O        0.75440    0.24160    0.87480    1.000
    Al7      Al       0.74460    0.68620    0.24430    1.000
    O31      O        0.75130    0.74060    0.38050    1.000
    C49      C        0.94360    0.66760    0.25860    1.000
    C50      C        0.06050    0.62510    0.34530    1.000
    C51      C        0.88120    0.68590    0.21030    1.000
    C52      C        0.94760    0.62440    0.35850    1.000
    C53      C        0.99920    0.69000    0.20300    1.000
    C54      C        0.11690    0.68740    0.18260    1.000
    C55      C        0.05800    0.66830    0.24520    1.000
    C56      C        0.00570    0.60360    0.40150    1.000
    O32      O        0.83150    0.66820    0.25900    1.000
    O33      O        0.16470    0.67040    0.24990    1.000
    O34      O        0.11510    0.73350    0.11490    1.000
    O35      O        0.87950    0.72270    0.11570    1.000
    C57      C        0.44220    0.73120    0.20510    1.000
    C58      C        0.55480    0.72700    0.07070    1.000
    C59      C        0.38360    0.72480    0.27560    1.000
    C60      C        0.44180    0.72220    0.07450    1.000
    C61      C        0.49930    0.73980    0.26770    1.000
    C62      C        0.61600    0.73480    0.26780    1.000
    C63      C        0.55580    0.73610    0.20130    1.000
    C64      C        0.49790    0.72030    0.00780    1.000
    O36      O        0.34250    0.68910    0.23500    1.000
    O37      O        0.65700    0.70090    0.22130    1.000
    O38      O        0.62310    0.76380    0.36950    1.000
    O39      O        0.38480    0.76170    0.36430    1.000
    Al8      Al       0.25430    0.68020    0.24330    1.000
    O40      O        0.25440    0.74160    0.37480    1.000
    Al9      Al       0.68620    0.75540    0.49430    1.000
    O41      O        0.74060    0.74870    0.63050    1.000
    C65      C        0.66760    0.55640    0.50860    1.000
    C66      C        0.62510    0.43950    0.59530    1.000
    C67      C        0.68590    0.61880    0.46030    1.000
    C68      C        0.62440    0.55240    0.60850    1.000
    C69      C        0.69000    0.50080    0.45300    1.000
    C70      C        0.68740    0.38310    0.43260    1.000
    C71      C        0.66830    0.44200    0.49520    1.000
    C72      C        0.60360    0.49430    0.65150    1.000
    O42      O        0.66820    0.66850    0.50900    1.000
    O43      O        0.67040    0.33530    0.49990    1.000
    O44      O        0.73350    0.38490    0.36490    1.000
    O45      O        0.72270    0.62050    0.36570    1.000
    C73      C        0.73120    0.05780    0.45510    1.000
    C74      C        0.72700    0.94520    0.32070    1.000
    C75      C        0.72480    0.11640    0.52560    1.000
    C76      C        0.72220    0.05820    0.32450    1.000
    C77      C        0.73980    0.00070    0.51770    1.000
    C78      C        0.73480    0.88400    0.51780    1.000
    C79      C        0.73610    0.94420    0.45130    1.000
    C80      C        0.72030    0.00210    0.25780    1.000
    O46      O        0.68910    0.15750    0.48500    1.000
    O47      O        0.70090    0.84300    0.47130    1.000
    O48      O        0.76380    0.87690    0.61950    1.000
    O49      O        0.76170    0.11520    0.61430    1.000
    Al10     Al       0.68020    0.24570    0.49330    1.000
    O50      O        0.74160    0.24560    0.62480    1.000
    Al11     Al       0.18620    0.25540    0.99430    1.000
    O51      O        0.24060    0.24870    0.13050    1.000
    C81      C        0.16760    0.05640    0.00860    1.000
    C82      C        0.12510    0.93950    0.09530    1.000
    C83      C        0.18590    0.11880    0.96030    1.000
    C84      C        0.12440    0.05240    0.10850    1.000
    C85      C        0.19000    0.00080    0.95300    1.000
    C86      C        0.18740    0.88310    0.93260    1.000
    C87      C        0.16830    0.94200    0.99520    1.000
    C88      C        0.10360    0.99430    0.15150    1.000
    O52      O        0.16820    0.16850    0.00900    1.000
    O53      O        0.17040    0.83530    0.99990    1.000
    O54      O        0.23350    0.88490    0.86490    1.000
    O55      O        0.22270    0.12050    0.86570    1.000
    C89      C        0.23120    0.55780    0.95510    1.000
    C90      C        0.22700    0.44520    0.82070    1.000
    C91      C        0.22480    0.61640    0.02560    1.000
    C92      C        0.22220    0.55820    0.82450    1.000
    C93      C        0.23980    0.50070    0.01770    1.000
    C94      C        0.23480    0.38400    0.01780    1.000
    C95      C        0.23610    0.44420    0.95130    1.000
    C96      C        0.22030    0.50210    0.75780    1.000
    O56      O        0.18910    0.65750    0.98500    1.000
    O57      O        0.20090    0.34300    0.97130    1.000
    O58      O        0.26380    0.37690    0.11950    1.000
    O59      O        0.26170    0.61520    0.11430    1.000
    Al12     Al       0.18020    0.74570    0.99330    1.000
    O60      O        0.24160    0.74560    0.12480    1.000
    Al13     Al       0.81380    0.74460    0.99430    1.000
    O61      O        0.75940    0.75130    0.13050    1.000
    C97      C        0.83240    0.94360    0.00860    1.000
    C98      C        0.87490    0.06050    0.09530    1.000
    C99      C        0.81410    0.88120    0.96030    1.000
    C100     C        0.87560    0.94760    0.10850    1.000
    C101     C        0.81000    0.99920    0.95300    1.000
    C102     C        0.81260    0.11690    0.93260    1.000
    C103     C        0.83170    0.05800    0.99520    1.000
    C104     C        0.89640    0.00570    0.15150    1.000
    O62      O        0.83180    0.83150    0.00900    1.000
    O63      O        0.82960    0.16470    0.99990    1.000
    O64      O        0.76650    0.11510    0.86490    1.000
    O65      O        0.77730    0.87950    0.86570    1.000
    C105     C        0.76880    0.44220    0.95510    1.000
    C106     C        0.77300    0.55480    0.82070    1.000
    C107     C        0.77520    0.38360    0.02560    1.000
    C108     C        0.77780    0.44180    0.82450    1.000
    C109     C        0.76020    0.49930    0.01770    1.000
    C110     C        0.76520    0.61600    0.01780    1.000
    C111     C        0.76390    0.55580    0.95130    1.000
    C112     C        0.77970    0.49790    0.75780    1.000
    O66      O        0.81090    0.34250    0.98500    1.000
    O67      O        0.79910    0.65700    0.97130    1.000
    O68      O        0.73620    0.62310    0.11950    1.000
    O69      O        0.73830    0.38480    0.11430    1.000
    Al14     Al       0.81980    0.25430    0.99330    1.000
    O70      O        0.75840    0.25440    0.12480    1.000
    Al15     Al       0.31380    0.24460    0.49430    1.000
    O71      O        0.25940    0.25130    0.63050    1.000
    C113     C        0.33240    0.44360    0.50860    1.000
    C114     C        0.37490    0.56050    0.59530    1.000
    C115     C        0.31410    0.38120    0.46030    1.000
    C116     C        0.37560    0.44760    0.60850    1.000
    C117     C        0.31000    0.49920    0.45300    1.000
    C118     C        0.31260    0.61690    0.43260    1.000
    C119     C        0.33170    0.55800    0.49520    1.000
    C120     C        0.39640    0.50570    0.65150    1.000
    O72      O        0.33180    0.33150    0.50900    1.000
    O73      O        0.32960    0.66470    0.49990    1.000
    O74      O        0.26650    0.61510    0.36490    1.000
    O75      O        0.27730    0.37950    0.36570    1.000
    C121     C        0.26880    0.94220    0.45510    1.000
    C122     C        0.27300    0.05480    0.32070    1.000
    C123     C        0.27520    0.88360    0.52560    1.000
    C124     C        0.27780    0.94180    0.32450    1.000
    C125     C        0.26020    0.99930    0.51770    1.000
    C126     C        0.26520    0.11600    0.51780    1.000
    C127     C        0.26390    0.05580    0.45130    1.000
    C128     C        0.27970    0.99790    0.25780    1.000
    O76      O        0.31090    0.84250    0.48500    1.000
    O77      O        0.29910    0.15700    0.47130    1.000
    O78      O        0.23620    0.12310    0.61950    1.000
    O79      O        0.23830    0.88480    0.61430    1.000
    Al16     Al       0.31980    0.75430    0.49330    1.000
    O80      O        0.25840    0.75440    0.62480    1.000
