data_functionalizedCrystal
_audit_creation_method	'EQeq! by Chris Wilmer'
_symmetry_space_group_name_H-M	'P1'
_symmetry_Int_Tables_number	1
_symmetry_cell_setting	triclinic
loop_
_symmetry_equiv_pos_as_xyz
  x,y,z
_cell_length_a	9.7111
_cell_length_b	16.7387
_cell_length_c	18.0226
_cell_angle_alpha	90
_cell_angle_beta	90.29
_cell_angle_gamma	90
loop_
_atom_site_label
_atom_site_type_symbol
_atom_site_fract_x
_atom_site_fract_y
_atom_site_fract_z
_atom_site_charge
Mof_U 	U 	0.88808	0.71409	0.5033	-0.006
Mof_U 	U 	0.39974	0.70951	0.78784	0.004
Mof_P 	P 	0.5869	0.64918	0.61129	0.363
Mof_P 	P 	0.5232	0.68719	0.45171	0.376
Mof_P 	P 	0.0208	0.74901	0.80997	0.398
Mof_P 	P 	0.0899	0.64997	0.67464	0.384
Mof_O 	O 	0.674	0.7132	0.4457	-0.177
Mof_O 	O 	0.0176	0.6943	0.6145	-0.183
Mof_O 	O 	0.9269	0.7514	0.8759	-0.164
Mof_O 	O 	0.7319	0.6821	0.6019	-0.189
Mof_O 	O 	0.5313	0.6647	0.6886	-0.174
Mof_O 	O 	0.4307	0.7415	0.4054	-0.158
Mof_O 	O 	0.2334	0.6797	0.6921	-0.197
Mof_O 	O 	0.1729	0.7501	0.829	-0.154
Mof_O 	O 	0.5748	0.5628	0.5905	-0.376
Mof_O 	O 	0.102	0.5593	0.655	-0.418
Mof_H 	H 	0.043	0.5475	0.6242	0.266
Mof_O 	O 	0.502	0.6006	0.4343	-0.368
Mof_O 	O 	0.993	0.8199	0.7549	-0.385
Mof_H 	H 	0.9103	0.8299	0.754	0.278
Mof_O 	O 	0.3383	0.6828	0.5584	-0.396
Mof_H 	H 	0.3247	0.6724	0.6022	0.285
Mof_O 	O 	0.8442	0.6516	0.7385	-0.359
Mof_H 	H 	0.8352	0.6219	0.7026	0.258
Mof_C 	C 	0.4782	0.7081	0.549	0.176
Mof_C 	C 	0.4875	0.7977	0.5651	-0.738
Mof_H 	H 	0.4216	0.8257	0.535	0.295
Mof_H 	H 	0.5785	0.8164	0.5539	0.284
Mof_H 	H 	0.4683	0.8071	0.6166	0.291
Mof_C 	C 	0.9865	0.6553	0.7595	0.175
Mof_C 	C 	0.0176	0.5864	0.8127	-0.711
Mof_H 	H 	0.9616	0.5915	0.8561	0.282
Mof_H 	H 	0.1131	0.5879	0.8267	0.275
Mof_H 	H 	0.9978	0.5365	0.7885	0.273
Mof_U 	U 	0.11192	0.21409	0.9967	0.015
Mof_U 	U 	0.60026	0.20951	0.71216	-0.006
Mof_P 	P 	0.4131	0.14918	0.88871	0.362
Mof_P 	P 	0.4768	0.18719	0.04829	0.346
Mof_P 	P 	0.9792	0.24901	0.69003	0.389
Mof_P 	P 	0.9101	0.14997	0.82536	0.383
Mof_O 	O 	0.326	0.2132	0.0543	-0.203
Mof_O 	O 	0.9824	0.1943	0.8855	-0.183
Mof_O 	O 	0.0731	0.2514	0.6241	-0.182
Mof_O 	O 	0.2681	0.1821	0.8981	-0.186
Mof_O 	O 	0.4687	0.1647	0.8114	-0.181
Mof_O 	O 	0.5693	0.2415	0.0946	-0.175
Mof_O 	O 	0.7666	0.1797	0.8079	-0.201
Mof_O 	O 	0.8271	0.2501	0.671	-0.168
Mof_O 	O 	0.4252	0.0628	0.9095	-0.378
Mof_O 	O 	0.898	0.0593	0.845	-0.428
Mof_H 	H 	0.957	0.0475	0.8758	0.263
Mof_O 	O 	0.498	0.1006	0.0657	-0.396
Mof_O 	O 	0.007	0.3199	0.7451	-0.388
Mof_H 	H 	0.0897	0.3299	0.746	0.271
Mof_O 	O 	0.6617	0.1828	0.9416	-0.39
Mof_H 	H 	0.6753	0.1724	0.8978	0.282
Mof_O 	O 	0.1558	0.1516	0.7615	-0.363
Mof_H 	H 	0.1648	0.1219	0.7974	0.256
Mof_C 	C 	0.5218	0.2081	0.951	0.208
Mof_C 	C 	0.5125	0.2977	0.9349	-0.762
Mof_H 	H 	0.5784	0.3257	0.965	0.308
Mof_H 	H 	0.4215	0.3164	0.9461	0.296
Mof_H 	H 	0.5317	0.3071	0.8834	0.294
Mof_C 	C 	0.0135	0.1553	0.7405	0.174
Mof_C 	C 	0.9824	0.0864	0.6873	-0.693
Mof_H 	H 	0.0384	0.0915	0.6439	0.262
Mof_H 	H 	0.8869	0.0879	0.6733	0.256
Mof_H 	H 	0.0022	0.0365	0.7115	0.255
Mof_U 	U 	0.11192	0.28591	0.4967	-0.012
Mof_U 	U 	0.60026	0.29049	0.21216	-0.009
Mof_P 	P 	0.4131	0.35082	0.38871	0.365
Mof_P 	P 	0.4768	0.31281	0.54829	0.378
Mof_P 	P 	0.9792	0.25099	0.19003	0.387
Mof_P 	P 	0.9101	0.35003	0.32536	0.381
Mof_O 	O 	0.326	0.2868	0.5543	-0.181
Mof_O 	O 	0.9824	0.3057	0.3855	-0.191
Mof_O 	O 	0.0731	0.2486	0.1241	-0.199
Mof_O 	O 	0.2681	0.3179	0.3981	-0.193
Mof_O 	O 	0.4687	0.3353	0.3114	-0.18
Mof_O 	O 	0.5693	0.2585	0.5946	-0.165
Mof_O 	O 	0.7666	0.3203	0.3079	-0.202
Mof_O 	O 	0.8271	0.2499	0.171	-0.178
Mof_O 	O 	0.4252	0.4372	0.4095	-0.377
Mof_O 	O 	0.898	0.4407	0.345	-0.42
Mof_H 	H 	0.957	0.4525	0.3758	0.265
Mof_O 	O 	0.498	0.3994	0.5657	-0.368
Mof_O 	O 	0.007	0.1801	0.2451	-0.402
Mof_H 	H 	0.0897	0.1701	0.246	0.263
Mof_O 	O 	0.6617	0.3172	0.4416	-0.395
Mof_H 	H 	0.6753	0.3276	0.3978	0.283
Mof_O 	O 	0.1558	0.3484	0.2615	-0.367
Mof_H 	H 	0.1648	0.3781	0.2974	0.26
Mof_C 	C 	0.5218	0.2919	0.451	0.159
Mof_C 	C 	0.5125	0.2023	0.4349	-0.677
Mof_H 	H 	0.5784	0.1743	0.465	0.261
Mof_H 	H 	0.4215	0.1836	0.4461	0.252
Mof_H 	H 	0.5317	0.1929	0.3834	0.259
Mof_C 	C 	0.0135	0.3447	0.2405	0.183
Mof_C 	C 	0.9824	0.4136	0.1873	-0.723
Mof_H 	H 	0.0384	0.4085	0.1439	0.273
Mof_H 	H 	0.8869	0.4121	0.1733	0.268
Mof_H 	H 	0.0022	0.4635	0.2115	0.275
Mof_U 	U 	0.88808	0.78591	0.0033	-0.031
Mof_U 	U 	0.39974	0.79049	0.28784	0.001
Mof_P 	P 	0.5869	0.85082	0.11129	0.365
Mof_P 	P 	0.5232	0.81281	0.95171	0.406
Mof_P 	P 	0.0208	0.75099	0.30997	0.395
Mof_P 	P 	0.0899	0.85003	0.17464	0.384
Mof_O 	O 	0.674	0.7868	0.9457	-0.154
Mof_O 	O 	0.0176	0.8057	0.1145	-0.189
Mof_O 	O 	0.9269	0.7486	0.3759	-0.18
Mof_O 	O 	0.7319	0.8179	0.1019	-0.196
Mof_O 	O 	0.5313	0.8353	0.1886	-0.171
Mof_O 	O 	0.4307	0.7585	0.9054	-0.148
Mof_O 	O 	0.2334	0.8203	0.1921	-0.198
Mof_O 	O 	0.1729	0.7499	0.329	-0.165
Mof_O 	O 	0.5748	0.9372	0.0905	-0.361
Mof_O 	O 	0.102	0.9407	0.155	-0.408
Mof_H 	H 	0.043	0.9525	0.1242	0.27
Mof_O 	O 	0.502	0.8994	0.9343	-0.328
Mof_O 	O 	0.993	0.6801	0.2549	-0.397
Mof_H 	H 	0.9103	0.6701	0.254	0.27
Mof_O 	O 	0.3383	0.8172	0.0584	-0.399
Mof_H 	H 	0.3247	0.8276	0.1022	0.286
Mof_O 	O 	0.8442	0.8484	0.2385	-0.361
Mof_H 	H 	0.8352	0.8781	0.2026	0.263
Mof_C 	C 	0.4782	0.7919	0.049	0.131
Mof_C 	C 	0.4875	0.7023	0.0651	-0.658
Mof_H 	H 	0.4216	0.6743	0.035	0.249
Mof_H 	H 	0.5785	0.6836	0.0539	0.242
Mof_H 	H 	0.4683	0.6929	0.1166	0.258
Mof_C 	C 	0.9865	0.8447	0.2595	0.179
Mof_C 	C 	0.0176	0.9136	0.3127	-0.723
Mof_H 	H 	0.9616	0.9085	0.3561	0.287
Mof_H 	H 	0.1131	0.9121	0.3267	0.283
Mof_H 	H 	0.9978	0.9635	0.2885	0.287
Mof_Zn	Zn	0.5	0.5	0.5	1.213
Mof_Zn	Zn	0.5	0	-0	1.178
_end
