data_functionalizedCrystal
_audit_creation_method	'EQeq! by Chris Wilmer'
_symmetry_space_group_name_H-M	'P1'
_symmetry_Int_Tables_number	1
_symmetry_cell_setting	triclinic
loop_
_symmetry_equiv_pos_as_xyz
  x,y,z
_cell_length_a	10.6783
_cell_length_b	10.6783
_cell_length_c	18.743
_cell_angle_alpha	74.1394
_cell_angle_beta	74.1394
_cell_angle_gamma	65.0198
loop_
_atom_site_label
_atom_site_type_symbol
_atom_site_fract_x
_atom_site_fract_y
_atom_site_fract_z
_atom_site_charge
Mof_Eu	Eu	0.56088	0.44294	0.89804	2.381
Mof_Eu	Eu	0.55706	0.43912	0.60196	2.381
Mof_Eu	Eu	0.43912	0.55706	0.10196	2.382
Mof_Eu	Eu	0.44294	0.56088	0.39804	2.382
Mof_H 	H 	0.8834	0.5318	0.769	0.027
Mof_H 	H 	0.1035	0.5395	0.7152	0.046
Mof_H 	H 	0.0093	0.6325	0.5084	0.03
Mof_H 	H 	0.7902	0.6218	0.562	0.001
Mof_H 	H 	0.7933	0.5305	0.0885	0.039
Mof_H 	H 	0.017	0.4506	0.8839	0.042
Mof_H 	H 	0.4682	0.1166	0.731	0.027
Mof_H 	H 	0.4605	0.8965	0.7848	0.046
Mof_H 	H 	0.3675	0.9907	0.9916	0.027
Mof_H 	H 	0.3782	0.2098	0.938	0.002
Mof_H 	H 	0.4695	0.2067	0.4115	0.039
Mof_H 	H 	0.5494	0.983	0.6161	0.042
Mof_H 	H 	0.1166	0.4682	0.231	0.027
Mof_H 	H 	0.8965	0.4605	0.2848	0.046
Mof_H 	H 	0.9907	0.3675	0.4916	0.03
Mof_H 	H 	0.2098	0.3782	0.438	0.001
Mof_H 	H 	0.2067	0.4695	0.9115	0.039
Mof_H 	H 	0.983	0.5494	0.1161	0.042
Mof_H 	H 	0.5318	0.8834	0.269	0.027
Mof_H 	H 	0.5395	0.1035	0.2152	0.046
Mof_H 	H 	0.6325	0.0093	0.0084	0.027
Mof_H 	H 	0.6218	0.7902	0.062	0.002
Mof_H 	H 	0.5305	0.7933	0.5885	0.039
Mof_H 	H 	0.4506	0.017	0.3839	0.042
Mof_C 	C 	0.67669	0.55923	0.7058	0.531
Mof_C 	C 	0.81519	0.57375	0.671	-0.184
Mof_C 	C 	0.90912	0.55052	0.71686	0.017
Mof_C 	C 	0.04097	0.55539	0.68462	-0.026
Mof_C 	C 	0.07961	0.58409	0.6062	-0.124
Mof_C 	C 	0.98456	0.61074	0.56052	-0.028
Mof_C 	C 	0.85306	0.6049	0.59267	0.022
Mof_C 	C 	0.22537	0.57855	0.57025	0.501
Mof_C 	C 	0.76573	0.47545	0.96395	0.442
Mof_C 	C 	0.88605	0.48909	0.98321	-0.12
Mof_C 	C 	0.87583	0.51841	0.0531	-0.011
Mof_C 	C 	0.0103	0.4705	0.93044	-0.012
Mof_C 	C 	0.44077	0.32331	0.7942	0.53
Mof_C 	C 	0.42625	0.18481	0.829	-0.183
Mof_C 	C 	0.44948	0.09088	0.78314	0.017
Mof_C 	C 	0.44461	0.95903	0.81538	-0.026
Mof_C 	C 	0.41591	0.92039	0.8938	-0.127
Mof_C 	C 	0.38926	0.01544	0.93948	-0.022
Mof_C 	C 	0.3951	0.14694	0.90733	0.019
Mof_C 	C 	0.42145	0.77463	0.92975	0.502
Mof_C 	C 	0.52455	0.23427	0.53605	0.442
Mof_C 	C 	0.51091	0.11395	0.51679	-0.118
Mof_C 	C 	0.48159	0.12417	0.4469	-0.012
Mof_C 	C 	0.5295	0.9897	0.56956	-0.013
Mof_C 	C 	0.32331	0.44077	0.2942	0.531
Mof_C 	C 	0.18481	0.42625	0.329	-0.184
Mof_C 	C 	0.09088	0.44948	0.28314	0.017
Mof_C 	C 	0.95903	0.44461	0.31538	-0.026
Mof_C 	C 	0.92039	0.41591	0.3938	-0.124
Mof_C 	C 	0.01544	0.38926	0.43948	-0.028
Mof_C 	C 	0.14694	0.3951	0.40733	0.022
Mof_C 	C 	0.77463	0.42145	0.42975	0.501
Mof_C 	C 	0.23427	0.52455	0.03605	0.442
Mof_C 	C 	0.11395	0.51091	0.01679	-0.12
Mof_C 	C 	0.12417	0.48159	0.9469	-0.011
Mof_C 	C 	0.9897	0.5295	0.06956	-0.012
Mof_C 	C 	0.55923	0.67669	0.2058	0.53
Mof_C 	C 	0.57375	0.81519	0.171	-0.183
Mof_C 	C 	0.55052	0.90912	0.21686	0.017
Mof_C 	C 	0.55539	0.04097	0.18462	-0.026
Mof_C 	C 	0.58409	0.07961	0.1062	-0.127
Mof_C 	C 	0.61074	0.98456	0.06052	-0.022
Mof_C 	C 	0.6049	0.85306	0.09267	0.019
Mof_C 	C 	0.57855	0.22537	0.07025	0.502
Mof_C 	C 	0.47545	0.76573	0.46395	0.442
Mof_C 	C 	0.48909	0.88605	0.48321	-0.118
Mof_C 	C 	0.51841	0.87583	0.5531	-0.012
Mof_C 	C 	0.4705	0.0103	0.43044	-0.013
Mof_O 	O 	0.64646	0.5339	0.77564	-0.604
Mof_O 	O 	0.59782	0.57542	0.66145	-0.623
Mof_O 	O 	0.25219	0.60825	0.49946	-0.603
Mof_O 	O 	0.31229	0.54043	0.61339	-0.571
Mof_O 	O 	0.78868	0.42524	0.90617	-0.538
Mof_O 	O 	0.64472	0.51408	0.00488	-0.635
Mof_O 	O 	0.4661	0.35354	0.72436	-0.604
Mof_O 	O 	0.42458	0.40218	0.83855	-0.623
Mof_O 	O 	0.39175	0.74781	0.00054	-0.603
Mof_O 	O 	0.45957	0.68771	0.88661	-0.571
Mof_O 	O 	0.57476	0.21132	0.59383	-0.538
Mof_O 	O 	0.48592	0.35528	0.49512	-0.635
Mof_O 	O 	0.35354	0.4661	0.22436	-0.604
Mof_O 	O 	0.40218	0.42458	0.33855	-0.623
Mof_O 	O 	0.74781	0.39175	0.50054	-0.603
Mof_O 	O 	0.68771	0.45957	0.38661	-0.571
Mof_O 	O 	0.21132	0.57476	0.09383	-0.538
Mof_O 	O 	0.35528	0.48592	0.99512	-0.635
Mof_O 	O 	0.5339	0.64646	0.27564	-0.604
Mof_O 	O 	0.57542	0.59782	0.16145	-0.623
Mof_O 	O 	0.60825	0.25219	0.99946	-0.603
Mof_O 	O 	0.54043	0.31229	0.11339	-0.571
Mof_O 	O 	0.42524	0.78868	0.40617	-0.538
Mof_O 	O 	0.51408	0.64472	0.50488	-0.635
_end
