# CIF file generated by openbabel 3.1.0, see https://openbabel.org
data_I
_chemical_name_common 'image0'
_cell_length_a 9.605
_cell_length_b 16.769
_cell_length_c 21.155
_cell_angle_alpha 104.16
_cell_angle_beta 100.31
_cell_angle_gamma 97.16
_space_group_name_H-M_alt 'P 1'
_space_group_name_Hall 'P 1'
loop_
    _symmetry_equiv_pos_as_xyz
    x,y,z
loop_
    _atom_site_label
    _atom_site_type_symbol
    _atom_site_fract_x
    _atom_site_fract_y
    _atom_site_fract_z
    _atom_site_occupancy
    Tb1      Tb       0.27684    0.51230    0.99710    1.000
    I1       I        0.76160    0.98920    0.49996    1.000
    I2       I        0.99071    0.77992    0.47107    1.000
    I3       I        0.08918    0.97768    0.67472    1.000
    I4       I        0.69498    0.78942    0.61293    1.000
    Cu1      Cu       0.01403    0.94245    0.54044    1.000
    Cu2      Cu       0.75521    0.82692    0.50169    1.000
    Cu3      Cu       0.82035    0.94494    0.62243    1.000
    Cu4      Cu       0.96195    0.81770    0.59979    1.000
    O1       O        0.16960    0.54040    0.08880    1.000
    O2       O        0.93930    0.48300    0.06930    1.000
    O3       O        0.55160    0.37790    0.92820    1.000
    O4       O        0.33090    0.40990    0.91300    1.000
    O5       O        0.35920    0.58350    0.92340    1.000
    O6       O        0.57810    0.55220    0.94060    1.000
    N1       N        0.57740    0.76080    0.43260    1.000
    N2       N        0.71060    0.02660    0.66970    1.000
    N3       N        0.09920    0.75310    0.64270    1.000
    C1       C        0.45010    0.78360    0.43460    1.000
    H1       H        0.44600    0.83150    0.46700    1.000
    C2       C        0.32560    0.74020    0.39190    1.000
    H2       H        0.23920    0.75800    0.39660    1.000
    C3       C        0.32580    0.67020    0.34170    1.000
    C4       C        0.45930    0.64760    0.33850    1.000
    H3       H        0.46720    0.60130    0.30550    1.000
    C5       C        0.58020    0.69440    0.38470    1.000
    H4       H        0.66830    0.67800    0.38170    1.000
    C6       C        0.19180    0.62100    0.29400    1.000
    C7       C        0.18770    0.59420    0.22630    1.000
    H5       H        0.26960    0.60670    0.21040    1.000
    C8       C        0.06110    0.54840    0.18140    1.000
    C9       C        0.93850    0.52900    0.20580    1.000
    H6       H        0.85460    0.49780    0.17650    1.000
    C10      C        0.94170    0.55570    0.27250    1.000
    H7       H        0.86000    0.54260    0.28840    1.000
    C11      C        0.06700    0.60260    0.31700    1.000
    H8       H        0.06760    0.62170    0.36220    1.000
    C12      C        0.05670    0.52240    0.10790    1.000
    C13      C        0.76730    0.10170    0.71280    1.000
    H9       H        0.86690    0.11640    0.72590    1.000
    C14      C        0.68490    0.15830    0.73840    1.000
    H10      H        0.72940    0.20920    0.76870    1.000
    C15      C        0.53470    0.13940    0.71910    1.000
    C16      C        0.47900    0.06100    0.67380    1.000
    H11      H        0.38010    0.04560    0.65790    1.000
    C17      C        0.56650    0.00630    0.65230    1.000
    H12      H        0.52470    0.95340    0.62460    1.000
    C18      C        0.43900    0.19660    0.74330    1.000
    C19      C        0.47760    0.25530    0.80460    1.000
    H13      H        0.56920    0.26150    0.83070    1.000
    C20      C        0.38210    0.30590    0.82850    1.000
    C21      C        0.24670    0.29750    0.78990    1.000
    H14      H        0.18250    0.33060    0.80550    1.000
    C22      C        0.20580    0.23850    0.72640    1.000
    H15      H        0.11500    0.23340    0.70000    1.000
    C23      C        0.29940    0.18890    0.70380    1.000
    H16      H        0.27130    0.14990    0.66220    1.000
    C24      C        0.42490    0.36890    0.89500    1.000
    C25      C        0.23440    0.76990    0.64240    1.000
    H17      H        0.26310    0.80740    0.61930    1.000
    C26      C        0.33930    0.73420    0.67520    1.000
    H18      H        0.43500    0.74760    0.67310    1.000
    C27      C        0.30200    0.68030    0.70980    1.000
    C28      C        0.15910    0.66300    0.70970    1.000
    H19      H        0.12750    0.62550    0.73220    1.000
    C29      C        0.06070    0.70080    0.67640    1.000
    H20      H        0.96440    0.68890    0.67790    1.000
    C30      C        0.41220    0.64370    0.74730    1.000
    C31      C        0.39580    0.62740    0.80800    1.000
    H21      H        0.31450    0.63860    0.82430    1.000
    C32      C        0.49950    0.59490    0.84390    1.000
    C33      C        0.62050    0.57830    0.81950    1.000
    H22      H        0.69110    0.55720    0.84340    1.000
    C34      C        0.63620    0.59350    0.75840    1.000
    H23      H        0.71720    0.58210    0.74190    1.000
    C35      C        0.53260    0.62510    0.72300    1.000
    H24      H        0.54340    0.63420    0.68230    1.000
    C36      C        0.47720    0.57510    0.90700    1.000
    Tb2      Tb       0.72316    0.48770    0.00290    1.000
    I5       I        0.23840    0.01080    0.50004    1.000
    I6       I        0.00929    0.22008    0.52893    1.000
    I7       I        0.91082    0.02232    0.32528    1.000
    I8       I        0.30502    0.21058    0.38707    1.000
    Cu5      Cu       0.98597    0.05755    0.45956    1.000
    Cu6      Cu       0.24479    0.17308    0.49831    1.000
    Cu7      Cu       0.17965    0.05506    0.37757    1.000
    Cu8      Cu       0.03805    0.18230    0.40021    1.000
    O7       O        0.83040    0.45960    0.91120    1.000
    O8       O        0.06070    0.51700    0.93070    1.000
    O9       O        0.44840    0.62210    0.07180    1.000
    O10      O        0.66910    0.59010    0.08700    1.000
    O11      O        0.64080    0.41650    0.07660    1.000
    O12      O        0.42190    0.44780    0.05940    1.000
    N4       N        0.42260    0.23920    0.56740    1.000
    N5       N        0.28940    0.97340    0.33030    1.000
    N6       N        0.90080    0.24690    0.35730    1.000
    C37      C        0.54990    0.21640    0.56540    1.000
    H25      H        0.55400    0.16850    0.53300    1.000
    C38      C        0.67440    0.25980    0.60810    1.000
    H26      H        0.76080    0.24200    0.60340    1.000
    C39      C        0.67420    0.32980    0.65830    1.000
    C40      C        0.54070    0.35240    0.66150    1.000
    H27      H        0.53280    0.39870    0.69450    1.000
    C41      C        0.41980    0.30560    0.61530    1.000
    H28      H        0.33170    0.32200    0.61830    1.000
    C42      C        0.80820    0.37900    0.70600    1.000
    C43      C        0.81230    0.40580    0.77370    1.000
    H29      H        0.73040    0.39330    0.78960    1.000
    C44      C        0.93890    0.45160    0.81860    1.000
    C45      C        0.06150    0.47100    0.79420    1.000
    H30      H        0.14540    0.50220    0.82350    1.000
    C46      C        0.05830    0.44430    0.72750    1.000
    H31      H        0.14000    0.45740    0.71160    1.000
    C47      C        0.93300    0.39740    0.68300    1.000
    H32      H        0.93240    0.37830    0.63780    1.000
    C48      C        0.94330    0.47760    0.89210    1.000
    C49      C        0.23270    0.89830    0.28720    1.000
    H33      H        0.13310    0.88360    0.27410    1.000
    C50      C        0.31510    0.84170    0.26160    1.000
    H34      H        0.27060    0.79080    0.23130    1.000
    C51      C        0.46530    0.86060    0.28090    1.000
    C52      C        0.52100    0.93900    0.32620    1.000
    H35      H        0.61990    0.95440    0.34210    1.000
    C53      C        0.43350    0.99370    0.34770    1.000
    H36      H        0.47530    0.04660    0.37540    1.000
    C54      C        0.56100    0.80340    0.25670    1.000
    C55      C        0.52240    0.74470    0.19540    1.000
    H37      H        0.43080    0.73850    0.16930    1.000
    C56      C        0.61790    0.69410    0.17150    1.000
    C57      C        0.75330    0.70250    0.21010    1.000
    H38      H        0.81750    0.66940    0.19450    1.000
    C58      C        0.79420    0.76150    0.27360    1.000
    H39      H        0.88500    0.76660    0.30000    1.000
    C59      C        0.70060    0.81110    0.29620    1.000
    H40      H        0.72870    0.85010    0.33780    1.000
    C60      C        0.57510    0.63110    0.10500    1.000
    C61      C        0.76560    0.23010    0.35760    1.000
    H41      H        0.73690    0.19260    0.38070    1.000
    C62      C        0.66070    0.26580    0.32480    1.000
    H42      H        0.56500    0.25240    0.32690    1.000
    C63      C        0.69800    0.31970    0.29020    1.000
    C64      C        0.84090    0.33700    0.29030    1.000
    H43      H        0.87250    0.37450    0.26780    1.000
    C65      C        0.93930    0.29920    0.32360    1.000
    H44      H        0.03560    0.31110    0.32210    1.000
    C66      C        0.58780    0.35630    0.25270    1.000
    C67      C        0.60420    0.37260    0.19200    1.000
    H45      H        0.68550    0.36140    0.17570    1.000
    C68      C        0.50050    0.40510    0.15610    1.000
    C69      C        0.37950    0.42170    0.18050    1.000
    H46      H        0.30890    0.44280    0.15660    1.000
    C70      C        0.36380    0.40650    0.24160    1.000
    H47      H        0.28280    0.41790    0.25810    1.000
    C71      C        0.46740    0.37490    0.27700    1.000
    H48      H        0.45660    0.36580    0.31770    1.000
    C72      C        0.52280    0.42490    0.09300    1.000
