# CIF file generated by openbabel 3.1.0, see https://openbabel.org
data_I
_chemical_name_common 'image0'
_cell_length_a 9.1427
_cell_length_b 24.503
_cell_length_c 24.588
_cell_angle_alpha 90
_cell_angle_beta 91.089
_cell_angle_gamma 90
_space_group_name_H-M_alt 'P 1'
_space_group_name_Hall 'P 1'
loop_
    _symmetry_equiv_pos_as_xyz
    x,y,z
loop_
    _atom_site_label
    _atom_site_type_symbol
    _atom_site_fract_x
    _atom_site_fract_y
    _atom_site_fract_z
    _atom_site_occupancy
    C1       C        0.14950    0.84810    0.01640    1.000
    C2       C        0.19320    0.82290    0.10270    1.000
    C3       C        0.10350    0.76130    0.04360    1.000
    C4       C        0.14540    0.86880    0.91660    1.000
    H1       H        0.24270    0.86180    0.90330    1.000
    H2       H        0.08950    0.83530    0.91390    1.000
    C5       C        0.07480    0.91100    0.88330    1.000
    H3       H        0.97370    0.91580    0.89490    1.000
    C6       C        0.15770    0.96510    0.89060    1.000
    H4       H        0.25560    0.96150    0.87640    1.000
    H5       H        0.10750    0.99370    0.87040    1.000
    C7       C        0.16630    0.97980    0.94950    1.000
    H6       H        0.22320    0.01300    0.95360    1.000
    H7       H        0.06830    0.98740    0.96200    1.000
    C8       C        0.23070    0.93820    0.98380    1.000
    H8       H        0.22330    0.94870    0.02170    1.000
    H9       H        0.33360    0.93420    0.97560    1.000
    C9       C        0.07440    0.89250    0.82390    1.000
    C10      C        0.29180    0.89310    0.16640    1.000
    H10      H        0.38850    0.89570    0.18320    1.000
    H11      H        0.28830    0.91640    0.13460    1.000
    C11      C        0.17850    0.90970    0.20550    1.000
    H12      H        0.08360    0.90650    0.18660    1.000
    C12      C        0.17320    0.87420    0.25410    1.000
    H13      H        0.09300    0.88570    0.27670    1.000
    H14      H        0.26330    0.87830    0.27520    1.000
    C13      C        0.15310    0.81510    0.23900    1.000
    H15      H        0.05410    0.80950    0.22520    1.000
    H16      H        0.16690    0.79260    0.27110    1.000
    C14      C        0.26110    0.79770    0.19590    1.000
    H17      H        0.35890    0.79630    0.21190    1.000
    H18      H        0.23620    0.76150    0.18290    1.000
    C15      C        0.19910    0.97000    0.22000    1.000
    C16      C        0.01240    0.67150    0.07710    1.000
    H19      H        0.90780    0.66790    0.08210    1.000
    H20      H        0.05710    0.68330    0.11120    1.000
    C17      C        0.07680    0.61780    0.05960    1.000
    H21      H        0.05600    0.59030    0.08670    1.000
    H22      H        0.18220    0.62140    0.05760    1.000
    C18      C        0.01620    0.59900    0.00460    1.000
    H23      H        0.06150    0.56480    0.99460    1.000
    H24      H        0.91160    0.59320    0.00680    1.000
    C19      C        0.04680    0.64180    0.96190    1.000
    H25      H        0.15330    0.64620    0.96160    1.000
    C20      C        0.98310    0.69810    0.97840    1.000
    H26      H        0.01080    0.72570    0.95230    1.000
    H27      H        0.87720    0.69630    0.97910    1.000
    C21      C        0.00000    0.62710    0.90400    1.000
    C22      C        0.45550    0.15510    0.90290    1.000
    C23      C        0.39150    0.22200    0.95770    1.000
    C24      C        0.50570    0.14920    0.99480    1.000
    C25      C        0.54490    0.08250    0.84370    1.000
    H28      H        0.57720    0.06650    0.87790    1.000
    H29      H        0.63070    0.09050    0.82250    1.000
    C26      C        0.44720    0.04230    0.81280    1.000
    H30      H        0.35800    0.03600    0.83340    1.000
    C27      C        0.40640    0.06980    0.75810    1.000
    H31      H        0.34340    0.04570    0.73690    1.000
    H32      H        0.49440    0.07630    0.73770    1.000
    C28      C        0.32610    0.12510    0.76790    1.000
    H33      H        0.31180    0.14410    0.73360    1.000
    H34      H        0.23080    0.11830    0.78320    1.000
    C29      C        0.41390    0.15870    0.80530    1.000
    H35      H        0.49860    0.17180    0.78600    1.000
    H36      H        0.35630    0.19040    0.81500    1.000
    C30      C        0.52680    0.98850    0.80550    1.000
    C31      C        0.26360    0.30190    0.91610    1.000
    H37      H        0.29070    0.28310    0.88310    1.000
    H38      H        0.15780    0.30210    0.91800    1.000
    C32      C        0.31860    0.35770    0.91530    1.000
    H39      H        0.27240    0.37700    0.88500    1.000
    H40      H        0.42300    0.35690    0.90890    1.000
    C33      C        0.29130    0.38970    0.96790    1.000
    H41      H        0.18740    0.39180    0.97480    1.000
    H42      H        0.32980    0.42650    0.96520    1.000
    C34      C        0.37120    0.35810    0.01410    1.000
    H43      H        0.47610    0.35640    0.00690    1.000
    C35      C        0.30660    0.29990    0.01500    1.000
    H44      H        0.35350    0.27900    0.04400    1.000
    H45      H        0.20280    0.30180    0.02230    1.000
    C36      C        0.34560    0.39040    0.06750    1.000
    C37      C        0.51870    0.13220    0.08910    1.000
    H46      H        0.48570    0.16980    0.08970    1.000
    H47      H        0.60650    0.13010    0.11180    1.000
    C38      C        0.40410    0.09790    0.11490    1.000
    H48      H        0.30830    0.10890    0.10020    1.000
    C39      C        0.42890    0.03640    0.10100    1.000
    H49      H        0.50270    0.02170    0.12580    1.000
    H50      H        0.33870    0.01660    0.10680    1.000
    C40      C        0.47530    0.02750    0.04500    1.000
    H51      H        0.39210    0.03340    0.02060    1.000
    H52      H        0.50520    0.98970    0.04120    1.000
    C41      C        0.59880    0.06370    0.02780    1.000
    H53      H        0.68590    0.05570    0.04950    1.000
    H54      H        0.62050    0.05700    0.98990    1.000
    C42      C        0.39900    0.09980    0.17680    1.000
    C43      C        0.56500    0.81180    0.49810    1.000
    C44      C        0.63730    0.73090    0.46330    1.000
    C45      C        0.61020    0.80430    0.41010    1.000
    C46      C        0.50430    0.90290    0.53310    1.000
    H55      H        0.47530    0.91150    0.49600    1.000
    H56      H        0.42970    0.91670    0.55700    1.000
    C47      C        0.64520    0.92920    0.54640    1.000
    H57      H        0.63720    0.96840    0.54180    1.000
    H58      H        0.72030    0.91590    0.52240    1.000
    C48      C        0.68650    0.91500    0.60740    1.000
    H59      H        0.78360    0.92910    0.61570    1.000
    H60      H        0.61850    0.93340    0.63100    1.000
    C49      C        0.68410    0.85360    0.62000    1.000
    H61      H        0.76880    0.83610    0.60340    1.000
    C50      C        0.53900    0.82680    0.59620    1.000
    H62      H        0.54600    0.78730    0.59870    1.000
    H63      H        0.45620    0.83850    0.61730    1.000
    C51      C        0.69950    0.85050    0.67840    1.000
    C52      C        0.67110    0.64950    0.52290    1.000
    H64      H        0.76440    0.63280    0.53240    1.000
    H65      H        0.64720    0.67520    0.55140    1.000
    C53      C        0.55930    0.60770    0.51950    1.000
    H66      H        0.46430    0.62570    0.51470    1.000
    C54      C        0.58140    0.56860    0.47000    1.000
    H67      H        0.49770    0.54450    0.46610    1.000
    H68      H        0.66790    0.54640    0.47630    1.000
    C55      C        0.59910    0.60300    0.41670    1.000
    H69      H        0.62440    0.57920    0.38680    1.000
    H70      H        0.50760    0.62110    0.40740    1.000
    C56      C        0.71930    0.64540    0.42580    1.000
    H71      H        0.81170    0.62710    0.43330    1.000
    H72      H        0.72990    0.66730    0.39330    1.000
    C57      C        0.55270    0.57170    0.56990    1.000
    C58      C        0.65170    0.79560    0.31380    1.000
    H73      H        0.56120    0.78680    0.29460    1.000
    H74      H        0.69870    0.76170    0.32460    1.000
    C59      C        0.75200    0.82760    0.27620    1.000
    H75      H        0.84680    0.83250    0.29390    1.000
    H76      H        0.76630    0.80690    0.24310    1.000
    C60      C        0.68740    0.88260    0.26230    1.000
    H77      H        0.59640    0.87760    0.24200    1.000
    H78      H        0.75430    0.90250    0.23940    1.000
    C61      C        0.65820    0.91620    0.31370    1.000
    H79      H        0.75180    0.92360    0.33230    1.000
    C62      C        0.56160    0.88100    0.35200    1.000
    H80      H        0.55470    0.89900    0.38690    1.000
    H81      H        0.46360    0.87820    0.33640    1.000
    C63      C        0.58440    0.96880    0.30180    1.000
    C64      C        0.90830    0.10490    0.51040    1.000
    C65      C        0.92200    0.19150    0.53670    1.000
    C66      C        0.85260    0.12600    0.59570    1.000
    C67      C        0.92620    0.08540    0.41290    1.000
    H82      H        0.82980    0.08190    0.39600    1.000
    H83      H        0.95510    0.12340    0.41100    1.000
    C68      C        0.03130    0.05160    0.38330    1.000
    H84      H        0.12880    0.05700    0.39960    1.000
    C69      C        0.99070    0.98910    0.38700    1.000
    H85      H        0.89600    0.98250    0.36980    1.000
    H86      H        0.06330    0.96720    0.36880    1.000
    C70      C        0.98680    0.97490    0.44610    1.000
    H87      H        0.95420    0.93750    0.44990    1.000
    H88      H        0.08500    0.97740    0.46160    1.000
    C71      C        0.88870    0.01110    0.47670    1.000
    H89      H        0.78850    0.00440    0.46480    1.000
    H90      H        0.89620    0.00200    0.51510    1.000
    C72      C        0.03790    0.06450    0.32200    1.000
    C73      C        0.99150    0.26280    0.47310    1.000
    H91      H        0.98580    0.23240    0.44800    1.000
    H92      H        0.08970    0.27770    0.47230    1.000
    C74      C        0.88210    0.30600    0.45650    1.000
    H93      H        0.78550    0.28870    0.45520    1.000
    C75      C        0.87480    0.35100    0.49540    1.000
    H94      H        0.79620    0.37560    0.48490    1.000
    H95      H        0.96580    0.37130    0.49530    1.000
    C76      C        0.84740    0.32820    0.55410    1.000
    H96      H        0.85600    0.35780    0.58020    1.000
    H97      H        0.74880    0.31380    0.55570    1.000
    C77      C        0.95360    0.28450    0.56890    1.000
    H98      H        0.04990    0.30040    0.57440    1.000
    H99      H        0.92490    0.26760    0.60270    1.000
    C78      C        0.91510    0.32670    0.39700    1.000
    C79      C        0.78840    0.05390    0.66110    1.000
    H100     H        0.79070    0.03040    0.62940    1.000
    H101     H        0.69620    0.04800    0.67910    1.000
    C80      C        0.91190    0.03980    0.69890    1.000
    H102     H        0.00520    0.04530    0.68070    1.000
    C81      C        0.90240    0.07800    0.74830    1.000
    H103     H        0.81100    0.07170    0.76670    1.000
    H104     H        0.98190    0.06990    0.77380    1.000
    C82      C        0.91100    0.13600    0.73130    1.000
    H105     H        0.00730    0.14360    0.71730    1.000
    H106     H        0.89590    0.15950    0.76250    1.000
    C83      C        0.79420    0.14790    0.68740    1.000
    H107     H        0.69830    0.14600    0.70340    1.000
    H108     H        0.80770    0.18470    0.67390    1.000
    C84      C        0.89560    0.98140    0.71420    1.000
    Gd1      Gd       0.08031    0.85996    0.70944    1.000
    Gd2      Gd       0.69650    0.88953    0.79039    1.000
    Gd3      Gd       0.40866    0.06615    0.28767    1.000
    Gd4      Gd       0.01872    0.09213    0.20519    1.000
    N1       N        0.19210    0.86430    0.06560    1.000
    N2       N        0.14990    0.77300    0.09510    1.000
    N3       N        0.10760    0.79640    0.00150    1.000
    N4       N        0.15550    0.88640    0.97470    1.000
    N5       N        0.25910    0.83520    0.15090    1.000
    N6       N        0.04260    0.71190    0.03310    1.000
    N7       N        0.39210    0.20190    0.90810    1.000
    N8       N        0.44490    0.19870    0.00360    1.000
    N9       N        0.50790    0.12460    0.94650    1.000
    N10      N        0.46360    0.13320    0.85400    1.000
    N11      N        0.32750    0.27300    0.96440    1.000
    N12      N        0.55790    0.11950    0.03490    1.000
    N13      N        0.59660    0.75860    0.50780    1.000
    N14      N        0.65440    0.75090    0.41350    1.000
    N15      N        0.56900    0.83610    0.44810    1.000
    N16      N        0.51680    0.84280    0.53940    1.000
    N17      N        0.68390    0.67930    0.47000    1.000
    N18      N        0.62120    0.82650    0.35990    1.000
    N19      N        0.93110    0.15700    0.49650    1.000
    N20      N        0.88060    0.17930    0.58790    1.000
    N21      N        0.86950    0.08670    0.55840    1.000
    N22      N        0.92060    0.06800    0.47010    1.000
    N23      N        0.95930    0.24450    0.52760    1.000
    N24      N        0.79990    0.11160    0.64410    1.000
    O1       O        0.94640    0.88890    0.80040    1.000
    O2       O        0.18920    0.88300    0.80110    1.000
    O3       O        0.10240    0.00310    0.20320    1.000
    O4       O        0.31300    0.98460    0.24520    1.000
    O5       O        0.99090    0.57630    0.89240    1.000
    O6       O        0.97530    0.66150    0.86960    1.000
    O7       O        0.62850    0.97370    0.83760    1.000
    O8       O        0.49450    0.95630    0.76570    1.000
    O9       O        0.40410    0.43710    0.06620    1.000
    H109     H        0.38890    0.45320    0.09480    1.000
    O10      O        0.27850    0.37310    0.10490    1.000
    O11      O        0.27500    0.09980    0.19830    1.000
    O12      O        0.50890    0.09640    0.20420    1.000
    O13      O        0.58860    0.85330    0.70840    1.000
    O14      O        0.81910    0.85110    0.70210    1.000
    O15      O        0.60990    0.58470    0.61040    1.000
    O16      O        0.47950    0.52840    0.56530    1.000
    H110     H        0.48220    0.51180    0.59430    1.000
    O17      O        0.61180    0.99690    0.26340    1.000
    O18      O        0.50010    0.98940    0.33820    1.000
    O19      O        0.15690    0.07120    0.29920    1.000
    O20      O        0.91960    0.06880    0.29640    1.000
    O21      O        0.94180    0.29090    0.36310    1.000
    O22      O        0.91300    0.37520    0.38650    1.000
    O23      O        0.78600    0.96450    0.73910    1.000
    O24      O        0.00060    0.94920    0.70160    1.000
    C85      C        0.85050    0.34810    0.98360    1.000
    C86      C        0.80680    0.32290    0.89730    1.000
    C87      C        0.89650    0.26130    0.95640    1.000
    C88      C        0.85460    0.36880    0.08340    1.000
    H111     H        0.75730    0.36180    0.09670    1.000
    H112     H        0.91050    0.33530    0.08610    1.000
    C89      C        0.92520    0.41100    0.11670    1.000
    H113     H        0.02630    0.41580    0.10510    1.000
    C90      C        0.84230    0.46510    0.10940    1.000
    H114     H        0.74440    0.46150    0.12360    1.000
    H115     H        0.89250    0.49370    0.12960    1.000
    C91      C        0.83370    0.47980    0.05050    1.000
    H116     H        0.77680    0.51300    0.04640    1.000
    H117     H        0.93170    0.48740    0.03800    1.000
    C92      C        0.76930    0.43820    0.01620    1.000
    H118     H        0.77670    0.44870    0.97830    1.000
    H119     H        0.66640    0.43420    0.02440    1.000
    C93      C        0.92560    0.39250    0.17610    1.000
    C94      C        0.70820    0.39310    0.83360    1.000
    H120     H        0.61150    0.39570    0.81680    1.000
    H121     H        0.71170    0.41640    0.86540    1.000
    C95      C        0.82150    0.40970    0.79450    1.000
    H122     H        0.91640    0.40650    0.81340    1.000
    C96      C        0.82680    0.37420    0.74590    1.000
    H123     H        0.90700    0.38570    0.72330    1.000
    H124     H        0.73670    0.37830    0.72480    1.000
    C97      C        0.84690    0.31510    0.76100    1.000
    H125     H        0.94590    0.30950    0.77480    1.000
    H126     H        0.83310    0.29260    0.72890    1.000
    C98      C        0.73890    0.29770    0.80410    1.000
    H127     H        0.64110    0.29630    0.78810    1.000
    H128     H        0.76380    0.26150    0.81710    1.000
    C99      C        0.80090    0.47000    0.78000    1.000
    C100     C        0.98760    0.17150    0.92290    1.000
    H129     H        0.09220    0.16790    0.91790    1.000
    H130     H        0.94290    0.18330    0.88880    1.000
    C101     C        0.92320    0.11780    0.94040    1.000
    H131     H        0.94400    0.09030    0.91330    1.000
    H132     H        0.81780    0.12140    0.94240    1.000
    C102     C        0.98380    0.09900    0.99540    1.000
    H133     H        0.93850    0.06480    0.00540    1.000
    H134     H        0.08840    0.09320    0.99320    1.000
    C103     C        0.95320    0.14180    0.03810    1.000
    H135     H        0.84670    0.14620    0.03840    1.000
    C104     C        0.01690    0.19810    0.02160    1.000
    H136     H        0.98920    0.22570    0.04770    1.000
    H137     H        0.12280    0.19630    0.02090    1.000
    C105     C        0.00000    0.12710    0.09600    1.000
    C106     C        0.54450    0.65510    0.09710    1.000
    C107     C        0.60850    0.72200    0.04230    1.000
    C108     C        0.49430    0.64920    0.00520    1.000
    C109     C        0.45510    0.58250    0.15630    1.000
    H138     H        0.42280    0.56650    0.12210    1.000
    H139     H        0.36930    0.59050    0.17750    1.000
    C110     C        0.55280    0.54230    0.18720    1.000
    H140     H        0.64200    0.53600    0.16660    1.000
    C111     C        0.59360    0.56980    0.24190    1.000
    H141     H        0.65660    0.54570    0.26310    1.000
    H142     H        0.50560    0.57630    0.26230    1.000
    C112     C        0.67390    0.62510    0.23210    1.000
    H143     H        0.68820    0.64410    0.26640    1.000
    H144     H        0.76920    0.61830    0.21680    1.000
    C113     C        0.58610    0.65870    0.19470    1.000
    H145     H        0.50140    0.67180    0.21400    1.000
    H146     H        0.64370    0.69040    0.18500    1.000
    C114     C        0.47320    0.48850    0.19450    1.000
    C115     C        0.73640    0.80190    0.08390    1.000
    H147     H        0.70930    0.78310    0.11690    1.000
    H148     H        0.84220    0.80210    0.08200    1.000
    C116     C        0.68140    0.85770    0.08470    1.000
    H149     H        0.72760    0.87700    0.11500    1.000
    H150     H        0.57700    0.85690    0.09110    1.000
    C117     C        0.70870    0.88970    0.03210    1.000
    H151     H        0.81260    0.89180    0.02520    1.000
    H152     H        0.67020    0.92650    0.03480    1.000
    C118     C        0.62880    0.85810    0.98590    1.000
    H153     H        0.52390    0.85640    0.99310    1.000
    C119     C        0.69340    0.79990    0.98500    1.000
    H154     H        0.64650    0.77900    0.95600    1.000
    H155     H        0.79720    0.80180    0.97770    1.000
    C120     C        0.65440    0.89040    0.93250    1.000
    C121     C        0.48130    0.63220    0.91090    1.000
    H156     H        0.51430    0.66980    0.91030    1.000
    H157     H        0.39350    0.63010    0.88820    1.000
    C122     C        0.59590    0.59790    0.88510    1.000
    H158     H        0.69170    0.60890    0.89980    1.000
    C123     C        0.57110    0.53640    0.89900    1.000
    H159     H        0.49730    0.52170    0.87420    1.000
    H160     H        0.66130    0.51660    0.89320    1.000
    C124     C        0.52470    0.52750    0.95500    1.000
    H161     H        0.60790    0.53340    0.97940    1.000
    H162     H        0.49480    0.48970    0.95880    1.000
    C125     C        0.40120    0.56370    0.97220    1.000
    H163     H        0.31410    0.55570    0.95050    1.000
    H164     H        0.37950    0.55700    0.01010    1.000
    C126     C        0.60100    0.59980    0.82320    1.000
    C127     C        0.43500    0.31180    0.50190    1.000
    C128     C        0.36270    0.23090    0.53670    1.000
    C129     C        0.38980    0.30430    0.58990    1.000
    C130     C        0.49570    0.40290    0.46690    1.000
    H165     H        0.52470    0.41150    0.50400    1.000
    H166     H        0.57030    0.41670    0.44300    1.000
    C131     C        0.35480    0.42920    0.45360    1.000
    H167     H        0.36280    0.46840    0.45820    1.000
    H168     H        0.27970    0.41590    0.47760    1.000
    C132     C        0.31350    0.41500    0.39260    1.000
    H169     H        0.21640    0.42910    0.38430    1.000
    H170     H        0.38150    0.43340    0.36900    1.000
    C133     C        0.31590    0.35360    0.38000    1.000
    H171     H        0.23120    0.33610    0.39660    1.000
    C134     C        0.46100    0.32680    0.40380    1.000
    H172     H        0.45400    0.28730    0.40130    1.000
    H173     H        0.54380    0.33850    0.38270    1.000
    C135     C        0.30050    0.35050    0.32160    1.000
    C136     C        0.32890    0.14950    0.47710    1.000
    H174     H        0.23560    0.13280    0.46760    1.000
    H175     H        0.35280    0.17520    0.44860    1.000
    C137     C        0.44070    0.10770    0.48050    1.000
    H176     H        0.53570    0.12570    0.48530    1.000
    C138     C        0.41860    0.06860    0.53000    1.000
    H177     H        0.50230    0.04450    0.53390    1.000
    H178     H        0.33210    0.04640    0.52370    1.000
    C139     C        0.40090    0.10300    0.58330    1.000
    H179     H        0.37560    0.07920    0.61320    1.000
    H180     H        0.49240    0.12110    0.59260    1.000
    C140     C        0.28070    0.14540    0.57420    1.000
    H181     H        0.18830    0.12710    0.56670    1.000
    H182     H        0.27010    0.16730    0.60670    1.000
    C141     C        0.44730    0.07170    0.43010    1.000
    C142     C        0.34830    0.29560    0.68620    1.000
    H183     H        0.43880    0.28680    0.70540    1.000
    H184     H        0.30130    0.26170    0.67540    1.000
    C143     C        0.24800    0.32760    0.72380    1.000
    H185     H        0.15320    0.33250    0.70610    1.000
    H186     H        0.23370    0.30690    0.75690    1.000
    C144     C        0.31260    0.38260    0.73770    1.000
    H187     H        0.40360    0.37760    0.75800    1.000
    H188     H        0.24570    0.40250    0.76060    1.000
    C145     C        0.34180    0.41620    0.68630    1.000
    H189     H        0.24820    0.42360    0.66770    1.000
    C146     C        0.43840    0.38100    0.64800    1.000
    H190     H        0.44530    0.39900    0.61310    1.000
    H191     H        0.53640    0.37820    0.66360    1.000
    C147     C        0.41560    0.46880    0.69820    1.000
    C148     C        0.09170    0.60490    0.48960    1.000
    C149     C        0.07800    0.69150    0.46330    1.000
    C150     C        0.14740    0.62600    0.40430    1.000
    C151     C        0.07380    0.58540    0.58710    1.000
    H192     H        0.17020    0.58190    0.60400    1.000
    H193     H        0.04490    0.62340    0.58900    1.000
    C152     C        0.96870    0.55160    0.61670    1.000
    H194     H        0.87120    0.55700    0.60040    1.000
    C153     C        0.00930    0.48910    0.61300    1.000
    H195     H        0.10400    0.48250    0.63020    1.000
    H196     H        0.93670    0.46720    0.63120    1.000
    C154     C        0.01320    0.47490    0.55390    1.000
    H197     H        0.04580    0.43750    0.55010    1.000
    H198     H        0.91500    0.47740    0.53840    1.000
    C155     C        0.11130    0.51110    0.52330    1.000
    H199     H        0.21150    0.50440    0.53520    1.000
    H200     H        0.10380    0.50200    0.48490    1.000
    C156     C        0.96210    0.56450    0.67800    1.000
    C157     C        0.00850    0.76280    0.52690    1.000
    H201     H        0.01420    0.73240    0.55200    1.000
    H202     H        0.91030    0.77770    0.52770    1.000
    C158     C        0.11790    0.80600    0.54350    1.000
    H203     H        0.21450    0.78870    0.54480    1.000
    C159     C        0.12520    0.85100    0.50460    1.000
    H204     H        0.20380    0.87560    0.51510    1.000
    H205     H        0.03420    0.87130    0.50470    1.000
    C160     C        0.15260    0.82820    0.44590    1.000
    H206     H        0.14400    0.85780    0.41980    1.000
    H207     H        0.25120    0.81380    0.44430    1.000
    C161     C        0.04640    0.78450    0.43110    1.000
    H208     H        0.95010    0.80040    0.42560    1.000
    H209     H        0.07510    0.76760    0.39730    1.000
    C162     C        0.08490    0.82670    0.60300    1.000
    C163     C        0.21160    0.55390    0.33890    1.000
    H210     H        0.20930    0.53040    0.37060    1.000
    H211     H        0.30380    0.54800    0.32090    1.000
    C164     C        0.08810    0.53980    0.30110    1.000
    H212     H        0.99480    0.54530    0.31930    1.000
    C165     C        0.09760    0.57800    0.25170    1.000
    H213     H        0.18900    0.57170    0.23330    1.000
    H214     H        0.01810    0.56990    0.22620    1.000
    C166     C        0.08900    0.63600    0.26870    1.000
    H215     H        0.99270    0.64360    0.28270    1.000
    H216     H        0.10410    0.65950    0.23750    1.000
    C167     C        0.20580    0.64790    0.31260    1.000
    H217     H        0.30170    0.64600    0.29660    1.000
    H218     H        0.19230    0.68470    0.32610    1.000
    C168     C        0.10440    0.48140    0.28580    1.000
    Gd5      Gd       0.91969    0.35996    0.29056    1.000
    Gd6      Gd       0.30350    0.38953    0.20961    1.000
    Gd7      Gd       0.59134    0.56615    0.71233    1.000
    Gd8      Gd       0.98128    0.59213    0.79481    1.000
    N25      N        0.80790    0.36430    0.93440    1.000
    N26      N        0.85010    0.27300    0.90490    1.000
    N27      N        0.89240    0.29640    0.99850    1.000
    N28      N        0.84450    0.38640    0.02530    1.000
    N29      N        0.74090    0.33520    0.84910    1.000
    N30      N        0.95740    0.21190    0.96690    1.000
    N31      N        0.60790    0.70190    0.09190    1.000
    N32      N        0.55510    0.69870    0.99640    1.000
    N33      N        0.49210    0.62460    0.05350    1.000
    N34      N        0.53640    0.63320    0.14600    1.000
    N35      N        0.67250    0.77300    0.03560    1.000
    N36      N        0.44210    0.61950    0.96510    1.000
    N37      N        0.40340    0.25860    0.49220    1.000
    N38      N        0.34560    0.25090    0.58650    1.000
    N39      N        0.43100    0.33610    0.55190    1.000
    N40      N        0.48320    0.34280    0.46060    1.000
    N41      N        0.31610    0.17930    0.53000    1.000
    N42      N        0.37880    0.32650    0.64010    1.000
    N43      N        0.06890    0.65700    0.50350    1.000
    N44      N        0.11940    0.67930    0.41210    1.000
    N45      N        0.13050    0.58670    0.44160    1.000
    N46      N        0.07940    0.56800    0.52990    1.000
    N47      N        0.04070    0.74450    0.47240    1.000
    N48      N        0.20010    0.61160    0.35590    1.000
    O25      O        0.05360    0.38890    0.19960    1.000
    O26      O        0.81080    0.38300    0.19890    1.000
    O27      O        0.89760    0.50310    0.79680    1.000
    O28      O        0.68700    0.48460    0.75480    1.000
    O29      O        0.00910    0.07630    0.10760    1.000
    O30      O        0.02470    0.16150    0.13040    1.000
    O31      O        0.37150    0.47370    0.16240    1.000
    O32      O        0.50550    0.45630    0.23430    1.000
    O33      O        0.59590    0.93710    0.93380    1.000
    H219     H        0.61110    0.95320    0.90520    1.000
    O34      O        0.72150    0.87310    0.89510    1.000
    O35      O        0.72500    0.59980    0.80170    1.000
    O36      O        0.49110    0.59640    0.79580    1.000
    O37      O        0.41140    0.35330    0.29160    1.000
    O38      O        0.18090    0.35110    0.29790    1.000
    O39      O        0.39010    0.08470    0.38960    1.000
    O40      O        0.52050    0.02840    0.43470    1.000
    H220     H        0.51780    0.01180    0.40570    1.000
    O41      O        0.38820    0.49690    0.73660    1.000
    O42      O        0.49990    0.48940    0.66180    1.000
    O43      O        0.84310    0.57120    0.70080    1.000
    O44      O        0.08040    0.56880    0.70360    1.000
    O45      O        0.05820    0.79090    0.63690    1.000
    O46      O        0.08700    0.87520    0.61350    1.000
    O47      O        0.21400    0.46450    0.26090    1.000
    O48      O        0.99940    0.44920    0.29840    1.000
