data_functionalizedCrystal
_audit_creation_method	'EQeq! by Chris Wilmer'
_symmetry_space_group_name_H-M	'P1'
_symmetry_Int_Tables_number	1
_symmetry_cell_setting	triclinic
loop_
_symmetry_equiv_pos_as_xyz
  x,y,z
_cell_length_a	12.53
_cell_length_b	16.1304
_cell_length_c	20.8928
_cell_angle_alpha	67.3971
_cell_angle_beta	72.5506
_cell_angle_gamma	67.1452
loop_
_atom_site_label
_atom_site_type_symbol
_atom_site_fract_x
_atom_site_fract_y
_atom_site_fract_z
_atom_site_charge
Mof_Cd	Cd	0.36683	0.74016	0.76034	0.487
Mof_Cd	Cd	0.63818	0.6644	0.84534	0.478
Mof_Cd	Cd	0.86733	0.75984	0.73966	0.488
Mof_Cd	Cd	0.14792	0.8356	0.65466	0.478
Mof_Cd	Cd	0.63317	0.25984	0.23966	0.487
Mof_Cd	Cd	0.36182	0.3356	0.15466	0.476
Mof_Cd	Cd	0.13267	0.24016	0.26034	0.486
Mof_Cd	Cd	0.85208	0.1644	0.34534	0.477
Mof_Cd	Cd	0.5	0	-0	0.325
Mof_Cd	Cd	0.5	0.5	0.5	0.34
Mof_H 	H 	0.314	0.628	0.926	0.101
Mof_H 	H 	0.4008	0.5156	0.019	0.025
Mof_H 	H 	0.1883	0.3683	0.0593	0.052
Mof_H 	H 	0.1038	0.4748	0.9616	0.083
Mof_H 	H 	0.3795	0.3528	0.8432	0.098
Mof_H 	H 	0.6146	0.299	0.9586	0.105
Mof_H 	H 	0.5993	0.1454	0.013	0.023
Mof_H 	H 	0.3786	0.1993	0.8951	0.011
Mof_H 	H 	0.868	0.872	0.574	0.113
Mof_H 	H 	0.9354	0.9844	0.481	0.018
Mof_H 	H 	0.6159	0.1317	0.4407	0.044
Mof_H 	H 	0.5402	0.0252	0.5384	0.093
Mof_H 	H 	0.5755	0.1472	0.6568	0.096
Mof_H 	H 	0.8722	0.201	0.5414	0.1
Mof_H 	H 	0.7577	0.3546	0.487	0.036
Mof_H 	H 	0.473	0.3007	0.6049	0.01
Mof_H 	H 	0.686	0.372	0.074	0.114
Mof_H 	H 	0.5992	0.4844	0.981	0.017
Mof_H 	H 	0.8117	0.6317	0.9407	0.043
Mof_H 	H 	0.8962	0.5252	0.0384	0.095
Mof_H 	H 	0.6205	0.6472	0.1568	0.096
Mof_H 	H 	0.3854	0.701	0.0414	0.095
Mof_H 	H 	0.4007	0.8546	0.987	0.051
Mof_H 	H 	0.6214	0.8007	0.1049	0.014
Mof_H 	H 	0.132	0.128	0.426	0.101
Mof_H 	H 	0.0646	0.0156	0.519	0.023
Mof_H 	H 	0.3841	0.8683	0.5593	0.051
Mof_H 	H 	0.4598	0.9748	0.4616	0.084
Mof_H 	H 	0.4245	0.8528	0.3432	0.099
Mof_H 	H 	0.1278	0.799	0.4586	0.1
Mof_H 	H 	0.2423	0.6454	0.513	0.036
Mof_H 	H 	0.527	0.6993	0.3951	0.012
Mof_C 	C 	0.145	0.6321	0.8745	0.104
Mof_C 	C 	0.1976	0.565	0.9322	0.05
Mof_C 	C 	0.2872	0.5748	0.9516	-0.097
Mof_C 	C 	0.338	0.5075	0.0079	0.071
Mof_C 	C 	0.2159	0.4208	0.0312	0.056
Mof_C 	C 	0.164	0.4856	0.9732	-0.084
Mof_C 	C 	0.5133	0.4374	0.8574	0.1
Mof_C 	C 	0.5052	0.3403	0.8917	0.077
Mof_C 	C 	0.4296	0.3107	0.8763	-0.134
Mof_C 	C 	0.5655	0.2799	0.9439	-0.121
Mof_C 	C 	0.5554	0.1875	0.9767	0.096
Mof_C 	C 	0.4276	0.2188	0.9096	0.101
Mof_C 	C 	0.6516	0.8679	0.6255	0.093
Mof_C 	C 	0.6948	0.935	0.5678	0.086
Mof_C 	C 	0.8136	0.9252	0.5484	-0.136
Mof_C 	C 	0.8534	0.9925	0.4921	0.112
Mof_C 	C 	0.6679	0.0792	0.4688	0.085
Mof_C 	C 	0.6228	0.0144	0.5268	-0.131
Mof_C 	C 	0.8081	0.0626	0.6426	0.091
Mof_C 	C 	0.7372	0.1597	0.6083	0.074
Mof_C 	C 	0.6166	0.1893	0.6237	-0.133
Mof_C 	C 	0.7893	0.2201	0.5561	-0.114
Mof_C 	C 	0.7196	0.3125	0.5233	0.078
Mof_C 	C 	0.556	0.2812	0.5904	0.099
Mof_C 	C 	0.855	0.3679	0.1255	0.092
Mof_C 	C 	0.8024	0.435	0.0678	0.08
Mof_C 	C 	0.7128	0.4252	0.0484	-0.146
Mof_C 	C 	0.662	0.4925	0.9921	0.114
Mof_C 	C 	0.7841	0.5792	0.9688	0.096
Mof_C 	C 	0.836	0.5144	0.0268	-0.13
Mof_C 	C 	0.4867	0.5626	0.1426	0.102
Mof_C 	C 	0.4948	0.6597	0.1083	0.066
Mof_C 	C 	0.5704	0.6893	0.1237	-0.127
Mof_C 	C 	0.4345	0.7201	0.0561	-0.102
Mof_C 	C 	0.4446	0.8125	0.0233	0.059
Mof_C 	C 	0.5724	0.7812	0.0904	0.095
Mof_C 	C 	0.3484	0.1321	0.3745	0.104
Mof_C 	C 	0.3052	0.065	0.4322	0.042
Mof_C 	C 	0.1864	0.0748	0.4516	-0.106
Mof_C 	C 	0.1466	0.0075	0.5079	0.071
Mof_C 	C 	0.3321	0.9208	0.5312	0.067
Mof_C 	C 	0.3772	0.9856	0.4732	-0.083
Mof_C 	C 	0.1919	0.9374	0.3574	0.111
Mof_C 	C 	0.2628	0.8403	0.3917	0.069
Mof_C 	C 	0.3834	0.8107	0.3763	-0.128
Mof_C 	C 	0.2107	0.7799	0.4439	-0.11
Mof_C 	C 	0.2804	0.6875	0.4767	0.077
Mof_C 	C 	0.444	0.7188	0.4096	0.098
Mof_N 	N 	0.1903	0.6945	0.8181	-0.09
Mof_N 	N 	0.1099	0.7411	0.7767	-0.05
Mof_N 	N 	0.0156	0.7117	0.8051	-0.049
Mof_N 	N 	0.0319	0.6448	0.8666	-0.069
Mof_N 	N 	0.3043	0.4318	0.0476	-0.133
Mof_N 	N 	0.5916	0.4628	0.8716	-0.082
Mof_N 	N 	0.5659	0.557	0.8352	-0.062
Mof_N 	N 	0.4767	0.582	0.8024	-0.059
Mof_N 	N 	0.4432	0.5074	0.8152	-0.077
Mof_N 	N 	0.4855	0.1566	0.9584	-0.157
Mof_N 	N 	0.7029	0.8055	0.6819	-0.088
Mof_N 	N 	0.6277	0.7589	0.7233	-0.05
Mof_N 	N 	0.5324	0.7883	0.6949	-0.049
Mof_N 	N 	0.5433	0.8552	0.6334	-0.067
Mof_N 	N 	0.7837	0.0682	0.4524	-0.148
Mof_N 	N 	0.926	0.0372	0.6284	-0.085
Mof_N 	N 	0.9581	0.943	0.6648	-0.058
Mof_N 	N 	0.8611	0.918	0.6976	-0.058
Mof_N 	N 	0.7658	0.9926	0.6848	-0.07
Mof_N 	N 	0.6005	0.3434	0.5416	-0.156
Mof_N 	N 	0.8097	0.3055	0.1819	-0.088
Mof_N 	N 	0.8901	0.2589	0.2233	-0.05
Mof_N 	N 	0.9844	0.2883	0.1949	-0.049
Mof_N 	N 	0.9681	0.3552	0.1334	-0.068
Mof_N 	N 	0.6957	0.5682	0.9524	-0.145
Mof_N 	N 	0.4084	0.5372	0.1284	-0.083
Mof_N 	N 	0.4341	0.443	0.1648	-0.062
Mof_N 	N 	0.5233	0.418	0.1976	-0.059
Mof_N 	N 	0.5568	0.4926	0.1848	-0.077
Mof_N 	N 	0.5145	0.8434	0.0416	-0.15
Mof_N 	N 	0.2971	0.1945	0.3181	-0.09
Mof_N 	N 	0.3723	0.2411	0.2767	-0.05
Mof_N 	N 	0.4676	0.2117	0.3051	-0.049
Mof_N 	N 	0.4567	0.1448	0.3666	-0.071
Mof_N 	N 	0.2163	0.9318	0.5476	-0.129
Mof_N 	N 	0.074	0.9628	0.3716	-0.079
Mof_N 	N 	0.0419	0.057	0.3352	-0.068
Mof_N 	N 	0.1389	0.082	0.3024	-0.06
Mof_N 	N 	0.2342	0.0074	0.3152	-0.084
Mof_N 	N 	0.3995	0.6566	0.4584	-0.156
Mof_Cl	Cl	0.41346	0.7614	0.86768	-0.346
Mof_Cl	Cl	0.35051	0.7033	0.65068	-0.342
Mof_Cl	Cl	0.22873	0.9094	0.71754	-0.321
Mof_Cl	Cl	0.04254	0.7386	0.63232	-0.351
Mof_Cl	Cl	0.70449	0.7967	0.84932	-0.337
Mof_Cl	Cl	0.85567	0.5906	0.78246	-0.326
Mof_Cl	Cl	0.58654	0.2386	0.13232	-0.354
Mof_Cl	Cl	0.64949	0.2967	0.34932	-0.342
Mof_Cl	Cl	0.77127	0.0906	0.28246	-0.33
Mof_Cl	Cl	0.95746	0.2614	0.36768	-0.349
Mof_Cl	Cl	0.29551	0.2033	0.15068	-0.346
Mof_Cl	Cl	0.14433	0.4094	0.21754	-0.327
_end
