data_functionalizedCrystal
_audit_creation_method	'EQeq! by Chris Wilmer'
_symmetry_space_group_name_H-M	'P1'
_symmetry_Int_Tables_number	1
_symmetry_cell_setting	triclinic
loop_
_symmetry_equiv_pos_as_xyz
  x,y,z
_cell_length_a	16.364
_cell_length_b	16.364
_cell_length_c	41.797
_cell_angle_alpha	90
_cell_angle_beta	90
_cell_angle_gamma	90
loop_
_atom_site_label
_atom_site_type_symbol
_atom_site_fract_x
_atom_site_fract_y
_atom_site_fract_z
_atom_site_charge
Mof_Cd	Cd	0.58377	0.9327	0.59714	0.477
Mof_Cd	Cd	0.0788	0.0738	0.49201	0.219
Mof_C 	C 	0.4979	0.9715	0.5424	0.301
Mof_C 	C 	0.4572	0.9865	0.5115	-0.096
Mof_C 	C 	0.5031	0.9863	0.4831	0.043
Mof_H 	H 	0.5593	0.9781	0.4844	0.036
Mof_C 	C 	0.469	0.9975	0.454	-0.115
Mof_H 	H 	0.5003	0.9941	0.4354	0.093
Mof_C 	C 	0.3895	0.0135	0.4525	0.049
Mof_H 	H 	0.3661	0.0233	0.4326	0.041
Mof_C 	C 	0.3396	0.0163	0.4794	-0.094
Mof_C 	C 	0.3754	0.003	0.5095	0.04
Mof_H 	H 	0.3437	0.0054	0.5279	0.046
Mof_C 	C 	0.2508	0.0333	0.4765	0.318
Mof_C 	C 	0.7218	0.8331	0.6013	0.309
Mof_C 	C 	0.7954	0.7814	0.5972	-0.082
Mof_C 	C 	0.8558	0.8061	0.5765	0.02
Mof_H 	H 	0.8496	0.8551	0.5655	0.054
Mof_C 	C 	0.926	0.76	0.5717	-0.083
Mof_H 	H 	0.9686	0.7792	0.5591	0.076
Mof_C 	C 	0.9301	0.6831	0.5866	0.022
Mof_H 	H 	0.9741	0.6489	0.5823	0.037
Mof_C 	C 	0.871	0.6573	0.6073	-0.08
Mof_C 	C 	0.8012	0.7078	0.6127	0.023
Mof_H 	H 	0.7601	0.691	0.6266	0.056
Mof_C 	C 	0.8783	0.5789	0.6254	0.31
Mof_C 	C 	0.4049	0.8894	0.6225	0.039
Mof_H 	H 	0.4053	0.9459	0.6249	0.034
Mof_C 	C 	0.3335	0.8483	0.6276	-0.057
Mof_H 	H 	0.287	0.8761	0.6342	0.055
Mof_C 	C 	0.3314	0.7649	0.6228	-0.052
Mof_H 	H 	0.2826	0.7364	0.6251	0.055
Mof_C 	C 	0.403	0.7237	0.6144	0.033
Mof_C 	C 	0.4747	0.7728	0.6101	0.009
Mof_H 	H 	0.523	0.7471	0.6042	0.046
Mof_C 	C 	0.4063	0.6357	0.6078	-0.102
Mof_H 	H 	0.3597	0.6098	0.6179	0.068
Mof_H 	H 	0.4552	0.6135	0.6176	0.073
Mof_C 	C 	0.4109	0.5271	0.5658	-0.016
Mof_H 	H 	0.3617	0.5007	0.5736	0.036
Mof_H 	H 	0.4568	0.5035	0.5771	0.041
Mof_C 	C 	0.4201	0.5078	0.5303	-0.144
Mof_H 	H 	0.385	0.5437	0.5185	0.076
Mof_H 	H 	0.4025	0.4527	0.5264	0.075
Mof_C 	C 	0.5077	0.5183	0.5197	-0.087
Mof_H 	H 	0.5417	0.4794	0.5307	0.06
Mof_H 	H 	0.5264	0.5719	0.5255	0.058
Mof_N 	N 	0.4753	0.8514	0.614	-0.125
Mof_N 	N 	0.4064	0.6137	0.57353	-0.234
Mof_H 	H 	0.3611	0.6339	0.5647	0.121
Mof_H 	H 	0.4486	0.6386	0.5643	0.122
Mof_O 	O 	0.4688	0.0031	0.5673	-0.254
Mof_O 	O 	0.5612	0.9271	0.5432	-0.258
Mof_O 	O 	0.7139	0.8945	0.5824	-0.247
Mof_O 	O 	0.6696	0.818	0.6208	-0.265
Mof_O 	O 	0.2131	0.0617	0.5002	-0.27
Mof_O 	O 	0.2224	0.0274	0.4488	-0.239
Mof_O 	O 	0.9208	0.5231	0.6129	-0.28
Mof_O 	O 	0.8459	0.5719	0.6519	-0.244
Mof_O 	O 	0.0637	0.9341	0.5024	-0.15
Mof_Cd	Cd	0.41623	0.0673	0.09714	0.478
Mof_Cd	Cd	0.9212	0.9262	0.99201	0.22
Mof_C 	C 	0.5021	0.0285	0.0424	0.302
Mof_C 	C 	0.5428	0.0135	0.0115	-0.095
Mof_C 	C 	0.4969	0.0137	0.9831	0.044
Mof_H 	H 	0.4407	0.0219	0.9844	0.037
Mof_C 	C 	0.531	0.0025	0.954	-0.115
Mof_H 	H 	0.4997	0.0059	0.9354	0.093
Mof_C 	C 	0.6105	0.9865	0.9525	0.049
Mof_H 	H 	0.6339	0.9767	0.9326	0.041
Mof_C 	C 	0.6604	0.9837	0.9794	-0.094
Mof_C 	C 	0.6246	0.997	0.0095	0.04
Mof_H 	H 	0.6563	0.9946	0.0279	0.046
Mof_C 	C 	0.7492	0.9667	0.9765	0.318
Mof_C 	C 	0.2782	0.1669	0.1013	0.309
Mof_C 	C 	0.2046	0.2186	0.0972	-0.082
Mof_C 	C 	0.1442	0.1939	0.0765	0.02
Mof_H 	H 	0.1504	0.1449	0.0655	0.054
Mof_C 	C 	0.074	0.24	0.0717	-0.083
Mof_H 	H 	0.0314	0.2208	0.0591	0.076
Mof_C 	C 	0.0699	0.3169	0.0866	0.022
Mof_H 	H 	0.0259	0.3511	0.0823	0.037
Mof_C 	C 	0.129	0.3427	0.1073	-0.08
Mof_C 	C 	0.1988	0.2922	0.1127	0.023
Mof_H 	H 	0.2399	0.309	0.1266	0.056
Mof_C 	C 	0.1217	0.4211	0.1254	0.31
Mof_C 	C 	0.5951	0.1106	0.1225	0.039
Mof_H 	H 	0.5947	0.0541	0.1249	0.034
Mof_C 	C 	0.6665	0.1517	0.1276	-0.057
Mof_H 	H 	0.713	0.1239	0.1342	0.055
Mof_C 	C 	0.6686	0.2351	0.1228	-0.052
Mof_H 	H 	0.7174	0.2636	0.1251	0.055
Mof_C 	C 	0.597	0.2763	0.1144	0.033
Mof_C 	C 	0.5253	0.2272	0.1101	0.009
Mof_H 	H 	0.477	0.2529	0.1042	0.046
Mof_C 	C 	0.5937	0.3643	0.1078	-0.102
Mof_H 	H 	0.6403	0.3902	0.1179	0.068
Mof_H 	H 	0.5448	0.3865	0.1176	0.073
Mof_C 	C 	0.5891	0.4729	0.0658	-0.016
Mof_H 	H 	0.6383	0.4993	0.0736	0.036
Mof_H 	H 	0.5432	0.4965	0.0771	0.041
Mof_C 	C 	0.5799	0.4922	0.0303	-0.144
Mof_H 	H 	0.615	0.4563	0.0185	0.076
Mof_H 	H 	0.5975	0.5473	0.0264	0.075
Mof_C 	C 	0.4923	0.4817	0.0197	-0.087
Mof_H 	H 	0.4583	0.5206	0.0307	0.06
Mof_H 	H 	0.4736	0.4281	0.0255	0.058
Mof_N 	N 	0.5247	0.1486	0.114	-0.125
Mof_N 	N 	0.5936	0.3863	0.07353	-0.234
Mof_H 	H 	0.6389	0.3661	0.0647	0.121
Mof_H 	H 	0.5514	0.3614	0.0643	0.122
Mof_O 	O 	0.5312	0.9969	0.0673	-0.254
Mof_O 	O 	0.4388	0.0729	0.0432	-0.258
Mof_O 	O 	0.2861	0.1055	0.0824	-0.247
Mof_O 	O 	0.3304	0.182	0.1208	-0.265
Mof_O 	O 	0.7869	0.9383	0.0002	-0.27
Mof_O 	O 	0.7776	0.9726	0.9488	-0.239
Mof_O 	O 	0.0792	0.4769	0.1129	-0.28
Mof_O 	O 	0.1541	0.4281	0.1519	-0.244
Mof_O 	O 	0.9363	0.0659	0.0024	-0.151
Mof_Cd	Cd	0.5673	0.08377	0.84714	0.479
Mof_Cd	Cd	0.4262	0.5788	0.74201	0.22
Mof_C 	C 	0.5285	0.9979	0.7924	0.303
Mof_C 	C 	0.5135	0.9572	0.7615	-0.097
Mof_C 	C 	0.5137	0.0031	0.7331	0.049
Mof_H 	H 	0.5219	0.0593	0.7344	0.036
Mof_C 	C 	0.5025	0.969	0.704	-0.121
Mof_H 	H 	0.5059	0.0003	0.6854	0.095
Mof_C 	C 	0.4865	0.8895	0.7025	0.052
Mof_H 	H 	0.4767	0.8661	0.6826	0.04
Mof_C 	C 	0.4837	0.8396	0.7294	-0.096
Mof_C 	C 	0.497	0.8754	0.7595	0.041
Mof_H 	H 	0.4946	0.8437	0.7779	0.045
Mof_C 	C 	0.4667	0.7508	0.7265	0.319
Mof_C 	C 	0.6669	0.2218	0.8513	0.309
Mof_C 	C 	0.7186	0.2954	0.8472	-0.082
Mof_C 	C 	0.6939	0.3558	0.8265	0.02
Mof_H 	H 	0.6449	0.3496	0.8155	0.054
Mof_C 	C 	0.74	0.426	0.8217	-0.083
Mof_H 	H 	0.7208	0.4686	0.8091	0.076
Mof_C 	C 	0.8169	0.4301	0.8366	0.022
Mof_H 	H 	0.8511	0.4741	0.8323	0.037
Mof_C 	C 	0.8427	0.371	0.8573	-0.08
Mof_C 	C 	0.7922	0.3012	0.8627	0.023
Mof_H 	H 	0.809	0.2601	0.8766	0.056
Mof_C 	C 	0.9211	0.3783	0.8754	0.31
Mof_C 	C 	0.6106	0.9049	0.8725	0.038
Mof_H 	H 	0.5541	0.9053	0.8749	0.035
Mof_C 	C 	0.6517	0.8335	0.8776	-0.057
Mof_H 	H 	0.6239	0.787	0.8842	0.055
Mof_C 	C 	0.7351	0.8314	0.8728	-0.052
Mof_H 	H 	0.7636	0.7826	0.8751	0.055
Mof_C 	C 	0.7763	0.903	0.8644	0.034
Mof_C 	C 	0.7272	0.9747	0.8601	0.008
Mof_H 	H 	0.7529	0.023	0.8542	0.047
Mof_C 	C 	0.8643	0.9063	0.8578	-0.102
Mof_H 	H 	0.8902	0.8597	0.8679	0.068
Mof_H 	H 	0.8865	0.9552	0.8676	0.073
Mof_C 	C 	0.9729	0.9109	0.8158	-0.015
Mof_H 	H 	0.9993	0.8617	0.8236	0.035
Mof_H 	H 	0.9965	0.9568	0.8271	0.04
Mof_C 	C 	0.9922	0.9201	0.7803	-0.148
Mof_H 	H 	0.9563	0.885	0.7685	0.077
Mof_H 	H 	0.0473	0.9025	0.7764	0.076
Mof_C 	C 	0.9817	0.0077	0.7697	-0.083
Mof_H 	H 	0.0206	0.0417	0.7807	0.058
Mof_H 	H 	0.9281	0.0264	0.7755	0.057
Mof_N 	N 	0.6486	0.9753	0.864	-0.125
Mof_N 	N 	0.8863	0.9064	0.82353	-0.235
Mof_H 	H 	0.8661	0.8611	0.8147	0.12
Mof_H 	H 	0.8614	0.9486	0.8143	0.121
Mof_O 	O 	0.4969	0.9688	0.8173	-0.255
Mof_O 	O 	0.5729	0.0612	0.7932	-0.257
Mof_O 	O 	0.6055	0.2139	0.8324	-0.246
Mof_O 	O 	0.682	0.1696	0.8708	-0.265
Mof_O 	O 	0.4383	0.7131	0.7502	-0.271
Mof_O 	O 	0.4726	0.7224	0.6988	-0.239
Mof_O 	O 	0.9769	0.4208	0.8629	-0.28
Mof_O 	O 	0.9281	0.3459	0.9019	-0.244
Mof_O 	O 	0.5659	0.5637	0.7524	-0.151
Mof_Cd	Cd	0.4327	0.91623	0.34714	0.479
Mof_Cd	Cd	0.5738	0.4212	0.24201	0.22
Mof_C 	C 	0.4715	0.0021	0.2924	0.303
Mof_C 	C 	0.4865	0.0428	0.2615	-0.097
Mof_C 	C 	0.4863	0.9969	0.2331	0.049
Mof_H 	H 	0.4781	0.9407	0.2344	0.036
Mof_C 	C 	0.4975	0.031	0.204	-0.121
Mof_H 	H 	0.4941	0.9997	0.1854	0.095
Mof_C 	C 	0.5135	0.1105	0.2025	0.052
Mof_H 	H 	0.5233	0.1339	0.1826	0.04
Mof_C 	C 	0.5163	0.1604	0.2294	-0.096
Mof_C 	C 	0.503	0.1246	0.2595	0.041
Mof_H 	H 	0.5054	0.1563	0.2779	0.045
Mof_C 	C 	0.5333	0.2492	0.2265	0.319
Mof_C 	C 	0.3331	0.7782	0.3513	0.309
Mof_C 	C 	0.2814	0.7046	0.3472	-0.082
Mof_C 	C 	0.3061	0.6442	0.3265	0.02
Mof_H 	H 	0.3551	0.6504	0.3155	0.054
Mof_C 	C 	0.26	0.574	0.3217	-0.083
Mof_H 	H 	0.2792	0.5314	0.3091	0.076
Mof_C 	C 	0.1831	0.5699	0.3366	0.022
Mof_H 	H 	0.1489	0.5259	0.3323	0.037
Mof_C 	C 	0.1573	0.629	0.3573	-0.08
Mof_C 	C 	0.2078	0.6988	0.3627	0.023
Mof_H 	H 	0.191	0.7399	0.3766	0.056
Mof_C 	C 	0.0789	0.6217	0.3754	0.31
Mof_C 	C 	0.3894	0.0951	0.3725	0.038
Mof_H 	H 	0.4459	0.0947	0.3749	0.035
Mof_C 	C 	0.3483	0.1665	0.3776	-0.057
Mof_H 	H 	0.3761	0.213	0.3842	0.055
Mof_C 	C 	0.2649	0.1686	0.3728	-0.052
Mof_H 	H 	0.2364	0.2174	0.3751	0.055
Mof_C 	C 	0.2237	0.097	0.3644	0.034
Mof_C 	C 	0.2728	0.0253	0.3601	0.008
Mof_H 	H 	0.2471	0.977	0.3542	0.047
Mof_C 	C 	0.1357	0.0937	0.3578	-0.102
Mof_H 	H 	0.1098	0.1403	0.3679	0.068
Mof_H 	H 	0.1135	0.0448	0.3676	0.073
Mof_C 	C 	0.0271	0.0891	0.3158	-0.015
Mof_H 	H 	0.0007	0.1383	0.3236	0.035
Mof_H 	H 	0.0035	0.0432	0.3271	0.04
Mof_C 	C 	0.0078	0.0799	0.2803	-0.148
Mof_H 	H 	0.0437	0.115	0.2685	0.077
Mof_H 	H 	0.9527	0.0975	0.2764	0.076
Mof_C 	C 	0.0183	0.9923	0.2697	-0.083
Mof_H 	H 	0.9794	0.9583	0.2807	0.058
Mof_H 	H 	0.0719	0.9736	0.2755	0.057
Mof_N 	N 	0.3514	0.0247	0.364	-0.125
Mof_N 	N 	0.1137	0.0936	0.32353	-0.235
Mof_H 	H 	0.1339	0.1389	0.3147	0.12
Mof_H 	H 	0.1386	0.0514	0.3143	0.121
Mof_O 	O 	0.5031	0.0312	0.3173	-0.255
Mof_O 	O 	0.4271	0.9388	0.2932	-0.257
Mof_O 	O 	0.3945	0.7861	0.3324	-0.246
Mof_O 	O 	0.318	0.8304	0.3708	-0.265
Mof_O 	O 	0.5617	0.2869	0.2502	-0.271
Mof_O 	O 	0.5274	0.2776	0.1988	-0.239
Mof_O 	O 	0.0231	0.5792	0.3629	-0.28
Mof_O 	O 	0.0719	0.6541	0.4019	-0.244
Mof_O 	O 	0.4341	0.4363	0.2524	-0.151
Mof_Cd	Cd	0.91623	0.4327	0.65286	0.479
Mof_Cd	Cd	0.4212	0.5738	0.75799	0.22
Mof_C 	C 	0.0021	0.4715	0.7076	0.303
Mof_C 	C 	0.0428	0.4865	0.7385	-0.097
Mof_C 	C 	0.9969	0.4863	0.7669	0.049
Mof_H 	H 	0.9407	0.4781	0.7656	0.036
Mof_C 	C 	0.031	0.4975	0.796	-0.121
Mof_H 	H 	0.9997	0.4941	0.8146	0.095
Mof_C 	C 	0.1105	0.5135	0.7975	0.052
Mof_H 	H 	0.1339	0.5233	0.8174	0.04
Mof_C 	C 	0.1604	0.5163	0.7706	-0.096
Mof_C 	C 	0.1246	0.503	0.7405	0.041
Mof_H 	H 	0.1563	0.5054	0.7221	0.045
Mof_C 	C 	0.2492	0.5333	0.7735	0.319
Mof_C 	C 	0.7782	0.3331	0.6487	0.309
Mof_C 	C 	0.7046	0.2814	0.6528	-0.082
Mof_C 	C 	0.6442	0.3061	0.6735	0.02
Mof_H 	H 	0.6504	0.3551	0.6845	0.054
Mof_C 	C 	0.574	0.26	0.6783	-0.083
Mof_H 	H 	0.5314	0.2792	0.6909	0.076
Mof_C 	C 	0.5699	0.1831	0.6634	0.022
Mof_H 	H 	0.5259	0.1489	0.6677	0.037
Mof_C 	C 	0.629	0.1573	0.6427	-0.08
Mof_C 	C 	0.6988	0.2078	0.6373	0.023
Mof_H 	H 	0.7399	0.191	0.6234	0.056
Mof_C 	C 	0.6217	0.0789	0.6246	0.31
Mof_C 	C 	0.0951	0.3894	0.6275	0.038
Mof_H 	H 	0.0947	0.4459	0.6251	0.035
Mof_C 	C 	0.1665	0.3483	0.6224	-0.057
Mof_H 	H 	0.213	0.3761	0.6158	0.055
Mof_C 	C 	0.1686	0.2649	0.6272	-0.052
Mof_H 	H 	0.2174	0.2364	0.6249	0.055
Mof_C 	C 	0.097	0.2237	0.6356	0.034
Mof_C 	C 	0.0253	0.2728	0.6399	0.008
Mof_H 	H 	0.977	0.2471	0.6458	0.047
Mof_C 	C 	0.0937	0.1357	0.6422	-0.102
Mof_H 	H 	0.1403	0.1098	0.6321	0.068
Mof_H 	H 	0.0448	0.1135	0.6324	0.073
Mof_C 	C 	0.0891	0.0271	0.6842	-0.015
Mof_H 	H 	0.1383	0.0007	0.6764	0.035
Mof_H 	H 	0.0432	0.0035	0.6729	0.04
Mof_C 	C 	0.0799	0.0078	0.7197	-0.148
Mof_H 	H 	0.115	0.0437	0.7315	0.077
Mof_H 	H 	0.0975	0.9527	0.7236	0.076
Mof_C 	C 	0.9923	0.0183	0.7303	-0.083
Mof_H 	H 	0.9583	0.9794	0.7193	0.058
Mof_H 	H 	0.9736	0.0719	0.7245	0.057
Mof_N 	N 	0.0247	0.3514	0.636	-0.125
Mof_N 	N 	0.0936	0.1137	0.67647	-0.235
Mof_H 	H 	0.1389	0.1339	0.6853	0.12
Mof_H 	H 	0.0514	0.1386	0.6857	0.121
Mof_O 	O 	0.0312	0.5031	0.6827	-0.255
Mof_O 	O 	0.9388	0.4271	0.7068	-0.257
Mof_O 	O 	0.7861	0.3945	0.6676	-0.246
Mof_O 	O 	0.8304	0.318	0.6292	-0.265
Mof_O 	O 	0.2869	0.5617	0.7498	-0.271
Mof_O 	O 	0.2776	0.5274	0.8012	-0.239
Mof_O 	O 	0.5792	0.0231	0.6371	-0.28
Mof_O 	O 	0.6541	0.0719	0.5981	-0.244
Mof_O 	O 	0.4363	0.4341	0.7476	-0.151
Mof_Cd	Cd	0.08377	0.5673	0.15286	0.479
Mof_Cd	Cd	0.5788	0.4262	0.25799	0.22
Mof_C 	C 	0.9979	0.5285	0.2076	0.303
Mof_C 	C 	0.9572	0.5135	0.2385	-0.097
Mof_C 	C 	0.0031	0.5137	0.2669	0.049
Mof_H 	H 	0.0593	0.5219	0.2656	0.036
Mof_C 	C 	0.969	0.5025	0.296	-0.121
Mof_H 	H 	0.0003	0.5059	0.3146	0.095
Mof_C 	C 	0.8895	0.4865	0.2975	0.052
Mof_H 	H 	0.8661	0.4767	0.3174	0.04
Mof_C 	C 	0.8396	0.4837	0.2706	-0.096
Mof_C 	C 	0.8754	0.497	0.2405	0.041
Mof_H 	H 	0.8437	0.4946	0.2221	0.045
Mof_C 	C 	0.7508	0.4667	0.2735	0.319
Mof_C 	C 	0.2218	0.6669	0.1487	0.309
Mof_C 	C 	0.2954	0.7186	0.1528	-0.082
Mof_C 	C 	0.3558	0.6939	0.1735	0.02
Mof_H 	H 	0.3496	0.6449	0.1845	0.054
Mof_C 	C 	0.426	0.74	0.1783	-0.083
Mof_H 	H 	0.4686	0.7208	0.1909	0.076
Mof_C 	C 	0.4301	0.8169	0.1634	0.022
Mof_H 	H 	0.4741	0.8511	0.1677	0.037
Mof_C 	C 	0.371	0.8427	0.1427	-0.08
Mof_C 	C 	0.3012	0.7922	0.1373	0.023
Mof_H 	H 	0.2601	0.809	0.1234	0.056
Mof_C 	C 	0.3783	0.9211	0.1246	0.31
Mof_C 	C 	0.9049	0.6106	0.1275	0.038
Mof_H 	H 	0.9053	0.5541	0.1251	0.035
Mof_C 	C 	0.8335	0.6517	0.1224	-0.057
Mof_H 	H 	0.787	0.6239	0.1158	0.055
Mof_C 	C 	0.8314	0.7351	0.1272	-0.052
Mof_H 	H 	0.7826	0.7636	0.1249	0.055
Mof_C 	C 	0.903	0.7763	0.1356	0.034
Mof_C 	C 	0.9747	0.7272	0.1399	0.008
Mof_H 	H 	0.023	0.7529	0.1458	0.047
Mof_C 	C 	0.9063	0.8643	0.1422	-0.102
Mof_H 	H 	0.8597	0.8902	0.1321	0.068
Mof_H 	H 	0.9552	0.8865	0.1324	0.073
Mof_C 	C 	0.9109	0.9729	0.1842	-0.015
Mof_H 	H 	0.8617	0.9993	0.1764	0.035
Mof_H 	H 	0.9568	0.9965	0.1729	0.04
Mof_C 	C 	0.9201	0.9922	0.2197	-0.148
Mof_H 	H 	0.885	0.9563	0.2315	0.077
Mof_H 	H 	0.9025	0.0473	0.2236	0.076
Mof_C 	C 	0.0077	0.9817	0.2303	-0.083
Mof_H 	H 	0.0417	0.0206	0.2193	0.058
Mof_H 	H 	0.0264	0.9281	0.2245	0.057
Mof_N 	N 	0.9753	0.6486	0.136	-0.125
Mof_N 	N 	0.9064	0.8863	0.17647	-0.235
Mof_H 	H 	0.8611	0.8661	0.1853	0.12
Mof_H 	H 	0.9486	0.8614	0.1857	0.121
Mof_O 	O 	0.9688	0.4969	0.1827	-0.255
Mof_O 	O 	0.0612	0.5729	0.2068	-0.257
Mof_O 	O 	0.2139	0.6055	0.1676	-0.246
Mof_O 	O 	0.1696	0.682	0.1292	-0.265
Mof_O 	O 	0.7131	0.4383	0.2498	-0.271
Mof_O 	O 	0.7224	0.4726	0.3012	-0.239
Mof_O 	O 	0.4208	0.9769	0.1371	-0.28
Mof_O 	O 	0.3459	0.9281	0.0981	-0.244
Mof_O 	O 	0.5637	0.5659	0.2476	-0.151
Mof_Cd	Cd	0.9327	0.58377	0.40286	0.478
Mof_Cd	Cd	0.0738	0.0788	0.50799	0.22
Mof_C 	C 	0.9715	0.4979	0.4576	0.302
Mof_C 	C 	0.9865	0.4572	0.4885	-0.095
Mof_C 	C 	0.9863	0.5031	0.5169	0.044
Mof_H 	H 	0.9781	0.5593	0.5156	0.037
Mof_C 	C 	0.9975	0.469	0.546	-0.115
Mof_H 	H 	0.9941	0.5003	0.5646	0.093
Mof_C 	C 	0.0135	0.3895	0.5475	0.049
Mof_H 	H 	0.0233	0.3661	0.5674	0.041
Mof_C 	C 	0.0163	0.3396	0.5206	-0.094
Mof_C 	C 	0.003	0.3754	0.4905	0.04
Mof_H 	H 	0.0054	0.3437	0.4721	0.046
Mof_C 	C 	0.0333	0.2508	0.5235	0.318
Mof_C 	C 	0.8331	0.7218	0.3987	0.309
Mof_C 	C 	0.7814	0.7954	0.4028	-0.082
Mof_C 	C 	0.8061	0.8558	0.4235	0.02
Mof_H 	H 	0.8551	0.8496	0.4345	0.054
Mof_C 	C 	0.76	0.926	0.4283	-0.083
Mof_H 	H 	0.7792	0.9686	0.4409	0.076
Mof_C 	C 	0.6831	0.9301	0.4134	0.022
Mof_H 	H 	0.6489	0.9741	0.4177	0.037
Mof_C 	C 	0.6573	0.871	0.3927	-0.08
Mof_C 	C 	0.7078	0.8012	0.3873	0.023
Mof_H 	H 	0.691	0.7601	0.3734	0.056
Mof_C 	C 	0.5789	0.8783	0.3746	0.31
Mof_C 	C 	0.8894	0.4049	0.3775	0.039
Mof_H 	H 	0.9459	0.4053	0.3751	0.034
Mof_C 	C 	0.8483	0.3335	0.3724	-0.057
Mof_H 	H 	0.8761	0.287	0.3658	0.055
Mof_C 	C 	0.7649	0.3314	0.3772	-0.052
Mof_H 	H 	0.7364	0.2826	0.3749	0.055
Mof_C 	C 	0.7237	0.403	0.3856	0.033
Mof_C 	C 	0.7728	0.4747	0.3899	0.009
Mof_H 	H 	0.7471	0.523	0.3958	0.046
Mof_C 	C 	0.6357	0.4063	0.3922	-0.102
Mof_H 	H 	0.6098	0.3597	0.3821	0.068
Mof_H 	H 	0.6135	0.4552	0.3824	0.073
Mof_C 	C 	0.5271	0.4109	0.4342	-0.016
Mof_H 	H 	0.5007	0.3617	0.4264	0.036
Mof_H 	H 	0.5035	0.4568	0.4229	0.041
Mof_C 	C 	0.5078	0.4201	0.4697	-0.144
Mof_H 	H 	0.5437	0.385	0.4815	0.076
Mof_H 	H 	0.4527	0.4025	0.4736	0.075
Mof_C 	C 	0.5183	0.5077	0.4803	-0.087
Mof_H 	H 	0.4794	0.5417	0.4693	0.06
Mof_H 	H 	0.5719	0.5264	0.4745	0.058
Mof_N 	N 	0.8514	0.4753	0.386	-0.125
Mof_N 	N 	0.6137	0.4064	0.42647	-0.234
Mof_H 	H 	0.6339	0.3611	0.4353	0.121
Mof_H 	H 	0.6386	0.4486	0.4357	0.122
Mof_O 	O 	0.0031	0.4688	0.4327	-0.254
Mof_O 	O 	0.9271	0.5612	0.4568	-0.258
Mof_O 	O 	0.8945	0.7139	0.4176	-0.247
Mof_O 	O 	0.818	0.6696	0.3792	-0.265
Mof_O 	O 	0.0617	0.2131	0.4998	-0.27
Mof_O 	O 	0.0274	0.2224	0.5512	-0.239
Mof_O 	O 	0.5231	0.9208	0.3871	-0.28
Mof_O 	O 	0.5719	0.8459	0.3481	-0.244
Mof_O 	O 	0.9341	0.0637	0.4976	-0.15
Mof_Cd	Cd	0.0673	0.41623	0.90286	0.478
Mof_Cd	Cd	0.9262	0.9212	0.00799	0.22
Mof_C 	C 	0.0285	0.5021	0.9576	0.302
Mof_C 	C 	0.0135	0.5428	0.9885	-0.095
Mof_C 	C 	0.0137	0.4969	0.0169	0.044
Mof_H 	H 	0.0219	0.4407	0.0156	0.037
Mof_C 	C 	0.0025	0.531	0.046	-0.115
Mof_H 	H 	0.0059	0.4997	0.0646	0.093
Mof_C 	C 	0.9865	0.6105	0.0475	0.049
Mof_H 	H 	0.9767	0.6339	0.0674	0.041
Mof_C 	C 	0.9837	0.6604	0.0206	-0.094
Mof_C 	C 	0.997	0.6246	0.9905	0.04
Mof_H 	H 	0.9946	0.6563	0.9721	0.046
Mof_C 	C 	0.9667	0.7492	0.0235	0.318
Mof_C 	C 	0.1669	0.2782	0.8987	0.309
Mof_C 	C 	0.2186	0.2046	0.9028	-0.082
Mof_C 	C 	0.1939	0.1442	0.9235	0.02
Mof_H 	H 	0.1449	0.1504	0.9345	0.054
Mof_C 	C 	0.24	0.074	0.9283	-0.083
Mof_H 	H 	0.2208	0.0314	0.9409	0.076
Mof_C 	C 	0.3169	0.0699	0.9134	0.022
Mof_H 	H 	0.3511	0.0259	0.9177	0.037
Mof_C 	C 	0.3427	0.129	0.8927	-0.08
Mof_C 	C 	0.2922	0.1988	0.8873	0.023
Mof_H 	H 	0.309	0.2399	0.8734	0.056
Mof_C 	C 	0.4211	0.1217	0.8746	0.31
Mof_C 	C 	0.1106	0.5951	0.8775	0.039
Mof_H 	H 	0.0541	0.5947	0.8751	0.034
Mof_C 	C 	0.1517	0.6665	0.8724	-0.057
Mof_H 	H 	0.1239	0.713	0.8658	0.055
Mof_C 	C 	0.2351	0.6686	0.8772	-0.052
Mof_H 	H 	0.2636	0.7174	0.8749	0.055
Mof_C 	C 	0.2763	0.597	0.8856	0.033
Mof_C 	C 	0.2272	0.5253	0.8899	0.009
Mof_H 	H 	0.2529	0.477	0.8958	0.046
Mof_C 	C 	0.3643	0.5937	0.8922	-0.102
Mof_H 	H 	0.3902	0.6403	0.8821	0.068
Mof_H 	H 	0.3865	0.5448	0.8824	0.073
Mof_C 	C 	0.4729	0.5891	0.9342	-0.016
Mof_H 	H 	0.4993	0.6383	0.9264	0.036
Mof_H 	H 	0.4965	0.5432	0.9229	0.041
Mof_C 	C 	0.4922	0.5799	0.9697	-0.144
Mof_H 	H 	0.4563	0.615	0.9815	0.076
Mof_H 	H 	0.5473	0.5975	0.9736	0.075
Mof_C 	C 	0.4817	0.4923	0.9803	-0.087
Mof_H 	H 	0.5206	0.4583	0.9693	0.06
Mof_H 	H 	0.4281	0.4736	0.9745	0.058
Mof_N 	N 	0.1486	0.5247	0.886	-0.125
Mof_N 	N 	0.3863	0.5936	0.92647	-0.234
Mof_H 	H 	0.3661	0.6389	0.9353	0.121
Mof_H 	H 	0.3614	0.5514	0.9357	0.122
Mof_O 	O 	0.9969	0.5312	0.9327	-0.254
Mof_O 	O 	0.0729	0.4388	0.9568	-0.258
Mof_O 	O 	0.1055	0.2861	0.9176	-0.247
Mof_O 	O 	0.182	0.3304	0.8792	-0.265
Mof_O 	O 	0.9383	0.7869	0.9998	-0.27
Mof_O 	O 	0.9726	0.7776	0.0512	-0.239
Mof_O 	O 	0.4769	0.0792	0.8871	-0.28
Mof_O 	O 	0.4281	0.1541	0.8481	-0.244
Mof_O 	O 	0.0659	0.9363	0.9976	-0.151
_end
