data_functionalizedCrystal
_audit_creation_method	'EQeq! by Chris Wilmer'
_symmetry_space_group_name_H-M	'P1'
_symmetry_Int_Tables_number	1
_symmetry_cell_setting	triclinic
loop_
_symmetry_equiv_pos_as_xyz
  x,y,z
_cell_length_a	19.7524
_cell_length_b	19.7524
_cell_length_c	15.346
_cell_angle_alpha	90
_cell_angle_beta	90
_cell_angle_gamma	120
loop_
_atom_site_label
_atom_site_type_symbol
_atom_site_fract_x
_atom_site_fract_y
_atom_site_fract_z
_atom_site_charge
Mof_C 	C 	0.1453	0.6078	0.9134	0.506
Mof_C 	C 	0.0695	0.5509	0.9598	-0.146
Mof_C 	C 	0.0295	0.5815	0.0071	0.009
Mof_C 	C 	0.0416	0.4716	0.9536	0.019
Mof_C 	C 	0.1536	0.4289	0.9774	-0.315
Mof_H 	H 	0.1188	0.3911	0.0208	0.116
Mof_H 	H 	0.1874	0.4108	0.9525	0.098
Mof_H 	H 	0.1857	0.4798	0.0052	0.085
Mof_C 	C 	0.1238	0.7039	0.1099	-0.368
Mof_H 	H 	0.1631	0.6878	0.1034	0.122
Mof_H 	H 	0.1498	0.76	0.1223	0.133
Mof_H 	H 	0.0885	0.6748	0.1581	0.113
Mof_C 	C 	0.8146	0.4953	0.4145	0.474
Mof_O 	O 	0.095	0.6397	0.6597	-0.794
Mof_H 	H 	0.058	0.646	0.676	-0.03
Mof_H 	H 	0.075	0.596	0.634	0.318
Mof_O 	O 	0.051	0.7149	0.7276	-0.145
Mof_C 	C 	0.8682	0.5427	0.4856	-0.021
Mof_C 	C 	0.9261	0.62	0.4728	0.022
Mof_C 	C 	0.9811	0.6596	0.5377	0.19
Mof_C 	C 	0.9782	0.622	0.6153	-0.235
Mof_C 	C 	0.9202	0.5447	0.6281	0.035
Mof_C 	C 	0.8652	0.505	0.5632	-0.086
Mof_C 	C 	0.0471	0.6617	0.6768	0.539
Mof_C 	C 	0.9968	0.6637	0.3127	0.503
Mof_H 	H 	0.0426	0.6782	0.3494	-0.256
Mof_H 	H 	0.0117	0.7	0.2634	-0.147
Mof_H 	H 	0.9764	0.6104	0.2908	-0.557
Mof_C 	C 	0.0156	0.8128	0.5565	0.563
Mof_H 	H 	0.9895	0.8217	0.5072	-0.062
Mof_H 	H 	0.0562	0.8631	0.5797	-0.111
Mof_H 	H 	0.9772	0.7839	0.6022	-0.085
Mof_C 	C 	0.9241	0.5538	0.8108	-0.049
Mof_H 	H 	0.915	0.5253	0.8658	-0.023
Mof_H 	H 	0.8857	0.5711	0.8046	0.094
Mof_H 	H 	0.9769	0.5994	0.8108	0.044
Mof_C 	C 	0.8477	0.3592	0.5594	0.049
Mof_H 	H 	0.8726	0.3719	0.5018	-0.014
Mof_H 	H 	0.8141	0.3024	0.5646	-0.011
Mof_H 	H 	0.8881	0.378	0.6046	-0.018
Mof_S 	S 	0.9232	0.6685	0.3753	-0.158
Mof_S 	S 	0.0593	0.75727	0.5207	-0.421
Mof_S 	S 	0.9146	0.4933	0.7254	0.072
Mof_S 	S 	0.79	0.4054	0.5723	-0.183
Mof_O 	O 	0.9416	0.7497	0.7502	-0.404
Mof_H 	H 	0.9789	0.7905	0.7713	0.24
Mof_O 	O 	0.033	0.698	0.743	-0.207
Mof_C 	C 	0.8642	0.5483	0.4939	-0.073
Mof_C 	C 	0.9169	0.6267	0.478	-0.023
Mof_C 	C 	0.9511	0.6782	0.5473	-0.01
Mof_C 	C 	0.9326	0.6511	0.6325	0.006
Mof_C 	C 	0.8799	0.5727	0.6484	-0.009
Mof_C 	C 	0.8456	0.5213	0.5791	0.07
Mof_C 	C 	0.9692	0.709	0.7097	0.235
Mof_C 	C 	0.9943	0.619	0.326	-0.175
Mof_H 	H 	0.0493	0.6597	0.3324	0.179
Mof_H 	H 	0.9829	0.6048	0.2644	0.479
Mof_H 	H 	0.9841	0.5731	0.36	0.081
Mof_C 	C 	0.0988	0.7748	0.4852	0.635
Mof_H 	H 	0.0842	0.7196	0.4804	-0.079
Mof_H 	H 	0.1446	0.802	0.5231	-0.103
Mof_H 	H 	0.1114	0.7988	0.4272	-0.136
Mof_C 	C 	0.916	0.506	0.776	-0.339
Mof_H 	H 	0.8851	0.4488	0.7731	0.086
Mof_H 	H 	0.9407	0.5215	0.8339	0.148
Mof_H 	H 	0.9564	0.5256	0.7312	0.076
Mof_C 	C 	0.831	0.371	0.591	-0.296
Mof_H 	H 	0.8215	0.3381	0.6428	0.093
Mof_H 	H 	0.8864	0.4092	0.5865	0.105
Mof_H 	H 	0.814	0.3375	0.5389	0.098
Mof_S 	S 	0.9351	0.6548	0.3634	0.071
Mof_S 	S 	0.0206	0.7817	0.5295	-0.343
Mof_S 	S 	0.8555	0.5448	0.7609	-0.091
Mof_S 	S 	0.7763	0.4195	0.5997	0.191
Mof_Eu	Eu	0.2175	0.66067	0.71111	2.327
Mof_O 	O 	0.1378	0.6217	0.8365	-0.604
Mof_O 	O 	0.2072	0.6327	0.9567	-0.619
Mof_O 	O 	0.7527	0.4967	0.4032	-0.579
Mof_O 	O 	0.8384	0.4579	0.3705	-0.595
Mof_O 	O 	0.4173	0.6742	0.7995	-0.933
Mof_H 	H 	0.4663	0.6772	0.8218	0.183
Mof_S 	S 	0.09589	0.4379	0.89213	-0.055
Mof_S 	S 	0.06904	0.68372	0.01185	0.027
Mof_C 	C 	0.3922	0.5375	0.9134	0.505
Mof_C 	C 	0.4491	0.5186	0.9598	-0.148
Mof_C 	C 	0.4185	0.448	0.0071	0.01
Mof_C 	C 	0.5284	0.57	0.9536	0.018
Mof_C 	C 	0.5711	0.7247	0.9774	-0.317
Mof_H 	H 	0.6089	0.7277	0.0208	0.117
Mof_H 	H 	0.5892	0.7766	0.9525	0.098
Mof_H 	H 	0.5202	0.7059	0.0052	0.086
Mof_C 	C 	0.2961	0.4199	0.1099	-0.369
Mof_H 	H 	0.3122	0.4753	0.1034	0.122
Mof_H 	H 	0.24	0.3898	0.1223	0.133
Mof_H 	H 	0.3252	0.4137	0.1581	0.113
Mof_C 	C 	0.5047	0.3193	0.4145	0.475
Mof_O 	O 	0.3603	0.4553	0.6597	-0.794
Mof_H 	H 	0.354	0.412	0.676	-0.03
Mof_H 	H 	0.404	0.479	0.634	0.318
Mof_O 	O 	0.2851	0.3361	0.7276	-0.146
Mof_C 	C 	0.4573	0.3255	0.4856	-0.022
Mof_C 	C 	0.38	0.3061	0.4728	0.022
Mof_C 	C 	0.3404	0.3215	0.5377	0.19
Mof_C 	C 	0.378	0.3562	0.6153	-0.235
Mof_C 	C 	0.4553	0.3755	0.6281	0.035
Mof_C 	C 	0.495	0.3602	0.5632	-0.086
Mof_C 	C 	0.3383	0.3854	0.6768	0.539
Mof_C 	C 	0.3363	0.3331	0.3127	0.508
Mof_H 	H 	0.3218	0.3644	0.3494	-0.259
Mof_H 	H 	0.3	0.3117	0.2634	-0.148
Mof_H 	H 	0.3896	0.366	0.2908	-0.561
Mof_C 	C 	0.1872	0.2028	0.5565	0.563
Mof_H 	H 	0.1783	0.1678	0.5072	-0.062
Mof_H 	H 	0.1369	0.1931	0.5797	-0.111
Mof_H 	H 	0.2161	0.1933	0.6022	-0.085
Mof_C 	C 	0.4462	0.3703	0.8108	-0.049
Mof_H 	H 	0.4747	0.3897	0.8658	-0.023
Mof_H 	H 	0.4289	0.3146	0.8046	0.094
Mof_H 	H 	0.4006	0.3775	0.8108	0.044
Mof_C 	C 	0.6408	0.4885	0.5594	0.049
Mof_H 	H 	0.6281	0.5007	0.5018	-0.014
Mof_H 	H 	0.6976	0.5117	0.5646	-0.011
Mof_H 	H 	0.622	0.5101	0.6046	-0.018
Mof_S 	S 	0.3315	0.2547	0.3753	-0.159
Mof_S 	S 	0.24273	0.30203	0.5207	-0.422
Mof_S 	S 	0.5067	0.4213	0.7254	0.072
Mof_S 	S 	0.5946	0.3846	0.5723	-0.183
Mof_O 	O 	0.2503	0.1919	0.7502	-0.404
Mof_H 	H 	0.2095	0.1884	0.7713	0.24
Mof_O 	O 	0.302	0.335	0.743	-0.207
Mof_C 	C 	0.4517	0.3159	0.4939	-0.073
Mof_C 	C 	0.3733	0.2902	0.478	-0.023
Mof_C 	C 	0.3218	0.2729	0.5473	-0.01
Mof_C 	C 	0.3489	0.2815	0.6325	0.005
Mof_C 	C 	0.4273	0.3072	0.6484	-0.009
Mof_C 	C 	0.4787	0.3243	0.5791	0.07
Mof_C 	C 	0.291	0.2602	0.7097	0.236
Mof_C 	C 	0.381	0.3753	0.326	-0.177
Mof_H 	H 	0.3403	0.3896	0.3324	0.182
Mof_H 	H 	0.3952	0.3781	0.2644	0.482
Mof_H 	H 	0.4269	0.411	0.36	0.082
Mof_C 	C 	0.2252	0.324	0.4852	0.635
Mof_H 	H 	0.2804	0.3646	0.4804	-0.079
Mof_H 	H 	0.198	0.3426	0.5231	-0.103
Mof_H 	H 	0.2012	0.3126	0.4272	-0.136
Mof_C 	C 	0.494	0.41	0.776	-0.34
Mof_H 	H 	0.5512	0.4363	0.7731	0.086
Mof_H 	H 	0.4785	0.4192	0.8339	0.148
Mof_H 	H 	0.4744	0.4308	0.7312	0.077
Mof_C 	C 	0.629	0.46	0.591	-0.295
Mof_H 	H 	0.6619	0.4834	0.6428	0.093
Mof_H 	H 	0.5908	0.4772	0.5865	0.105
Mof_H 	H 	0.6625	0.4765	0.5389	0.098
Mof_S 	S 	0.3452	0.2803	0.3634	0.071
Mof_S 	S 	0.2183	0.2389	0.5295	-0.343
Mof_S 	S 	0.4552	0.3107	0.7609	-0.091
Mof_S 	S 	0.5805	0.3568	0.5997	0.191
Mof_Eu	Eu	0.33933	0.55683	0.71111	2.326
Mof_O 	O 	0.3783	0.5161	0.8365	-0.604
Mof_O 	O 	0.3673	0.5745	0.9567	-0.62
Mof_O 	O 	0.5033	0.256	0.4032	-0.579
Mof_O 	O 	0.5421	0.3805	0.3705	-0.595
Mof_O 	O 	0.3258	0.7431	0.7995	-0.933
Mof_H 	H 	0.3228	0.7891	0.8218	0.183
Mof_S 	S 	0.5621	0.65799	0.89213	-0.055
Mof_S 	S 	0.31628	0.38532	0.01185	0.027
Mof_C 	C 	0.4625	0.8547	0.9134	0.505
Mof_C 	C 	0.4814	0.9305	0.9598	-0.147
Mof_C 	C 	0.552	0.9705	0.0071	0.008
Mof_C 	C 	0.43	0.9584	0.9536	0.019
Mof_C 	C 	0.2753	0.8464	0.9774	-0.312
Mof_H 	H 	0.2723	0.8812	0.0208	0.115
Mof_H 	H 	0.2234	0.8126	0.9525	0.097
Mof_H 	H 	0.2941	0.8143	0.0052	0.084
Mof_C 	C 	0.5801	0.8762	0.1099	-0.369
Mof_H 	H 	0.5247	0.8369	0.1034	0.122
Mof_H 	H 	0.6102	0.8502	0.1223	0.133
Mof_H 	H 	0.5863	0.9115	0.1581	0.113
Mof_C 	C 	0.6807	0.1854	0.4145	0.475
Mof_O 	O 	0.5447	0.905	0.6597	-0.794
Mof_H 	H 	0.588	0.942	0.676	-0.03
Mof_H 	H 	0.521	0.925	0.634	0.318
Mof_O 	O 	0.6639	0.949	0.7276	-0.145
Mof_C 	C 	0.6745	0.1318	0.4856	-0.021
Mof_C 	C 	0.6939	0.0739	0.4728	0.022
Mof_C 	C 	0.6785	0.0189	0.5377	0.19
Mof_C 	C 	0.6438	0.0218	0.6153	-0.235
Mof_C 	C 	0.6245	0.0798	0.6281	0.035
Mof_C 	C 	0.6398	0.1348	0.5632	-0.086
Mof_C 	C 	0.6146	0.9529	0.6768	0.539
Mof_C 	C 	0.6669	0.0032	0.3127	0.505
Mof_H 	H 	0.6356	0.9574	0.3494	-0.257
Mof_H 	H 	0.6883	0.9883	0.2634	-0.147
Mof_H 	H 	0.634	0.0236	0.2908	-0.559
Mof_C 	C 	0.7972	0.9844	0.5565	0.563
Mof_H 	H 	0.8322	0.0105	0.5072	-0.063
Mof_H 	H 	0.8069	0.9438	0.5797	-0.111
Mof_H 	H 	0.8067	0.0228	0.6022	-0.085
Mof_C 	C 	0.6297	0.0759	0.8108	-0.05
Mof_H 	H 	0.6103	0.085	0.8658	-0.023
Mof_H 	H 	0.6854	0.1143	0.8046	0.094
Mof_H 	H 	0.6225	0.0231	0.8108	0.044
Mof_C 	C 	0.5115	0.1523	0.5594	0.049
Mof_H 	H 	0.4993	0.1274	0.5018	-0.014
Mof_H 	H 	0.4883	0.1859	0.5646	-0.011
Mof_H 	H 	0.4899	0.1119	0.6046	-0.018
Mof_S 	S 	0.7453	0.0768	0.3753	-0.159
Mof_S 	S 	0.69797	0.9407	0.5207	-0.421
Mof_S 	S 	0.5787	0.0854	0.7254	0.072
Mof_S 	S 	0.6154	0.21	0.5723	-0.183
Mof_O 	O 	0.8081	0.0584	0.7502	-0.404
Mof_H 	H 	0.8116	0.0211	0.7713	0.24
Mof_O 	O 	0.665	0.967	0.743	-0.207
Mof_C 	C 	0.6841	0.1358	0.4939	-0.073
Mof_C 	C 	0.7098	0.0831	0.478	-0.023
Mof_C 	C 	0.7271	0.0489	0.5473	-0.01
Mof_C 	C 	0.7185	0.0674	0.6325	0.006
Mof_C 	C 	0.6928	0.1201	0.6484	-0.009
Mof_C 	C 	0.6757	0.1544	0.5791	0.07
Mof_C 	C 	0.7398	0.0308	0.7097	0.235
Mof_C 	C 	0.6247	0.0057	0.326	-0.176
Mof_H 	H 	0.6104	0.9507	0.3324	0.18
Mof_H 	H 	0.6219	0.0171	0.2644	0.48
Mof_H 	H 	0.589	0.0159	0.36	0.081
Mof_C 	C 	0.676	0.9012	0.4852	0.634
Mof_H 	H 	0.6354	0.9158	0.4804	-0.079
Mof_H 	H 	0.6574	0.8554	0.5231	-0.103
Mof_H 	H 	0.6874	0.8886	0.4272	-0.136
Mof_C 	C 	0.59	0.084	0.776	-0.339
Mof_H 	H 	0.5637	0.1149	0.7731	0.086
Mof_H 	H 	0.5808	0.0593	0.8339	0.148
Mof_H 	H 	0.5692	0.0436	0.7312	0.076
Mof_C 	C 	0.54	0.169	0.591	-0.296
Mof_H 	H 	0.5166	0.1785	0.6428	0.093
Mof_H 	H 	0.5228	0.1136	0.5865	0.105
Mof_H 	H 	0.5235	0.186	0.5389	0.098
Mof_S 	S 	0.7197	0.0649	0.3634	0.071
Mof_S 	S 	0.7611	0.9794	0.5295	-0.342
Mof_S 	S 	0.6893	0.1445	0.7609	-0.091
Mof_S 	S 	0.6432	0.2237	0.5997	0.191
Mof_Eu	Eu	0.44317	0.7825	0.71111	2.327
Mof_O 	O 	0.4839	0.8622	0.8365	-0.604
Mof_O 	O 	0.4255	0.7928	0.9567	-0.619
Mof_O 	O 	0.744	0.2473	0.4032	-0.579
Mof_O 	O 	0.6195	0.1616	0.3705	-0.595
Mof_O 	O 	0.2569	0.5827	0.7995	-0.933
Mof_H 	H 	0.2109	0.5337	0.8218	0.183
Mof_S 	S 	0.34201	0.90411	0.89213	-0.055
Mof_S 	S 	0.61468	0.93096	0.01185	0.027
Mof_C 	C 	0.8547	0.3922	0.0866	0.505
Mof_C 	C 	0.9305	0.4491	0.0402	-0.147
Mof_C 	C 	0.9705	0.4185	0.9929	0.008
Mof_C 	C 	0.9584	0.5284	0.0464	0.018
Mof_C 	C 	0.8464	0.5711	0.0226	-0.315
Mof_H 	H 	0.8812	0.6089	0.9792	0.116
Mof_H 	H 	0.8126	0.5892	0.0475	0.098
Mof_H 	H 	0.8143	0.5202	0.9948	0.085
Mof_C 	C 	0.8762	0.2961	0.8901	-0.368
Mof_H 	H 	0.8369	0.3122	0.8966	0.122
Mof_H 	H 	0.8502	0.24	0.8777	0.133
Mof_H 	H 	0.9115	0.3252	0.8419	0.113
Mof_C 	C 	0.1854	0.5047	0.5855	0.474
Mof_O 	O 	0.905	0.3603	0.3403	-0.794
Mof_H 	H 	0.942	0.354	0.324	-0.03
Mof_H 	H 	0.925	0.404	0.366	0.318
Mof_O 	O 	0.949	0.2851	0.2724	-0.145
Mof_C 	C 	0.1318	0.4573	0.5144	-0.021
Mof_C 	C 	0.0739	0.38	0.5272	0.022
Mof_C 	C 	0.0189	0.3404	0.4623	0.19
Mof_C 	C 	0.0218	0.378	0.3847	-0.235
Mof_C 	C 	0.0798	0.4553	0.3719	0.035
Mof_C 	C 	0.1348	0.495	0.4368	-0.086
Mof_C 	C 	0.9529	0.3383	0.3232	0.539
Mof_C 	C 	0.0032	0.3363	0.6873	0.503
Mof_H 	H 	0.9574	0.3218	0.6506	-0.256
Mof_H 	H 	0.9883	0.3	0.7366	-0.147
Mof_H 	H 	0.0236	0.3896	0.7092	-0.557
Mof_C 	C 	0.9844	0.1872	0.4435	0.563
Mof_H 	H 	0.0105	0.1783	0.4928	-0.062
Mof_H 	H 	0.9438	0.1369	0.4203	-0.111
Mof_H 	H 	0.0228	0.2161	0.3978	-0.085
Mof_C 	C 	0.0759	0.4462	0.1892	-0.049
Mof_H 	H 	0.085	0.4747	0.1342	-0.023
Mof_H 	H 	0.1143	0.4289	0.1954	0.094
Mof_H 	H 	0.0231	0.4006	0.1892	0.044
Mof_C 	C 	0.1523	0.6408	0.4406	0.049
Mof_H 	H 	0.1274	0.6281	0.4982	-0.014
Mof_H 	H 	0.1859	0.6976	0.4354	-0.011
Mof_H 	H 	0.1119	0.622	0.3954	-0.018
Mof_S 	S 	0.0768	0.3315	0.6247	-0.158
Mof_S 	S 	0.9407	0.24273	0.4793	-0.421
Mof_S 	S 	0.0854	0.5067	0.2746	0.072
Mof_S 	S 	0.21	0.5946	0.4277	-0.183
Mof_O 	O 	0.0584	0.2503	0.2498	-0.404
Mof_H 	H 	0.0211	0.2095	0.2287	0.24
Mof_O 	O 	0.967	0.302	0.257	-0.207
Mof_C 	C 	0.1358	0.4517	0.5061	-0.073
Mof_C 	C 	0.0831	0.3733	0.522	-0.023
Mof_C 	C 	0.0489	0.3218	0.4527	-0.01
Mof_C 	C 	0.0674	0.3489	0.3675	0.006
Mof_C 	C 	0.1201	0.4273	0.3516	-0.009
Mof_C 	C 	0.1544	0.4787	0.4209	0.07
Mof_C 	C 	0.0308	0.291	0.2903	0.235
Mof_C 	C 	0.0057	0.381	0.674	-0.175
Mof_H 	H 	0.9507	0.3403	0.6676	0.179
Mof_H 	H 	0.0171	0.3952	0.7356	0.479
Mof_H 	H 	0.0159	0.4269	0.64	0.081
Mof_C 	C 	0.9012	0.2252	0.5148	0.635
Mof_H 	H 	0.9158	0.2804	0.5196	-0.079
Mof_H 	H 	0.8554	0.198	0.4769	-0.103
Mof_H 	H 	0.8886	0.2012	0.5728	-0.136
Mof_C 	C 	0.084	0.494	0.224	-0.339
Mof_H 	H 	0.1149	0.5512	0.2269	0.086
Mof_H 	H 	0.0593	0.4785	0.1661	0.148
Mof_H 	H 	0.0436	0.4744	0.2688	0.076
Mof_C 	C 	0.169	0.629	0.409	-0.296
Mof_H 	H 	0.1785	0.6619	0.3572	0.093
Mof_H 	H 	0.1136	0.5908	0.4135	0.105
Mof_H 	H 	0.186	0.6625	0.4611	0.098
Mof_S 	S 	0.0649	0.3452	0.6366	0.071
Mof_S 	S 	0.9794	0.2183	0.4705	-0.343
Mof_S 	S 	0.1445	0.4552	0.2391	-0.091
Mof_S 	S 	0.2237	0.5805	0.4003	0.191
Mof_Eu	Eu	0.7825	0.33933	0.28889	2.327
Mof_O 	O 	0.8622	0.3783	0.1635	-0.604
Mof_O 	O 	0.7928	0.3673	0.0433	-0.619
Mof_O 	O 	0.2473	0.5033	0.5968	-0.579
Mof_O 	O 	0.1616	0.5421	0.6295	-0.595
Mof_O 	O 	0.5827	0.3258	0.2005	-0.933
Mof_H 	H 	0.5337	0.3228	0.1782	0.183
Mof_S 	S 	0.90411	0.5621	0.10787	-0.055
Mof_S 	S 	0.93096	0.31628	0.98815	0.027
Mof_C 	C 	0.6078	0.4625	0.0866	0.505
Mof_C 	C 	0.5509	0.4814	0.0402	-0.148
Mof_C 	C 	0.5815	0.552	0.9929	0.01
Mof_C 	C 	0.4716	0.43	0.0464	0.018
Mof_C 	C 	0.4289	0.2753	0.0226	-0.317
Mof_H 	H 	0.3911	0.2723	0.9792	0.117
Mof_H 	H 	0.4108	0.2234	0.0475	0.098
Mof_H 	H 	0.4798	0.2941	0.9948	0.086
Mof_C 	C 	0.7039	0.5801	0.8901	-0.369
Mof_H 	H 	0.6878	0.5247	0.8966	0.122
Mof_H 	H 	0.76	0.6102	0.8777	0.133
Mof_H 	H 	0.6748	0.5863	0.8419	0.113
Mof_C 	C 	0.4953	0.6807	0.5855	0.475
Mof_O 	O 	0.6397	0.5447	0.3403	-0.794
Mof_H 	H 	0.646	0.588	0.324	-0.03
Mof_H 	H 	0.596	0.521	0.366	0.318
Mof_O 	O 	0.7149	0.6639	0.2724	-0.146
Mof_C 	C 	0.5427	0.6745	0.5144	-0.022
Mof_C 	C 	0.62	0.6939	0.5272	0.022
Mof_C 	C 	0.6596	0.6785	0.4623	0.19
Mof_C 	C 	0.622	0.6438	0.3847	-0.235
Mof_C 	C 	0.5447	0.6245	0.3719	0.035
Mof_C 	C 	0.505	0.6398	0.4368	-0.086
Mof_C 	C 	0.6617	0.6146	0.3232	0.539
Mof_C 	C 	0.6637	0.6669	0.6873	0.508
Mof_H 	H 	0.6782	0.6356	0.6506	-0.259
Mof_H 	H 	0.7	0.6883	0.7366	-0.148
Mof_H 	H 	0.6104	0.634	0.7092	-0.561
Mof_C 	C 	0.8128	0.7972	0.4435	0.563
Mof_H 	H 	0.8217	0.8322	0.4928	-0.062
Mof_H 	H 	0.8631	0.8069	0.4203	-0.111
Mof_H 	H 	0.7839	0.8067	0.3978	-0.085
Mof_C 	C 	0.5538	0.6297	0.1892	-0.049
Mof_H 	H 	0.5253	0.6103	0.1342	-0.023
Mof_H 	H 	0.5711	0.6854	0.1954	0.094
Mof_H 	H 	0.5994	0.6225	0.1892	0.044
Mof_C 	C 	0.3592	0.5115	0.4406	0.049
Mof_H 	H 	0.3719	0.4993	0.4982	-0.014
Mof_H 	H 	0.3024	0.4883	0.4354	-0.011
Mof_H 	H 	0.378	0.4899	0.3954	-0.018
Mof_S 	S 	0.6685	0.7453	0.6247	-0.159
Mof_S 	S 	0.75727	0.69797	0.4793	-0.422
Mof_S 	S 	0.4933	0.5787	0.2746	0.072
Mof_S 	S 	0.4054	0.6154	0.4277	-0.183
Mof_O 	O 	0.7497	0.8081	0.2498	-0.404
Mof_H 	H 	0.7905	0.8116	0.2287	0.24
Mof_O 	O 	0.698	0.665	0.257	-0.207
Mof_C 	C 	0.5483	0.6841	0.5061	-0.073
Mof_C 	C 	0.6267	0.7098	0.522	-0.023
Mof_C 	C 	0.6782	0.7271	0.4527	-0.01
Mof_C 	C 	0.6511	0.7185	0.3675	0.005
Mof_C 	C 	0.5727	0.6928	0.3516	-0.009
Mof_C 	C 	0.5213	0.6757	0.4209	0.07
Mof_C 	C 	0.709	0.7398	0.2903	0.236
Mof_C 	C 	0.619	0.6247	0.674	-0.177
Mof_H 	H 	0.6597	0.6104	0.6676	0.182
Mof_H 	H 	0.6048	0.6219	0.7356	0.482
Mof_H 	H 	0.5731	0.589	0.64	0.082
Mof_C 	C 	0.7748	0.676	0.5148	0.635
Mof_H 	H 	0.7196	0.6354	0.5196	-0.079
Mof_H 	H 	0.802	0.6574	0.4769	-0.103
Mof_H 	H 	0.7988	0.6874	0.5728	-0.136
Mof_C 	C 	0.506	0.59	0.224	-0.34
Mof_H 	H 	0.4488	0.5637	0.2269	0.086
Mof_H 	H 	0.5215	0.5808	0.1661	0.148
Mof_H 	H 	0.5256	0.5692	0.2688	0.077
Mof_C 	C 	0.371	0.54	0.409	-0.295
Mof_H 	H 	0.3381	0.5166	0.3572	0.093
Mof_H 	H 	0.4092	0.5228	0.4135	0.105
Mof_H 	H 	0.3375	0.5235	0.4611	0.098
Mof_S 	S 	0.6548	0.7197	0.6366	0.071
Mof_S 	S 	0.7817	0.7611	0.4705	-0.343
Mof_S 	S 	0.5448	0.6893	0.2391	-0.091
Mof_S 	S 	0.4195	0.6432	0.4003	0.191
Mof_Eu	Eu	0.66067	0.44317	0.28889	2.326
Mof_O 	O 	0.6217	0.4839	0.1635	-0.604
Mof_O 	O 	0.6327	0.4255	0.0433	-0.62
Mof_O 	O 	0.4967	0.744	0.5968	-0.579
Mof_O 	O 	0.4579	0.6195	0.6295	-0.595
Mof_O 	O 	0.6742	0.2569	0.2005	-0.933
Mof_H 	H 	0.6772	0.2109	0.1782	0.183
Mof_S 	S 	0.4379	0.34201	0.10787	-0.055
Mof_S 	S 	0.68372	0.61468	0.98815	0.027
Mof_C 	C 	0.5375	0.1453	0.0866	0.505
Mof_C 	C 	0.5186	0.0695	0.0402	-0.147
Mof_C 	C 	0.448	0.0295	0.9929	0.008
Mof_C 	C 	0.57	0.0416	0.0464	0.019
Mof_C 	C 	0.7247	0.1536	0.0226	-0.312
Mof_H 	H 	0.7277	0.1188	0.9792	0.115
Mof_H 	H 	0.7766	0.1874	0.0475	0.097
Mof_H 	H 	0.7059	0.1857	0.9948	0.084
Mof_C 	C 	0.4199	0.1238	0.8901	-0.369
Mof_H 	H 	0.4753	0.1631	0.8966	0.122
Mof_H 	H 	0.3898	0.1498	0.8777	0.133
Mof_H 	H 	0.4137	0.0885	0.8419	0.113
Mof_C 	C 	0.3193	0.8146	0.5855	0.475
Mof_O 	O 	0.4553	0.095	0.3403	-0.794
Mof_H 	H 	0.412	0.058	0.324	-0.03
Mof_H 	H 	0.479	0.075	0.366	0.318
Mof_O 	O 	0.3361	0.051	0.2724	-0.145
Mof_C 	C 	0.3255	0.8682	0.5144	-0.021
Mof_C 	C 	0.3061	0.9261	0.5272	0.022
Mof_C 	C 	0.3215	0.9811	0.4623	0.19
Mof_C 	C 	0.3562	0.9782	0.3847	-0.235
Mof_C 	C 	0.3755	0.9202	0.3719	0.035
Mof_C 	C 	0.3602	0.8652	0.4368	-0.086
Mof_C 	C 	0.3854	0.0471	0.3232	0.539
Mof_C 	C 	0.3331	0.9968	0.6873	0.505
Mof_H 	H 	0.3644	0.0426	0.6506	-0.257
Mof_H 	H 	0.3117	0.0117	0.7366	-0.147
Mof_H 	H 	0.366	0.9764	0.7092	-0.559
Mof_C 	C 	0.2028	0.0156	0.4435	0.563
Mof_H 	H 	0.1678	0.9895	0.4928	-0.063
Mof_H 	H 	0.1931	0.0562	0.4203	-0.111
Mof_H 	H 	0.1933	0.9772	0.3978	-0.085
Mof_C 	C 	0.3703	0.9241	0.1892	-0.05
Mof_H 	H 	0.3897	0.915	0.1342	-0.023
Mof_H 	H 	0.3146	0.8857	0.1954	0.094
Mof_H 	H 	0.3775	0.9769	0.1892	0.044
Mof_C 	C 	0.4885	0.8477	0.4406	0.049
Mof_H 	H 	0.5007	0.8726	0.4982	-0.014
Mof_H 	H 	0.5117	0.8141	0.4354	-0.011
Mof_H 	H 	0.5101	0.8881	0.3954	-0.018
Mof_S 	S 	0.2547	0.9232	0.6247	-0.159
Mof_S 	S 	0.30203	0.0593	0.4793	-0.421
Mof_S 	S 	0.4213	0.9146	0.2746	0.072
Mof_S 	S 	0.3846	0.79	0.4277	-0.183
Mof_O 	O 	0.1919	0.9416	0.2498	-0.404
Mof_H 	H 	0.1884	0.9789	0.2287	0.24
Mof_O 	O 	0.335	0.033	0.257	-0.207
Mof_C 	C 	0.3159	0.8642	0.5061	-0.073
Mof_C 	C 	0.2902	0.9169	0.522	-0.023
Mof_C 	C 	0.2729	0.9511	0.4527	-0.01
Mof_C 	C 	0.2815	0.9326	0.3675	0.006
Mof_C 	C 	0.3072	0.8799	0.3516	-0.009
Mof_C 	C 	0.3243	0.8456	0.4209	0.07
Mof_C 	C 	0.2602	0.9692	0.2903	0.235
Mof_C 	C 	0.3753	0.9943	0.674	-0.176
Mof_H 	H 	0.3896	0.0493	0.6676	0.18
Mof_H 	H 	0.3781	0.9829	0.7356	0.48
Mof_H 	H 	0.411	0.9841	0.64	0.081
Mof_C 	C 	0.324	0.0988	0.5148	0.634
Mof_H 	H 	0.3646	0.0842	0.5196	-0.079
Mof_H 	H 	0.3426	0.1446	0.4769	-0.103
Mof_H 	H 	0.3126	0.1114	0.5728	-0.136
Mof_C 	C 	0.41	0.916	0.224	-0.339
Mof_H 	H 	0.4363	0.8851	0.2269	0.086
Mof_H 	H 	0.4192	0.9407	0.1661	0.148
Mof_H 	H 	0.4308	0.9564	0.2688	0.076
Mof_C 	C 	0.46	0.831	0.409	-0.296
Mof_H 	H 	0.4834	0.8215	0.3572	0.093
Mof_H 	H 	0.4772	0.8864	0.4135	0.105
Mof_H 	H 	0.4765	0.814	0.4611	0.098
Mof_S 	S 	0.2803	0.9351	0.6366	0.071
Mof_S 	S 	0.2389	0.0206	0.4705	-0.342
Mof_S 	S 	0.3107	0.8555	0.2391	-0.091
Mof_S 	S 	0.3568	0.7763	0.4003	0.191
Mof_Eu	Eu	0.55683	0.2175	0.28889	2.327
Mof_O 	O 	0.5161	0.1378	0.1635	-0.604
Mof_O 	O 	0.5745	0.2072	0.0433	-0.619
Mof_O 	O 	0.256	0.7527	0.5968	-0.579
Mof_O 	O 	0.3805	0.8384	0.6295	-0.595
Mof_O 	O 	0.7431	0.4173	0.2005	-0.933
Mof_H 	H 	0.7891	0.4663	0.1782	0.183
Mof_S 	S 	0.65799	0.09589	0.10787	-0.055
Mof_S 	S 	0.38532	0.06904	0.98815	0.027
Mof_Eu	Eu	0.33333	0.66667	0.91368	2.143
Mof_O 	O 	0.33333	0.66667	0.6498	-0.909
Mof_H 	H 	0.33333	0.66667	0.5846	0.202
Mof_Eu	Eu	0.66667	0.33333	0.08632	2.143
Mof_O 	O 	0.66667	0.33333	0.3502	-0.909
Mof_H 	H 	0.66667	0.33333	0.4154	0.202
_end
