data_functionalizedCrystal
_audit_creation_method	'EQeq! by Chris Wilmer'
_symmetry_space_group_name_H-M	'P1'
_symmetry_Int_Tables_number	1
_symmetry_cell_setting	triclinic
loop_
_symmetry_equiv_pos_as_xyz
  x,y,z
_cell_length_a	10.9663
_cell_length_b	30.592
_cell_length_c	11.9322
_cell_angle_alpha	90
_cell_angle_beta	117.01
_cell_angle_gamma	90
loop_
_atom_site_label
_atom_site_type_symbol
_atom_site_fract_x
_atom_site_fract_y
_atom_site_fract_z
_atom_site_charge
Mof_Cd	Cd	0.72857	0.23698	0.41926	0.419
Mof_O 	O 	0.8324	0.27214	0.3042	-0.261
Mof_O 	O 	0.9764	0.24518	0.4854	-0.244
Mof_O 	O 	0.0783	0.28817	0.0217	-0.262
Mof_O 	O 	0.3013	0.28998	0.12	-0.255
Mof_N 	N 	0.7091	0.30807	0.4836	-0.161
Mof_N 	N 	0.7256	0.167	0.3437	-0.163
Mof_N 	N 	0.581	0.01995	0.1218	-0.082
Mof_N 	N 	0.6033	0.4654	0.5444	-0.097
Mof_C 	C 	0.6855	0.3419	0.4059	0.082
Mof_H 	H 	0.6744	0.3367	0.3234	0.011
Mof_C 	C 	0.6765	0.3843	0.4413	-0.168
Mof_H 	H 	0.6587	0.408	0.3843	0.079
Mof_C 	C 	0.6944	0.3915	0.5634	0.117
Mof_C 	C 	0.7177	0.3575	0.6401	-0.19
Mof_H 	H 	0.7293	0.3616	0.7233	0.087
Mof_C 	C 	0.7245	0.3171	0.598	0.108
Mof_H 	H 	0.7415	0.2933	0.6545	-0
Mof_C 	C 	0.678	0.4327	0.6346	-0.066
Mof_H 	H 	0.6283	0.4244	0.6831	0.041
Mof_H 	H 	0.7691	0.444	0.6941	0.011
Mof_C 	C 	0.8353	0.1477	0.3433	0.101
Mof_H 	H 	0.9182	0.1638	0.3726	0.004
Mof_C 	C 	0.8324	0.1056	0.3021	-0.197
Mof_H 	H 	0.9122	0.0934	0.3024	0.084
Mof_C 	C 	0.7163	0.0813	0.2609	0.145
Mof_C 	C 	0.6032	0.1014	0.256	-0.189
Mof_H 	H 	0.5182	0.0864	0.2219	0.096
Mof_C 	C 	0.6114	0.1438	0.3004	0.101
Mof_H 	H 	0.5322	0.1566	0.2996	0.001
Mof_C 	C 	0.714	0.034	0.2194	-0.161
Mof_H 	H 	0.7828	0.0305	0.1878	0.067
Mof_H 	H 	0.7411	0.0146	0.2934	0.072
Mof_C 	C 	0.9519	0.26836	0.3905	0.21
Mof_C 	C 	0.0669	0.29319	0.3803	0.141
Mof_C 	C 	0.0349	0.34246	0.3729	-0.301
Mof_H 	H 	0.0286	0.3518	0.4496	0.117
Mof_H 	H 	0.9459	0.3484	0.2992	0.118
Mof_C 	C 	0.1495	0.3683	0.361	0.241
Mof_H 	H 	0.1286	0.4003	0.3577	-0.055
Mof_C 	C 	0.283	0.3599	0.4708	-0.367
Mof_H 	H 	0.2795	0.3692	0.5488	0.131
Mof_H 	H 	0.3554	0.377	0.4629	0.128
Mof_C 	C 	0.2066	0.2847	0.4924	-0.312
Mof_H 	H 	0.2039	0.2931	0.5714	0.132
Mof_H 	H 	0.2287	0.2531	0.4971	0.128
Mof_C 	C 	0.316	0.3111	0.4778	0.239
Mof_H 	H 	0.4068	0.3055	0.5517	-0.045
Mof_C 	C 	0.1864	0.29368	0.1197	0.217
Mof_C 	C 	0.0722	0.27981	0.2582	-0.25
Mof_H 	H 	0.9824	0.2855	0.1852	0.111
Mof_H 	H 	0.0914	0.2481	0.2603	0.104
Mof_C 	C 	0.3225	0.2976	0.3571	-0.31
Mof_H 	H 	0.3947	0.3145	0.3486	0.13
Mof_H 	H 	0.3461	0.2662	0.3614	0.129
Mof_C 	C 	0.1848	0.30576	0.2431	0.136
Mof_C 	C 	0.619	0.5045	0.622	-0.011
Mof_H 	H 	0.7173	0.5115	0.6739	0.011
Mof_H 	H 	0.5769	0.4997	0.6789	0.021
Mof_C 	C 	0.4562	0.4568	0.4739	-0.145
Mof_H 	H 	0.4166	0.4537	0.5333	0.057
Mof_H 	H 	0.4415	0.429	0.4271	0.056
Mof_C 	C 	0.5524	0.0418	0.003	-0.057
Mof_H 	H 	0.6247	0.0345	0.9781	0.046
Mof_H 	H 	0.5522	0.0739	0.0139	0.043
Mof_C 	C 	0.5852	0.9728	0.0985	-0.055
Mof_H 	H 	0.608	0.9563	0.1769	0.04
Mof_H 	H 	0.6569	0.9668	0.0719	0.043
Mof_C 	C 	0.1504	0.3553	0.2387	-0.304
Mof_H 	H 	0.2196	0.3727	0.2266	0.115
Mof_H 	H 	0.0596	0.3611	0.1672	0.118
Mof_C 	C 	0.726	0.4457	0.5868	-0.051
Mof_H 	H 	0.7833	0.452	0.6773	0.039
Mof_H 	H 	0.7754	0.4562	0.5397	0.038
Mof_C 	C 	0.627	0.5133	0.597	-0.035
Mof_H 	H 	0.6634	0.532	0.5512	0.041
Mof_H 	H 	0.6933	0.5136	0.6877	0.017
Mof_C 	C 	0.5195	0.47	0.4241	0.078
Mof_H 	H 	0.5094	0.4416	0.381	-0.006
Mof_H 	H 	0.5586	0.4912	0.3865	-0.007
Mof_Cd	Cd	0.77143	0.73698	0.08074	0.419
Mof_O 	O 	0.6676	0.77214	0.1958	-0.26
Mof_O 	O 	0.5236	0.74518	0.0146	-0.242
Mof_O 	O 	0.4217	0.78817	0.4783	-0.261
Mof_O 	O 	0.1987	0.78998	0.38	-0.254
Mof_N 	N 	0.7909	0.80807	0.0164	-0.161
Mof_N 	N 	0.7744	0.667	0.1563	-0.162
Mof_N 	N 	0.919	0.51995	0.3782	-0.081
Mof_N 	N 	0.8967	0.9654	0.9556	-0.094
Mof_C 	C 	0.8145	0.8419	0.0941	0.084
Mof_H 	H 	0.8256	0.8367	0.1766	0.011
Mof_C 	C 	0.8235	0.8843	0.0587	-0.17
Mof_H 	H 	0.8413	0.908	0.1157	0.079
Mof_C 	C 	0.8056	0.8915	0.9366	0.12
Mof_C 	C 	0.7823	0.8575	0.8599	-0.192
Mof_H 	H 	0.7707	0.8616	0.7767	0.088
Mof_C 	C 	0.7755	0.8171	0.902	0.11
Mof_H 	H 	0.7585	0.7933	0.8455	-0.001
Mof_C 	C 	0.822	0.9327	0.8654	-0.068
Mof_H 	H 	0.8717	0.9244	0.8169	0.041
Mof_H 	H 	0.7309	0.944	0.8059	0.01
Mof_C 	C 	0.6647	0.6477	0.1567	0.101
Mof_H 	H 	0.5818	0.6638	0.1274	0.005
Mof_C 	C 	0.6676	0.6056	0.1979	-0.197
Mof_H 	H 	0.5878	0.5934	0.1976	0.084
Mof_C 	C 	0.7837	0.5813	0.2391	0.145
Mof_C 	C 	0.8968	0.6014	0.244	-0.189
Mof_H 	H 	0.9818	0.5864	0.2781	0.096
Mof_C 	C 	0.8886	0.6438	0.1996	0.101
Mof_H 	H 	0.9678	0.6566	0.2004	0.001
Mof_C 	C 	0.786	0.534	0.2806	-0.161
Mof_H 	H 	0.7172	0.5305	0.3122	0.067
Mof_H 	H 	0.7589	0.5146	0.2066	0.072
Mof_C 	C 	0.5481	0.76836	0.1095	0.211
Mof_C 	C 	0.4331	0.79319	0.1197	0.142
Mof_C 	C 	0.4651	0.84246	0.1271	-0.305
Mof_H 	H 	0.4714	0.8518	0.0504	0.117
Mof_H 	H 	0.5541	0.8484	0.2008	0.12
Mof_C 	C 	0.3505	0.8683	0.139	0.243
Mof_H 	H 	0.3714	0.9003	0.1423	-0.055
Mof_C 	C 	0.217	0.8599	0.0292	-0.367
Mof_H 	H 	0.2205	0.8692	0.9512	0.13
Mof_H 	H 	0.1446	0.877	0.0371	0.129
Mof_C 	C 	0.2934	0.7847	0.0076	-0.312
Mof_H 	H 	0.2961	0.7931	0.9286	0.131
Mof_H 	H 	0.2713	0.7531	0.0029	0.128
Mof_C 	C 	0.184	0.8111	0.0222	0.242
Mof_H 	H 	0.0932	0.8055	0.9483	-0.047
Mof_C 	C 	0.3136	0.79368	0.3803	0.216
Mof_C 	C 	0.4278	0.77981	0.2418	-0.256
Mof_H 	H 	0.5176	0.7855	0.3148	0.115
Mof_H 	H 	0.4086	0.7481	0.2397	0.105
Mof_C 	C 	0.1775	0.7976	0.1429	-0.312
Mof_H 	H 	0.1053	0.8145	0.1514	0.131
Mof_H 	H 	0.1539	0.7662	0.1386	0.13
Mof_C 	C 	0.3152	0.80576	0.2569	0.138
Mof_C 	C 	0.881	0.0045	0.878	-0.017
Mof_H 	H 	0.7827	0.0115	0.8261	0.013
Mof_H 	H 	0.9231	0.9997	0.8211	0.025
Mof_C 	C 	0.0438	0.9568	0.0261	-0.105
Mof_H 	H 	0.0834	0.9537	0.9667	0.043
Mof_H 	H 	0.0585	0.929	0.0729	0.044
Mof_C 	C 	0.9476	0.5418	0.497	-0.054
Mof_H 	H 	0.8753	0.5345	0.5219	0.045
Mof_H 	H 	0.9478	0.5739	0.4861	0.042
Mof_C 	C 	0.9148	0.4728	0.4015	-0.057
Mof_H 	H 	0.892	0.4563	0.3231	0.04
Mof_H 	H 	0.8431	0.4668	0.4281	0.043
Mof_C 	C 	0.3496	0.8553	0.2613	-0.306
Mof_H 	H 	0.2804	0.8727	0.2734	0.116
Mof_H 	H 	0.4404	0.8611	0.3328	0.117
Mof_C 	C 	0.774	0.9457	0.9132	-0.051
Mof_H 	H 	0.7167	0.952	0.8227	0.041
Mof_H 	H 	0.7246	0.9562	0.9603	0.038
Mof_C 	C 	0.873	0.0133	0.903	-0.032
Mof_H 	H 	0.8366	0.032	0.9488	0.038
Mof_H 	H 	0.8067	0.0136	0.8123	0.016
Mof_C 	C 	0.9805	0.97	0.0759	0.038
Mof_H 	H 	0.9906	0.9416	0.119	0.005
Mof_H 	H 	0.9414	0.9912	0.1135	0.005
Mof_Cd	Cd	0.27143	0.76302	0.58074	0.42
Mof_O 	O 	0.1676	0.72786	0.6958	-0.26
Mof_O 	O 	0.0236	0.75482	0.5146	-0.243
Mof_O 	O 	0.9217	0.71183	0.9783	-0.261
Mof_O 	O 	0.6987	0.71002	0.88	-0.254
Mof_N 	N 	0.2909	0.69193	0.5164	-0.16
Mof_N 	N 	0.2744	0.833	0.6563	-0.162
Mof_N 	N 	0.419	0.98005	0.8782	-0.081
Mof_N 	N 	0.3967	0.5346	0.4556	-0.097
Mof_C 	C 	0.3145	0.6581	0.5941	0.082
Mof_H 	H 	0.3256	0.6633	0.6766	0.011
Mof_C 	C 	0.3235	0.6157	0.5587	-0.168
Mof_H 	H 	0.3413	0.592	0.6157	0.079
Mof_C 	C 	0.3056	0.6085	0.4366	0.117
Mof_C 	C 	0.2823	0.6425	0.3599	-0.19
Mof_H 	H 	0.2707	0.6384	0.2767	0.087
Mof_C 	C 	0.2755	0.6829	0.402	0.108
Mof_H 	H 	0.2585	0.7067	0.3455	-0
Mof_C 	C 	0.322	0.5673	0.3654	-0.066
Mof_H 	H 	0.3717	0.5756	0.3169	0.041
Mof_H 	H 	0.2309	0.556	0.3059	0.011
Mof_C 	C 	0.1647	0.8523	0.6567	0.101
Mof_H 	H 	0.0818	0.8362	0.6274	0.004
Mof_C 	C 	0.1676	0.8944	0.6979	-0.197
Mof_H 	H 	0.0878	0.9066	0.6976	0.084
Mof_C 	C 	0.2837	0.9187	0.7391	0.145
Mof_C 	C 	0.3968	0.8986	0.744	-0.189
Mof_H 	H 	0.4818	0.9136	0.7781	0.096
Mof_C 	C 	0.3886	0.8562	0.6996	0.101
Mof_H 	H 	0.4678	0.8434	0.7004	0.001
Mof_C 	C 	0.286	0.966	0.7806	-0.161
Mof_H 	H 	0.2172	0.9695	0.8122	0.067
Mof_H 	H 	0.2589	0.9854	0.7066	0.072
Mof_C 	C 	0.0481	0.73164	0.6095	0.21
Mof_C 	C 	0.9331	0.70681	0.6197	0.141
Mof_C 	C 	0.9651	0.65754	0.6271	-0.301
Mof_H 	H 	0.9714	0.6482	0.5504	0.117
Mof_H 	H 	0.0541	0.6516	0.7008	0.118
Mof_C 	C 	0.8505	0.6317	0.639	0.241
Mof_H 	H 	0.8714	0.5997	0.6423	-0.055
Mof_C 	C 	0.717	0.6401	0.5292	-0.367
Mof_H 	H 	0.7205	0.6308	0.4512	0.131
Mof_H 	H 	0.6446	0.623	0.5371	0.128
Mof_C 	C 	0.7934	0.7153	0.5076	-0.312
Mof_H 	H 	0.7961	0.7069	0.4286	0.132
Mof_H 	H 	0.7713	0.7469	0.5029	0.128
Mof_C 	C 	0.684	0.6889	0.5222	0.239
Mof_H 	H 	0.5932	0.6945	0.4483	-0.045
Mof_C 	C 	0.8136	0.70632	0.8803	0.217
Mof_C 	C 	0.9278	0.72019	0.7418	-0.25
Mof_H 	H 	0.0176	0.7145	0.8148	0.111
Mof_H 	H 	0.9086	0.7519	0.7397	0.104
Mof_C 	C 	0.6775	0.7024	0.6429	-0.31
Mof_H 	H 	0.6053	0.6855	0.6514	0.13
Mof_H 	H 	0.6539	0.7338	0.6386	0.129
Mof_C 	C 	0.8152	0.69424	0.7569	0.136
Mof_C 	C 	0.381	0.4955	0.378	-0.011
Mof_H 	H 	0.2827	0.4885	0.3261	0.011
Mof_H 	H 	0.4231	0.5003	0.3211	0.021
Mof_C 	C 	0.5438	0.5432	0.5261	-0.145
Mof_H 	H 	0.5834	0.5463	0.4667	0.057
Mof_H 	H 	0.5585	0.571	0.5729	0.056
Mof_C 	C 	0.4476	0.9582	0.997	-0.057
Mof_H 	H 	0.3753	0.9655	0.0219	0.046
Mof_H 	H 	0.4478	0.9261	0.9861	0.043
Mof_C 	C 	0.4148	0.0272	0.9015	-0.055
Mof_H 	H 	0.392	0.0437	0.8231	0.04
Mof_H 	H 	0.3431	0.0332	0.9281	0.043
Mof_C 	C 	0.8496	0.6447	0.7613	-0.304
Mof_H 	H 	0.7804	0.6273	0.7734	0.115
Mof_H 	H 	0.9404	0.6389	0.8328	0.118
Mof_C 	C 	0.274	0.5543	0.4132	-0.051
Mof_H 	H 	0.2167	0.548	0.3227	0.039
Mof_H 	H 	0.2246	0.5438	0.4603	0.038
Mof_C 	C 	0.373	0.4867	0.403	-0.035
Mof_H 	H 	0.3366	0.468	0.4488	0.041
Mof_H 	H 	0.3067	0.4864	0.3123	0.017
Mof_C 	C 	0.4805	0.53	0.5759	0.078
Mof_H 	H 	0.4906	0.5584	0.619	-0.006
Mof_H 	H 	0.4414	0.5088	0.6135	-0.007
Mof_Cd	Cd	0.22857	0.26302	0.91926	0.419
Mof_O 	O 	0.3324	0.22786	0.8042	-0.26
Mof_O 	O 	0.4764	0.25482	0.9854	-0.242
Mof_O 	O 	0.5783	0.21183	0.5217	-0.261
Mof_O 	O 	0.8013	0.21002	0.62	-0.254
Mof_N 	N 	0.2091	0.19193	0.9836	-0.161
Mof_N 	N 	0.2256	0.333	0.8437	-0.162
Mof_N 	N 	0.081	0.48005	0.6218	-0.081
Mof_N 	N 	0.1033	0.0346	0.0444	-0.094
Mof_C 	C 	0.1855	0.1581	0.9059	0.084
Mof_H 	H 	0.1744	0.1633	0.8234	0.011
Mof_C 	C 	0.1765	0.1157	0.9413	-0.17
Mof_H 	H 	0.1587	0.092	0.8843	0.079
Mof_C 	C 	0.1944	0.1085	0.0634	0.12
Mof_C 	C 	0.2177	0.1425	0.1401	-0.192
Mof_H 	H 	0.2293	0.1384	0.2233	0.088
Mof_C 	C 	0.2245	0.1829	0.098	0.11
Mof_H 	H 	0.2415	0.2067	0.1545	-0.001
Mof_C 	C 	0.178	0.0673	0.1346	-0.068
Mof_H 	H 	0.1283	0.0756	0.1831	0.041
Mof_H 	H 	0.2691	0.056	0.1941	0.01
Mof_C 	C 	0.3353	0.3523	0.8433	0.101
Mof_H 	H 	0.4182	0.3362	0.8726	0.005
Mof_C 	C 	0.3324	0.3944	0.8021	-0.197
Mof_H 	H 	0.4122	0.4066	0.8024	0.084
Mof_C 	C 	0.2163	0.4187	0.7609	0.145
Mof_C 	C 	0.1032	0.3986	0.756	-0.189
Mof_H 	H 	0.0182	0.4136	0.7219	0.096
Mof_C 	C 	0.1114	0.3562	0.8004	0.101
Mof_H 	H 	0.0322	0.3434	0.7996	0.001
Mof_C 	C 	0.214	0.466	0.7194	-0.161
Mof_H 	H 	0.2828	0.4695	0.6878	0.067
Mof_H 	H 	0.2411	0.4854	0.7934	0.072
Mof_C 	C 	0.4519	0.23164	0.8905	0.211
Mof_C 	C 	0.5669	0.20681	0.8803	0.142
Mof_C 	C 	0.5349	0.15754	0.8729	-0.305
Mof_H 	H 	0.5286	0.1482	0.9496	0.117
Mof_H 	H 	0.4459	0.1516	0.7992	0.12
Mof_C 	C 	0.6495	0.1317	0.861	0.243
Mof_H 	H 	0.6286	0.0997	0.8577	-0.055
Mof_C 	C 	0.783	0.1401	0.9708	-0.367
Mof_H 	H 	0.7795	0.1308	0.0488	0.13
Mof_H 	H 	0.8554	0.123	0.9629	0.129
Mof_C 	C 	0.7066	0.2153	0.9924	-0.312
Mof_H 	H 	0.7039	0.2069	0.0714	0.131
Mof_H 	H 	0.7287	0.2469	0.9971	0.128
Mof_C 	C 	0.816	0.1889	0.9778	0.242
Mof_H 	H 	0.9068	0.1945	0.0517	-0.047
Mof_C 	C 	0.6864	0.20632	0.6197	0.216
Mof_C 	C 	0.5722	0.22019	0.7582	-0.256
Mof_H 	H 	0.4824	0.2145	0.6852	0.115
Mof_H 	H 	0.5914	0.2519	0.7603	0.105
Mof_C 	C 	0.8225	0.2024	0.8571	-0.312
Mof_H 	H 	0.8947	0.1855	0.8486	0.131
Mof_H 	H 	0.8461	0.2338	0.8614	0.13
Mof_C 	C 	0.6848	0.19424	0.7431	0.138
Mof_C 	C 	0.119	0.9955	0.122	-0.017
Mof_H 	H 	0.2173	0.9885	0.1739	0.013
Mof_H 	H 	0.0769	0.0003	0.1789	0.025
Mof_C 	C 	0.9562	0.0432	0.9739	-0.105
Mof_H 	H 	0.9166	0.0463	0.0333	0.043
Mof_H 	H 	0.9415	0.071	0.9271	0.044
Mof_C 	C 	0.0524	0.4582	0.503	-0.054
Mof_H 	H 	0.1247	0.4655	0.4781	0.045
Mof_H 	H 	0.0522	0.4261	0.5139	0.042
Mof_C 	C 	0.0852	0.5272	0.5985	-0.057
Mof_H 	H 	0.108	0.5437	0.6769	0.04
Mof_H 	H 	0.1569	0.5332	0.5719	0.043
Mof_C 	C 	0.6504	0.1447	0.7387	-0.306
Mof_H 	H 	0.7196	0.1273	0.7266	0.116
Mof_H 	H 	0.5596	0.1389	0.6672	0.117
Mof_C 	C 	0.226	0.0543	0.0868	-0.051
Mof_H 	H 	0.2833	0.048	0.1773	0.041
Mof_H 	H 	0.2754	0.0438	0.0397	0.038
Mof_C 	C 	0.127	0.9867	0.097	-0.032
Mof_H 	H 	0.1634	0.968	0.0512	0.038
Mof_H 	H 	0.1933	0.9864	0.1877	0.016
Mof_C 	C 	0.0195	0.03	0.9241	0.038
Mof_H 	H 	0.0094	0.0584	0.881	0.005
Mof_H 	H 	0.0586	0.0088	0.8865	0.005
_end
