data_functionalizedCrystal
_audit_creation_method	'EQeq! by Chris Wilmer'
_symmetry_space_group_name_H-M	'P1'
_symmetry_Int_Tables_number	1
_symmetry_cell_setting	triclinic
loop_
_symmetry_equiv_pos_as_xyz
  x,y,z
_cell_length_a	26.3388
_cell_length_b	26.3388
_cell_length_c	4.856
_cell_angle_alpha	90
_cell_angle_beta	90
_cell_angle_gamma	90
loop_
_atom_site_label
_atom_site_type_symbol
_atom_site_fract_x
_atom_site_fract_y
_atom_site_fract_z
_atom_site_charge
Mof_Zn	Zn	0.26997	0.21596	0.8982	1.223
Mof_O 	O 	0.2283	0.2719	0.0081	-0.777
Mof_N 	N 	0.2419	0.147	0.954	-0.295
Mof_O 	O 	0.3367	0.2292	0.053	-0.509
Mof_H 	H 	0.2069	0.2832	0.8925	0.281
Mof_C 	C 	0.2575	0.1101	0.112	0.14
Mof_C 	C 	0.2038	0.1247	0.7837	0.049
Mof_H 	H 	0.2825	0.1146	0.245	-0.023
Mof_N 	N 	0.2345	0.0647	0.068	-0.167
Mof_C 	C 	0.1745	0.1463	0.5788	-0.143
Mof_C 	C 	0.1996	0.0737	0.859	0.06
Mof_C 	C 	0.249	0.0176	0.185	0.192
Mof_H 	H 	0.178	0.1804	0.5329	0.062
Mof_C 	C 	0.1395	0.1155	0.4429	0.057
Mof_C 	C 	0.1652	0.0422	0.7261	-0.121
Mof_C 	C 	0.2688	0.0145	0.448	-0.068
Mof_C 	C 	0.2434	0.9731	0.035	-0.121
Mof_C 	C 	0.1097	0.1356	0.2358	-0.098
Mof_C 	C 	0.1355	0.0643	0.5197	0.035
Mof_H 	H 	0.162	0.0081	0.7722	0.07
Mof_H 	H 	0.2726	0.0441	0.5508	0.059
Mof_C 	C 	0.2828	0.9688	0.563	0.003
Mof_C 	C 	0.2568	0.9267	0.142	0.078
Mof_H 	H 	0.2302	0.9748	0.8577	0.073
Mof_H 	H 	0.1133	0.1697	0.19	0.066
Mof_C 	C 	0.0743	0.1063	0.0936	-0.011
Mof_C 	C 	0.0999	0.0345	0.378	-0.082
Mof_C 	C 	0.2766	0.9261	0.404	-0.206
Mof_H 	H 	0.2959	0.9668	0.7407	0.043
Mof_H 	H 	0.2526	0.897	0.0411	0.032
Mof_H 	H 	0.0543	0.12	0.9545	0.025
Mof_C 	C 	0.0704	0.0555	0.1697	-0.035
Mof_H 	H 	0.096	0.0005	0.4243	0.058
Mof_C 	C 	0.2928	0.8746	0.519	0.598
Mof_H 	H 	0.0473	0.0348	0.078	0.036
Mof_O 	O 	0.2967	0.8724	0.78	-0.321
Mof_O 	O 	0.3415	0.8654	0.497	-0.294
Mof_C 	C 	0.2985	0.0106	0.265	-0.166
Mof_H 	H 	0.3218	0.0368	0.2451	0.1
Mof_C 	C 	0.3139	0.9641	0.378	0.108
Mof_H 	H 	0.3473	0.9586	0.4329	0.014
Mof_C 	C 	0.2257	0.9308	0.324	0.028
Mof_H 	H 	0.202	0.9048	0.3413	0.021
Mof_C 	C 	0.2145	0.9787	0.216	-0.104
Mof_H 	H 	0.1812	0.9847	0.1602	0.066
Mof_Zn	Zn	0.76997	0.71596	0.3982	1.23
Mof_O 	O 	0.7283	0.7719	0.5081	-0.81
Mof_N 	N 	0.7419	0.647	0.454	-0.277
Mof_O 	O 	0.8367	0.7292	0.553	-0.553
Mof_H 	H 	0.7069	0.7832	0.3925	0.303
Mof_C 	C 	0.7575	0.6101	0.612	0.112
Mof_C 	C 	0.7038	0.6247	0.2837	0.028
Mof_H 	H 	0.7825	0.6146	0.745	-0.014
Mof_N 	N 	0.7345	0.5647	0.568	-0.169
Mof_C 	C 	0.6745	0.6463	0.0788	-0.096
Mof_C 	C 	0.6996	0.5737	0.359	0.091
Mof_C 	C 	0.749	0.5176	0.685	0.166
Mof_H 	H 	0.678	0.6804	0.0329	0.048
Mof_C 	C 	0.6395	0.6155	0.9429	-0.008
Mof_C 	C 	0.6652	0.5422	0.2261	-0.16
Mof_C 	C 	0.7688	0.5145	0.948	-0.067
Mof_C 	C 	0.7434	0.4731	0.535	-0.325
Mof_C 	C 	0.6097	0.6356	0.7358	-0.05
Mof_C 	C 	0.6355	0.5643	0.0197	0.088
Mof_H 	H 	0.662	0.5081	0.2722	0.083
Mof_H 	H 	0.7726	0.5441	0.0508	0.058
Mof_C 	C 	0.7828	0.4688	0.063	-0.04
Mof_C 	C 	0.7568	0.4267	0.642	0.242
Mof_H 	H 	0.7302	0.4748	0.3577	0.146
Mof_H 	H 	0.6133	0.6697	0.69	0.043
Mof_C 	C 	0.5743	0.6063	0.5936	-0.066
Mof_C 	C 	0.5999	0.5345	0.878	-0.13
Mof_C 	C 	0.7766	0.4261	0.904	-0.133
Mof_H 	H 	0.7959	0.4668	0.2407	0.06
Mof_H 	H 	0.7526	0.397	0.5411	-0.022
Mof_H 	H 	0.5543	0.62	0.4545	0.05
Mof_C 	C 	0.5704	0.5555	0.6697	0.011
Mof_H 	H 	0.596	0.5005	0.9243	0.076
Mof_C 	C 	0.7928	0.3746	0.019	0.504
Mof_H 	H 	0.5473	0.5348	0.578	0.022
Mof_O 	O 	0.7967	0.3724	0.28	-0.309
Mof_O 	O 	0.8415	0.3654	0.997	-0.261
Mof_C 	C 	0.7985	0.5106	0.765	-0.122
Mof_H 	H 	0.8218	0.5368	0.7451	0.086
Mof_C 	C 	0.8139	0.4641	0.878	0.077
Mof_H 	H 	0.8473	0.4586	0.9329	0.029
Mof_C 	C 	0.7257	0.4308	0.824	-0.182
Mof_H 	H 	0.702	0.4048	0.8413	0.1
Mof_C 	C 	0.7145	0.4787	0.716	0.12
Mof_H 	H 	0.6812	0.4847	0.6602	-0.012
Mof_Zn	Zn	0.73003	0.78404	0.8982	1.222
Mof_O 	O 	0.7717	0.7281	0.0081	-0.778
Mof_N 	N 	0.7581	0.853	0.954	-0.296
Mof_O 	O 	0.6633	0.7708	0.053	-0.51
Mof_H 	H 	0.7931	0.7168	0.8925	0.281
Mof_C 	C 	0.7425	0.8899	0.112	0.14
Mof_C 	C 	0.7962	0.8753	0.7837	0.049
Mof_H 	H 	0.7175	0.8854	0.245	-0.023
Mof_N 	N 	0.7655	0.9353	0.068	-0.167
Mof_C 	C 	0.8255	0.8537	0.5788	-0.143
Mof_C 	C 	0.8004	0.9263	0.859	0.06
Mof_C 	C 	0.751	0.9824	0.185	0.192
Mof_H 	H 	0.822	0.8196	0.5329	0.062
Mof_C 	C 	0.8605	0.8845	0.4429	0.057
Mof_C 	C 	0.8348	0.9578	0.7261	-0.121
Mof_C 	C 	0.7312	0.9855	0.448	-0.068
Mof_C 	C 	0.7566	0.0269	0.035	-0.121
Mof_C 	C 	0.8903	0.8644	0.2358	-0.098
Mof_C 	C 	0.8645	0.9357	0.5197	0.035
Mof_H 	H 	0.838	0.9919	0.7722	0.07
Mof_H 	H 	0.7274	0.9559	0.5508	0.059
Mof_C 	C 	0.7172	0.0312	0.563	0.003
Mof_C 	C 	0.7432	0.0733	0.142	0.078
Mof_H 	H 	0.7698	0.0252	0.8577	0.073
Mof_H 	H 	0.8867	0.8303	0.19	0.066
Mof_C 	C 	0.9257	0.8937	0.0936	-0.011
Mof_C 	C 	0.9001	0.9655	0.378	-0.082
Mof_C 	C 	0.7234	0.0739	0.404	-0.206
Mof_H 	H 	0.7041	0.0332	0.7407	0.043
Mof_H 	H 	0.7474	0.103	0.0411	0.032
Mof_H 	H 	0.9457	0.88	0.9545	0.025
Mof_C 	C 	0.9296	0.9445	0.1697	-0.035
Mof_H 	H 	0.904	0.9995	0.4243	0.058
Mof_C 	C 	0.7072	0.1254	0.519	0.598
Mof_H 	H 	0.9527	0.9652	0.078	0.036
Mof_O 	O 	0.7033	0.1276	0.78	-0.321
Mof_O 	O 	0.6585	0.1346	0.497	-0.294
Mof_C 	C 	0.7015	0.9894	0.265	-0.166
Mof_H 	H 	0.6782	0.9632	0.2451	0.1
Mof_C 	C 	0.6861	0.0359	0.378	0.108
Mof_H 	H 	0.6527	0.0414	0.4329	0.014
Mof_C 	C 	0.7743	0.0692	0.324	0.028
Mof_H 	H 	0.798	0.0952	0.3413	0.021
Mof_C 	C 	0.7855	0.0213	0.216	-0.104
Mof_H 	H 	0.8188	0.0153	0.1602	0.066
Mof_Zn	Zn	0.23003	0.28404	0.3982	1.23
Mof_O 	O 	0.2717	0.2281	0.5081	-0.81
Mof_N 	N 	0.2581	0.353	0.454	-0.277
Mof_O 	O 	0.1633	0.2708	0.553	-0.553
Mof_H 	H 	0.2931	0.2168	0.3925	0.303
Mof_C 	C 	0.2425	0.3899	0.612	0.112
Mof_C 	C 	0.2962	0.3753	0.2837	0.028
Mof_H 	H 	0.2175	0.3854	0.745	-0.014
Mof_N 	N 	0.2655	0.4353	0.568	-0.169
Mof_C 	C 	0.3255	0.3537	0.0788	-0.096
Mof_C 	C 	0.3004	0.4263	0.359	0.091
Mof_C 	C 	0.251	0.4824	0.685	0.166
Mof_H 	H 	0.322	0.3196	0.0329	0.048
Mof_C 	C 	0.3605	0.3845	0.9429	-0.008
Mof_C 	C 	0.3348	0.4578	0.2261	-0.16
Mof_C 	C 	0.2312	0.4855	0.948	-0.067
Mof_C 	C 	0.2566	0.5269	0.535	-0.325
Mof_C 	C 	0.3903	0.3644	0.7358	-0.05
Mof_C 	C 	0.3645	0.4357	0.0197	0.088
Mof_H 	H 	0.338	0.4919	0.2722	0.083
Mof_H 	H 	0.2274	0.4559	0.0508	0.058
Mof_C 	C 	0.2172	0.5312	0.063	-0.04
Mof_C 	C 	0.2432	0.5733	0.642	0.242
Mof_H 	H 	0.2698	0.5252	0.3577	0.146
Mof_H 	H 	0.3867	0.3303	0.69	0.043
Mof_C 	C 	0.4257	0.3937	0.5936	-0.066
Mof_C 	C 	0.4001	0.4655	0.878	-0.13
Mof_C 	C 	0.2234	0.5739	0.904	-0.133
Mof_H 	H 	0.2041	0.5332	0.2407	0.06
Mof_H 	H 	0.2474	0.603	0.5411	-0.022
Mof_H 	H 	0.4457	0.38	0.4545	0.05
Mof_C 	C 	0.4296	0.4445	0.6697	0.011
Mof_H 	H 	0.404	0.4995	0.9243	0.076
Mof_C 	C 	0.2072	0.6254	0.019	0.504
Mof_H 	H 	0.4527	0.4652	0.578	0.022
Mof_O 	O 	0.2033	0.6276	0.28	-0.309
Mof_O 	O 	0.1585	0.6346	0.997	-0.261
Mof_C 	C 	0.2015	0.4894	0.765	-0.122
Mof_H 	H 	0.1782	0.4632	0.7451	0.086
Mof_C 	C 	0.1861	0.5359	0.878	0.077
Mof_H 	H 	0.1527	0.5414	0.9329	0.029
Mof_C 	C 	0.2743	0.5692	0.824	-0.182
Mof_H 	H 	0.298	0.5952	0.8413	0.1
Mof_C 	C 	0.2855	0.5213	0.716	0.12
Mof_H 	H 	0.3188	0.5153	0.6602	-0.012
Mof_Zn	Zn	0.21596	0.73003	0.1018	1.222
Mof_O 	O 	0.2719	0.7717	0.9919	-0.778
Mof_N 	N 	0.147	0.7581	0.046	-0.296
Mof_O 	O 	0.2292	0.6633	0.947	-0.51
Mof_H 	H 	0.2832	0.7931	0.1075	0.281
Mof_C 	C 	0.1101	0.7425	0.888	0.14
Mof_C 	C 	0.1247	0.7962	0.2163	0.049
Mof_H 	H 	0.1146	0.7175	0.755	-0.023
Mof_N 	N 	0.0647	0.7655	0.932	-0.167
Mof_C 	C 	0.1463	0.8255	0.4212	-0.143
Mof_C 	C 	0.0737	0.8004	0.141	0.06
Mof_C 	C 	0.0176	0.751	0.815	0.192
Mof_H 	H 	0.1804	0.822	0.4671	0.062
Mof_C 	C 	0.1155	0.8605	0.5571	0.057
Mof_C 	C 	0.0422	0.8348	0.2739	-0.121
Mof_C 	C 	0.0145	0.7312	0.552	-0.068
Mof_C 	C 	0.9731	0.7566	0.965	-0.121
Mof_C 	C 	0.1356	0.8903	0.7642	-0.098
Mof_C 	C 	0.0643	0.8645	0.4803	0.035
Mof_H 	H 	0.0081	0.838	0.2278	0.07
Mof_H 	H 	0.0441	0.7274	0.4492	0.059
Mof_C 	C 	0.9688	0.7172	0.437	0.003
Mof_C 	C 	0.9267	0.7432	0.858	0.078
Mof_H 	H 	0.9748	0.7698	0.1423	0.073
Mof_H 	H 	0.1697	0.8867	0.81	0.066
Mof_C 	C 	0.1063	0.9257	0.9064	-0.011
Mof_C 	C 	0.0345	0.9001	0.622	-0.082
Mof_C 	C 	0.9261	0.7234	0.596	-0.206
Mof_H 	H 	0.9668	0.7041	0.2593	0.043
Mof_H 	H 	0.897	0.7474	0.9589	0.032
Mof_H 	H 	0.12	0.9457	0.0455	0.025
Mof_C 	C 	0.0555	0.9296	0.8303	-0.035
Mof_H 	H 	0.0005	0.904	0.5757	0.058
Mof_C 	C 	0.8746	0.7072	0.481	0.598
Mof_H 	H 	0.0348	0.9527	0.922	0.036
Mof_O 	O 	0.8724	0.7033	0.22	-0.321
Mof_O 	O 	0.8654	0.6585	0.503	-0.294
Mof_C 	C 	0.0106	0.7015	0.735	-0.166
Mof_H 	H 	0.0368	0.6782	0.7549	0.1
Mof_C 	C 	0.9641	0.6861	0.622	0.108
Mof_H 	H 	0.9586	0.6527	0.5671	0.014
Mof_C 	C 	0.9308	0.7743	0.676	0.028
Mof_H 	H 	0.9048	0.798	0.6587	0.021
Mof_C 	C 	0.9787	0.7855	0.784	-0.104
Mof_H 	H 	0.9847	0.8188	0.8398	0.066
Mof_Zn	Zn	0.71596	0.23003	0.6018	1.23
Mof_O 	O 	0.7719	0.2717	0.4919	-0.81
Mof_N 	N 	0.647	0.2581	0.546	-0.277
Mof_O 	O 	0.7292	0.1633	0.447	-0.553
Mof_H 	H 	0.7832	0.2931	0.6075	0.303
Mof_C 	C 	0.6101	0.2425	0.388	0.112
Mof_C 	C 	0.6247	0.2962	0.7163	0.028
Mof_H 	H 	0.6146	0.2175	0.255	-0.014
Mof_N 	N 	0.5647	0.2655	0.432	-0.169
Mof_C 	C 	0.6463	0.3255	0.9212	-0.096
Mof_C 	C 	0.5737	0.3004	0.641	0.091
Mof_C 	C 	0.5176	0.251	0.315	0.166
Mof_H 	H 	0.6804	0.322	0.9671	0.048
Mof_C 	C 	0.6155	0.3605	0.0571	-0.008
Mof_C 	C 	0.5422	0.3348	0.7739	-0.16
Mof_C 	C 	0.5145	0.2312	0.052	-0.067
Mof_C 	C 	0.4731	0.2566	0.465	-0.325
Mof_C 	C 	0.6356	0.3903	0.2642	-0.05
Mof_C 	C 	0.5643	0.3645	0.9803	0.088
Mof_H 	H 	0.5081	0.338	0.7278	0.083
Mof_H 	H 	0.5441	0.2274	0.9492	0.058
Mof_C 	C 	0.4688	0.2172	0.937	-0.04
Mof_C 	C 	0.4267	0.2432	0.358	0.242
Mof_H 	H 	0.4748	0.2698	0.6423	0.146
Mof_H 	H 	0.6697	0.3867	0.31	0.043
Mof_C 	C 	0.6063	0.4257	0.4064	-0.066
Mof_C 	C 	0.5345	0.4001	0.122	-0.13
Mof_C 	C 	0.4261	0.2234	0.096	-0.133
Mof_H 	H 	0.4668	0.2041	0.7593	0.06
Mof_H 	H 	0.397	0.2474	0.4589	-0.022
Mof_H 	H 	0.62	0.4457	0.5455	0.05
Mof_C 	C 	0.5555	0.4296	0.3303	0.011
Mof_H 	H 	0.5005	0.404	0.0757	0.076
Mof_C 	C 	0.3746	0.2072	0.981	0.504
Mof_H 	H 	0.5348	0.4527	0.422	0.022
Mof_O 	O 	0.3724	0.2033	0.72	-0.309
Mof_O 	O 	0.3654	0.1585	0.003	-0.261
Mof_C 	C 	0.5106	0.2015	0.235	-0.122
Mof_H 	H 	0.5368	0.1782	0.2549	0.086
Mof_C 	C 	0.4641	0.1861	0.122	0.077
Mof_H 	H 	0.4586	0.1527	0.0671	0.029
Mof_C 	C 	0.4308	0.2743	0.176	-0.182
Mof_H 	H 	0.4048	0.298	0.1587	0.1
Mof_C 	C 	0.4787	0.2855	0.284	0.12
Mof_H 	H 	0.4847	0.3188	0.3398	-0.012
Mof_Zn	Zn	0.78404	0.26997	0.1018	1.222
Mof_O 	O 	0.7281	0.2283	0.9919	-0.778
Mof_N 	N 	0.853	0.2419	0.046	-0.296
Mof_O 	O 	0.7708	0.3367	0.947	-0.51
Mof_H 	H 	0.7168	0.2069	0.1075	0.281
Mof_C 	C 	0.8899	0.2575	0.888	0.14
Mof_C 	C 	0.8753	0.2038	0.2163	0.049
Mof_H 	H 	0.8854	0.2825	0.755	-0.023
Mof_N 	N 	0.9353	0.2345	0.932	-0.167
Mof_C 	C 	0.8537	0.1745	0.4212	-0.143
Mof_C 	C 	0.9263	0.1996	0.141	0.06
Mof_C 	C 	0.9824	0.249	0.815	0.192
Mof_H 	H 	0.8196	0.178	0.4671	0.062
Mof_C 	C 	0.8845	0.1395	0.5571	0.057
Mof_C 	C 	0.9578	0.1652	0.2739	-0.121
Mof_C 	C 	0.9855	0.2688	0.552	-0.068
Mof_C 	C 	0.0269	0.2434	0.965	-0.121
Mof_C 	C 	0.8644	0.1097	0.7642	-0.098
Mof_C 	C 	0.9357	0.1355	0.4803	0.035
Mof_H 	H 	0.9919	0.162	0.2278	0.07
Mof_H 	H 	0.9559	0.2726	0.4492	0.059
Mof_C 	C 	0.0312	0.2828	0.437	0.003
Mof_C 	C 	0.0733	0.2568	0.858	0.078
Mof_H 	H 	0.0252	0.2302	0.1423	0.073
Mof_H 	H 	0.8303	0.1133	0.81	0.066
Mof_C 	C 	0.8937	0.0743	0.9064	-0.011
Mof_C 	C 	0.9655	0.0999	0.622	-0.082
Mof_C 	C 	0.0739	0.2766	0.596	-0.206
Mof_H 	H 	0.0332	0.2959	0.2593	0.043
Mof_H 	H 	0.103	0.2526	0.9589	0.032
Mof_H 	H 	0.88	0.0543	0.0455	0.025
Mof_C 	C 	0.9445	0.0704	0.8303	-0.035
Mof_H 	H 	0.9995	0.096	0.5757	0.058
Mof_C 	C 	0.1254	0.2928	0.481	0.598
Mof_H 	H 	0.9652	0.0473	0.922	0.036
Mof_O 	O 	0.1276	0.2967	0.22	-0.321
Mof_O 	O 	0.1346	0.3415	0.503	-0.294
Mof_C 	C 	0.9894	0.2985	0.735	-0.166
Mof_H 	H 	0.9632	0.3218	0.7549	0.1
Mof_C 	C 	0.0359	0.3139	0.622	0.108
Mof_H 	H 	0.0414	0.3473	0.5671	0.014
Mof_C 	C 	0.0692	0.2257	0.676	0.028
Mof_H 	H 	0.0952	0.202	0.6587	0.021
Mof_C 	C 	0.0213	0.2145	0.784	-0.104
Mof_H 	H 	0.0153	0.1812	0.8398	0.066
Mof_Zn	Zn	0.28404	0.76997	0.6018	1.23
Mof_O 	O 	0.2281	0.7283	0.4919	-0.81
Mof_N 	N 	0.353	0.7419	0.546	-0.277
Mof_O 	O 	0.2708	0.8367	0.447	-0.553
Mof_H 	H 	0.2168	0.7069	0.6075	0.303
Mof_C 	C 	0.3899	0.7575	0.388	0.112
Mof_C 	C 	0.3753	0.7038	0.7163	0.028
Mof_H 	H 	0.3854	0.7825	0.255	-0.014
Mof_N 	N 	0.4353	0.7345	0.432	-0.169
Mof_C 	C 	0.3537	0.6745	0.9212	-0.096
Mof_C 	C 	0.4263	0.6996	0.641	0.091
Mof_C 	C 	0.4824	0.749	0.315	0.166
Mof_H 	H 	0.3196	0.678	0.9671	0.048
Mof_C 	C 	0.3845	0.6395	0.0571	-0.008
Mof_C 	C 	0.4578	0.6652	0.7739	-0.16
Mof_C 	C 	0.4855	0.7688	0.052	-0.067
Mof_C 	C 	0.5269	0.7434	0.465	-0.325
Mof_C 	C 	0.3644	0.6097	0.2642	-0.05
Mof_C 	C 	0.4357	0.6355	0.9803	0.088
Mof_H 	H 	0.4919	0.662	0.7278	0.083
Mof_H 	H 	0.4559	0.7726	0.9492	0.058
Mof_C 	C 	0.5312	0.7828	0.937	-0.04
Mof_C 	C 	0.5733	0.7568	0.358	0.242
Mof_H 	H 	0.5252	0.7302	0.6423	0.146
Mof_H 	H 	0.3303	0.6133	0.31	0.043
Mof_C 	C 	0.3937	0.5743	0.4064	-0.066
Mof_C 	C 	0.4655	0.5999	0.122	-0.13
Mof_C 	C 	0.5739	0.7766	0.096	-0.133
Mof_H 	H 	0.5332	0.7959	0.7593	0.06
Mof_H 	H 	0.603	0.7526	0.4589	-0.022
Mof_H 	H 	0.38	0.5543	0.5455	0.05
Mof_C 	C 	0.4445	0.5704	0.3303	0.011
Mof_H 	H 	0.4995	0.596	0.0757	0.076
Mof_C 	C 	0.6254	0.7928	0.981	0.504
Mof_H 	H 	0.4652	0.5473	0.422	0.022
Mof_O 	O 	0.6276	0.7967	0.72	-0.309
Mof_O 	O 	0.6346	0.8415	0.003	-0.261
Mof_C 	C 	0.4894	0.7985	0.235	-0.122
Mof_H 	H 	0.4632	0.8218	0.2549	0.086
Mof_C 	C 	0.5359	0.8139	0.122	0.077
Mof_H 	H 	0.5414	0.8473	0.0671	0.029
Mof_C 	C 	0.5692	0.7257	0.176	-0.182
Mof_H 	H 	0.5952	0.702	0.1587	0.1
Mof_C 	C 	0.5213	0.7145	0.284	0.12
Mof_H 	H 	0.5153	0.6812	0.3398	-0.012
_end
