data_functionalizedCrystal
_audit_creation_method	'EQeq! by Chris Wilmer'
_symmetry_space_group_name_H-M	'P1'
_symmetry_Int_Tables_number	1
_symmetry_cell_setting	triclinic
loop_
_symmetry_equiv_pos_as_xyz
  x,y,z
_cell_length_a	18.119
_cell_length_b	8.3939
_cell_length_c	12.887
_cell_angle_alpha	90
_cell_angle_beta	90
_cell_angle_gamma	90
loop_
_atom_site_label
_atom_site_type_symbol
_atom_site_fract_x
_atom_site_fract_y
_atom_site_fract_z
_atom_site_charge
Mof_Zn	Zn	0.59165	0.69794	0.60809	1.235
Mof_Zn	Zn	0.29438	0.97398	0.70236	1.233
Mof_Zn	Zn	0.33089	0.82748	0.36835	1.237
Mof_P 	P 	0.69725	0.8167	0.79242	0.477
Mof_H 	H 	0.6806	0.7252	0.8839	-0.024
Mof_P 	P 	0.69038	0.8717	0.43415	0.468
Mof_H 	H 	0.6962	0.0214	0.4885	-0.036
Mof_P 	P 	0.64621	0.3471	0.64797	0.439
Mof_H 	H 	0.6208	0.1759	0.5966	-0.002
Mof_P 	P 	0.44452	0.8885	0.55536	0.477
Mof_H 	H 	0.499	0.9985	0.5661	-0.043
Mof_O 	O 	0.6288	0.7939	0.7308	-0.485
Mof_O 	O 	0.7649	0.7386	0.7452	-0.446
Mof_O 	O 	0.7158	0.987	0.8145	-0.442
Mof_O 	O 	0.6265	0.7761	0.4764	-0.441
Mof_O 	O 	0.7639	0.7932	0.4508	-0.481
Mof_O 	O 	0.6723	0.911	0.3234	-0.449
Mof_O 	O 	0.5909	0.4674	0.6083	-0.431
Mof_O 	O 	0.7255	0.3946	0.6311	-0.491
Mof_O 	O 	0.627	0.2997	0.7579	-0.443
Mof_O 	O 	0.4849	0.7427	0.6	-0.407
Mof_O 	O 	0.3828	0.9405	0.6243	-0.457
Mof_O 	O 	0.4223	0.862	0.4441	-0.437
Mof_Zn	Zn	0.40835	0.30206	0.10809	1.219
Mof_Zn	Zn	0.70562	0.02602	0.20236	1.228
Mof_Zn	Zn	0.66911	0.17252	0.86835	1.242
Mof_P 	P 	0.30275	0.1833	0.29242	0.472
Mof_H 	H 	0.3194	0.2748	0.3839	-0.04
Mof_P 	P 	0.30962	0.1283	0.93415	0.473
Mof_H 	H 	0.3038	0.9786	0.9885	-0.009
Mof_P 	P 	0.35379	0.6529	0.14797	0.433
Mof_H 	H 	0.3792	0.8241	0.0966	-0.024
Mof_P 	P 	0.55548	0.1115	0.05536	0.402
Mof_H 	H 	0.501	0.0015	0.0661	-0.057
Mof_O 	O 	0.3712	0.2061	0.2308	-0.5
Mof_O 	O 	0.2351	0.2614	0.2452	-0.463
Mof_O 	O 	0.2842	0.013	0.3145	-0.457
Mof_O 	O 	0.3735	0.2239	0.9764	-0.392
Mof_O 	O 	0.2361	0.2068	0.9508	-0.453
Mof_O 	O 	0.3277	0.089	0.8234	-0.44
Mof_O 	O 	0.4091	0.5326	0.1083	-0.457
Mof_O 	O 	0.2745	0.6054	0.1311	-0.515
Mof_O 	O 	0.373	0.7003	0.2579	-0.45
Mof_O 	O 	0.5151	0.2573	0.1	-0.425
Mof_O 	O 	0.6172	0.0595	0.1243	-0.47
Mof_O 	O 	0.5777	0.138	0.9441	-0.368
Mof_Zn	Zn	0.09165	0.80206	0.60809	1.234
Mof_Zn	Zn	0.79438	0.52602	0.70236	1.235
Mof_Zn	Zn	0.83089	0.67252	0.36835	1.238
Mof_P 	P 	0.19725	0.6833	0.79242	0.477
Mof_H 	H 	0.1806	0.7748	0.8839	-0.026
Mof_P 	P 	0.19038	0.6283	0.43415	0.466
Mof_H 	H 	0.1962	0.4786	0.4885	-0.034
Mof_P 	P 	0.14621	0.1529	0.64797	0.439
Mof_H 	H 	0.1208	0.3241	0.5966	-0.001
Mof_P 	P 	0.94452	0.6115	0.55536	0.477
Mof_H 	H 	0.999	0.5015	0.5661	-0.044
Mof_O 	O 	0.1288	0.7061	0.7308	-0.486
Mof_O 	O 	0.2649	0.7614	0.7452	-0.447
Mof_O 	O 	0.2158	0.513	0.8145	-0.443
Mof_O 	O 	0.1265	0.7239	0.4764	-0.442
Mof_O 	O 	0.2639	0.7068	0.4508	-0.482
Mof_O 	O 	0.1723	0.589	0.3234	-0.452
Mof_O 	O 	0.0909	0.0326	0.6083	-0.428
Mof_O 	O 	0.2255	0.1054	0.6311	-0.489
Mof_O 	O 	0.127	0.2003	0.7579	-0.442
Mof_O 	O 	0.9849	0.7573	0.6	-0.406
Mof_O 	O 	0.8828	0.5595	0.6243	-0.456
Mof_O 	O 	0.9223	0.638	0.4441	-0.437
Mof_Zn	Zn	0.90835	0.19794	0.10809	1.217
Mof_Zn	Zn	0.20562	0.47398	0.20236	1.23
Mof_Zn	Zn	0.16911	0.32748	0.86835	1.242
Mof_P 	P 	0.80275	0.3167	0.29242	0.472
Mof_H 	H 	0.8194	0.2252	0.3839	-0.042
Mof_P 	P 	0.80962	0.3717	0.93415	0.469
Mof_H 	H 	0.8038	0.5214	0.9885	-0.004
Mof_P 	P 	0.85379	0.8471	0.14797	0.432
Mof_H 	H 	0.8792	0.6759	0.0966	-0.026
Mof_P 	P 	0.05548	0.3885	0.05536	0.405
Mof_H 	H 	0.001	0.4985	0.0661	-0.056
Mof_O 	O 	0.8712	0.2939	0.2308	-0.502
Mof_O 	O 	0.7351	0.2386	0.2452	-0.464
Mof_O 	O 	0.7842	0.487	0.3145	-0.459
Mof_O 	O 	0.8735	0.2761	0.9764	-0.393
Mof_O 	O 	0.7361	0.2932	0.9508	-0.453
Mof_O 	O 	0.8277	0.411	0.8234	-0.442
Mof_O 	O 	0.9091	0.9674	0.1083	-0.453
Mof_O 	O 	0.7745	0.8946	0.1311	-0.512
Mof_O 	O 	0.873	0.7997	0.2579	-0.449
Mof_O 	O 	0.0151	0.2427	0.1	-0.424
Mof_O 	O 	0.1172	0.4405	0.1243	-0.468
Mof_O 	O 	0.0777	0.362	0.9441	-0.371
_end
