# CIF file generated by openbabel 3.1.0, see https://openbabel.org
data_I
_chemical_name_common 'YICREI_clean'
_cell_length_a 6.7992
_cell_length_b 11.553
_cell_length_c 17.058
_cell_angle_alpha 92.49
_cell_angle_beta 90
_cell_angle_gamma 90
_space_group_name_H-M_alt 'P 1'
_space_group_name_Hall 'P 1'
loop_
    _symmetry_equiv_pos_as_xyz
    x,y,z
loop_
    _atom_site_label
    _atom_site_type_symbol
    _atom_site_fract_x
    _atom_site_fract_y
    _atom_site_fract_z
    _atom_site_occupancy
    H1       H        0.28070    0.10710    0.02650    1.000
    H2       H        0.73350    0.01550    0.08390    1.000
    H3       H        0.34990    0.39690    0.09740    1.000
    H4       H        0.83450    0.53740    0.00550    1.000
    H5       H        0.78070    0.39290    0.47350    1.000
    H6       H        0.23350    0.48450    0.41610    1.000
    H7       H        0.84990    0.10310    0.40260    1.000
    H8       H        0.33450    0.96260    0.49450    1.000
    H9       H        0.71930    0.89290    0.97350    1.000
    H10      H        0.26650    0.98450    0.91610    1.000
    H11      H        0.65010    0.60310    0.90260    1.000
    H12      H        0.16550    0.46260    0.99450    1.000
    H13      H        0.21930    0.60710    0.52650    1.000
    H14      H        0.76650    0.51550    0.58390    1.000
    H15      H        0.15010    0.89690    0.59740    1.000
    H16      H        0.66550    0.03740    0.50550    1.000
    Pb1      Pb       0.94942    0.34285    0.25693    1.000
    Pb2      Pb       0.44942    0.15715    0.24307    1.000
    Pb3      Pb       0.05058    0.65715    0.74307    1.000
    Pb4      Pb       0.55058    0.84285    0.75693    1.000
    C1       C        0.01940    0.15400    0.13850    1.000
    C2       C        0.01060    0.07300    0.06700    1.000
    C3       C        0.16760    0.06380    0.01610    1.000
    C4       C        0.84110    0.00920    0.05040    1.000
    C5       C        0.73380    0.41770    0.12740    1.000
    C6       C        0.61090    0.45990    0.06150    1.000
    C7       C        0.41000    0.43810    0.05830    1.000
    C8       C        0.70020    0.52240    0.00310    1.000
    C9       C        0.51940    0.34600    0.36150    1.000
    C10      C        0.51060    0.42700    0.43300    1.000
    C11      C        0.66760    0.43620    0.48390    1.000
    C12      C        0.34110    0.49080    0.44960    1.000
    C13      C        0.23380    0.08230    0.37260    1.000
    C14      C        0.11090    0.04010    0.43850    1.000
    C15      C        0.91000    0.06190    0.44170    1.000
    C16      C        0.20020    0.97760    0.49690    1.000
    C17      C        0.98060    0.84600    0.86150    1.000
    C18      C        0.98940    0.92700    0.93300    1.000
    C19      C        0.83240    0.93620    0.98390    1.000
    C20      C        0.15890    0.99080    0.94960    1.000
    C21      C        0.26620    0.58230    0.87260    1.000
    C22      C        0.38910    0.54010    0.93850    1.000
    C23      C        0.59000    0.56190    0.94170    1.000
    C24      C        0.29980    0.47760    0.99690    1.000
    C25      C        0.48060    0.65400    0.63850    1.000
    C26      C        0.48940    0.57300    0.56700    1.000
    C27      C        0.33240    0.56380    0.51610    1.000
    C28      C        0.65890    0.50920    0.55040    1.000
    C29      C        0.76620    0.91770    0.62740    1.000
    C30      C        0.88910    0.95990    0.56150    1.000
    C31      C        0.09000    0.93810    0.55830    1.000
    C32      C        0.79980    0.02240    0.50310    1.000
    O1       O        0.86990    0.16440    0.18040    1.000
    O2       O        0.17790    0.20950    0.15181    1.000
    O3       O        0.64590    0.37090    0.18390    1.000
    O4       O        0.91570    0.43020    0.12620    1.000
    O5       O        0.36990    0.33560    0.31960    1.000
    O6       O        0.67790    0.29050    0.34819    1.000
    O7       O        0.14590    0.12910    0.31610    1.000
    O8       O        0.41570    0.06980    0.37380    1.000
    O9       O        0.13010    0.83560    0.81960    1.000
    O10      O        0.82210    0.79050    0.84819    1.000
    O11      O        0.35410    0.62910    0.81610    1.000
    O12      O        0.08430    0.56980    0.87380    1.000
    O13      O        0.63010    0.66440    0.68040    1.000
    O14      O        0.32210    0.70950    0.65181    1.000
    O15      O        0.85410    0.87090    0.68390    1.000
    O16      O        0.58430    0.93020    0.62620    1.000
