# CIF file generated by openbabel 3.1.0, see https://openbabel.org
data_I
_chemical_name_common 'image0'
_cell_length_a 20.658
_cell_length_b 20.658
_cell_length_c 5.6117
_cell_angle_alpha 90
_cell_angle_beta 90
_cell_angle_gamma 90
_space_group_name_H-M_alt 'P 1'
_space_group_name_Hall 'P 1'
loop_
    _symmetry_equiv_pos_as_xyz
    x,y,z
loop_
    _atom_site_label
    _atom_site_type_symbol
    _atom_site_fract_x
    _atom_site_fract_y
    _atom_site_fract_z
    _atom_site_occupancy
    N1       N        0.15360    0.22580    0.20430    1.000
    C1       C        0.11390    0.25070    0.04780    1.000
    H1       H        0.13000    0.28040    0.93830    1.000
    C2       C        0.05060    0.23520    0.03900    1.000
    H2       H        0.02400    0.25380    0.92390    1.000
    C3       C        0.02490    0.19100    0.20300    1.000
    H3       H        0.98150    0.17940    0.19860    1.000
    C4       C        0.06620    0.16540    0.36900    1.000
    C5       C        0.13070    0.18320    0.36380    1.000
    H4       H        0.15900    0.16510    0.47400    1.000
    N2       N        0.04010    0.12410    0.54650    1.000
    H5       H        0.99900    0.12620    0.56980    1.000
    C6       C        0.07360    0.08150    0.68320    1.000
    O1       O        0.13250    0.07520    0.67710    1.000
    C7       C        0.03500    0.03990    0.84680    1.000
    C8       C        0.06250    0.01820    0.04700    1.000
    H6       H        0.10480    0.03020    0.08250    1.000
    C9       C        0.97080    0.02190    0.79700    1.000
    H7       H        0.95060    0.03680    0.65950    1.000
    N3       N        0.34640    0.27420    0.20430    1.000
    C10      C        0.38610    0.24930    0.04780    1.000
    H8       H        0.37000    0.21960    0.93830    1.000
    C11      C        0.44940    0.26480    0.03900    1.000
    H9       H        0.47600    0.24620    0.92390    1.000
    C12      C        0.47510    0.30900    0.20300    1.000
    H10      H        0.51850    0.32060    0.19860    1.000
    C13      C        0.43380    0.33460    0.36900    1.000
    C14      C        0.36930    0.31680    0.36380    1.000
    H11      H        0.34100    0.33490    0.47400    1.000
    N4       N        0.45990    0.37590    0.54650    1.000
    H12      H        0.50100    0.37380    0.56980    1.000
    C15      C        0.42640    0.41850    0.68320    1.000
    O2       O        0.36750    0.42480    0.67710    1.000
    C16      C        0.46500    0.46010    0.84680    1.000
    C17      C        0.43750    0.48180    0.04700    1.000
    H13      H        0.39520    0.46980    0.08250    1.000
    C18      C        0.52920    0.47810    0.79700    1.000
    H14      H        0.54940    0.46320    0.65950    1.000
    N5       N        0.27420    0.15360    0.20430    1.000
    C19      C        0.24930    0.11390    0.04780    1.000
    H15      H        0.21960    0.13000    0.93830    1.000
    C20      C        0.26480    0.05060    0.03900    1.000
    H16      H        0.24620    0.02400    0.92390    1.000
    C21      C        0.30900    0.02490    0.20300    1.000
    H17      H        0.32060    0.98150    0.19860    1.000
    C22      C        0.33460    0.06620    0.36900    1.000
    C23      C        0.31680    0.13070    0.36380    1.000
    H18      H        0.33490    0.15900    0.47400    1.000
    N6       N        0.37590    0.04010    0.54650    1.000
    H19      H        0.37380    0.99900    0.56980    1.000
    C24      C        0.41850    0.07360    0.68320    1.000
    O3       O        0.42480    0.13250    0.67710    1.000
    C25      C        0.46010    0.03500    0.84680    1.000
    C26      C        0.48180    0.06250    0.04700    1.000
    H20      H        0.46980    0.10480    0.08250    1.000
    C27      C        0.47810    0.97080    0.79700    1.000
    H21      H        0.46320    0.95060    0.65950    1.000
    N7       N        0.22580    0.34640    0.20430    1.000
    C28      C        0.25070    0.38610    0.04780    1.000
    H22      H        0.28040    0.37000    0.93830    1.000
    C29      C        0.23520    0.44940    0.03900    1.000
    H23      H        0.25380    0.47600    0.92390    1.000
    C30      C        0.19100    0.47510    0.20300    1.000
    H24      H        0.17940    0.51850    0.19860    1.000
    C31      C        0.16540    0.43380    0.36900    1.000
    C32      C        0.18320    0.36930    0.36380    1.000
    H25      H        0.16510    0.34100    0.47400    1.000
    N8       N        0.12410    0.45990    0.54650    1.000
    H26      H        0.12620    0.50100    0.56980    1.000
    C33      C        0.08150    0.42640    0.68320    1.000
    O4       O        0.07520    0.36750    0.67710    1.000
    C34      C        0.03990    0.46500    0.84680    1.000
    C35      C        0.01820    0.43750    0.04700    1.000
    H27      H        0.03020    0.39520    0.08250    1.000
    C36      C        0.02190    0.52920    0.79700    1.000
    H28      H        0.03680    0.54940    0.65950    1.000
    N9       N        0.84640    0.77420    0.79570    1.000
    C37      C        0.88610    0.74930    0.95220    1.000
    H29      H        0.87000    0.71960    0.06170    1.000
    C38      C        0.94940    0.76480    0.96100    1.000
    H30      H        0.97600    0.74620    0.07610    1.000
    C39      C        0.97510    0.80900    0.79700    1.000
    H31      H        0.01850    0.82060    0.80140    1.000
    C40      C        0.93380    0.83460    0.63100    1.000
    C41      C        0.86930    0.81680    0.63620    1.000
    H32      H        0.84100    0.83490    0.52600    1.000
    N10      N        0.95990    0.87590    0.45350    1.000
    H33      H        0.00100    0.87380    0.43020    1.000
    C42      C        0.92640    0.91850    0.31680    1.000
    O5       O        0.86750    0.92480    0.32290    1.000
    C43      C        0.96500    0.96010    0.15320    1.000
    C44      C        0.93750    0.98180    0.95300    1.000
    H34      H        0.89520    0.96980    0.91750    1.000
    C45      C        0.02920    0.97810    0.20300    1.000
    H35      H        0.04940    0.96320    0.34050    1.000
    N11      N        0.65360    0.72580    0.79570    1.000
    C46      C        0.61390    0.75070    0.95220    1.000
    H36      H        0.63000    0.78040    0.06170    1.000
    C47      C        0.55060    0.73520    0.96100    1.000
    H37      H        0.52400    0.75380    0.07610    1.000
    C48      C        0.52490    0.69100    0.79700    1.000
    H38      H        0.48150    0.67940    0.80140    1.000
    C49      C        0.56620    0.66540    0.63100    1.000
    C50      C        0.63070    0.68320    0.63620    1.000
    H39      H        0.65900    0.66510    0.52600    1.000
    N12      N        0.54010    0.62410    0.45350    1.000
    H40      H        0.49900    0.62620    0.43020    1.000
    C51      C        0.57360    0.58150    0.31680    1.000
    O6       O        0.63250    0.57520    0.32290    1.000
    C52      C        0.53500    0.53990    0.15320    1.000
    C53      C        0.56250    0.51820    0.95300    1.000
    H41      H        0.60480    0.53020    0.91750    1.000
    C54      C        0.47080    0.52190    0.20300    1.000
    H42      H        0.45060    0.53680    0.34050    1.000
    N13      N        0.72580    0.84640    0.79570    1.000
    C55      C        0.75070    0.88610    0.95220    1.000
    H43      H        0.78040    0.87000    0.06170    1.000
    C56      C        0.73520    0.94940    0.96100    1.000
    H44      H        0.75380    0.97600    0.07610    1.000
    C57      C        0.69100    0.97510    0.79700    1.000
    H45      H        0.67940    0.01850    0.80140    1.000
    C58      C        0.66540    0.93380    0.63100    1.000
    C59      C        0.68320    0.86930    0.63620    1.000
    H46      H        0.66510    0.84100    0.52600    1.000
    N14      N        0.62410    0.95990    0.45350    1.000
    H47      H        0.62620    0.00100    0.43020    1.000
    C60      C        0.58150    0.92640    0.31680    1.000
    O7       O        0.57520    0.86750    0.32290    1.000
    C61      C        0.53990    0.96500    0.15320    1.000
    C62      C        0.51820    0.93750    0.95300    1.000
    H48      H        0.53020    0.89520    0.91750    1.000
    C63      C        0.52190    0.02920    0.20300    1.000
    H49      H        0.53680    0.04940    0.34050    1.000
    N15      N        0.77420    0.65360    0.79570    1.000
    C64      C        0.74930    0.61390    0.95220    1.000
    H50      H        0.71960    0.63000    0.06170    1.000
    C65      C        0.76480    0.55060    0.96100    1.000
    H51      H        0.74620    0.52400    0.07610    1.000
    C66      C        0.80900    0.52490    0.79700    1.000
    H52      H        0.82060    0.48150    0.80140    1.000
    C67      C        0.83460    0.56620    0.63100    1.000
    C68      C        0.81680    0.63070    0.63620    1.000
    H53      H        0.83490    0.65900    0.52600    1.000
    N16      N        0.87590    0.54010    0.45350    1.000
    H54      H        0.87380    0.49900    0.43020    1.000
    C69      C        0.91850    0.57360    0.31680    1.000
    O8       O        0.92480    0.63250    0.32290    1.000
    C70      C        0.96010    0.53500    0.15320    1.000
    C71      C        0.98180    0.56250    0.95300    1.000
    H55      H        0.96980    0.60480    0.91750    1.000
    C72      C        0.97810    0.47080    0.20300    1.000
    H56      H        0.96320    0.45060    0.34050    1.000
    Cu1      Cu       0.25000    0.25000    0.21020    1.000
    Br1      Br       0.25000    0.25000    0.70760    1.000
    Cu2      Cu       0.75000    0.75000    0.78980    1.000
    Br2      Br       0.75000    0.75000    0.29240    1.000
