data_functionalizedCrystal
_audit_creation_method	'EQeq! by Chris Wilmer'
_symmetry_space_group_name_H-M	'P1'
_symmetry_Int_Tables_number	1
_symmetry_cell_setting	triclinic
loop_
_symmetry_equiv_pos_as_xyz
  x,y,z
_cell_length_a	16.1284
_cell_length_b	16.1284
_cell_length_c	5.2134
_cell_angle_alpha	90
_cell_angle_beta	90
_cell_angle_gamma	90
loop_
_atom_site_label
_atom_site_type_symbol
_atom_site_fract_x
_atom_site_fract_y
_atom_site_fract_z
_atom_site_charge
Mof_C 	C 	0.24613	0.05612	0.7581	0.048
Mof_H 	H 	0.2852	0.0755	0.6413	0.033
Mof_C 	C 	0.22691	0.97353	0.7572	-0.078
Mof_H 	H 	0.2527	0.9376	0.6425	0.056
Mof_C 	C 	0.16867	0.94419	0.929	-0.028
Mof_H 	H 	0.155	0.8882	0.9324	0.04
Mof_C 	C 	0.13104	0.99912	0.096	-0.001
Mof_C 	C 	0.1547	0.08182	0.0851	0.019
Mof_H 	H 	0.1301	0.1191	0.198	0.05
Mof_C 	C 	0.06797	0.97074	0.2786	0.015
Mof_H 	H 	0.0566	0.9143	0.2904	0.039
Mof_N 	N 	0.21108	0.11017	0.92	-0.127
Mof_N 	N 	0.02871	0.02037	0.4198	-0.083
Mof_C 	C 	0.25387	0.44388	0.7581	0.048
Mof_H 	H 	0.2148	0.4245	0.6413	0.034
Mof_C 	C 	0.27309	0.52647	0.7572	-0.075
Mof_H 	H 	0.2473	0.5624	0.6425	0.057
Mof_C 	C 	0.33133	0.55581	0.929	-0.029
Mof_H 	H 	0.345	0.6118	0.9324	0.041
Mof_C 	C 	0.36896	0.50088	0.096	-0
Mof_C 	C 	0.3453	0.41818	0.0851	0.018
Mof_H 	H 	0.3699	0.3809	0.198	0.051
Mof_C 	C 	0.43203	0.52926	0.2786	0.015
Mof_H 	H 	0.4434	0.5857	0.2904	0.039
Mof_N 	N 	0.28892	0.38983	0.92	-0.127
Mof_N 	N 	0.47129	0.47963	0.4198	-0.083
Mof_C 	C 	0.44388	0.24613	0.7581	0.048
Mof_H 	H 	0.4245	0.2852	0.6413	0.034
Mof_C 	C 	0.52647	0.22691	0.7572	-0.075
Mof_H 	H 	0.5624	0.2527	0.6425	0.057
Mof_C 	C 	0.55581	0.16867	0.929	-0.029
Mof_H 	H 	0.6118	0.155	0.9324	0.041
Mof_C 	C 	0.50088	0.13104	0.096	-0
Mof_C 	C 	0.41818	0.1547	0.0851	0.018
Mof_H 	H 	0.3809	0.1301	0.198	0.051
Mof_C 	C 	0.52926	0.06797	0.2786	0.015
Mof_H 	H 	0.5857	0.0566	0.2904	0.039
Mof_N 	N 	0.38983	0.21108	0.92	-0.127
Mof_N 	N 	0.47963	0.02871	0.4198	-0.083
Mof_C 	C 	0.05612	0.25387	0.7581	0.049
Mof_H 	H 	0.0755	0.2148	0.6413	0.034
Mof_C 	C 	0.97353	0.27309	0.7572	-0.076
Mof_H 	H 	0.9376	0.2473	0.6425	0.057
Mof_C 	C 	0.94419	0.33133	0.929	-0.028
Mof_H 	H 	0.8882	0.345	0.9324	0.041
Mof_C 	C 	0.99912	0.36896	0.096	-0.001
Mof_C 	C 	0.08182	0.3453	0.0851	0.018
Mof_H 	H 	0.1191	0.3699	0.198	0.05
Mof_C 	C 	0.97074	0.43203	0.2786	0.015
Mof_H 	H 	0.9143	0.4434	0.2904	0.039
Mof_N 	N 	0.11017	0.28892	0.92	-0.127
Mof_N 	N 	0.02037	0.47129	0.4198	-0.083
Mof_C 	C 	0.75387	0.94388	0.2419	0.049
Mof_H 	H 	0.7148	0.9245	0.3587	0.034
Mof_C 	C 	0.77309	0.02647	0.2428	-0.077
Mof_H 	H 	0.7473	0.0624	0.3575	0.057
Mof_C 	C 	0.83133	0.05581	0.071	-0.028
Mof_H 	H 	0.845	0.1118	0.0676	0.04
Mof_C 	C 	0.86896	0.00088	0.904	-0.001
Mof_C 	C 	0.8453	0.91818	0.9149	0.019
Mof_H 	H 	0.8699	0.8809	0.802	0.05
Mof_C 	C 	0.93203	0.02926	0.7214	0.015
Mof_H 	H 	0.9434	0.0857	0.7096	0.039
Mof_N 	N 	0.78892	0.88983	0.08	-0.127
Mof_N 	N 	0.97129	0.97963	0.5802	-0.083
Mof_C 	C 	0.74613	0.55612	0.2419	0.048
Mof_H 	H 	0.7852	0.5755	0.3587	0.034
Mof_C 	C 	0.72691	0.47353	0.2428	-0.075
Mof_H 	H 	0.7527	0.4376	0.3575	0.057
Mof_C 	C 	0.66867	0.44419	0.071	-0.029
Mof_H 	H 	0.655	0.3882	0.0676	0.041
Mof_C 	C 	0.63104	0.49912	0.904	-0
Mof_C 	C 	0.6547	0.58182	0.9149	0.018
Mof_H 	H 	0.6301	0.6191	0.802	0.051
Mof_C 	C 	0.56797	0.47074	0.7214	0.015
Mof_H 	H 	0.5566	0.4143	0.7096	0.039
Mof_N 	N 	0.71108	0.61017	0.08	-0.127
Mof_N 	N 	0.52871	0.52037	0.5802	-0.083
Mof_C 	C 	0.55612	0.75387	0.2419	0.048
Mof_H 	H 	0.5755	0.7148	0.3587	0.034
Mof_C 	C 	0.47353	0.77309	0.2428	-0.075
Mof_H 	H 	0.4376	0.7473	0.3575	0.057
Mof_C 	C 	0.44419	0.83133	0.071	-0.029
Mof_H 	H 	0.3882	0.845	0.0676	0.041
Mof_C 	C 	0.49912	0.86896	0.904	-0
Mof_C 	C 	0.58182	0.8453	0.9149	0.018
Mof_H 	H 	0.6191	0.8699	0.802	0.051
Mof_C 	C 	0.47074	0.93203	0.7214	0.015
Mof_H 	H 	0.4143	0.9434	0.7096	0.039
Mof_N 	N 	0.61017	0.78892	0.08	-0.127
Mof_N 	N 	0.52037	0.97129	0.5802	-0.083
Mof_C 	C 	0.94388	0.74613	0.2419	0.049
Mof_H 	H 	0.9245	0.7852	0.3587	0.034
Mof_C 	C 	0.02647	0.72691	0.2428	-0.076
Mof_H 	H 	0.0624	0.7527	0.3575	0.057
Mof_C 	C 	0.05581	0.66867	0.071	-0.028
Mof_H 	H 	0.1118	0.655	0.0676	0.041
Mof_C 	C 	0.00088	0.63104	0.904	-0.001
Mof_C 	C 	0.91818	0.6547	0.9149	0.018
Mof_H 	H 	0.8809	0.6301	0.802	0.05
Mof_C 	C 	0.02926	0.56797	0.7214	0.015
Mof_H 	H 	0.0857	0.5566	0.7096	0.039
Mof_N 	N 	0.88983	0.71108	0.08	-0.127
Mof_N 	N 	0.97963	0.52871	0.5802	-0.083
Mof_Cl	Cl	0.25	0.25	0.41877	-0.4
Mof_Cd	Cd	0.25	0.25	0.91827	0.449
Mof_Cl	Cl	0.75	0.75	0.58123	-0.4
Mof_Cd	Cd	0.75	0.75	0.08173	0.449
_end
