# CIF file generated by openbabel 3.1.0, see https://openbabel.org
data_I
_chemical_name_common 'EPUTUF_charged'
_cell_length_a 14.9443
_cell_length_b 17.1237
_cell_length_c 17.3069
_cell_angle_alpha 118.444
_cell_angle_beta 103.191
_cell_angle_gamma 96.751
_space_group_name_H-M_alt 'P 1'
_space_group_name_Hall 'P 1'
loop_
    _symmetry_equiv_pos_as_xyz
    x,y,z
loop_
    _atom_site_label
    _atom_site_type_symbol
    _atom_site_fract_x
    _atom_site_fract_y
    _atom_site_fract_z
    _atom_site_occupancy
    Eu1      Eu       0.88033    0.95809    0.89172    1.000
    Eu2      Eu       0.11967    0.04191    0.10828    1.000
    H1       H        0.50570    0.78060    0.16670    1.000
    H2       H        0.57620    0.79590    0.11760    1.000
    H3       H        0.58040    0.72260    0.14720    1.000
    H4       H        0.57140    0.00620    0.48190    1.000
    H5       H        0.67000    0.02030    0.54950    1.000
    H6       H        0.65560    0.09240    0.51950    1.000
    H7       H        0.94090    0.95830    0.42750    1.000
    H8       H        0.92110    0.91350    0.32040    1.000
    H9       H        0.93380    0.01950    0.38300    1.000
    H10      H        0.49570    0.89420    0.37840    1.000
    H11      H        0.47710    0.81260    0.27730    1.000
    H12      H        0.33640    0.81460    0.19340    1.000
    H13      H        0.23920    0.88370    0.14070    1.000
    H14      H        0.43960    0.12480    0.31680    1.000
    H15      H        0.53340    0.04770    0.36070    1.000
    H16      H        0.80720    0.13110    0.53110    1.000
    H17      H        0.89490    0.09480    0.50860    1.000
    H18      H        0.83870    0.93410    0.53360    1.000
    H19      H        0.86680    0.91960    0.66060    1.000
    H20      H        0.91750    0.19470    0.82120    1.000
    H21      H        0.87990    0.20130    0.69030    1.000
    H22      H        0.72370    0.75200    0.15130    1.000
    H23      H        0.82460    0.78550    0.22490    1.000
    H24      H        0.85550    0.73350    0.07410    1.000
    H25      H        0.92370    0.78510    0.99850    1.000
    H26      H        0.86020    0.02550    0.13700    1.000
    H27      H        0.78490    0.96410    0.20360    1.000
    H28      H        0.34560    0.42490    0.45590    1.000
    H29      H        0.32630    0.51160    0.45280    1.000
    H30      H        0.42620    0.51750    0.51200    1.000
    H31      H        0.47570    0.57080    0.82070    1.000
    H32      H        0.42040    0.63900    0.87450    1.000
    H33      H        0.38710    0.53410    0.83970    1.000
    H34      H        0.05150    0.50550    0.57920    1.000
    H35      H        0.08220    0.57490    0.68670    1.000
    H36      H        0.08780    0.61140    0.61980    1.000
    H37      H        0.48210    0.47850    0.60250    1.000
    H38      H        0.48570    0.47780    0.69320    1.000
    H39      H        0.64440    0.54610    0.77790    1.000
    H40      H        0.77220    0.67040    0.86120    1.000
    H41      H        0.63280    0.79540    0.74700    1.000
    H42      H        0.50380    0.67080    0.67080    1.000
    H43      H        0.25750    0.57120    0.84450    1.000
    H44      H        0.15400    0.53620    0.77420    1.000
    H45      H        0.29940    0.73910    0.82510    1.000
    H46      H        0.27650    0.88020    0.89930    1.000
    H47      H        0.08450    0.78280    0.98240    1.000
    H48      H        0.10240    0.64070    0.89530    1.000
    H49      H        0.20500    0.54900    0.45490    1.000
    H50      H        0.11550    0.54320    0.48680    1.000
    H51      H        0.11300    0.37370    0.48780    1.000
    H52      H        0.05930    0.22130    0.37970    1.000
    H53      H        0.08350    0.28060    0.18480    1.000
    H54      H        0.12750    0.43300    0.29770    1.000
    H55      H        0.49430    0.21940    0.83330    1.000
    H56      H        0.42380    0.20410    0.88240    1.000
    H57      H        0.41960    0.27740    0.85280    1.000
    H58      H        0.42860    0.99380    0.51810    1.000
    H59      H        0.33000    0.97970    0.45050    1.000
    H60      H        0.34440    0.90760    0.48050    1.000
    H61      H        0.05910    0.04170    0.57250    1.000
    H62      H        0.07890    0.08650    0.67960    1.000
    H63      H        0.06620    0.98050    0.61700    1.000
    H64      H        0.50430    0.10580    0.62160    1.000
    H65      H        0.52290    0.18740    0.72270    1.000
    H66      H        0.66360    0.18540    0.80660    1.000
    H67      H        0.76080    0.11630    0.85930    1.000
    H68      H        0.56040    0.87520    0.68320    1.000
    H69      H        0.46660    0.95230    0.63930    1.000
    H70      H        0.19280    0.86890    0.46890    1.000
    H71      H        0.10510    0.90520    0.49140    1.000
    H72      H        0.16130    0.06590    0.46640    1.000
    H73      H        0.13320    0.08040    0.33940    1.000
    H74      H        0.08250    0.80530    0.17880    1.000
    H75      H        0.12010    0.79870    0.30970    1.000
    H76      H        0.27630    0.24800    0.84870    1.000
    H77      H        0.17540    0.21450    0.77510    1.000
    H78      H        0.14450    0.26650    0.92590    1.000
    H79      H        0.07630    0.21490    0.00150    1.000
    H80      H        0.13980    0.97450    0.86300    1.000
    H81      H        0.21510    0.03590    0.79640    1.000
    H82      H        0.65440    0.57510    0.54410    1.000
    H83      H        0.67370    0.48840    0.54720    1.000
    H84      H        0.57380    0.48250    0.48800    1.000
    H85      H        0.52430    0.42920    0.17930    1.000
    H86      H        0.57960    0.36100    0.12550    1.000
    H87      H        0.61290    0.46590    0.16030    1.000
    H88      H        0.94850    0.49450    0.42080    1.000
    H89      H        0.91780    0.42510    0.31330    1.000
    H90      H        0.91220    0.38860    0.38020    1.000
    H91      H        0.51790    0.52150    0.39750    1.000
    H92      H        0.51430    0.52220    0.30680    1.000
    H93      H        0.35560    0.45390    0.22210    1.000
    H94      H        0.22780    0.32960    0.13880    1.000
    H95      H        0.36720    0.20460    0.25300    1.000
    H96      H        0.49620    0.32920    0.32920    1.000
    H97      H        0.74250    0.42880    0.15550    1.000
    H98      H        0.84600    0.46380    0.22580    1.000
    H99      H        0.70060    0.26090    0.17490    1.000
    H100     H        0.72350    0.11980    0.10070    1.000
    H101     H        0.91550    0.21720    0.01760    1.000
    H102     H        0.89760    0.35930    0.10470    1.000
    H103     H        0.79500    0.45100    0.54510    1.000
    H104     H        0.88450    0.45680    0.51320    1.000
    H105     H        0.88700    0.62630    0.51220    1.000
    H106     H        0.94070    0.77870    0.62030    1.000
    H107     H        0.91650    0.71940    0.81520    1.000
    H108     H        0.87250    0.56700    0.70230    1.000
    C1       C        0.56910    0.78180    0.16370    1.000
    C2       C        0.63920    0.02820    0.49950    1.000
    C3       C        0.90950    0.96010    0.37360    1.000
    C4       C        0.60760    0.90390    0.33120    1.000
    C5       C        0.67140    0.97490    0.41800    1.000
    C6       C        0.76950    0.99650    0.42890    1.000
    C7       C        0.80240    0.94250    0.35760    1.000
    C8       C        0.73990    0.87060    0.27210    1.000
    C9       C        0.64110    0.85530    0.25840    1.000
    C10      C        0.50260    0.87870    0.31880    1.000
    C11      C        0.35700    0.87740    0.21730    1.000
    C12      C        0.29770    0.91880    0.18690    1.000
    C13      C        0.32550    0.01680    0.22630    1.000
    C14      C        0.41650    0.06180    0.29070    1.000
    C15      C        0.47330    0.01490    0.31670    1.000
    C16      C        0.83500    0.07960    0.51760    1.000
    C17      C        0.85270    0.98630    0.59210    1.000
    C18      C        0.87060    0.97760    0.66840    1.000
    C19      C        0.89450    0.05380    0.75710    1.000
    C20      C        0.89960    0.14080    0.76330    1.000
    C21      C        0.87840    0.14450    0.68520    1.000
    C22      C        0.77590    0.80580    0.19710    1.000
    C23      C        0.85710    0.79300    0.08660    1.000
    C24      C        0.89940    0.82400    0.04310    1.000
    C25      C        0.90780    0.91530    0.06420    1.000
    C26      C        0.86090    0.96640    0.12430    1.000
    C27      C        0.81640    0.92950    0.16420    1.000
    C28      C        0.35880    0.49080    0.49120    1.000
    C29      C        0.41410    0.57760    0.82570    1.000
    C30      C        0.09520    0.56210    0.63060    1.000
    C31      C        0.32490    0.51980    0.57390    1.000
    C32      C        0.38210    0.53430    0.65800    1.000
    C33      C        0.34910    0.55990    0.73400    1.000
    C34      C        0.25520    0.56610    0.72440    1.000
    C35      C        0.19620    0.55350    0.64010    1.000
    C36      C        0.23200    0.53230    0.56700    1.000
    C37      C        0.47910    0.51470    0.66480    1.000
    C38      C        0.64150    0.59800    0.77380    1.000
    C39      C        0.71830    0.67190    0.82290    1.000
    C40      C        0.71790    0.75060    0.81690    1.000
    C41      C        0.63550    0.74630    0.75610    1.000
    C42      C        0.55850    0.67100    0.70960    1.000
    C43      C        0.21500    0.58110    0.80040    1.000
    C44      C        0.25380    0.74800    0.85500    1.000
    C45      C        0.24200    0.83290    0.90150    1.000
    C46      C        0.17890    0.85230    0.95370    1.000
    C47      C        0.12720    0.77520    0.94940    1.000
    C48      C        0.13870    0.69050    0.89810    1.000
    C49      C        0.16900    0.51730    0.47650    1.000
    C50      C        0.10850    0.35390    0.42640    1.000
    C51      C        0.07780    0.26260    0.36220    1.000
    C52      C        0.07330    0.22920    0.26940    1.000
    C53      C        0.09080    0.29780    0.24600    1.000
    C54      C        0.11840    0.38900    0.31420    1.000
    C55      C        0.43090    0.21820    0.83630    1.000
    C56      C        0.36080    0.97180    0.50050    1.000
    C57      C        0.09050    0.03990    0.62640    1.000
    C58      C        0.39240    0.09610    0.66880    1.000
    C59      C        0.32860    0.02510    0.58200    1.000
    C60      C        0.23050    0.00350    0.57110    1.000
    C61      C        0.19760    0.05750    0.64240    1.000
    C62      C        0.26010    0.12940    0.72790    1.000
    C63      C        0.35890    0.14470    0.74160    1.000
    C64      C        0.49740    0.12130    0.68120    1.000
    C65      C        0.64300    0.12260    0.78270    1.000
    C66      C        0.70230    0.08120    0.81310    1.000
    C67      C        0.67450    0.98320    0.77370    1.000
    C68      C        0.58350    0.93820    0.70930    1.000
    C69      C        0.52670    0.98510    0.68330    1.000
    C70      C        0.16500    0.92040    0.48240    1.000
    C71      C        0.14730    0.01370    0.40790    1.000
    C72      C        0.12940    0.02240    0.33160    1.000
    C73      C        0.10550    0.94620    0.24290    1.000
    C74      C        0.10040    0.85920    0.23670    1.000
    C75      C        0.12160    0.85550    0.31480    1.000
    C76      C        0.22410    0.19420    0.80290    1.000
    C77      C        0.14290    0.20700    0.91340    1.000
    C78      C        0.10060    0.17600    0.95690    1.000
    C79      C        0.09220    0.08470    0.93580    1.000
    C80      C        0.13910    0.03360    0.87570    1.000
    C81      C        0.18360    0.07050    0.83580    1.000
    C82      C        0.64120    0.50920    0.50880    1.000
    C83      C        0.58590    0.42240    0.17430    1.000
    C84      C        0.90480    0.43790    0.36940    1.000
    C85      C        0.67510    0.48020    0.42610    1.000
    C86      C        0.61790    0.46570    0.34200    1.000
    C87      C        0.65090    0.44010    0.26600    1.000
    C88      C        0.74480    0.43390    0.27560    1.000
    C89      C        0.80380    0.44650    0.35990    1.000
    C90      C        0.76800    0.46770    0.43300    1.000
    C91      C        0.52090    0.48530    0.33520    1.000
    C92      C        0.35850    0.40200    0.22620    1.000
    C93      C        0.28170    0.32810    0.17710    1.000
    C94      C        0.28210    0.24940    0.18310    1.000
    C95      C        0.36450    0.25370    0.24390    1.000
    C96      C        0.44150    0.32900    0.29040    1.000
    C97      C        0.78500    0.41890    0.19960    1.000
    C98      C        0.74620    0.25200    0.14500    1.000
    C99      C        0.75800    0.16710    0.09850    1.000
    C100     C        0.82110    0.14770    0.04630    1.000
    C101     C        0.87280    0.22480    0.05060    1.000
    C102     C        0.86130    0.30950    0.10190    1.000
    C103     C        0.83100    0.48270    0.52350    1.000
    C104     C        0.89150    0.64610    0.57360    1.000
    C105     C        0.92220    0.73740    0.63780    1.000
    C106     C        0.92670    0.77080    0.73060    1.000
    C107     C        0.90920    0.70220    0.75400    1.000
    C108     C        0.88160    0.61100    0.68580    1.000
    N1       N        0.55980    0.59770    0.71850    1.000
    N2       N        0.13280    0.41710    0.40390    1.000
    N3       N        0.20160    0.67570    0.85050    1.000
    N4       N        0.81610    0.84540    0.14900    1.000
    N5       N        0.85490    0.06800    0.59940    1.000
    N6       N        0.44580    0.92470    0.28140    1.000
    N7       N        0.44020    0.40230    0.28150    1.000
    N8       N        0.86720    0.58290    0.59610    1.000
    N9       N        0.79840    0.32430    0.14950    1.000
    N10      N        0.18390    0.15460    0.85100    1.000
    N11      N        0.14510    0.93200    0.40060    1.000
    N12      N        0.55420    0.07530    0.71860    1.000
    O1       O        0.79010    0.82220    0.86450    1.000
    O2       O        0.05450    0.14300    0.21130    1.000
    O3       O        0.16990    0.93280    0.99960    1.000
    O4       O        0.95520    0.94870    0.02550    1.000
    O5       O        0.90820    0.04810    0.82920    1.000
    O6       O        0.27100    0.05880    0.20220    1.000
    O7       O        0.20990    0.17780    0.13550    1.000
    O8       O        0.94550    0.85700    0.78870    1.000
    O9       O        0.83010    0.06720    0.00040    1.000
    O10      O        0.04480    0.05130    0.97450    1.000
    O11      O        0.09180    0.95190    0.17080    1.000
    O12      O        0.72900    0.94120    0.79780    1.000
    C109     C        0.79270    0.69170    0.35550    1.000
    S1       S        0.92170    0.72800    0.39590    1.000
    O13      O        0.94360    0.74590    0.32820    1.000
    O14      O        0.94550    0.64880    0.39320    1.000
    O15      O        0.94340    0.80700    0.48500    1.000
    F1       F        0.75770    0.76110    0.36370    1.000
    F2       F        0.75910    0.62480    0.26710    1.000
    F3       F        0.76260    0.66000    0.40340    1.000
    C110     C        0.53800    0.73350    0.43120    1.000
    S2       S        0.44080    0.70790    0.46310    1.000
    O16      O        0.38710    0.61680    0.38370    1.000
    O17      O        0.47700    0.70660    0.54260    1.000
    O18      O        0.39870    0.77780    0.46790    1.000
    F4       F        0.58640    0.81960    0.48660    1.000
    F5       F        0.60430    0.68950    0.44870    1.000
    F6       F        0.52820    0.71050    0.35280    1.000
    C111     C        0.66100    0.49200    0.96300    1.000
    S3       S        0.71070    0.39890    0.95190    1.000
    O19      O        0.65680    0.34850    0.97770    1.000
    O20      O        0.80770    0.45000    0.01560    1.000
    O21      O        0.69840    0.34570    0.85360    1.000
    F7       F        0.56910    0.45750    0.90350    1.000
    F8       F        0.70400    0.54890    0.94650    1.000
    F9       F        0.66120    0.54510    0.05010    1.000
    C112     C        0.20730    0.30830    0.64450    1.000
    S4       S        0.07830    0.27200    0.60410    1.000
    O22      O        0.05640    0.25410    0.67180    1.000
    O23      O        0.05450    0.35120    0.60680    1.000
    O24      O        0.05660    0.19300    0.51500    1.000
    F10      F        0.24230    0.23890    0.63630    1.000
    F11      F        0.24090    0.37520    0.73290    1.000
    F12      F        0.23740    0.34000    0.59660    1.000
    C113     C        0.46200    0.26650    0.56880    1.000
    S5       S        0.55920    0.29210    0.53690    1.000
    O25      O        0.61290    0.38320    0.61630    1.000
    O26      O        0.52300    0.29340    0.45740    1.000
    O27      O        0.60130    0.22220    0.53210    1.000
    F13      F        0.41360    0.18040    0.51340    1.000
    F14      F        0.39570    0.31050    0.55130    1.000
    F15      F        0.47180    0.28950    0.64720    1.000
    C114     C        0.33900    0.50800    0.03700    1.000
    S6       S        0.28930    0.60110    0.04810    1.000
    O28      O        0.34320    0.65150    0.02230    1.000
    O29      O        0.19230    0.55000    0.98440    1.000
    O30      O        0.30160    0.65430    0.14640    1.000
    F16      F        0.43090    0.54250    0.09650    1.000
    F17      F        0.29600    0.45110    0.05350    1.000
    F18      F        0.33880    0.45490    0.94990    1.000
