data_functionalizedCrystal
_audit_creation_method	'EQeq! by Chris Wilmer'
_symmetry_space_group_name_H-M	'P1'
_symmetry_Int_Tables_number	1
_symmetry_cell_setting	triclinic
loop_
_symmetry_equiv_pos_as_xyz
  x,y,z
_cell_length_a	19.5042
_cell_length_b	15.2014
_cell_length_c	6.5693
_cell_angle_alpha	90
_cell_angle_beta	104.18
_cell_angle_gamma	90
loop_
_atom_site_label
_atom_site_type_symbol
_atom_site_fract_x
_atom_site_fract_y
_atom_site_fract_z
_atom_site_charge
Mof_Al	Al	0.5003	0.2437	0.5108	7.189
Mof_O 	O 	0.4999	0.3025	0.2651	-3.245
Mof_O 	O 	0.9956	0.5521	0.2384	-1.37
Mof_O 	O 	0.9159	0.0696	0.8722	-0.331
Mof_O 	O 	0.9355	0.089	0.5493	-0.404
Mof_O 	O 	0.5573	0.1589	0.4451	-1.892
Mof_O 	O 	0.5825	0.1848	0.141	-1.571
Mof_C 	C 	0.8198	0.10662	0.5895	0.064
Mof_C 	C 	0.7727	0.10664	0.7154	-0.238
Mof_C 	C 	0.7007	0.12479	0.6281	0.288
Mof_C 	C 	0.6757	0.14239	0.4176	-0.567
Mof_C 	C 	0.723	0.14221	0.2936	0.275
Mof_C 	C 	0.7948	0.12424	0.3811	-0.235
Mof_C 	C 	0.8954	0.08731	0.675	0.345
Mof_C 	C 	0.6009	0.16242	0.3301	1.265
Mof_H 	H 	0.7895	0.09399	0.8651	0.116
Mof_H 	H 	0.6672	0.1251	0.7186	-0.091
Mof_H 	H 	0.7062	0.15493	0.1444	-0.092
Mof_H 	H 	0.8283	0.1239	0.2914	0.11
Mof_O 	O 	0.4141	0.3064	0.8665	-1.55
Mof_O 	O 	0.4424	0.3466	0.5672	-1.454
Mof_O 	O 	0.0632	0.4169	0.4568	-1.054
Mof_O 	O 	0.0861	0.4297	0.1401	-0.844
Mof_C 	C 	0.3237	0.3571	0.5896	-0.332
Mof_C 	C 	0.275	0.3444	0.7067	0.113
Mof_C 	C 	0.2028	0.3636	0.622	-0.035
Mof_C 	C 	0.1799	0.39517	0.4214	-0.155
Mof_C 	C 	0.2287	0.4083	0.3019	-0.058
Mof_C 	C 	0.301	0.389	0.3875	0.122
Mof_C 	C 	0.3985	0.33603	0.6785	1.005
Mof_C 	C 	0.1048	0.41529	0.3356	0.644
Mof_H 	H 	0.2908	0.3217	0.8491	0.021
Mof_H 	H 	0.1681	0.3545	0.7066	0.05
Mof_H 	H 	0.2127	0.431	0.1592	0.031
Mof_H 	H 	0.3361	0.3979	0.3033	-0.045
Mof_H 	H 	0.495	0.3606	0.279	0.904
Mof_H 	H 	0.993	0.6102	0.245	0.584
Mof_Al	Al	0.4997	0.7437	0.9892	7.807
Mof_O 	O 	0.5001	0.8025	0.2349	-3.536
Mof_O 	O 	0.0044	0.0521	0.2616	-1.283
Mof_O 	O 	0.0841	0.5696	0.6278	-0.894
Mof_O 	O 	0.0645	0.589	0.9507	-0.882
Mof_O 	O 	0.4427	0.6589	0.0549	-2.058
Mof_O 	O 	0.4175	0.6848	0.359	-1.677
Mof_C 	C 	0.1802	0.60662	0.9105	0.101
Mof_C 	C 	0.2273	0.60664	0.7846	-0.283
Mof_C 	C 	0.2993	0.62479	0.8719	0.453
Mof_C 	C 	0.3243	0.64239	0.0824	-0.719
Mof_C 	C 	0.277	0.64221	0.2064	0.378
Mof_C 	C 	0.2052	0.62424	0.1189	-0.338
Mof_C 	C 	0.1046	0.58731	0.825	0.55
Mof_C 	C 	0.3991	0.66242	0.1699	1.402
Mof_H 	H 	0.2105	0.59399	0.6349	0.113
Mof_H 	H 	0.3328	0.6251	0.7814	-0.127
Mof_H 	H 	0.2938	0.65493	0.3556	-0.101
Mof_H 	H 	0.1717	0.6239	0.2086	0.092
Mof_O 	O 	0.5859	0.8064	0.6335	-1.718
Mof_O 	O 	0.5576	0.8466	0.9328	-1.512
Mof_O 	O 	0.9368	0.9169	0.0432	-0.381
Mof_O 	O 	0.9139	0.9297	0.3599	-0.382
Mof_C 	C 	0.6763	0.8571	0.9104	-0.263
Mof_C 	C 	0.725	0.8444	0.7933	0.106
Mof_C 	C 	0.7972	0.8636	0.878	0.027
Mof_C 	C 	0.8201	0.89517	0.0786	-0.122
Mof_C 	C 	0.7713	0.9083	0.1981	-0.032
Mof_C 	C 	0.699	0.889	0.1125	0.07
Mof_C 	C 	0.6015	0.83603	0.8215	1.068
Mof_C 	C 	0.8952	0.91529	0.1644	0.489
Mof_H 	H 	0.7092	0.8217	0.6509	0.011
Mof_H 	H 	0.8319	0.8545	0.7934	0.066
Mof_H 	H 	0.7873	0.931	0.3408	0.085
Mof_H 	H 	0.6639	0.8979	0.1967	-0.006
Mof_H 	H 	0.505	0.8606	0.221	1.001
Mof_H 	H 	0.007	0.1102	0.255	0.333
Mof_Al	Al	0.4997	0.7563	0.4892	7.471
Mof_O 	O 	0.5001	0.6975	0.7349	-3.517
Mof_O 	O 	0.0044	0.4479	0.7616	-1.75
Mof_O 	O 	0.0841	0.9304	0.1278	-0.564
Mof_O 	O 	0.0645	0.911	0.4507	-0.686
Mof_O 	O 	0.4427	0.8411	0.5549	-1.927
Mof_O 	O 	0.4175	0.8152	0.859	-1.674
Mof_C 	C 	0.1802	0.89338	0.4105	-0.004
Mof_C 	C 	0.2273	0.89336	0.2846	-0.169
Mof_C 	C 	0.2993	0.87521	0.3719	0.286
Mof_C 	C 	0.3243	0.85761	0.5824	-0.525
Mof_C 	C 	0.277	0.85779	0.7064	0.272
Mof_C 	C 	0.2052	0.87576	0.6189	-0.152
Mof_C 	C 	0.1046	0.91269	0.325	0.466
Mof_C 	C 	0.3991	0.83758	0.6699	1.348
Mof_H 	H 	0.2105	0.90601	0.1349	0.087
Mof_H 	H 	0.3328	0.8749	0.2814	-0.078
Mof_H 	H 	0.2938	0.84507	0.8556	-0.034
Mof_H 	H 	0.1717	0.8761	0.7086	0.087
Mof_O 	O 	0.5859	0.6936	0.1335	-1.823
Mof_O 	O 	0.5576	0.6534	0.4328	-1.531
Mof_O 	O 	0.9368	0.5831	0.5432	-0.771
Mof_O 	O 	0.9139	0.5703	0.8599	-0.58
Mof_C 	C 	0.6763	0.6429	0.4104	-0.405
Mof_C 	C 	0.725	0.6556	0.2933	0.169
Mof_C 	C 	0.7972	0.6364	0.378	-0.09
Mof_C 	C 	0.8201	0.60483	0.5786	-0.082
Mof_C 	C 	0.7713	0.5917	0.6981	-0.099
Mof_C 	C 	0.699	0.611	0.6125	0.176
Mof_C 	C 	0.6015	0.66397	0.3215	1.106
Mof_C 	C 	0.8952	0.58471	0.6644	0.62
Mof_H 	H 	0.7092	0.6783	0.1509	-0.034
Mof_H 	H 	0.8319	0.6455	0.2934	0.065
Mof_H 	H 	0.7873	0.569	0.8408	0.083
Mof_H 	H 	0.6639	0.6021	0.6967	-0.046
Mof_H 	H 	0.505	0.6394	0.721	0.999
Mof_H 	H 	0.007	0.3898	0.755	0.486
Mof_Al	Al	0.5003	0.2563	0.0108	6.746
Mof_O 	O 	0.4999	0.1975	0.7651	-3.218
Mof_O 	O 	0.9956	0.9479	0.7384	-0.667
Mof_O 	O 	0.9159	0.4304	0.3722	-0.647
Mof_O 	O 	0.9355	0.411	0.0493	-0.626
Mof_O 	O 	0.5573	0.3411	0.9451	-1.725
Mof_O 	O 	0.5825	0.3152	0.641	-1.571
Mof_C 	C 	0.8198	0.39338	0.0895	-0.199
Mof_C 	C 	0.7727	0.39336	0.2154	-0.013
Mof_C 	C 	0.7007	0.37521	0.1281	0.038
Mof_C 	C 	0.6757	0.35761	0.9176	-0.307
Mof_C 	C 	0.723	0.35779	0.7936	0.09
Mof_C 	C 	0.7948	0.37576	0.8811	0.063
Mof_C 	C 	0.8954	0.41269	0.175	0.583
Mof_C 	C 	0.6009	0.33758	0.8301	1.184
Mof_H 	H 	0.7895	0.40601	0.3651	0.048
Mof_H 	H 	0.6672	0.3749	0.2186	-0.023
Mof_H 	H 	0.7062	0.34507	0.6444	0.002
Mof_H 	H 	0.8283	0.3761	0.7914	0.058
Mof_O 	O 	0.4141	0.1936	0.3665	-1.699
Mof_O 	O 	0.4424	0.1534	0.0672	-1.483
Mof_O 	O 	0.0632	0.0831	0.9568	-0.635
Mof_O 	O 	0.0861	0.0703	0.6401	-0.648
Mof_C 	C 	0.3237	0.1429	0.0896	-0.613
Mof_C 	C 	0.275	0.1556	0.2067	0.321
Mof_C 	C 	0.2028	0.1364	0.122	-0.368
Mof_C 	C 	0.1799	0.10483	0.9214	0.146
Mof_C 	C 	0.2287	0.0917	0.8019	-0.296
Mof_C 	C 	0.301	0.111	0.8875	0.389
Mof_C 	C 	0.3985	0.16397	0.1785	1.094
Mof_C 	C 	0.1048	0.08471	0.8356	0.368
Mof_H 	H 	0.2908	0.1783	0.3491	-0.077
Mof_H 	H 	0.1681	0.1455	0.2066	0.111
Mof_H 	H 	0.2127	0.069	0.6592	0.095
Mof_H 	H 	0.3361	0.1021	0.8033	-0.124
Mof_H 	H 	0.495	0.1394	0.779	0.912
Mof_H 	H 	0.993	0.8898	0.745	0.437
Mof_Al	Al	-0	0.5	-0	2.905
Mof_Al	Al	7.86106e-34	0	0.5	1.977
Mof_Al	Al	7.86106e-34	0.5	0.5	3.287
Mof_Al	Al	-0	0	-0	1.504
_end
