# CIF file generated by openbabel 3.1.0, see https://openbabel.org
data_I
_chemical_name_common 'image0'
_cell_length_a 22.0267
_cell_length_b 16.6061
_cell_length_c 25.5742
_cell_angle_alpha 90
_cell_angle_beta 115.25
_cell_angle_gamma 90
_space_group_name_H-M_alt 'P 1'
_space_group_name_Hall 'P 1'
loop_
    _symmetry_equiv_pos_as_xyz
    x,y,z
loop_
    _atom_site_label
    _atom_site_type_symbol
    _atom_site_fract_x
    _atom_site_fract_y
    _atom_site_fract_z
    _atom_site_occupancy
    Ag1      Ag       0.34424    0.95708    0.36726    1.000
    Ag2      Ag       0.32227    0.25501    0.86675    1.000
    C1       C        0.03270    0.31070    0.40960    1.000
    H1       H        0.05400    0.28970    0.38800    1.000
    C2       C        0.12370    0.25590    0.50100    1.000
    C3       C        0.59780    0.47130    0.99950    1.000
    C4       C        0.05980    0.30090    0.46880    1.000
    C5       C        0.29770    0.08350    0.50430    1.000
    H2       H        0.31990    0.08720    0.54440    1.000
    C6       C        0.50390    0.38470    0.99540    1.000
    H3       H        0.52360    0.38330    0.03560    1.000
    C7       C        0.20950    0.22610    0.58640    1.000
    C8       C        0.72030    0.65250    0.89110    1.000
    H4       H        0.70060    0.65720    0.85110    1.000
    C9       C        0.68200    0.55220    0.00560    1.000
    C10      C        0.77750    0.63830    0.00860    1.000
    H5       H        0.79840    0.63450    0.04870    1.000
    C11      C        0.53330    0.42720    0.96540    1.000
    C12      C        0.44410    0.34440    0.96340    1.000
    H6       H        0.42420    0.31640    0.98350    1.000
    C13      C        0.24280    0.23670    0.65040    1.000
    C14      C        0.02600    0.33430    0.49860    1.000
    H7       H        0.04310    0.32970    0.53860    1.000
    C15      C        0.23530    0.06430    0.38770    1.000
    H8       H        0.21350    0.05720    0.34780    1.000
    C16      C        0.71480    0.60170    0.97650    1.000
    C17      C        0.23540    0.12160    0.47350    1.000
    C18      C        0.96700    0.37420    0.46790    1.000
    H9       H        0.94500    0.39680    0.48830    1.000
    C19      C        0.67880    0.45610    0.17950    1.000
    H10      H        0.63480    0.43880    0.15920    1.000
    C20      C        0.20410    0.10950    0.41430    1.000
    H11      H        0.16200    0.13190    0.39250    1.000
    C21      C        0.68020    0.50210    0.08690    1.000
    C22      C        0.71240    0.49140    0.15110    1.000
    C23      C        0.68650    0.60990    0.91730    1.000
    H12      H        0.64490    0.58690    0.89490    1.000
    C24      C        0.97310    0.35260    0.38310    1.000
    H13      H        0.95560    0.36000    0.34330    1.000
    C25      C        0.80730    0.68010    0.97870    1.000
    H14      H        0.84860    0.70460    0.99990    1.000
    C26      C        0.20530    0.17210    0.50380    1.000
    C27      C        0.32480    0.04040    0.47310    1.000
    H15      H        0.36680    0.01710    0.49350    1.000
    C28      C        0.50160    0.42790    0.90570    1.000
    H16      H        0.51910    0.45760    0.88460    1.000
    C29      C        0.80660    0.50490    0.24130    1.000
    H17      H        0.85060    0.52190    0.26240    1.000
    C30      C        0.71180    0.44640    0.23920    1.000
    H18      H        0.68900    0.42220    0.25840    1.000
    C31      C        0.24490    0.29510    0.73590    1.000
    H19      H        0.22600    0.32990    0.75340    1.000
    C32      C        0.44380    0.38400    0.87820    1.000
    H20      H        0.42450    0.38240    0.83800    1.000
    C33      C        0.21440    0.28760    0.67680    1.000
    H21      H        0.17540    0.31620    0.65490    1.000
    C34      C        0.32800    0.20860    0.74300    1.000
    H22      H        0.36720    0.18090    0.76560    1.000
    C35      C        0.77800    0.51660    0.18220    1.000
    H23      H        0.80190    0.54060    0.16400    1.000
    C36      C        0.30220    0.19930    0.68390    1.000
    H24      H        0.32450    0.16840    0.66720    1.000
    N1       N        0.29570    0.03000    0.41670    1.000
    N2       N        0.93920    0.38290    0.41080    1.000
    N3       N        0.30080    0.25440    0.76970    1.000
    N4       N        0.14770    0.21040    0.47140    1.000
    N5       N        0.15260    0.26680    0.55810    1.000
    N6       N        0.23790    0.17750    0.56170    1.000
    N7       N        0.77990    0.68710    0.92110    1.000
    N8       N        0.41350    0.34320    0.90590    1.000
    N9       N        0.77530    0.47080    0.27000    1.000
    N10      N        0.62590    0.51270    0.97210    1.000
    N11      N        0.62290    0.46300    0.05750    1.000
    N12      N        0.71100    0.54910    0.06350    1.000
    Ag3      Ag       0.84424    0.45708    0.36726    1.000
    Ag4      Ag       0.82227    0.75501    0.86675    1.000
    C37      C        0.53270    0.81070    0.40960    1.000
    H25      H        0.55400    0.78970    0.38800    1.000
    C38      C        0.62370    0.75590    0.50100    1.000
    C39      C        0.09780    0.97130    0.99950    1.000
    C40      C        0.55980    0.80090    0.46880    1.000
    C41      C        0.79770    0.58350    0.50430    1.000
    H26      H        0.81990    0.58720    0.54440    1.000
    C42      C        0.00390    0.88470    0.99540    1.000
    H27      H        0.02360    0.88330    0.03560    1.000
    C43      C        0.70950    0.72610    0.58640    1.000
    C44      C        0.22030    0.15250    0.89110    1.000
    H28      H        0.20060    0.15720    0.85110    1.000
    C45      C        0.18200    0.05220    0.00560    1.000
    C46      C        0.27750    0.13830    0.00860    1.000
    H29      H        0.29840    0.13450    0.04870    1.000
    C47      C        0.03330    0.92720    0.96540    1.000
    C48      C        0.94410    0.84440    0.96340    1.000
    H30      H        0.92420    0.81640    0.98350    1.000
    C49      C        0.74280    0.73670    0.65040    1.000
    C50      C        0.52600    0.83430    0.49860    1.000
    H31      H        0.54310    0.82970    0.53860    1.000
    C51      C        0.73530    0.56430    0.38770    1.000
    H32      H        0.71350    0.55720    0.34780    1.000
    C52      C        0.21480    0.10170    0.97650    1.000
    C53      C        0.73540    0.62160    0.47350    1.000
    C54      C        0.46700    0.87420    0.46790    1.000
    H33      H        0.44500    0.89680    0.48830    1.000
    C55      C        0.17880    0.95610    0.17950    1.000
    H34      H        0.13480    0.93880    0.15920    1.000
    C56      C        0.70410    0.60950    0.41430    1.000
    H35      H        0.66200    0.63190    0.39250    1.000
    C57      C        0.18020    0.00210    0.08690    1.000
    C58      C        0.21240    0.99140    0.15110    1.000
    C59      C        0.18650    0.10990    0.91730    1.000
    H36      H        0.14490    0.08690    0.89490    1.000
    C60      C        0.47310    0.85260    0.38310    1.000
    H37      H        0.45560    0.86000    0.34330    1.000
    C61      C        0.30730    0.18010    0.97870    1.000
    H38      H        0.34860    0.20460    0.99990    1.000
    C62      C        0.70530    0.67210    0.50380    1.000
    C63      C        0.82480    0.54040    0.47310    1.000
    H39      H        0.86680    0.51710    0.49350    1.000
    C64      C        0.00160    0.92790    0.90570    1.000
    H40      H        0.01910    0.95760    0.88460    1.000
    C65      C        0.30660    0.00490    0.24130    1.000
    H41      H        0.35060    0.02190    0.26240    1.000
    C66      C        0.21180    0.94640    0.23920    1.000
    H42      H        0.18900    0.92220    0.25840    1.000
    C67      C        0.74490    0.79510    0.73590    1.000
    H43      H        0.72600    0.82990    0.75340    1.000
    C68      C        0.94380    0.88400    0.87820    1.000
    H44      H        0.92450    0.88240    0.83800    1.000
    C69      C        0.71440    0.78760    0.67680    1.000
    H45      H        0.67540    0.81620    0.65490    1.000
    C70      C        0.82800    0.70860    0.74300    1.000
    H46      H        0.86720    0.68090    0.76560    1.000
    C71      C        0.27800    0.01660    0.18220    1.000
    H47      H        0.30190    0.04060    0.16400    1.000
    C72      C        0.80220    0.69930    0.68390    1.000
    H48      H        0.82450    0.66840    0.66720    1.000
    N13      N        0.79570    0.53000    0.41670    1.000
    N14      N        0.43920    0.88290    0.41080    1.000
    N15      N        0.80080    0.75440    0.76970    1.000
    N16      N        0.64770    0.71040    0.47140    1.000
    N17      N        0.65260    0.76680    0.55810    1.000
    N18      N        0.73790    0.67750    0.56170    1.000
    N19      N        0.27990    0.18710    0.92110    1.000
    N20      N        0.91350    0.84320    0.90590    1.000
    N21      N        0.27530    0.97080    0.27000    1.000
    N22      N        0.12590    0.01270    0.97210    1.000
    N23      N        0.12290    0.96300    0.05750    1.000
    N24      N        0.21100    0.04910    0.06350    1.000
    Ag5      Ag       0.65576    0.95708    0.13274    1.000
    Ag6      Ag       0.67773    0.25501    0.63325    1.000
    C73      C        0.96730    0.31070    0.09040    1.000
    H49      H        0.94600    0.28970    0.11200    1.000
    C74      C        0.87630    0.25590    0.99900    1.000
    C75      C        0.40220    0.47130    0.50050    1.000
    C76      C        0.94020    0.30090    0.03120    1.000
    C77      C        0.70230    0.08350    0.99570    1.000
    H50      H        0.68010    0.08720    0.95560    1.000
    C78      C        0.49610    0.38470    0.50460    1.000
    H51      H        0.47640    0.38330    0.46440    1.000
    C79      C        0.79050    0.22610    0.91360    1.000
    C80      C        0.27970    0.65250    0.60890    1.000
    H52      H        0.29940    0.65720    0.64890    1.000
    C81      C        0.31800    0.55220    0.49440    1.000
    C82      C        0.22250    0.63830    0.49140    1.000
    H53      H        0.20160    0.63450    0.45130    1.000
    C83      C        0.46670    0.42720    0.53460    1.000
    C84      C        0.55590    0.34440    0.53660    1.000
    H54      H        0.57580    0.31640    0.51650    1.000
    C85      C        0.75720    0.23670    0.84960    1.000
    C86      C        0.97400    0.33430    0.00140    1.000
    H55      H        0.95690    0.32970    0.96140    1.000
    C87      C        0.76470    0.06430    0.11230    1.000
    H56      H        0.78650    0.05720    0.15220    1.000
    C88      C        0.28520    0.60170    0.52350    1.000
    C89      C        0.76460    0.12160    0.02650    1.000
    C90      C        0.03300    0.37420    0.03210    1.000
    H57      H        0.05500    0.39680    0.01170    1.000
    C91      C        0.32120    0.45610    0.32050    1.000
    H58      H        0.36520    0.43880    0.34080    1.000
    C92      C        0.79590    0.10950    0.08570    1.000
    H59      H        0.83800    0.13190    0.10750    1.000
    C93      C        0.31980    0.50210    0.41310    1.000
    C94      C        0.28760    0.49140    0.34890    1.000
    C95      C        0.31350    0.60990    0.58270    1.000
    H60      H        0.35510    0.58690    0.60510    1.000
    C96      C        0.02690    0.35260    0.11690    1.000
    H61      H        0.04440    0.36000    0.15670    1.000
    C97      C        0.19270    0.68010    0.52130    1.000
    H62      H        0.15140    0.70460    0.50010    1.000
    C98      C        0.79470    0.17210    0.99620    1.000
    C99      C        0.67520    0.04040    0.02690    1.000
    H63      H        0.63320    0.01710    0.00650    1.000
    C100     C        0.49840    0.42790    0.59430    1.000
    H64      H        0.48090    0.45760    0.61540    1.000
    C101     C        0.19340    0.50490    0.25870    1.000
    H65      H        0.14940    0.52190    0.23760    1.000
    C102     C        0.28820    0.44640    0.26080    1.000
    H66      H        0.31100    0.42220    0.24160    1.000
    C103     C        0.75510    0.29510    0.76410    1.000
    H67      H        0.77400    0.32990    0.74660    1.000
    C104     C        0.55620    0.38400    0.62180    1.000
    H68      H        0.57550    0.38240    0.66200    1.000
    C105     C        0.78560    0.28760    0.82320    1.000
    H69      H        0.82460    0.31620    0.84510    1.000
    C106     C        0.67200    0.20860    0.75700    1.000
    H70      H        0.63280    0.18090    0.73440    1.000
    C107     C        0.22200    0.51660    0.31780    1.000
    H71      H        0.19810    0.54060    0.33600    1.000
    C108     C        0.69780    0.19930    0.81610    1.000
    H72      H        0.67550    0.16840    0.83280    1.000
    N25      N        0.70430    0.03000    0.08330    1.000
    N26      N        0.06080    0.38290    0.08920    1.000
    N27      N        0.69920    0.25440    0.73030    1.000
    N28      N        0.85230    0.21040    0.02860    1.000
    N29      N        0.84740    0.26680    0.94190    1.000
    N30      N        0.76210    0.17750    0.93830    1.000
    N31      N        0.22010    0.68710    0.57890    1.000
    N32      N        0.58650    0.34320    0.59410    1.000
    N33      N        0.22470    0.47080    0.23000    1.000
    N34      N        0.37410    0.51270    0.52790    1.000
    N35      N        0.37710    0.46300    0.44250    1.000
    N36      N        0.28900    0.54910    0.43650    1.000
    Ag7      Ag       0.15576    0.45708    0.13274    1.000
    Ag8      Ag       0.17773    0.75501    0.63325    1.000
    C109     C        0.46730    0.81070    0.09040    1.000
    H73      H        0.44600    0.78970    0.11200    1.000
    C110     C        0.37630    0.75590    0.99900    1.000
    C111     C        0.90220    0.97130    0.50050    1.000
    C112     C        0.44020    0.80090    0.03120    1.000
    C113     C        0.20230    0.58350    0.99570    1.000
    H74      H        0.18010    0.58720    0.95560    1.000
    C114     C        0.99610    0.88470    0.50460    1.000
    H75      H        0.97640    0.88330    0.46440    1.000
    C115     C        0.29050    0.72610    0.91360    1.000
    C116     C        0.77970    0.15250    0.60890    1.000
    H76      H        0.79940    0.15720    0.64890    1.000
    C117     C        0.81800    0.05220    0.49440    1.000
    C118     C        0.72250    0.13830    0.49140    1.000
    H77      H        0.70160    0.13450    0.45130    1.000
    C119     C        0.96670    0.92720    0.53460    1.000
    C120     C        0.05590    0.84440    0.53660    1.000
    H78      H        0.07580    0.81640    0.51650    1.000
    C121     C        0.25720    0.73670    0.84960    1.000
    C122     C        0.47400    0.83430    0.00140    1.000
    H79      H        0.45690    0.82970    0.96140    1.000
    C123     C        0.26470    0.56430    0.11230    1.000
    H80      H        0.28650    0.55720    0.15220    1.000
    C124     C        0.78520    0.10170    0.52350    1.000
    C125     C        0.26460    0.62160    0.02650    1.000
    C126     C        0.53300    0.87420    0.03210    1.000
    H81      H        0.55500    0.89680    0.01170    1.000
    C127     C        0.82120    0.95610    0.32050    1.000
    H82      H        0.86520    0.93880    0.34080    1.000
    C128     C        0.29590    0.60950    0.08570    1.000
    H83      H        0.33800    0.63190    0.10750    1.000
    C129     C        0.81980    0.00210    0.41310    1.000
    C130     C        0.78760    0.99140    0.34890    1.000
    C131     C        0.81350    0.10990    0.58270    1.000
    H84      H        0.85510    0.08690    0.60510    1.000
    C132     C        0.52690    0.85260    0.11690    1.000
    H85      H        0.54440    0.86000    0.15670    1.000
    C133     C        0.69270    0.18010    0.52130    1.000
    H86      H        0.65140    0.20460    0.50010    1.000
    C134     C        0.29470    0.67210    0.99620    1.000
    C135     C        0.17520    0.54040    0.02690    1.000
    H87      H        0.13320    0.51710    0.00650    1.000
    C136     C        0.99840    0.92790    0.59430    1.000
    H88      H        0.98090    0.95760    0.61540    1.000
    C137     C        0.69340    0.00490    0.25870    1.000
    H89      H        0.64940    0.02190    0.23760    1.000
    C138     C        0.78820    0.94640    0.26080    1.000
    H90      H        0.81100    0.92220    0.24160    1.000
    C139     C        0.25510    0.79510    0.76410    1.000
    H91      H        0.27400    0.82990    0.74660    1.000
    C140     C        0.05620    0.88400    0.62180    1.000
    H92      H        0.07550    0.88240    0.66200    1.000
    C141     C        0.28560    0.78760    0.82320    1.000
    H93      H        0.32460    0.81620    0.84510    1.000
    C142     C        0.17200    0.70860    0.75700    1.000
    H94      H        0.13280    0.68090    0.73440    1.000
    C143     C        0.72200    0.01660    0.31780    1.000
    H95      H        0.69810    0.04060    0.33600    1.000
    C144     C        0.19780    0.69930    0.81610    1.000
    H96      H        0.17550    0.66840    0.83280    1.000
    N37      N        0.20430    0.53000    0.08330    1.000
    N38      N        0.56080    0.88290    0.08920    1.000
    N39      N        0.19920    0.75440    0.73030    1.000
    N40      N        0.35230    0.71040    0.02860    1.000
    N41      N        0.34740    0.76680    0.94190    1.000
    N42      N        0.26210    0.67750    0.93830    1.000
    N43      N        0.72010    0.18710    0.57890    1.000
    N44      N        0.08650    0.84320    0.59410    1.000
    N45      N        0.72470    0.97080    0.23000    1.000
    N46      N        0.87410    0.01270    0.52790    1.000
    N47      N        0.87710    0.96300    0.44250    1.000
    N48      N        0.78900    0.04910    0.43650    1.000
    Ag9      Ag       0.65576    0.04292    0.63274    1.000
    Ag10     Ag       0.67773    0.74499    0.13325    1.000
    C145     C        0.96730    0.68930    0.59040    1.000
    H97      H        0.94600    0.71030    0.61200    1.000
    C146     C        0.87630    0.74410    0.49900    1.000
    C147     C        0.40220    0.52870    0.00050    1.000
    C148     C        0.94020    0.69910    0.53120    1.000
    C149     C        0.70230    0.91650    0.49570    1.000
    H98      H        0.68010    0.91280    0.45560    1.000
    C150     C        0.49610    0.61530    0.00460    1.000
    H99      H        0.47640    0.61670    0.96440    1.000
    C151     C        0.79050    0.77390    0.41360    1.000
    C152     C        0.27970    0.34750    0.10890    1.000
    H100     H        0.29940    0.34280    0.14890    1.000
    C153     C        0.31800    0.44780    0.99440    1.000
    C154     C        0.22250    0.36170    0.99140    1.000
    H101     H        0.20160    0.36550    0.95130    1.000
    C155     C        0.46670    0.57280    0.03460    1.000
    C156     C        0.55590    0.65560    0.03660    1.000
    H102     H        0.57580    0.68360    0.01650    1.000
    C157     C        0.75720    0.76330    0.34960    1.000
    C158     C        0.97400    0.66570    0.50140    1.000
    H103     H        0.95690    0.67030    0.46140    1.000
    C159     C        0.76470    0.93570    0.61230    1.000
    H104     H        0.78650    0.94280    0.65220    1.000
    C160     C        0.28520    0.39830    0.02350    1.000
    C161     C        0.76460    0.87840    0.52650    1.000
    C162     C        0.03300    0.62580    0.53210    1.000
    H105     H        0.05500    0.60320    0.51170    1.000
    C163     C        0.32120    0.54390    0.82050    1.000
    H106     H        0.36520    0.56120    0.84080    1.000
    C164     C        0.79590    0.89050    0.58570    1.000
    H107     H        0.83800    0.86810    0.60750    1.000
    C165     C        0.31980    0.49790    0.91310    1.000
    C166     C        0.28760    0.50860    0.84890    1.000
    C167     C        0.31350    0.39010    0.08270    1.000
    H108     H        0.35510    0.41310    0.10510    1.000
    C168     C        0.02690    0.64740    0.61690    1.000
    H109     H        0.04440    0.64000    0.65670    1.000
    C169     C        0.19270    0.31990    0.02130    1.000
    H110     H        0.15140    0.29540    0.00010    1.000
    C170     C        0.79470    0.82790    0.49620    1.000
    C171     C        0.67520    0.95960    0.52690    1.000
    H111     H        0.63320    0.98290    0.50650    1.000
    C172     C        0.49840    0.57210    0.09430    1.000
    H112     H        0.48090    0.54240    0.11540    1.000
    C173     C        0.19340    0.49510    0.75870    1.000
    H113     H        0.14940    0.47810    0.73760    1.000
    C174     C        0.28820    0.55360    0.76080    1.000
    H114     H        0.31100    0.57780    0.74160    1.000
    C175     C        0.75510    0.70490    0.26410    1.000
    H115     H        0.77400    0.67010    0.24660    1.000
    C176     C        0.55620    0.61600    0.12180    1.000
    H116     H        0.57550    0.61760    0.16200    1.000
    C177     C        0.78560    0.71240    0.32320    1.000
    H117     H        0.82460    0.68380    0.34510    1.000
    C178     C        0.67200    0.79140    0.25700    1.000
    H118     H        0.63280    0.81910    0.23440    1.000
    C179     C        0.22200    0.48340    0.81780    1.000
    H119     H        0.19810    0.45940    0.83600    1.000
    C180     C        0.69780    0.80070    0.31610    1.000
    H120     H        0.67550    0.83160    0.33280    1.000
    N49      N        0.70430    0.97000    0.58330    1.000
    N50      N        0.06080    0.61710    0.58920    1.000
    N51      N        0.69920    0.74560    0.23030    1.000
    N52      N        0.85230    0.78960    0.52860    1.000
    N53      N        0.84740    0.73320    0.44190    1.000
    N54      N        0.76210    0.82250    0.43830    1.000
    N55      N        0.22010    0.31290    0.07890    1.000
    N56      N        0.58650    0.65680    0.09410    1.000
    N57      N        0.22470    0.52920    0.73000    1.000
    N58      N        0.37410    0.48730    0.02790    1.000
    N59      N        0.37710    0.53700    0.94250    1.000
    N60      N        0.28900    0.45090    0.93650    1.000
    Ag11     Ag       0.15576    0.54292    0.63274    1.000
    Ag12     Ag       0.17773    0.24499    0.13325    1.000
    C181     C        0.46730    0.18930    0.59040    1.000
    H121     H        0.44600    0.21030    0.61200    1.000
    C182     C        0.37630    0.24410    0.49900    1.000
    C183     C        0.90220    0.02870    0.00050    1.000
    C184     C        0.44020    0.19910    0.53120    1.000
    C185     C        0.20230    0.41650    0.49570    1.000
    H122     H        0.18010    0.41280    0.45560    1.000
    C186     C        0.99610    0.11530    0.00460    1.000
    H123     H        0.97640    0.11670    0.96440    1.000
    C187     C        0.29050    0.27390    0.41360    1.000
    C188     C        0.77970    0.84750    0.10890    1.000
    H124     H        0.79940    0.84280    0.14890    1.000
    C189     C        0.81800    0.94780    0.99440    1.000
    C190     C        0.72250    0.86170    0.99140    1.000
    H125     H        0.70160    0.86550    0.95130    1.000
    C191     C        0.96670    0.07280    0.03460    1.000
    C192     C        0.05590    0.15560    0.03660    1.000
    H126     H        0.07580    0.18360    0.01650    1.000
    C193     C        0.25720    0.26330    0.34960    1.000
    C194     C        0.47400    0.16570    0.50140    1.000
    H127     H        0.45690    0.17030    0.46140    1.000
    C195     C        0.26470    0.43570    0.61230    1.000
    H128     H        0.28650    0.44280    0.65220    1.000
    C196     C        0.78520    0.89830    0.02350    1.000
    C197     C        0.26460    0.37840    0.52650    1.000
    C198     C        0.53300    0.12580    0.53210    1.000
    H129     H        0.55500    0.10320    0.51170    1.000
    C199     C        0.82120    0.04390    0.82050    1.000
    H130     H        0.86520    0.06120    0.84080    1.000
    C200     C        0.29590    0.39050    0.58570    1.000
    H131     H        0.33800    0.36810    0.60750    1.000
    C201     C        0.81980    0.99790    0.91310    1.000
    C202     C        0.78760    0.00860    0.84890    1.000
    C203     C        0.81350    0.89010    0.08270    1.000
    H132     H        0.85510    0.91310    0.10510    1.000
    C204     C        0.52690    0.14740    0.61690    1.000
    H133     H        0.54440    0.14000    0.65670    1.000
    C205     C        0.69270    0.81990    0.02130    1.000
    H134     H        0.65140    0.79540    0.00010    1.000
    C206     C        0.29470    0.32790    0.49620    1.000
    C207     C        0.17520    0.45960    0.52690    1.000
    H135     H        0.13320    0.48290    0.50650    1.000
    C208     C        0.99840    0.07210    0.09430    1.000
    H136     H        0.98090    0.04240    0.11540    1.000
    C209     C        0.69340    0.99510    0.75870    1.000
    H137     H        0.64940    0.97810    0.73760    1.000
    C210     C        0.78820    0.05360    0.76080    1.000
    H138     H        0.81100    0.07780    0.74160    1.000
    C211     C        0.25510    0.20490    0.26410    1.000
    H139     H        0.27400    0.17010    0.24660    1.000
    C212     C        0.05620    0.11600    0.12180    1.000
    H140     H        0.07550    0.11760    0.16200    1.000
    C213     C        0.28560    0.21240    0.32320    1.000
    H141     H        0.32460    0.18380    0.34510    1.000
    C214     C        0.17200    0.29140    0.25700    1.000
    H142     H        0.13280    0.31910    0.23440    1.000
    C215     C        0.72200    0.98340    0.81780    1.000
    H143     H        0.69810    0.95940    0.83600    1.000
    C216     C        0.19780    0.30070    0.31610    1.000
    H144     H        0.17550    0.33160    0.33280    1.000
    N61      N        0.20430    0.47000    0.58330    1.000
    N62      N        0.56080    0.11710    0.58920    1.000
    N63      N        0.19920    0.24560    0.23030    1.000
    N64      N        0.35230    0.28960    0.52860    1.000
    N65      N        0.34740    0.23320    0.44190    1.000
    N66      N        0.26210    0.32250    0.43830    1.000
    N67      N        0.72010    0.81290    0.07890    1.000
    N68      N        0.08650    0.15680    0.09410    1.000
    N69      N        0.72470    0.02920    0.73000    1.000
    N70      N        0.87410    0.98730    0.02790    1.000
    N71      N        0.87710    0.03700    0.94250    1.000
    N72      N        0.78900    0.95090    0.93650    1.000
    Ag13     Ag       0.34424    0.04292    0.86726    1.000
    Ag14     Ag       0.32227    0.74499    0.36675    1.000
    C217     C        0.03270    0.68930    0.90960    1.000
    H145     H        0.05400    0.71030    0.88800    1.000
    C218     C        0.12370    0.74410    0.00100    1.000
    C219     C        0.59780    0.52870    0.49950    1.000
    C220     C        0.05980    0.69910    0.96880    1.000
    C221     C        0.29770    0.91650    0.00430    1.000
    H146     H        0.31990    0.91280    0.04440    1.000
    C222     C        0.50390    0.61530    0.49540    1.000
    H147     H        0.52360    0.61670    0.53560    1.000
    C223     C        0.20950    0.77390    0.08640    1.000
    C224     C        0.72030    0.34750    0.39110    1.000
    H148     H        0.70060    0.34280    0.35110    1.000
    C225     C        0.68200    0.44780    0.50560    1.000
    C226     C        0.77750    0.36170    0.50860    1.000
    H149     H        0.79840    0.36550    0.54870    1.000
    C227     C        0.53330    0.57280    0.46540    1.000
    C228     C        0.44410    0.65560    0.46340    1.000
    H150     H        0.42420    0.68360    0.48350    1.000
    C229     C        0.24280    0.76330    0.15040    1.000
    C230     C        0.02600    0.66570    0.99860    1.000
    H151     H        0.04310    0.67030    0.03860    1.000
    C231     C        0.23530    0.93570    0.88770    1.000
    H152     H        0.21350    0.94280    0.84780    1.000
    C232     C        0.71480    0.39830    0.47650    1.000
    C233     C        0.23540    0.87840    0.97350    1.000
    C234     C        0.96700    0.62580    0.96790    1.000
    H153     H        0.94500    0.60320    0.98830    1.000
    C235     C        0.67880    0.54390    0.67950    1.000
    H154     H        0.63480    0.56120    0.65920    1.000
    C236     C        0.20410    0.89050    0.91430    1.000
    H155     H        0.16200    0.86810    0.89250    1.000
    C237     C        0.68020    0.49790    0.58690    1.000
    C238     C        0.71240    0.50860    0.65110    1.000
    C239     C        0.68650    0.39010    0.41730    1.000
    H156     H        0.64490    0.41310    0.39490    1.000
    C240     C        0.97310    0.64740    0.88310    1.000
    H157     H        0.95560    0.64000    0.84330    1.000
    C241     C        0.80730    0.31990    0.47870    1.000
    H158     H        0.84860    0.29540    0.49990    1.000
    C242     C        0.20530    0.82790    0.00380    1.000
    C243     C        0.32480    0.95960    0.97310    1.000
    H159     H        0.36680    0.98290    0.99350    1.000
    C244     C        0.50160    0.57210    0.40570    1.000
    H160     H        0.51910    0.54240    0.38460    1.000
    C245     C        0.80660    0.49510    0.74130    1.000
    H161     H        0.85060    0.47810    0.76240    1.000
    C246     C        0.71180    0.55360    0.73920    1.000
    H162     H        0.68900    0.57780    0.75840    1.000
    C247     C        0.24490    0.70490    0.23590    1.000
    H163     H        0.22600    0.67010    0.25340    1.000
    C248     C        0.44380    0.61600    0.37820    1.000
    H164     H        0.42450    0.61760    0.33800    1.000
    C249     C        0.21440    0.71240    0.17680    1.000
    H165     H        0.17540    0.68380    0.15490    1.000
    C250     C        0.32800    0.79140    0.24300    1.000
    H166     H        0.36720    0.81910    0.26560    1.000
    C251     C        0.77800    0.48340    0.68220    1.000
    H167     H        0.80190    0.45940    0.66400    1.000
    C252     C        0.30220    0.80070    0.18390    1.000
    H168     H        0.32450    0.83160    0.16720    1.000
    N73      N        0.29570    0.97000    0.91670    1.000
    N74      N        0.93920    0.61710    0.91080    1.000
    N75      N        0.30080    0.74560    0.26970    1.000
    N76      N        0.14770    0.78960    0.97140    1.000
    N77      N        0.15260    0.73320    0.05810    1.000
    N78      N        0.23790    0.82250    0.06170    1.000
    N79      N        0.77990    0.31290    0.42110    1.000
    N80      N        0.41350    0.65680    0.40590    1.000
    N81      N        0.77530    0.52920    0.77000    1.000
    N82      N        0.62590    0.48730    0.47210    1.000
    N83      N        0.62290    0.53700    0.55750    1.000
    N84      N        0.71100    0.45090    0.56350    1.000
    Ag15     Ag       0.84424    0.54292    0.86726    1.000
    Ag16     Ag       0.82227    0.24499    0.36675    1.000
    C253     C        0.53270    0.18930    0.90960    1.000
    H169     H        0.55400    0.21030    0.88800    1.000
    C254     C        0.62370    0.24410    0.00100    1.000
    C255     C        0.09780    0.02870    0.49950    1.000
    C256     C        0.55980    0.19910    0.96880    1.000
    C257     C        0.79770    0.41650    0.00430    1.000
    H170     H        0.81990    0.41280    0.04440    1.000
    C258     C        0.00390    0.11530    0.49540    1.000
    H171     H        0.02360    0.11670    0.53560    1.000
    C259     C        0.70950    0.27390    0.08640    1.000
    C260     C        0.22030    0.84750    0.39110    1.000
    H172     H        0.20060    0.84280    0.35110    1.000
    C261     C        0.18200    0.94780    0.50560    1.000
    C262     C        0.27750    0.86170    0.50860    1.000
    H173     H        0.29840    0.86550    0.54870    1.000
    C263     C        0.03330    0.07280    0.46540    1.000
    C264     C        0.94410    0.15560    0.46340    1.000
    H174     H        0.92420    0.18360    0.48350    1.000
    C265     C        0.74280    0.26330    0.15040    1.000
    C266     C        0.52600    0.16570    0.99860    1.000
    H175     H        0.54310    0.17030    0.03860    1.000
    C267     C        0.73530    0.43570    0.88770    1.000
    H176     H        0.71350    0.44280    0.84780    1.000
    C268     C        0.21480    0.89830    0.47650    1.000
    C269     C        0.73540    0.37840    0.97350    1.000
    C270     C        0.46700    0.12580    0.96790    1.000
    H177     H        0.44500    0.10320    0.98830    1.000
    C271     C        0.17880    0.04390    0.67950    1.000
    H178     H        0.13480    0.06120    0.65920    1.000
    C272     C        0.70410    0.39050    0.91430    1.000
    H179     H        0.66200    0.36810    0.89250    1.000
    C273     C        0.18020    0.99790    0.58690    1.000
    C274     C        0.21240    0.00860    0.65110    1.000
    C275     C        0.18650    0.89010    0.41730    1.000
    H180     H        0.14490    0.91310    0.39490    1.000
    C276     C        0.47310    0.14740    0.88310    1.000
    H181     H        0.45560    0.14000    0.84330    1.000
    C277     C        0.30730    0.81990    0.47870    1.000
    H182     H        0.34860    0.79540    0.49990    1.000
    C278     C        0.70530    0.32790    0.00380    1.000
    C279     C        0.82480    0.45960    0.97310    1.000
    H183     H        0.86680    0.48290    0.99350    1.000
    C280     C        0.00160    0.07210    0.40570    1.000
    H184     H        0.01910    0.04240    0.38460    1.000
    C281     C        0.30660    0.99510    0.74130    1.000
    H185     H        0.35060    0.97810    0.76240    1.000
    C282     C        0.21180    0.05360    0.73920    1.000
    H186     H        0.18900    0.07780    0.75840    1.000
    C283     C        0.74490    0.20490    0.23590    1.000
    H187     H        0.72600    0.17010    0.25340    1.000
    C284     C        0.94380    0.11600    0.37820    1.000
    H188     H        0.92450    0.11760    0.33800    1.000
    C285     C        0.71440    0.21240    0.17680    1.000
    H189     H        0.67540    0.18380    0.15490    1.000
    C286     C        0.82800    0.29140    0.24300    1.000
    H190     H        0.86720    0.31910    0.26560    1.000
    C287     C        0.27800    0.98340    0.68220    1.000
    H191     H        0.30190    0.95940    0.66400    1.000
    C288     C        0.80220    0.30070    0.18390    1.000
    H192     H        0.82450    0.33160    0.16720    1.000
    N85      N        0.79570    0.47000    0.91670    1.000
    N86      N        0.43920    0.11710    0.91080    1.000
    N87      N        0.80080    0.24560    0.26970    1.000
    N88      N        0.64770    0.28960    0.97140    1.000
    N89      N        0.65260    0.23320    0.05810    1.000
    N90      N        0.73790    0.32250    0.06170    1.000
    N91      N        0.27990    0.81290    0.42110    1.000
    N92      N        0.91350    0.15680    0.40590    1.000
    N93      N        0.27530    0.02920    0.77000    1.000
    N94      N        0.12590    0.98730    0.47210    1.000
    N95      N        0.12290    0.03700    0.55750    1.000
    N96      N        0.21100    0.95090    0.56350    1.000
