# CIF file generated by openbabel 3.1.0, see https://openbabel.org
data_I
_chemical_name_common 'RUFMUA01_clean'
_cell_length_a 6.8656
_cell_length_b 9.1287
_cell_length_c 9.9209
_cell_angle_alpha 101.341
_cell_angle_beta 99.683
_cell_angle_gamma 111.95
_space_group_name_H-M_alt 'P 1'
_space_group_name_Hall 'P 1'
loop_
    _symmetry_equiv_pos_as_xyz
    x,y,z
loop_
    _atom_site_label
    _atom_site_type_symbol
    _atom_site_fract_x
    _atom_site_fract_y
    _atom_site_fract_z
    _atom_site_occupancy
    Ca1      Ca       0.68682    0.42197    0.89164    1.000
    Ca2      Ca       0.31318    0.57803    0.10836    1.000
    H1       H        0.50810    0.24920    0.53970    1.000
    H2       H        0.14130    0.88970    0.73670    1.000
    H3       H        0.16380    0.89120    0.33570    1.000
    H4       H        0.71650    0.50420    0.40960    1.000
    H5       H        0.49190    0.75080    0.46030    1.000
    H6       H        0.85870    0.11030    0.26330    1.000
    H7       H        0.83620    0.10880    0.66430    1.000
    H8       H        0.28350    0.49580    0.59040    1.000
    C1       C        0.91670    0.68250    0.59020    1.000
    C2       C        0.92680    0.68530    0.34880    1.000
    C3       C        0.08740    0.83780    0.63930    1.000
    C4       C        0.35750    0.08470    0.60160    1.000
    C5       C        0.10010    0.83950    0.39910    1.000
    C6       C        0.82200    0.59800    0.69420    1.000
    C7       C        0.84390    0.60480    0.19120    1.000
    C8       C        0.83400    0.60710    0.44380    1.000
    C9       C        0.17850    0.91660    0.54510    1.000
    C10      C        0.08330    0.31750    0.40980    1.000
    C11      C        0.07320    0.31470    0.65120    1.000
    C12      C        0.91260    0.16220    0.36070    1.000
    C13      C        0.64250    0.91530    0.39840    1.000
    C14      C        0.89990    0.16050    0.60090    1.000
    C15      C        0.17800    0.40200    0.30580    1.000
    C16      C        0.15610    0.39520    0.80880    1.000
    C17      C        0.16600    0.39290    0.55620    1.000
    C18      C        0.82150    0.08340    0.45490    1.000
    O1       O        0.67640    0.45292    0.64885    1.000
    O2       O        0.97840    0.60270    0.12080    1.000
    O3       O        0.41820    0.15365    0.50235    1.000
    O4       O        0.64220    0.54100    0.13354    1.000
    O5       O        0.43820    0.15175    0.72896    1.000
    O6       O        0.88890    0.67290    0.82456    1.000
    O7       O        0.32360    0.54708    0.35115    1.000
    O8       O        0.02160    0.39730    0.87920    1.000
    O9       O        0.58180    0.84635    0.49765    1.000
    O10      O        0.35780    0.45900    0.86646    1.000
    O11      O        0.56180    0.84825    0.27104    1.000
    O12      O        0.11110    0.32710    0.17544    1.000
