data_functionalizedCrystal
_audit_creation_method	'EQeq! by Chris Wilmer'
_symmetry_space_group_name_H-M	'P1'
_symmetry_Int_Tables_number	1
_symmetry_cell_setting	triclinic
loop_
_symmetry_equiv_pos_as_xyz
  x,y,z
_cell_length_a	10.4787
_cell_length_b	20.0091
_cell_length_c	14.9594
_cell_angle_alpha	90
_cell_angle_beta	90
_cell_angle_gamma	90
loop_
_atom_site_label
_atom_site_type_symbol
_atom_site_fract_x
_atom_site_fract_y
_atom_site_fract_z
_atom_site_charge
Mof_Zn	Zn	0.07352	0.75628	0.38658	1.22
Mof_Zn	Zn	0.90568	0.58893	0.43416	1.081
Mof_Zn	Zn	0.3674	0.08386	0.9821	1.03
Mof_P 	P 	0.30773	0.76569	0.52151	0.59
Mof_P 	P 	0.1364	0.44127	0.07896	0.644
Mof_O 	O 	0.0753	0.8384	0.314	-0.494
Mof_O 	O 	0.92	0.6791	0.1888	-0.438
Mof_O 	O 	0.245	0.7458	0.4348	-0.451
Mof_O 	O 	0.9458	0.758	0.4796	-0.437
Mof_O 	O 	0.087	0.9311	0.2019	-0.463
Mof_H 	H 	0.1418	0.911	0.1734	0.307
Mof_O 	O 	0.9079	0.5932	0.302	-0.362
Mof_O 	O 	0.7358	0.7671	0.3977	-0.483
Mof_H 	H 	0.7379	0.8079	0.4026	0.311
Mof_O 	O 	0.2928	0.84	0.5397	-0.645
Mof_O 	O 	0.1907	0.5063	0.0505	-0.624
Mof_O 	O 	0.2441	0.3935	0.103	-0.332
Mof_O 	O 	0.0529	0.4086	0.0119	-0.703
Mof_O 	O 	0.9434	0.544	0.8378	-0.571
Mof_H 	H 	0.9184	0.5672	0.7962	0.314
Mof_Zn	Zn	0.42648	0.74372	0.88658	1.234
Mof_Zn	Zn	0.59432	0.91107	0.93416	1.071
Mof_Zn	Zn	0.1326	0.41614	0.4821	1.025
Mof_P 	P 	0.19227	0.73431	0.02151	0.597
Mof_P 	P 	0.3636	0.05873	0.57896	0.644
Mof_O 	O 	0.4247	0.6616	0.814	-0.49
Mof_O 	O 	0.58	0.8209	0.6888	-0.486
Mof_O 	O 	0.255	0.7542	0.9348	-0.459
Mof_O 	O 	0.5542	0.742	0.9796	-0.476
Mof_O 	O 	0.413	0.5689	0.7019	-0.457
Mof_H 	H 	0.3582	0.589	0.6734	0.308
Mof_O 	O 	0.5921	0.9068	0.802	-0.406
Mof_O 	O 	0.7642	0.7329	0.8977	-0.474
Mof_H 	H 	0.7621	0.6921	0.9026	0.309
Mof_O 	O 	0.2072	0.66	0.0397	-0.642
Mof_O 	O 	0.3093	0.9937	0.5505	-0.628
Mof_O 	O 	0.2559	0.1065	0.603	-0.336
Mof_O 	O 	0.4471	0.0914	0.5119	-0.677
Mof_O 	O 	0.5566	0.956	0.3378	-0.596
Mof_H 	H 	0.5816	0.9328	0.2962	0.306
Mof_Zn	Zn	0.92648	0.75628	0.11342	1.246
Mof_Zn	Zn	0.09432	0.58893	0.06584	1.063
Mof_Zn	Zn	0.6326	0.08386	0.5179	1.038
Mof_P 	P 	0.69227	0.76569	0.97849	0.591
Mof_P 	P 	0.8636	0.44127	0.42104	0.644
Mof_O 	O 	0.9247	0.8384	0.186	-0.432
Mof_O 	O 	0.08	0.6791	0.3112	-0.495
Mof_O 	O 	0.755	0.7458	0.0652	-0.438
Mof_O 	O 	0.0542	0.758	0.0204	-0.505
Mof_O 	O 	0.913	0.9311	0.2981	-0.394
Mof_H 	H 	0.8582	0.911	0.3266	0.296
Mof_O 	O 	0.0921	0.5932	0.198	-0.413
Mof_O 	O 	0.2642	0.7671	0.1023	-0.49
Mof_H 	H 	0.2621	0.8079	0.0974	0.309
Mof_O 	O 	0.7072	0.84	0.9603	-0.629
Mof_O 	O 	0.8093	0.5063	0.4495	-0.612
Mof_O 	O 	0.7559	0.3935	0.397	-0.325
Mof_O 	O 	0.9471	0.4086	0.4881	-0.64
Mof_O 	O 	0.0566	0.544	0.6622	-0.619
Mof_H 	H 	0.0816	0.5672	0.7038	0.295
Mof_Zn	Zn	0.57352	0.74372	0.61342	1.235
Mof_Zn	Zn	0.40568	0.91107	0.56584	1.071
Mof_Zn	Zn	0.8674	0.41614	0.0179	1.047
Mof_P 	P 	0.80773	0.73431	0.47849	0.593
Mof_P 	P 	0.6364	0.05873	0.92104	0.642
Mof_O 	O 	0.5753	0.6616	0.686	-0.483
Mof_O 	O 	0.42	0.8209	0.8112	-0.494
Mof_O 	O 	0.745	0.7542	0.5652	-0.436
Mof_O 	O 	0.4458	0.742	0.5204	-0.474
Mof_O 	O 	0.587	0.5689	0.7981	-0.455
Mof_H 	H 	0.6418	0.589	0.8266	0.31
Mof_O 	O 	0.4079	0.9068	0.698	-0.414
Mof_O 	O 	0.2358	0.7329	0.6023	-0.499
Mof_H 	H 	0.2379	0.6921	0.5974	0.308
Mof_O 	O 	0.7928	0.66	0.4603	-0.629
Mof_O 	O 	0.6907	0.9937	0.9495	-0.612
Mof_O 	O 	0.7441	0.1065	0.897	-0.32
Mof_O 	O 	0.5529	0.0914	0.9881	-0.678
Mof_O 	O 	0.4434	0.956	0.1622	-0.594
Mof_H 	H 	0.4184	0.9328	0.2038	0.304
Mof_Zn	Zn	0.92648	0.24372	0.61342	1.247
Mof_Zn	Zn	0.09432	0.41107	0.56584	1.06
Mof_Zn	Zn	0.6326	0.91614	0.0179	1.038
Mof_P 	P 	0.69227	0.23431	0.47849	0.592
Mof_P 	P 	0.8636	0.55873	0.92104	0.644
Mof_O 	O 	0.9247	0.1616	0.686	-0.425
Mof_O 	O 	0.08	0.3209	0.8112	-0.497
Mof_O 	O 	0.755	0.2542	0.5652	-0.438
Mof_O 	O 	0.0542	0.242	0.5204	-0.51
Mof_O 	O 	0.913	0.0689	0.7981	-0.387
Mof_H 	H 	0.8582	0.089	0.8266	0.295
Mof_O 	O 	0.0921	0.4068	0.698	-0.414
Mof_O 	O 	0.2642	0.2329	0.6023	-0.49
Mof_H 	H 	0.2621	0.1921	0.5974	0.308
Mof_O 	O 	0.7072	0.16	0.4603	-0.629
Mof_O 	O 	0.8093	0.4937	0.9495	-0.613
Mof_O 	O 	0.7559	0.6065	0.897	-0.326
Mof_O 	O 	0.9471	0.5914	0.9881	-0.64
Mof_O 	O 	0.0566	0.456	0.1622	-0.616
Mof_H 	H 	0.0816	0.4328	0.2038	0.297
Mof_Zn	Zn	0.57352	0.25628	0.11342	1.235
Mof_Zn	Zn	0.40568	0.08893	0.06584	1.073
Mof_Zn	Zn	0.8674	0.58386	0.5179	1.048
Mof_P 	P 	0.80773	0.26569	0.97849	0.59
Mof_P 	P 	0.6364	0.94127	0.42104	0.644
Mof_O 	O 	0.5753	0.3384	0.186	-0.483
Mof_O 	O 	0.42	0.1791	0.3112	-0.493
Mof_O 	O 	0.745	0.2458	0.0652	-0.435
Mof_O 	O 	0.4458	0.258	0.0204	-0.472
Mof_O 	O 	0.587	0.4311	0.2981	-0.454
Mof_H 	H 	0.6418	0.411	0.3266	0.31
Mof_O 	O 	0.4079	0.0932	0.198	-0.413
Mof_O 	O 	0.2358	0.2671	0.1023	-0.498
Mof_H 	H 	0.2379	0.3079	0.0974	0.31
Mof_O 	O 	0.7928	0.34	0.9603	-0.63
Mof_O 	O 	0.6907	0.0063	0.4495	-0.612
Mof_O 	O 	0.7441	0.8935	0.397	-0.32
Mof_O 	O 	0.5529	0.9086	0.4881	-0.674
Mof_O 	O 	0.4434	0.044	0.6622	-0.595
Mof_H 	H 	0.4184	0.0672	0.7038	0.303
Mof_Zn	Zn	0.07352	0.24372	0.88658	1.219
Mof_Zn	Zn	0.90568	0.41107	0.93416	1.081
Mof_Zn	Zn	0.3674	0.91614	0.4821	1.035
Mof_P 	P 	0.30773	0.23431	0.02151	0.599
Mof_P 	P 	0.1364	0.55873	0.57896	0.645
Mof_O 	O 	0.0753	0.1616	0.814	-0.495
Mof_O 	O 	0.92	0.3209	0.6888	-0.431
Mof_O 	O 	0.245	0.2542	0.9348	-0.46
Mof_O 	O 	0.9458	0.242	0.9796	-0.436
Mof_O 	O 	0.087	0.0689	0.7019	-0.465
Mof_H 	H 	0.1418	0.089	0.6734	0.306
Mof_O 	O 	0.9079	0.4068	0.802	-0.357
Mof_O 	O 	0.7358	0.2329	0.8977	-0.483
Mof_H 	H 	0.7379	0.1921	0.9026	0.31
Mof_O 	O 	0.2928	0.16	0.0397	-0.641
Mof_O 	O 	0.1907	0.4937	0.5505	-0.627
Mof_O 	O 	0.2441	0.6065	0.603	-0.334
Mof_O 	O 	0.0529	0.5914	0.5119	-0.71
Mof_O 	O 	0.9434	0.456	0.3378	-0.572
Mof_H 	H 	0.9184	0.4328	0.2962	0.312
Mof_Zn	Zn	0.42648	0.25628	0.38658	1.234
Mof_Zn	Zn	0.59432	0.08893	0.43416	1.071
Mof_Zn	Zn	0.1326	0.58386	0.9821	1.02
Mof_P 	P 	0.19227	0.26569	0.52151	0.591
Mof_P 	P 	0.3636	0.94127	0.07896	0.643
Mof_O 	O 	0.4247	0.3384	0.314	-0.489
Mof_O 	O 	0.58	0.1791	0.1888	-0.486
Mof_O 	O 	0.255	0.2458	0.4348	-0.451
Mof_O 	O 	0.5542	0.258	0.4796	-0.474
Mof_O 	O 	0.413	0.4311	0.2019	-0.456
Mof_H 	H 	0.3582	0.411	0.1734	0.308
Mof_O 	O 	0.5921	0.0932	0.302	-0.406
Mof_O 	O 	0.7642	0.2671	0.3977	-0.475
Mof_H 	H 	0.7621	0.3079	0.4026	0.309
Mof_O 	O 	0.2072	0.34	0.5397	-0.645
Mof_O 	O 	0.3093	0.0063	0.0505	-0.622
Mof_O 	O 	0.2559	0.8935	0.103	-0.334
Mof_O 	O 	0.4471	0.9086	0.0119	-0.674
Mof_O 	O 	0.5566	0.044	0.8378	-0.597
Mof_H 	H 	0.5816	0.0672	0.7962	0.306
Mof_P 	P 	-1.87825e-32	0.88021	0.25	0.538
Mof_P 	P 	-2.68596e-33	0.63798	0.25	0.486
Mof_P 	P 	0.5	0.61979	0.75	0.627
Mof_P 	P 	0.5	0.86202	0.75	0.575
Mof_P 	P 	4.01448e-33	0.11979	0.75	0.526
Mof_P 	P 	1.20627e-32	0.36202	0.75	0.474
Mof_P 	P 	0.5	0.38021	0.25	0.627
Mof_P 	P 	0.5	0.13798	0.25	0.575
_end
