data_functionalizedCrystal
_audit_creation_method	'EQeq! by Chris Wilmer'
_symmetry_space_group_name_H-M	'P1'
_symmetry_Int_Tables_number	1
_symmetry_cell_setting	triclinic
loop_
_symmetry_equiv_pos_as_xyz
  x,y,z
_cell_length_a	9.334
_cell_length_b	29.102
_cell_length_c	7.702
_cell_angle_alpha	90
_cell_angle_beta	108.395
_cell_angle_gamma	90
loop_
_atom_site_label
_atom_site_type_symbol
_atom_site_fract_x
_atom_site_fract_y
_atom_site_fract_z
_atom_site_charge
Mof_Cu	Cu	0.66907	0.99836	0.51519	0.9
Mof_C 	C 	0.8509	0.0882	0.5317	0.348
Mof_C 	C 	0.8731	0.1399	0.5327	-0.04
Mof_C 	C 	0.7542	0.1691	0.5324	0.003
Mof_H 	H 	0.663	0.1568	0.5351	0.048
Mof_C 	C 	0.7711	0.2161	0.5282	-0.075
Mof_H 	H 	0.6896	0.2348	0.5256	0.058
Mof_C 	C 	0.9049	0.2366	0.5277	0.043
Mof_C 	C 	0.0221	0.2064	0.5293	-0.103
Mof_H 	H 	0.114	0.2187	0.5288	0.065
Mof_C 	C 	0.0074	0.1594	0.5315	-0.029
Mof_H 	H 	0.0883	0.1407	0.5322	0.063
Mof_C 	C 	0.9227	0.2863	0.5297	0.1
Mof_C 	C 	0.8138	0.3159	0.5596	-0.126
Mof_H 	H 	0.7255	0.3036	0.5718	0.081
Mof_C 	C 	0.8353	0.3629	0.5713	0.079
Mof_H 	H 	0.7641	0.3818	0.5966	0.026
Mof_C 	C 	0.0616	0.3539	0.509	0.058
Mof_H 	H 	0.1454	0.3673	0.4887	0.037
Mof_C 	C 	0.048	0.3071	0.4996	-0.163
Mof_H 	H 	0.1214	0.2893	0.4736	0.087
Mof_C 	C 	0.9902	0.4315	0.5693	-0.162
Mof_H 	H 	0.9036	0.4466	0.5881	0.109
Mof_H 	H 	0.0038	0.4439	0.4587	0.087
Mof_C 	C 	0.1309	0.4417	0.7321	0.332
Mof_N 	N 	0.9604	0.3814	0.5458	-0.084
Mof_N 	N 	0.788	0.98896	0.349	-0.242
Mof_N 	N 	0.7615	0.9594	0.2354	-0.034
Mof_N 	N 	0.7331	0.9288	0.1244	-0.064
Mof_N 	N 	0.5351	0.001	0.6728	-0.261
Mof_N 	N 	0.5775	0.0199	0.8181	-0.028
Mof_N 	N 	0.6185	0.037	0.9586	-0.059
Mof_O 	O 	0.9611	0.06567	0.5116	-0.38
Mof_O 	O 	0.7333	0.07247	0.5482	-0.368
Mof_O 	O 	0.1424	0.48419	0.7738	-0.425
Mof_O 	O 	0.2177	0.41092	0.8077	-0.279
Mof_Cu	Cu	0.33093	0.49836	0.98481	0.904
Mof_C 	C 	0.1491	0.5882	0.9683	0.368
Mof_C 	C 	0.1269	0.6399	0.9673	-0.109
Mof_C 	C 	0.2458	0.6691	0.9676	0.02
Mof_H 	H 	0.337	0.6568	0.9649	0.047
Mof_C 	C 	0.2289	0.7161	0.9718	-0.071
Mof_H 	H 	0.3104	0.7348	0.9744	0.059
Mof_C 	C 	0.0951	0.7366	0.9723	-0.014
Mof_C 	C 	0.9779	0.7064	0.9707	-0.046
Mof_H 	H 	0.886	0.7187	0.9712	0.059
Mof_C 	C 	0.9926	0.6594	0.9685	0.045
Mof_H 	H 	0.9117	0.6407	0.9678	0.057
Mof_C 	C 	0.0773	0.7863	0.9703	0.091
Mof_C 	C 	0.1862	0.8159	0.9404	-0.137
Mof_H 	H 	0.2745	0.8036	0.9282	0.085
Mof_C 	C 	0.1647	0.8629	0.9287	0.07
Mof_H 	H 	0.2359	0.8818	0.9034	0.029
Mof_C 	C 	0.9384	0.8539	0.991	0.176
Mof_H 	H 	0.8546	0.8673	0.0113	-0.007
Mof_C 	C 	0.952	0.8071	0.0004	-0.188
Mof_H 	H 	0.8786	0.7893	0.0264	0.097
Mof_C 	C 	0.0098	0.9315	0.9307	-0.338
Mof_H 	H 	0.0964	0.9466	0.9119	0.157
Mof_H 	H 	0.9962	0.9439	0.0413	0.176
Mof_C 	C 	0.8691	0.9417	0.7679	0.422
Mof_N 	N 	0.0396	0.8814	0.9542	-0.107
Mof_N 	N 	0.212	0.48896	0.151	-0.265
Mof_N 	N 	0.2385	0.4594	0.2646	-0.042
Mof_N 	N 	0.2669	0.4288	0.3756	-0.067
Mof_N 	N 	0.4649	0.501	0.8272	-0.246
Mof_N 	N 	0.4225	0.5199	0.6819	-0.027
Mof_N 	N 	0.3815	0.537	0.5414	-0.065
Mof_O 	O 	0.0389	0.56567	0.9884	-0.403
Mof_O 	O 	0.2667	0.57247	0.9518	-0.364
Mof_O 	O 	0.8576	0.98419	0.7262	-0.422
Mof_O 	O 	0.7823	0.91092	0.6923	-0.301
Mof_Cu	Cu	0.33093	0.00164	0.48481	0.887
Mof_C 	C 	0.1491	0.9118	0.4683	0.373
Mof_C 	C 	0.1269	0.8601	0.4673	-0.135
Mof_C 	C 	0.2458	0.8309	0.4676	0.038
Mof_H 	H 	0.337	0.8432	0.4649	0.035
Mof_C 	C 	0.2289	0.7839	0.4718	-0.103
Mof_H 	H 	0.3104	0.7652	0.4744	0.065
Mof_C 	C 	0.0951	0.7634	0.4723	0.018
Mof_C 	C 	0.9779	0.7936	0.4707	-0.077
Mof_H 	H 	0.886	0.7813	0.4712	0.064
Mof_C 	C 	0.9926	0.8406	0.4685	0.068
Mof_H 	H 	0.9117	0.8593	0.4678	0.043
Mof_C 	C 	0.0773	0.7137	0.4703	0.015
Mof_C 	C 	0.1862	0.6841	0.4404	-0.095
Mof_H 	H 	0.2745	0.6964	0.4282	0.064
Mof_C 	C 	0.1647	0.6371	0.4287	0.034
Mof_H 	H 	0.2359	0.6182	0.4034	0.033
Mof_C 	C 	0.9384	0.6461	0.491	0.072
Mof_H 	H 	0.8546	0.6327	0.5113	0.039
Mof_C 	C 	0.952	0.6929	0.5004	-0.076
Mof_H 	H 	0.8786	0.7107	0.5264	0.064
Mof_C 	C 	0.0098	0.5685	0.4307	-0.387
Mof_H 	H 	0.0964	0.5534	0.4119	0.162
Mof_H 	H 	0.9962	0.5561	0.5413	0.198
Mof_C 	C 	0.8691	0.5583	0.2679	0.434
Mof_N 	N 	0.0396	0.6186	0.4542	-0.083
Mof_N 	N 	0.212	0.01104	0.651	-0.26
Mof_N 	N 	0.2385	0.0406	0.7646	-0.041
Mof_N 	N 	0.2669	0.0712	0.8756	-0.066
Mof_N 	N 	0.4649	0.999	0.3272	-0.247
Mof_N 	N 	0.4225	0.9801	0.1819	-0.027
Mof_N 	N 	0.3815	0.963	0.0414	-0.066
Mof_O 	O 	0.0389	0.93433	0.4884	-0.414
Mof_O 	O 	0.2667	0.92753	0.4518	-0.369
Mof_O 	O 	0.8576	0.51581	0.2262	-0.44
Mof_O 	O 	0.7823	0.58908	0.1923	-0.317
Mof_Cu	Cu	0.66907	0.50164	0.01519	0.885
Mof_C 	C 	0.8509	0.4118	0.0317	0.353
Mof_C 	C 	0.8731	0.3601	0.0327	-0.06
Mof_C 	C 	0.7542	0.3309	0.0324	0.022
Mof_H 	H 	0.663	0.3432	0.0351	0.037
Mof_C 	C 	0.7711	0.2839	0.0282	-0.109
Mof_H 	H 	0.6896	0.2652	0.0256	0.066
Mof_C 	C 	0.9049	0.2634	0.0277	0.082
Mof_C 	C 	0.0221	0.2936	0.0293	-0.14
Mof_H 	H 	0.114	0.2813	0.0288	0.071
Mof_C 	C 	0.0074	0.3406	0.0315	-0.009
Mof_H 	H 	0.0883	0.3593	0.0322	0.051
Mof_C 	C 	0.9227	0.2137	0.0297	0.022
Mof_C 	C 	0.8138	0.1841	0.0596	-0.079
Mof_H 	H 	0.7255	0.1964	0.0718	0.059
Mof_C 	C 	0.8353	0.1371	0.0713	0.042
Mof_H 	H 	0.7641	0.1182	0.0966	0.031
Mof_C 	C 	0.0616	0.1461	0.009	-0.061
Mof_H 	H 	0.1454	0.1327	0.9887	0.089
Mof_C 	C 	0.048	0.1929	0.9996	-0.04
Mof_H 	H 	0.1214	0.2107	0.9736	0.051
Mof_C 	C 	0.9902	0.0685	0.0693	-0.199
Mof_H 	H 	0.9036	0.0534	0.0881	0.112
Mof_H 	H 	0.0038	0.0561	0.9587	0.105
Mof_C 	C 	0.1309	0.0583	0.2321	0.337
Mof_N 	N 	0.9604	0.1186	0.0458	-0.055
Mof_N 	N 	0.788	0.51104	0.849	-0.237
Mof_N 	N 	0.7615	0.5406	0.7354	-0.034
Mof_N 	N 	0.7331	0.5712	0.6244	-0.063
Mof_N 	N 	0.5351	0.499	0.1728	-0.261
Mof_N 	N 	0.5775	0.4801	0.3181	-0.028
Mof_N 	N 	0.6185	0.463	0.4586	-0.06
Mof_O 	O 	0.9611	0.43433	0.0116	-0.387
Mof_O 	O 	0.7333	0.42753	0.0482	-0.37
Mof_O 	O 	0.1424	0.01581	0.2738	-0.444
Mof_O 	O 	0.2177	0.08908	0.3077	-0.296
Mof_Cu	Cu	2.03507e-33	0	0.5	0.886
Mof_Cu	Cu	-0	0.5	-0	0.883
_end
