# CIF file generated by openbabel 3.1.0, see https://openbabel.org
data_I
_chemical_name_common 'image0'
_cell_length_a 16.3113
_cell_length_b 16.3113
_cell_length_c 16.3113
_cell_angle_alpha 90
_cell_angle_beta 90
_cell_angle_gamma 90
_space_group_name_H-M_alt 'P 1'
_space_group_name_Hall 'P 1'
loop_
    _symmetry_equiv_pos_as_xyz
    x,y,z
loop_
    _atom_site_label
    _atom_site_type_symbol
    _atom_site_fract_x
    _atom_site_fract_y
    _atom_site_fract_z
    _atom_site_occupancy
    N1       N        0.68707    0.30446    0.58572    1.000
    C1       C        0.70786    0.38182    0.60647    1.000
    H1       H        0.90906    0.07816    0.24917    1.000
    N2       N        0.81293    0.19554    0.58572    1.000
    C2       C        0.79214    0.11818    0.60647    1.000
    H2       H        0.59094    0.42184    0.24917    1.000
    N3       N        0.81293    0.30446    0.91428    1.000
    C3       C        0.79214    0.38182    0.89353    1.000
    H3       H        0.59094    0.07816    0.25083    1.000
    N4       N        0.68707    0.19554    0.91428    1.000
    C4       C        0.70786    0.11818    0.89353    1.000
    H4       H        0.90906    0.42184    0.25083    1.000
    N5       N        0.58572    0.68707    0.30446    1.000
    C5       C        0.60647    0.70786    0.38182    1.000
    H5       H        0.24917    0.90906    0.07816    1.000
    N6       N        0.58572    0.81293    0.19554    1.000
    C6       C        0.60647    0.79214    0.11818    1.000
    H6       H        0.24917    0.59094    0.42184    1.000
    N7       N        0.91428    0.81293    0.30446    1.000
    C7       C        0.89353    0.79214    0.38182    1.000
    H7       H        0.25083    0.59094    0.07816    1.000
    N8       N        0.91428    0.68707    0.19554    1.000
    C8       C        0.89353    0.70786    0.11818    1.000
    H8       H        0.25083    0.90906    0.42184    1.000
    N9       N        0.30446    0.58572    0.68707    1.000
    C9       C        0.38182    0.60647    0.70786    1.000
    H9       H        0.07816    0.24917    0.90906    1.000
    N10      N        0.19554    0.58572    0.81293    1.000
    C10      C        0.11818    0.60647    0.79214    1.000
    H10      H        0.42184    0.24917    0.59094    1.000
    N11      N        0.30446    0.91428    0.81293    1.000
    C11      C        0.38182    0.89353    0.79214    1.000
    H11      H        0.07816    0.25083    0.59094    1.000
    N12      N        0.19554    0.91428    0.68707    1.000
    C12      C        0.11818    0.89353    0.70786    1.000
    H12      H        0.42184    0.25083    0.90906    1.000
    N13      N        0.80446    0.18707    0.41428    1.000
    C13      C        0.88182    0.20786    0.39353    1.000
    H13      H        0.57816    0.40906    0.75083    1.000
    N14      N        0.69554    0.31293    0.41428    1.000
    C14      C        0.61818    0.29214    0.39353    1.000
    H14      H        0.92184    0.09094    0.75083    1.000
    N15      N        0.80446    0.31293    0.08572    1.000
    C15      C        0.88182    0.29214    0.10647    1.000
    H15      H        0.57816    0.09094    0.74917    1.000
    N16      N        0.69554    0.18707    0.08572    1.000
    C16      C        0.61818    0.20786    0.10647    1.000
    H16      H        0.92184    0.40906    0.74917    1.000
    N17      N        0.18707    0.08572    0.69554    1.000
    C17      C        0.20786    0.10647    0.61818    1.000
    H17      H        0.40906    0.74917    0.92184    1.000
    N18      N        0.31293    0.08572    0.80446    1.000
    C18      C        0.29214    0.10647    0.88182    1.000
    H18      H        0.09094    0.74917    0.57816    1.000
    N19      N        0.31293    0.41428    0.69554    1.000
    C19      C        0.29214    0.39353    0.61818    1.000
    H19      H        0.09094    0.75083    0.92184    1.000
    N20      N        0.18707    0.41428    0.80446    1.000
    C20      C        0.20786    0.39353    0.88182    1.000
    H20      H        0.40906    0.75083    0.57816    1.000
    N21      N        0.08572    0.80446    0.31293    1.000
    C21      C        0.10647    0.88182    0.29214    1.000
    H21      H        0.74917    0.57816    0.09094    1.000
    N22      N        0.08572    0.69554    0.18707    1.000
    C22      C        0.10647    0.61818    0.20786    1.000
    H22      H        0.74917    0.92184    0.40906    1.000
    N23      N        0.41428    0.80446    0.18707    1.000
    C23      C        0.39353    0.88182    0.20786    1.000
    H23      H        0.75083    0.57816    0.40906    1.000
    N24      N        0.41428    0.69554    0.31293    1.000
    C24      C        0.39353    0.61818    0.29214    1.000
    H24      H        0.75083    0.92184    0.09094    1.000
    N25      N        0.31293    0.69554    0.41428    1.000
    C25      C        0.29214    0.61818    0.39353    1.000
    H25      H        0.09094    0.92184    0.75083    1.000
    N26      N        0.18707    0.80446    0.41428    1.000
    C26      C        0.20786    0.88182    0.39353    1.000
    H26      H        0.40906    0.57816    0.75083    1.000
    N27      N        0.18707    0.69554    0.08572    1.000
    C27      C        0.20786    0.61818    0.10647    1.000
    H27      H        0.40906    0.92184    0.74917    1.000
    N28      N        0.31293    0.80446    0.08572    1.000
    C28      C        0.29214    0.88182    0.10647    1.000
    H28      H        0.09094    0.57816    0.74917    1.000
    N29      N        0.41428    0.31293    0.69554    1.000
    C29      C        0.39353    0.29214    0.61818    1.000
    H29      H        0.75083    0.09094    0.92184    1.000
    N30      N        0.41428    0.18707    0.80446    1.000
    C30      C        0.39353    0.20786    0.88182    1.000
    H30      H        0.75083    0.40906    0.57816    1.000
    N31      N        0.08572    0.18707    0.69554    1.000
    C31      C        0.10647    0.20786    0.61818    1.000
    H31      H        0.74917    0.40906    0.92184    1.000
    N32      N        0.08572    0.31293    0.80446    1.000
    C32      C        0.10647    0.29214    0.88182    1.000
    H32      H        0.74917    0.09094    0.57816    1.000
    N33      N        0.69554    0.41428    0.31293    1.000
    C33      C        0.61818    0.39353    0.29214    1.000
    H33      H        0.92184    0.75083    0.09094    1.000
    N34      N        0.80446    0.41428    0.18707    1.000
    C34      C        0.88182    0.39353    0.20786    1.000
    H34      H        0.57816    0.75083    0.40906    1.000
    N35      N        0.69554    0.08572    0.18707    1.000
    C35      C        0.61818    0.10647    0.20786    1.000
    H35      H        0.92184    0.74917    0.40906    1.000
    N36      N        0.80446    0.08572    0.31293    1.000
    C36      C        0.88182    0.10647    0.29214    1.000
    H36      H        0.57816    0.74917    0.09094    1.000
    N37      N        0.19554    0.81293    0.58572    1.000
    C37      C        0.11818    0.79214    0.60647    1.000
    H37      H        0.42184    0.59094    0.24917    1.000
    N38      N        0.30446    0.68707    0.58572    1.000
    C38      C        0.38182    0.70786    0.60647    1.000
    H38      H        0.07816    0.90906    0.24917    1.000
    N39      N        0.19554    0.68707    0.91428    1.000
    C39      C        0.11818    0.70786    0.89353    1.000
    H39      H        0.42184    0.90906    0.25083    1.000
    N40      N        0.30446    0.81293    0.91428    1.000
    C40      C        0.38182    0.79214    0.89353    1.000
    H40      H        0.07816    0.59094    0.25083    1.000
    N41      N        0.81293    0.91428    0.30446    1.000
    C41      C        0.79214    0.89353    0.38182    1.000
    H41      H        0.59094    0.25083    0.07816    1.000
    N42      N        0.68707    0.91428    0.19554    1.000
    C42      C        0.70786    0.89353    0.11818    1.000
    H42      H        0.90906    0.25083    0.42184    1.000
    N43      N        0.68707    0.58572    0.30446    1.000
    C43      C        0.70786    0.60647    0.38182    1.000
    H43      H        0.90906    0.24917    0.07816    1.000
    N44      N        0.81293    0.58572    0.19554    1.000
    C44      C        0.79214    0.60647    0.11818    1.000
    H44      H        0.59094    0.24917    0.42184    1.000
    N45      N        0.91428    0.19554    0.68707    1.000
    C45      C        0.89353    0.11818    0.70786    1.000
    H45      H        0.25083    0.42184    0.90906    1.000
    N46      N        0.91428    0.30446    0.81293    1.000
    C46      C        0.89353    0.38182    0.79214    1.000
    H46      H        0.25083    0.07816    0.59094    1.000
    N47      N        0.58572    0.19554    0.81293    1.000
    C47      C        0.60647    0.11818    0.79214    1.000
    H47      H        0.24917    0.42184    0.59094    1.000
    N48      N        0.58572    0.30446    0.68707    1.000
    C48      C        0.60647    0.38182    0.70786    1.000
    H48      H        0.24917    0.07816    0.90906    1.000
    Pd1      Pd       0.75000    0.25000    0.50000    1.000
    Pd2      Pd       0.75000    0.25000    0.00000    1.000
    Pd3      Pd       0.50000    0.75000    0.25000    1.000
    Pd4      Pd       0.00000    0.75000    0.25000    1.000
    Pd5      Pd       0.25000    0.50000    0.75000    1.000
    Pd6      Pd       0.25000    0.00000    0.75000    1.000
    Pd7      Pd       0.25000    0.75000    0.50000    1.000
    Pd8      Pd       0.25000    0.75000    0.00000    1.000
    Pd9      Pd       0.50000    0.25000    0.75000    1.000
    Pd10     Pd       0.00000    0.25000    0.75000    1.000
    Pd11     Pd       0.75000    0.50000    0.25000    1.000
    Pd12     Pd       0.75000    0.00000    0.25000    1.000
    C49      C        0.62599    0.26577    0.62599    1.000
    C50      C        0.66756    0.42051    0.66756    1.000
    O1       O        0.60675    0.19414    0.60675    1.000
    F1       F        0.68835    0.49787    0.68835    1.000
    C51      C        0.87401    0.23423    0.62599    1.000
    C52      C        0.83244    0.07949    0.66756    1.000
    O2       O        0.89325    0.30586    0.60675    1.000
    F2       F        0.81165    0.00213    0.68835    1.000
    C53      C        0.87401    0.26577    0.87401    1.000
    C54      C        0.83244    0.42051    0.83244    1.000
    O3       O        0.89325    0.19414    0.89325    1.000
    F3       F        0.81165    0.49787    0.81165    1.000
    C55      C        0.62599    0.23423    0.87401    1.000
    C56      C        0.66756    0.07949    0.83244    1.000
    O4       O        0.60675    0.30586    0.89325    1.000
    F4       F        0.68835    0.00213    0.81165    1.000
    C57      C        0.62599    0.62599    0.26577    1.000
    C58      C        0.66756    0.66756    0.42051    1.000
    O5       O        0.60675    0.60675    0.19414    1.000
    F5       F        0.68835    0.68835    0.49787    1.000
    C59      C        0.62599    0.87401    0.23423    1.000
    C60      C        0.66756    0.83244    0.07949    1.000
    O6       O        0.60675    0.89325    0.30586    1.000
    F6       F        0.68835    0.81165    0.00213    1.000
    C61      C        0.87401    0.87401    0.26577    1.000
    C62      C        0.83244    0.83244    0.42051    1.000
    O7       O        0.89325    0.89325    0.19414    1.000
    F7       F        0.81165    0.81165    0.49787    1.000
    C63      C        0.87401    0.62599    0.23423    1.000
    C64      C        0.83244    0.66756    0.07949    1.000
    O8       O        0.89325    0.60675    0.30586    1.000
    F8       F        0.81165    0.68835    0.00213    1.000
    C65      C        0.26577    0.62599    0.62599    1.000
    C66      C        0.42051    0.66756    0.66756    1.000
    O9       O        0.19414    0.60675    0.60675    1.000
    F9       F        0.49787    0.68835    0.68835    1.000
    C67      C        0.23423    0.62599    0.87401    1.000
    C68      C        0.07949    0.66756    0.83244    1.000
    O10      O        0.30586    0.60675    0.89325    1.000
    F10      F        0.00213    0.68835    0.81165    1.000
    C69      C        0.26577    0.87401    0.87401    1.000
    C70      C        0.42051    0.83244    0.83244    1.000
    O11      O        0.19414    0.89325    0.89325    1.000
    F11      F        0.49787    0.81165    0.81165    1.000
    C71      C        0.23423    0.87401    0.62599    1.000
    C72      C        0.07949    0.83244    0.66756    1.000
    O12      O        0.30586    0.89325    0.60675    1.000
    F12      F        0.00213    0.81165    0.68835    1.000
    C73      C        0.76577    0.12599    0.37401    1.000
    C74      C        0.92051    0.16756    0.33244    1.000
    O13      O        0.69414    0.10675    0.39325    1.000
    F13      F        0.99787    0.18835    0.31165    1.000
    C75      C        0.73423    0.37401    0.37401    1.000
    C76      C        0.57949    0.33244    0.33244    1.000
    O14      O        0.80586    0.39325    0.39325    1.000
    F14      F        0.50213    0.31165    0.31165    1.000
    C77      C        0.76577    0.37401    0.12599    1.000
    C78      C        0.92051    0.33244    0.16756    1.000
    O15      O        0.69414    0.39325    0.10675    1.000
    F15      F        0.99787    0.31165    0.18835    1.000
    C79      C        0.73423    0.12599    0.12599    1.000
    C80      C        0.57949    0.16756    0.16756    1.000
    O16      O        0.80586    0.10675    0.10675    1.000
    F16      F        0.50213    0.18835    0.18835    1.000
    C81      C        0.12599    0.12599    0.73423    1.000
    C82      C        0.16756    0.16756    0.57949    1.000
    O17      O        0.10675    0.10675    0.80586    1.000
    F17      F        0.18835    0.18835    0.50213    1.000
    C83      C        0.37401    0.12599    0.76577    1.000
    C84      C        0.33244    0.16756    0.92051    1.000
    O18      O        0.39325    0.10675    0.69414    1.000
    F18      F        0.31165    0.18835    0.99787    1.000
    C85      C        0.37401    0.37401    0.73423    1.000
    C86      C        0.33244    0.33244    0.57949    1.000
    O19      O        0.39325    0.39325    0.80586    1.000
    F19      F        0.31165    0.31165    0.50213    1.000
    C87      C        0.12599    0.37401    0.76577    1.000
    C88      C        0.16756    0.33244    0.92051    1.000
    O20      O        0.10675    0.39325    0.69414    1.000
    F20      F        0.18835    0.31165    0.99787    1.000
    C89      C        0.12599    0.76577    0.37401    1.000
    C90      C        0.16756    0.92051    0.33244    1.000
    O21      O        0.10675    0.69414    0.39325    1.000
    F21      F        0.18835    0.99787    0.31165    1.000
    C91      C        0.12599    0.73423    0.12599    1.000
    C92      C        0.16756    0.57949    0.16756    1.000
    O22      O        0.10675    0.80586    0.10675    1.000
    F22      F        0.18835    0.50213    0.18835    1.000
    C93      C        0.37401    0.76577    0.12599    1.000
    C94      C        0.33244    0.92051    0.16756    1.000
    O23      O        0.39325    0.69414    0.10675    1.000
    F23      F        0.31165    0.99787    0.18835    1.000
    C95      C        0.37401    0.73423    0.37401    1.000
    C96      C        0.33244    0.57949    0.33244    1.000
    O24      O        0.39325    0.80586    0.39325    1.000
    F24      F        0.31165    0.50213    0.31165    1.000
