# CIF file generated by openbabel 3.1.0, see https://openbabel.org
data_I
_chemical_name_common 'UNACIW_clean'
_cell_length_a 8.4283
_cell_length_b 10.2553
_cell_length_c 17.712
_cell_angle_alpha 90
_cell_angle_beta 103.036
_cell_angle_gamma 90
_space_group_name_H-M_alt 'P 1'
_space_group_name_Hall 'P 1'
loop_
    _symmetry_equiv_pos_as_xyz
    x,y,z
loop_
    _atom_site_label
    _atom_site_type_symbol
    _atom_site_fract_x
    _atom_site_fract_y
    _atom_site_fract_z
    _atom_site_occupancy
    Cu1      Cu       0.32605    0.44224    0.93208    1.000
    Cu2      Cu       0.82605    0.05776    0.43208    1.000
    H1       H        0.36300    0.66170    0.59560    1.000
    H2       H        0.03340    0.23090    0.66920    1.000
    H3       H        0.31490    0.55020    0.69980    1.000
    H4       H        0.14190    0.41230    0.48520    1.000
    H5       H        0.39440    0.72760    0.36350    1.000
    H6       H        0.56460    0.89210    0.34200    1.000
    H7       H        0.56870    0.77340    0.59150    1.000
    H8       H        0.73390    0.93590    0.56510    1.000
    H9       H        0.86300    0.83830    0.09560    1.000
    H10      H        0.53340    0.26910    0.16920    1.000
    H11      H        0.81490    0.94980    0.19980    1.000
    H12      H        0.64190    0.08770    0.98520    1.000
    H13      H        0.89440    0.77240    0.86350    1.000
    H14      H        0.06460    0.60790    0.84200    1.000
    H15      H        0.06870    0.72660    0.09150    1.000
    H16      H        0.23390    0.56410    0.06510    1.000
    C1       C        0.98530    0.20630    0.51640    1.000
    C2       C        0.07800    0.30590    0.56970    1.000
    C3       C        0.08720    0.29710    0.64920    1.000
    C4       C        0.17830    0.38930    0.69760    1.000
    C5       C        0.25510    0.48820    0.66690    1.000
    C6       C        0.24480    0.49670    0.58780    1.000
    C7       C        0.15300    0.40600    0.53850    1.000
    C8       C        0.19370    0.38060    0.78340    1.000
    C9       C        0.35900    0.61660    0.49140    1.000
    C10      C        0.46310    0.73210    0.48090    1.000
    C11      C        0.46300    0.76870    0.40510    1.000
    C12      C        0.56620    0.86680    0.39260    1.000
    C13      C        0.56620    0.79570    0.54030    1.000
    C14      C        0.66590    0.89250    0.52420    1.000
    C15      C        0.48530    0.29370    0.01640    1.000
    C16      C        0.57800    0.19410    0.06970    1.000
    C17      C        0.58720    0.20290    0.14920    1.000
    C18      C        0.67830    0.11070    0.19760    1.000
    C19      C        0.75510    0.01180    0.16690    1.000
    C20      C        0.74480    0.00330    0.08780    1.000
    C21      C        0.65300    0.09400    0.03850    1.000
    C22      C        0.69370    0.11940    0.28340    1.000
    C23      C        0.85900    0.88340    0.99140    1.000
    C24      C        0.96310    0.76790    0.98090    1.000
    C25      C        0.96300    0.73130    0.90510    1.000
    C26      C        0.06620    0.63320    0.89260    1.000
    C27      C        0.06620    0.70430    0.04030    1.000
    C28      C        0.16590    0.60750    0.02420    1.000
    N1       N        0.32820    0.60130    0.56240    1.000
    N2       N        0.66870    0.92680    0.45110    1.000
    N3       N        0.82820    0.89870    0.06240    1.000
    N4       N        0.16870    0.57320    0.95110    1.000
    O1       O        0.96960    0.21500    0.44430    1.000
    O2       O        0.92060    0.10870    0.54150    1.000
    O3       O        0.11900    0.29940    0.81260    1.000
    O4       O        0.29290    0.46370    0.82360    1.000
    O5       O        0.31060    0.54150    0.43790    1.000
    O6       O        0.46960    0.28500    0.94430    1.000
    O7       O        0.42060    0.39130    0.04150    1.000
    O8       O        0.61900    0.20060    0.31260    1.000
    O9       O        0.79290    0.03630    0.32360    1.000
    O10      O        0.81060    0.95850    0.93790    1.000
    Cu3      Cu       0.17395    0.94224    0.56792    1.000
    Cu4      Cu       0.67395    0.55776    0.06792    1.000
    H17      H        0.13700    0.16170    0.90440    1.000
    H18      H        0.46660    0.73090    0.83080    1.000
    H19      H        0.18510    0.05020    0.80020    1.000
    H20      H        0.35810    0.91230    0.01480    1.000
    H21      H        0.10560    0.22760    0.13650    1.000
    H22      H        0.93540    0.39210    0.15800    1.000
    H23      H        0.93130    0.27340    0.90850    1.000
    H24      H        0.76610    0.43590    0.93490    1.000
    H25      H        0.63700    0.33830    0.40440    1.000
    H26      H        0.96660    0.76910    0.33080    1.000
    H27      H        0.68510    0.44980    0.30020    1.000
    H28      H        0.85810    0.58770    0.51480    1.000
    H29      H        0.60560    0.27240    0.63650    1.000
    H30      H        0.43540    0.10790    0.65800    1.000
    H31      H        0.43130    0.22660    0.40850    1.000
    H32      H        0.26610    0.06410    0.43490    1.000
    C29      C        0.51470    0.70630    0.98360    1.000
    C30      C        0.42200    0.80590    0.93030    1.000
    C31      C        0.41280    0.79710    0.85080    1.000
    C32      C        0.32170    0.88930    0.80240    1.000
    C33      C        0.24490    0.98820    0.83310    1.000
    C34      C        0.25520    0.99670    0.91220    1.000
    C35      C        0.34700    0.90600    0.96150    1.000
    C36      C        0.30630    0.88060    0.71660    1.000
    C37      C        0.14100    0.11660    0.00860    1.000
    C38      C        0.03690    0.23210    0.01910    1.000
    C39      C        0.03700    0.26870    0.09490    1.000
    C40      C        0.93380    0.36680    0.10740    1.000
    C41      C        0.93380    0.29570    0.95970    1.000
    C42      C        0.83410    0.39250    0.97580    1.000
    C43      C        0.01470    0.79370    0.48360    1.000
    C44      C        0.92200    0.69410    0.43030    1.000
    C45      C        0.91280    0.70290    0.35080    1.000
    C46      C        0.82170    0.61070    0.30240    1.000
    C47      C        0.74490    0.51180    0.33310    1.000
    C48      C        0.75520    0.50330    0.41220    1.000
    C49      C        0.84700    0.59400    0.46150    1.000
    C50      C        0.80630    0.61940    0.21660    1.000
    C51      C        0.64100    0.38340    0.50860    1.000
    C52      C        0.53690    0.26790    0.51910    1.000
    C53      C        0.53700    0.23130    0.59490    1.000
    C54      C        0.43380    0.13320    0.60740    1.000
    C55      C        0.43380    0.20430    0.45970    1.000
    C56      C        0.33410    0.10750    0.47580    1.000
    N5       N        0.17180    0.10130    0.93760    1.000
    N6       N        0.83130    0.42680    0.04890    1.000
    N7       N        0.67180    0.39870    0.43760    1.000
    N8       N        0.33130    0.07320    0.54890    1.000
    O11      O        0.53040    0.71500    0.05570    1.000
    O12      O        0.57940    0.60870    0.95850    1.000
    O13      O        0.38100    0.79940    0.68740    1.000
    O14      O        0.20710    0.96370    0.67640    1.000
    O15      O        0.18940    0.04150    0.06210    1.000
    O16      O        0.03040    0.78500    0.55570    1.000
    O17      O        0.07940    0.89130    0.45850    1.000
    O18      O        0.88100    0.70060    0.18740    1.000
    O19      O        0.70710    0.53630    0.17640    1.000
    O20      O        0.68940    0.45850    0.56210    1.000
