data_functionalizedCrystal
_audit_creation_method	'EQeq! by Chris Wilmer'
_symmetry_space_group_name_H-M	'P1'
_symmetry_Int_Tables_number	1
_symmetry_cell_setting	triclinic
loop_
_symmetry_equiv_pos_as_xyz
  x,y,z
_cell_length_a	15.3042
_cell_length_b	15.5719
_cell_length_c	16.3522
_cell_angle_alpha	104.723
_cell_angle_beta	105.151
_cell_angle_gamma	101.628
loop_
_atom_site_label
_atom_site_type_symbol
_atom_site_fract_x
_atom_site_fract_y
_atom_site_fract_z
_atom_site_charge
Mof_Cd	Cd	0.75102	0.9663	0.53891	0.472
Mof_Cd	Cd	0.57445	0.04	0.12388	0.491
Mof_Cd	Cd	0.64238	0.00264	0.33746	0.459
Mof_O 	O 	0.61128	0.8468	0.49752	-0.277
Mof_O 	O 	0.59191	0.96392	0.45	-0.282
Mof_O 	O 	0.15733	0.83111	0.22426	-0.261
Mof_O 	O 	0.25023	0.96579	0.32065	-0.279
Mof_O 	O 	0.1092	0.12175	0.0984	-0.299
Mof_O 	O 	0.1641	0.09203	0.22661	-0.299
Mof_O 	O 	0.3887	0.566	0.4394	-0.238
Mof_N 	N 	0.2949	0.5937	0.3223	-0.239
Mof_H 	H 	0.2456	0.5667	0.2733	0.128
Mof_C 	C 	0.456	0.8341	0.4086	-0.013
Mof_C 	C 	0.4243	0.7397	0.3968	-0.114
Mof_H 	H 	0.4664	0.7091	0.4226	0.098
Mof_C 	C 	0.3304	0.691	0.3468	0.142
Mof_C 	C 	0.2686	0.7369	0.3119	-0.113
Mof_H 	H 	0.2047	0.7035	0.2777	0.089
Mof_C 	C 	0.2999	0.8311	0.3267	-0.015
Mof_C 	C 	0.3942	0.8799	0.3745	-0.03
Mof_H 	H 	0.4159	0.9443	0.3836	0.063
Mof_C 	C 	0.2842	0.4361	0.3158	-0.044
Mof_C 	C 	0.285	0.374	0.3636	-0.036
Mof_H 	H 	0.3132	0.3966	0.4269	0.056
Mof_C 	C 	0.2452	0.2797	0.3202	-0.027
Mof_H 	H 	0.2461	0.238	0.3536	0.061
Mof_C 	C 	0.2042	0.2465	0.2282	-0.063
Mof_C 	C 	0.205	0.3074	0.1795	-0.016
Mof_H 	H 	0.178	0.2844	0.1161	0.053
Mof_C 	C 	0.2451	0.4015	0.223	-0.038
Mof_H 	H 	0.246	0.4428	0.1892	0.041
Mof_C 	C 	0.3277	0.5374	0.3653	0.216
Mof_C 	C 	0.5593	0.8843	0.4548	0.277
Mof_C 	C 	0.231	0.8784	0.2886	0.28
Mof_C 	C 	0.1553	0.1447	0.1801	0.316
Mof_O 	O 	0.7218	0.1322	0.1824	-0.271
Mof_O 	O 	0.72858	0.0213	0.24341	-0.285
Mof_O 	O 	0.17409	0.1417	0.4438	-0.267
Mof_O 	O 	0.0734	0.01148	0.3445	-0.267
Mof_O 	O 	0.2793	0.86323	0.56097	-0.286
Mof_O 	O 	0.172	0.89337	0.45857	-0.277
Mof_O 	O 	0.9036	0.4317	0.3187	-0.233
Mof_N 	N 	0.025	0.3923	0.3959	-0.246
Mof_H 	H 	0.082	0.4155	0.4358	0.129
Mof_C 	C 	0.8668	0.1497	0.2901	-0.014
Mof_C 	C 	0.8951	0.2463	0.3159	-0.113
Mof_H 	H 	0.8508	0.2788	0.2991	0.103
Mof_C 	C 	0.9888	0.2943	0.3666	0.157
Mof_C 	C 	0.0528	0.2453	0.39	-0.122
Mof_H 	H 	0.1165	0.2781	0.426	0.086
Mof_C 	C 	0.0246	0.1493	0.3613	-0.015
Mof_C 	C 	0.931	0.1011	0.3117	-0.032
Mof_H 	H 	0.9111	0.0353	0.2927	0.068
Mof_C 	C 	0.044	0.5535	0.4073	-0.074
Mof_C 	C 	0.9996	0.6212	0.3959	0.011
Mof_H 	H 	0.9329	0.604	0.3689	0.05
Mof_C 	C 	0.0512	0.7131	0.4233	-0.046
Mof_H 	H 	0.0198	0.7581	0.4133	0.069
Mof_C 	C 	0.1474	0.7404	0.4647	-0.039
Mof_C 	C 	0.1924	0.6739	0.4778	-0.038
Mof_H 	H 	0.2588	0.6917	0.5067	0.061
Mof_C 	C 	0.1411	0.5814	0.449	-0.008
Mof_H 	H 	0.173	0.5365	0.458	0.032
Mof_C 	C 	0.9839	0.4544	0.3708	0.244
Mof_C 	C 	0.7653	0.0973	0.2356	0.287
Mof_C 	C 	0.0952	0.0975	0.3837	0.283
Mof_C 	C 	0.2039	0.8409	0.497	0.307
Mof_O 	O 	0.5672	0.09698	0.27078	-0.312
Mof_N 	N 	0.5439	0.2365	0.3162	-0.115
Mof_C 	C 	0.4855	0.2953	0.3407	-0.29
Mof_H 	H 	0.4285	0.2576	0.3453	0.118
Mof_H 	H 	0.4673	0.3244	0.2948	0.124
Mof_H 	H 	0.5213	0.3435	0.3986	0.14
Mof_C 	C 	0.6349	0.2796	0.305	-0.301
Mof_H 	H 	0.6659	0.2317	0.2885	0.151
Mof_H 	H 	0.6763	0.3271	0.3615	0.132
Mof_H 	H 	0.622	0.308	0.2578	0.138
Mof_C 	C 	0.5188	0.1501	0.2968	0.381
Mof_C 	C 	0.4224	0.1045	0.3019	-0.73
Mof_H 	H 	0.411	0.0371	0.284	0.26
Mof_H 	H 	0.3726	0.1195	0.2615	0.253
Mof_H 	H 	0.4221	0.1277	0.3634	0.261
Mof_Cd	Cd	0.90758	0.05157	0.79284	0.465
Mof_O 	O 	0.0528	0.1489	0.8498	-0.265
Mof_O 	O 	0.06501	0.02805	0.89453	-0.285
Mof_O 	O 	0.5085	0.1546	0.1067	-0.272
Mof_O 	O 	0.4085	0.0209	0.0132	-0.279
Mof_O 	O 	0.5049	0.89637	0.10811	-0.278
Mof_O 	O 	0.5272	0.88218	0.24428	-0.289
Mof_O 	O 	0.275	0.4235	0.9221	-0.219
Mof_N 	N 	0.3598	0.4006	0.0476	-0.237
Mof_H 	H 	0.4017	0.4286	0.1014	0.125
Mof_C 	C 	0.2029	0.1575	0.9435	-0.018
Mof_C 	C 	0.2333	0.2534	0.966	-0.095
Mof_H 	H 	0.1904	0.2857	0.9453	0.101
Mof_C 	C 	0.3263	0.3024	0.0186	0.128
Mof_C 	C 	0.3884	0.2544	0.0484	-0.101
Mof_H 	H 	0.451	0.2874	0.0871	0.076
Mof_C 	C 	0.3593	0.1584	0.0218	-0.033
Mof_C 	C 	0.2659	0.1093	0.9703	-0.019
Mof_H 	H 	0.2456	0.0437	0.9537	0.065
Mof_C 	C 	0.3762	0.5568	0.0431	-0.061
Mof_C 	C 	0.3878	0.6113	0.9899	0.003
Mof_H 	H 	0.3699	0.5831	0.9269	0.048
Mof_C 	C 	0.4251	0.7067	0.0271	-0.047
Mof_H 	H 	0.4329	0.7435	0.9898	0.076
Mof_C 	C 	0.4512	0.7484	0.119	-0.041
Mof_C 	C 	0.438	0.694	0.1725	-0.029
Mof_H 	H 	0.4543	0.7221	0.2353	0.061
Mof_C 	C 	0.4011	0.5989	0.1347	-0.016
Mof_H 	H 	0.3928	0.5621	0.1718	0.035
Mof_C 	C 	0.3319	0.4547	0.998	0.229
Mof_C 	C 	0.1003	0.108	0.8931	0.285
Mof_C 	C 	0.4299	0.1085	0.0489	0.284
Mof_C 	C 	0.4981	0.8512	0.1606	0.317
Mof_Cd	Cd	0.24898	0.0337	0.46109	0.452
Mof_Cd	Cd	0.42555	0.96	0.87612	0.511
Mof_Cd	Cd	0.35762	0.99736	0.66254	0.478
Mof_O 	O 	0.38872	0.1532	0.50248	-0.279
Mof_O 	O 	0.40809	0.03608	0.55	-0.295
Mof_O 	O 	0.84267	0.16889	0.77574	-0.259
Mof_O 	O 	0.74977	0.03421	0.67935	-0.294
Mof_O 	O 	0.8908	0.87825	0.9016	-0.286
Mof_O 	O 	0.8359	0.90797	0.77339	-0.288
Mof_O 	O 	0.6113	0.434	0.5606	-0.238
Mof_N 	N 	0.7051	0.4063	0.6777	-0.239
Mof_H 	H 	0.7544	0.4333	0.7267	0.13
Mof_C 	C 	0.544	0.1659	0.5914	-0.018
Mof_C 	C 	0.5757	0.2603	0.6032	-0.111
Mof_H 	H 	0.5336	0.2909	0.5774	0.097
Mof_C 	C 	0.6696	0.309	0.6532	0.141
Mof_C 	C 	0.7314	0.2631	0.6881	-0.11
Mof_H 	H 	0.7953	0.2965	0.7223	0.09
Mof_C 	C 	0.7001	0.1689	0.6733	-0.02
Mof_C 	C 	0.6058	0.1201	0.6255	-0.027
Mof_H 	H 	0.5841	0.0557	0.6164	0.055
Mof_C 	C 	0.7158	0.5639	0.6842	-0.044
Mof_C 	C 	0.715	0.626	0.6364	-0.034
Mof_H 	H 	0.6868	0.6034	0.5731	0.055
Mof_C 	C 	0.7548	0.7203	0.6798	-0.029
Mof_H 	H 	0.7539	0.762	0.6464	0.062
Mof_C 	C 	0.7958	0.7535	0.7718	-0.059
Mof_C 	C 	0.795	0.6926	0.8205	-0.018
Mof_H 	H 	0.822	0.7156	0.8839	0.057
Mof_C 	C 	0.7549	0.5985	0.777	-0.036
Mof_H 	H 	0.754	0.5572	0.8108	0.042
Mof_C 	C 	0.6723	0.4626	0.6347	0.217
Mof_C 	C 	0.4407	0.1157	0.5452	0.279
Mof_C 	C 	0.769	0.1216	0.7114	0.282
Mof_C 	C 	0.8447	0.8553	0.8199	0.314
Mof_O 	O 	0.2782	0.8678	0.8176	-0.268
Mof_O 	O 	0.27142	0.9787	0.75659	-0.278
Mof_O 	O 	0.82591	0.8583	0.5562	-0.264
Mof_O 	O 	0.9266	0.98852	0.6555	-0.25
Mof_O 	O 	0.7207	0.13677	0.43903	-0.291
Mof_O 	O 	0.828	0.10663	0.54143	-0.288
Mof_O 	O 	0.0964	0.5683	0.6813	-0.223
Mof_N 	N 	0.975	0.6077	0.6041	-0.224
Mof_H 	H 	0.918	0.5845	0.5642	0.125
Mof_C 	C 	0.1332	0.8503	0.7099	-0.011
Mof_C 	C 	0.1049	0.7537	0.6841	-0.105
Mof_H 	H 	0.1492	0.7212	0.7009	0.1
Mof_C 	C 	0.0112	0.7057	0.6334	0.131
Mof_C 	C 	0.9472	0.7547	0.61	-0.102
Mof_H 	H 	0.8835	0.7219	0.574	0.081
Mof_C 	C 	0.9754	0.8507	0.6387	-0.001
Mof_C 	C 	0.069	0.8989	0.6883	-0.048
Mof_H 	H 	0.0889	0.9647	0.7073	0.076
Mof_C 	C 	0.956	0.4465	0.5927	-0.008
Mof_C 	C 	0.0004	0.3788	0.6041	-0.068
Mof_H 	H 	0.0671	0.396	0.6311	0.073
Mof_C 	C 	0.9488	0.2869	0.5767	0.016
Mof_H 	H 	0.9802	0.2419	0.5867	0.052
Mof_C 	C 	0.8526	0.2596	0.5353	-0.074
Mof_C 	C 	0.8076	0.3261	0.5222	0.001
Mof_H 	H 	0.7412	0.3083	0.4933	0.048
Mof_C 	C 	0.8589	0.4186	0.551	-0.053
Mof_H 	H 	0.827	0.4635	0.542	0.048
Mof_C 	C 	0.0161	0.5456	0.6292	0.202
Mof_C 	C 	0.2347	0.9027	0.7644	0.286
Mof_C 	C 	0.9048	0.9025	0.6163	0.28
Mof_C 	C 	0.7961	0.1591	0.503	0.321
Mof_O 	O 	0.4328	0.90302	0.72922	-0.312
Mof_N 	N 	0.4561	0.7635	0.6838	-0.117
Mof_C 	C 	0.5145	0.7047	0.6593	-0.289
Mof_H 	H 	0.5715	0.7424	0.6547	0.118
Mof_H 	H 	0.5327	0.6756	0.7052	0.124
Mof_H 	H 	0.4787	0.6565	0.6014	0.139
Mof_C 	C 	0.3651	0.7204	0.695	-0.3
Mof_H 	H 	0.3341	0.7683	0.7115	0.15
Mof_H 	H 	0.3237	0.6729	0.6385	0.131
Mof_H 	H 	0.378	0.692	0.7422	0.138
Mof_C 	C 	0.4812	0.8499	0.7032	0.386
Mof_C 	C 	0.5776	0.8955	0.6981	-0.742
Mof_H 	H 	0.589	0.9629	0.716	0.271
Mof_H 	H 	0.6274	0.8805	0.7385	0.259
Mof_H 	H 	0.5779	0.8723	0.6366	0.267
Mof_Cd	Cd	0.09242	0.94843	0.20716	0.474
Mof_O 	O 	0.9472	0.8511	0.1502	-0.255
Mof_O 	O 	0.93499	0.97195	0.10547	-0.27
Mof_O 	O 	0.4915	0.8454	0.8933	-0.269
Mof_O 	O 	0.5915	0.9791	0.9868	-0.259
Mof_O 	O 	0.4951	0.10363	0.89189	-0.289
Mof_O 	O 	0.4728	0.11782	0.75572	-0.302
Mof_O 	O 	0.725	0.5765	0.0779	-0.211
Mof_N 	N 	0.6402	0.5994	0.9524	-0.231
Mof_H 	H 	0.5983	0.5714	0.8986	0.124
Mof_C 	C 	0.7971	0.8425	0.0565	0.003
Mof_C 	C 	0.7667	0.7466	0.034	-0.122
Mof_H 	H 	0.8096	0.7143	0.0547	0.109
Mof_C 	C 	0.6737	0.6976	0.9814	0.151
Mof_C 	C 	0.6116	0.7456	0.9516	-0.119
Mof_H 	H 	0.549	0.7126	0.9129	0.082
Mof_C 	C 	0.6407	0.8416	0.9782	-0.005
Mof_C 	C 	0.7341	0.8907	0.0297	-0.048
Mof_H 	H 	0.7544	0.9563	0.0463	0.078
Mof_C 	C 	0.6238	0.4432	0.9569	-0.004
Mof_C 	C 	0.6122	0.3887	0.0101	-0.071
Mof_H 	H 	0.6301	0.4169	0.0731	0.072
Mof_C 	C 	0.5749	0.2933	0.9729	0.026
Mof_H 	H 	0.5671	0.2565	0.0102	0.046
Mof_C 	C 	0.5488	0.2516	0.881	-0.079
Mof_C 	C 	0.562	0.306	0.8275	0.009
Mof_H 	H 	0.5457	0.2779	0.7647	0.048
Mof_C 	C 	0.5989	0.4011	0.8653	-0.058
Mof_H 	H 	0.6072	0.4379	0.8282	0.049
Mof_C 	C 	0.6681	0.5453	0.002	0.197
Mof_C 	C 	0.8997	0.892	0.1069	0.276
Mof_C 	C 	0.5701	0.8915	0.9511	0.275
Mof_C 	C 	0.5019	0.1488	0.8394	0.333
Mof_Cd	Cd	-0	0	-0	0.418
_end
