# CIF file generated by openbabel 3.1.0, see https://openbabel.org
data_I
_chemical_name_common 'image0'
_cell_length_a 11.691
_cell_length_b 13.492
_cell_length_c 20.615
_cell_angle_alpha 89.274
_cell_angle_beta 76.749
_cell_angle_gamma 66.93
_space_group_name_H-M_alt 'P 1'
_space_group_name_Hall 'P 1'
loop_
    _symmetry_equiv_pos_as_xyz
    x,y,z
loop_
    _atom_site_label
    _atom_site_type_symbol
    _atom_site_fract_x
    _atom_site_fract_y
    _atom_site_fract_z
    _atom_site_occupancy
    Mo1      Mo       0.00318    0.73687    0.47230    1.000
    Mo2      Mo       0.73584    0.94053    0.58372    1.000
    Mo3      Mo       0.79362    0.96588    0.40969    1.000
    Mo4      Mo       0.77365    0.23151    0.44623    1.000
    Mo5      Mo       0.95693    0.95393    0.67253    1.000
    Mo6      Mo       0.74360    0.19599    0.61967    1.000
    O1       O        0.91300    0.93460    0.49280    1.000
    O2       O        0.90290    0.01710    0.56730    1.000
    O3       O        0.85610    0.79730    0.54320    1.000
    O4       O        0.91910    0.98330    0.34130    1.000
    O5       O        0.71900    0.98200    0.50380    1.000
    O6       O        0.83560    0.91270    0.64950    1.000
    O7       O        0.14220    0.73840    0.39750    1.000
    O8       O        0.89700    0.81900    0.41340    1.000
    O9       O        0.90720    0.17900    0.36510    1.000
    O10      O        0.83730    0.10060    0.67510    1.000
    O11      O        0.66930    0.08950    0.61000    1.000
    O12      O        0.93520    0.04610    0.44470    1.000
    O13      O        0.11760    0.70890    0.52780    1.000
    O14      O        0.69540    0.23780    0.53750    1.000
    O15      O        0.71860    0.12320    0.42650    1.000
    O16      O        0.69540    0.94880    0.36600    1.000
    O17      O        0.09200    0.88200    0.48220    1.000
    Cu1      Cu       0.53030    0.19110    0.37319    1.000
    Cl1      Cl       0.61800    0.14020    0.26900    1.000
    Cu2      Cu       0.51230    0.31250    0.21833    1.000
    Cu3      Cu       0.29050    0.85360    0.10913    1.000
    Cu4      Cu       0.68270    0.93880    0.26475    1.000
    Cu5      Cu       0.87170    0.52120    0.34411    1.000
    N1       N        0.42060    0.27000    0.45560    1.000
    N2       N        0.77170    0.45380    0.30460    1.000
    N3       N        0.32560    0.37710    0.26770    1.000
    N4       N        0.86480    0.89100    0.21550    1.000
    N5       N        0.62980    0.18990    0.98520    1.000
    N6       N        0.74910    0.61670    0.42420    1.000
    N7       N        0.11580    0.85780    0.15030    1.000
    N8       N        0.54970    0.26040    0.12150    1.000
    N9       N        0.38110    0.88290    0.17350    1.000
    N10      N        0.62450    0.37620    0.24980    1.000
    N11      N        0.05610    0.46510    0.32210    1.000
    N12      N        0.53870    0.91770    0.24370    1.000
    C1       C        0.75170    0.32060    0.23940    1.000
    H1       H        0.79220    0.25580    0.21250    1.000
    C2       C        0.82420    0.36040    0.26930    1.000
    H2       H        0.91130    0.31920    0.26380    1.000
    C3       C        0.73400    0.57200    0.48320    1.000
    H3       H        0.78420    0.49910    0.48300    1.000
    C4       C        0.40900    0.22200    0.51520    1.000
    H4       H        0.45750    0.14860    0.51590    1.000
    C5       C        0.67100    0.72010    0.42780    1.000
    H5       H        0.67260    0.75490    0.38860    1.000
    C6       C        0.96380    0.82910    0.23690    1.000
    H6       H        0.95090    0.79440    0.27540    1.000
    C7       C        0.57050    0.29810    0.00880    1.000
    H7       H        0.55870    0.35060    0.97850    1.000
    C8       C        0.89400    0.93500    0.15890    1.000
    H8       H        0.82700    0.98290    0.14260    1.000
    C9       C        0.26260    0.31900    0.30270    1.000
    H9       H        0.31000    0.24790    0.30980    1.000
    C10      C        0.59600    0.15590    0.10140    1.000
    H10      H        0.59950    0.10550    0.13290    1.000
    C11      C        0.09020    0.81320    0.20300    1.000
    H11      H        0.15760    0.76800    0.22020    1.000
    C12      C        0.57720    0.47190    0.28340    1.000
    H12      H        0.49150    0.51640    0.28730    1.000
    C13      C        0.01750    0.91430    0.12320    1.000
    H13      H        0.03250    0.93890    0.08100    1.000
    C14      C        0.45180    0.99800    0.22030    1.000
    H14      H        0.44370    0.06860    0.22880    1.000
    C15      C        0.64740    0.50800    0.31230    1.000
    H15      H        0.60680    0.57350    0.33860    1.000
    C16      C        0.12400    0.52170    0.28770    1.000
    H16      H        0.07880    0.59310    0.28020    1.000
    C17      C        0.54160    0.82040    0.23320    1.000
    H17      H        0.59960    0.76140    0.24860    1.000
    C18      C        0.25030    0.47890    0.26490    1.000
    H18      H        0.28880    0.52420    0.24530    1.000
    C19      C        0.52820    0.32980    0.07700    1.000
    H19      H        0.48330    0.40290    0.09110    1.000
    C20      C        0.37420    0.98200    0.18440    1.000
    H20      H        0.31710    0.04020    0.16780    1.000
    C21      C        0.63800    0.12250    0.03480    1.000
    H21      H        0.67510    0.04850    0.02270    1.000
    C22      C        0.13380    0.36080    0.32750    1.000
    H22      H        0.09650    0.31620    0.34940    1.000
    C23      C        0.45880    0.80490    0.19930    1.000
    H23      H        0.45930    0.73620    0.19510    1.000
    C24      C        0.34500    0.37700    0.45740    1.000
    H24      H        0.34850    0.41400    0.41910    1.000
    O18      O        0.68400    0.95100    0.49670    1.000
    Mo7      Mo       0.99682    0.26313    0.52770    1.000
    Mo8      Mo       0.26416    0.05947    0.41628    1.000
    Mo9      Mo       0.20638    0.03412    0.59031    1.000
    Mo10     Mo       0.22635    0.76849    0.55377    1.000
    Mo11     Mo       0.04307    0.04607    0.32747    1.000
    Mo12     Mo       0.25640    0.80401    0.38033    1.000
    O19      O        0.08700    0.06540    0.50720    1.000
    O20      O        0.09710    0.98290    0.43270    1.000
    O21      O        0.14390    0.20270    0.45680    1.000
    O22      O        0.08090    0.01670    0.65870    1.000
    O23      O        0.28100    0.01800    0.49620    1.000
    O24      O        0.16440    0.08730    0.35050    1.000
    O25      O        0.85780    0.26160    0.60250    1.000
    O26      O        0.10300    0.18100    0.58660    1.000
    O27      O        0.09280    0.82100    0.63490    1.000
    O28      O        0.16270    0.89940    0.32490    1.000
    O29      O        0.33070    0.91050    0.39000    1.000
    O30      O        0.06480    0.95390    0.55530    1.000
    O31      O        0.88240    0.29110    0.47220    1.000
    O32      O        0.30460    0.76220    0.46250    1.000
    O33      O        0.28140    0.87680    0.57350    1.000
    O34      O        0.30460    0.05120    0.63400    1.000
    O35      O        0.90800    0.11800    0.51780    1.000
    Cu6      Cu       0.46970    0.80890    0.62681    1.000
    Cl2      Cl       0.38200    0.85980    0.73100    1.000
    Cu7      Cu       0.48770    0.68750    0.78167    1.000
    Cu8      Cu       0.70950    0.14640    0.89087    1.000
    Cu9      Cu       0.31730    0.06120    0.73525    1.000
    Cu10     Cu       0.12830    0.47880    0.65589    1.000
    N13      N        0.57940    0.73000    0.54440    1.000
    N14      N        0.22830    0.54620    0.69540    1.000
    N15      N        0.67440    0.62290    0.73230    1.000
    N16      N        0.13520    0.10900    0.78450    1.000
    N17      N        0.37020    0.81010    0.01480    1.000
    N18      N        0.25090    0.38330    0.57580    1.000
    N19      N        0.88420    0.14220    0.84970    1.000
    N20      N        0.45030    0.73960    0.87850    1.000
    N21      N        0.61890    0.11710    0.82650    1.000
    N22      N        0.37550    0.62380    0.75020    1.000
    N23      N        0.94390    0.53490    0.67790    1.000
    N24      N        0.46130    0.08230    0.75630    1.000
    C25      C        0.24830    0.67940    0.76060    1.000
    H25      H        0.20780    0.74420    0.78750    1.000
    C26      C        0.17580    0.63960    0.73070    1.000
    H26      H        0.08870    0.68080    0.73620    1.000
    C27      C        0.26600    0.42800    0.51680    1.000
    H27      H        0.21580    0.50090    0.51700    1.000
    C28      C        0.59100    0.77800    0.48480    1.000
    H28      H        0.54250    0.85140    0.48410    1.000
    C29      C        0.32900    0.27990    0.57220    1.000
    H29      H        0.32740    0.24510    0.61140    1.000
    C30      C        0.03620    0.17090    0.76310    1.000
    H30      H        0.04910    0.20560    0.72460    1.000
    C31      C        0.42950    0.70190    0.99120    1.000
    H31      H        0.44130    0.64940    0.02150    1.000
    C32      C        0.10600    0.06500    0.84110    1.000
    H32      H        0.17300    0.01710    0.85740    1.000
    C33      C        0.73740    0.68100    0.69730    1.000
    H33      H        0.69000    0.75210    0.69020    1.000
    C34      C        0.40400    0.84410    0.89860    1.000
    H34      H        0.40050    0.89450    0.86710    1.000
    C35      C        0.90980    0.18680    0.79700    1.000
    H35      H        0.84240    0.23200    0.77980    1.000
    C36      C        0.42280    0.52810    0.71660    1.000
    H36      H        0.50850    0.48360    0.71270    1.000
    C37      C        0.98250    0.08570    0.87680    1.000
    H37      H        0.96750    0.06110    0.91900    1.000
    C38      C        0.54820    0.00200    0.77970    1.000
    H38      H        0.55630    0.93140    0.77120    1.000
    C39      C        0.35260    0.49200    0.68770    1.000
    H39      H        0.39320    0.42650    0.66140    1.000
    C40      C        0.87600    0.47830    0.71230    1.000
    H40      H        0.92120    0.40690    0.71980    1.000
    C41      C        0.45840    0.17960    0.76680    1.000
    H41      H        0.40040    0.23860    0.75140    1.000
    C42      C        0.74970    0.52110    0.73510    1.000
    H42      H        0.71120    0.47580    0.75470    1.000
    C43      C        0.47180    0.67020    0.92300    1.000
    H43      H        0.51670    0.59710    0.90890    1.000
    C44      C        0.62580    0.01800    0.81560    1.000
    H44      H        0.68290    0.95980    0.83220    1.000
    C45      C        0.36200    0.87750    0.96520    1.000
    H45      H        0.32490    0.95150    0.97730    1.000
    C46      C        0.86620    0.63920    0.67250    1.000
    H46      H        0.90350    0.68380    0.65060    1.000
    C47      C        0.54120    0.19510    0.80070    1.000
    H47      H        0.54070    0.26380    0.80490    1.000
    C48      C        0.65500    0.62300    0.54260    1.000
    H48      H        0.65150    0.58600    0.58090    1.000
    O36      O        0.31600    0.04900    0.50330    1.000
    P1       P        0.00000    0.00000    0.50000    1.000
