# CIF file generated by openbabel 3.1.0, see https://openbabel.org
data_I
_chemical_name_common 'MOHSEJ_clean'
_cell_length_a 16.8243
_cell_length_b 18.1094
_cell_length_c 17.2672
_cell_angle_alpha 110.957
_cell_angle_beta 90
_cell_angle_gamma 90
_space_group_name_H-M_alt 'P 1'
_space_group_name_Hall 'P 1'
loop_
    _symmetry_equiv_pos_as_xyz
    x,y,z
loop_
    _atom_site_label
    _atom_site_type_symbol
    _atom_site_fract_x
    _atom_site_fract_y
    _atom_site_fract_z
    _atom_site_occupancy
    Co1      Co       0.32987    0.14995    0.42774    1.000
    Co2      Co       0.31734    0.84147    0.50418    1.000
    Co3      Co       0.89971    0.67582    0.29437    1.000
    Co4      Co       0.39971    0.32418    0.20563    1.000
    Co5      Co       0.25848    0.59607    0.66036    1.000
    Co6      Co       0.60029    0.67582    0.79437    1.000
    Co7      Co       0.18266    0.84147    0.00418    1.000
    Co8      Co       0.74152    0.40393    0.33964    1.000
    Co9      Co       0.75848    0.40393    0.83964    1.000
    Co10     Co       0.17013    0.14995    0.92774    1.000
    Co11     Co       0.81734    0.15853    0.99582    1.000
    Co12     Co       0.24152    0.59607    0.16036    1.000
    Co13     Co       0.68266    0.15853    0.49582    1.000
    Co14     Co       0.50000    0.00000    0.00000    1.000
    Co15     Co       0.82987    0.85005    0.07226    1.000
    Co16     Co       0.67013    0.85005    0.57226    1.000
    Co17     Co       0.00000    0.00000    0.50000    1.000
    Co18     Co       0.10029    0.32418    0.70563    1.000
    H1       H        0.71500    0.37500    0.13700    1.000
    H2       H        0.78000    0.56800    0.62400    1.000
    H3       H        0.00500    0.09100    0.84200    1.000
    H4       H        0.11500    0.74300    0.23400    1.000
    H5       H        0.29800    0.29800    0.96900    1.000
    H6       H        0.61500    0.25700    0.26600    1.000
    H7       H        0.28500    0.62500    0.86300    1.000
    H8       H        0.22000    0.43200    0.37600    1.000
    H9       H        0.19200    0.03800    0.48900    1.000
    H10      H        0.20200    0.29800    0.46900    1.000
    H11      H        0.38500    0.74300    0.73400    1.000
    H12      H        0.30800    0.03800    0.98900    1.000
    H13      H        0.72000    0.56800    0.12400    1.000
    H14      H        0.49500    0.09100    0.34200    1.000
    H15      H        0.21500    0.62500    0.36300    1.000
    H16      H        0.70200    0.70200    0.03100    1.000
    H17      H        0.28000    0.43200    0.87600    1.000
    H18      H        0.79800    0.70200    0.53100    1.000
    H19      H        0.80800    0.96200    0.51100    1.000
    H20      H        0.99500    0.90900    0.15800    1.000
    H21      H        0.50500    0.90900    0.65800    1.000
    H22      H        0.78500    0.37500    0.63700    1.000
    H23      H        0.69200    0.96200    0.01100    1.000
    H24      H        0.88500    0.25700    0.76600    1.000
    C1       C        0.39570    0.91810    0.66480    1.000
    C2       C        0.77740    0.55690    0.20940    1.000
    C3       C        0.40040    0.32620    0.03720    1.000
    C4       C        0.79530    0.65730    0.15160    1.000
    C5       C        0.78970    0.74250    0.43530    1.000
    C6       C        0.20470    0.34270    0.84840    1.000
    C7       C        0.26550    0.71640    0.34880    1.000
    C8       C        0.97080    0.21140    0.69560    1.000
    C9       C        0.56320    0.34500    0.27560    1.000
    C10      C        0.82300    0.05920    0.49070    1.000
    C11      C        0.09960    0.32620    0.53720    1.000
    C12      C        0.47080    0.78860    0.80440    1.000
    C13      C        0.52920    0.21140    0.19560    1.000
    C14      C        0.60430    0.08190    0.33520    1.000
    C15      C        0.75490    0.31860    0.03120    1.000
    C16      C        0.32300    0.94080    0.00930    1.000
    C17      C        0.25490    0.68140    0.46880    1.000
    C18      C        0.28970    0.25750    0.06470    1.000
    C19      C        0.59960    0.67380    0.96280    1.000
    C20      C        0.89570    0.08190    0.83520    1.000
    C21      C        0.17700    0.94080    0.50930    1.000
    C22      C        0.48260    0.84170    0.55640    1.000
    C23      C        0.06320    0.65500    0.22440    1.000
    C24      C        0.43680    0.65500    0.72440    1.000
    C25      C        0.22260    0.44310    0.79060    1.000
    C26      C        0.29530    0.34270    0.34840    1.000
    C27      C        0.74510    0.31860    0.53120    1.000
    C28      C        0.79820    0.00790    0.02490    1.000
    C29      C        0.23450    0.71640    0.84880    1.000
    C30      C        0.90040    0.67380    0.46280    1.000
    C31      C        0.01740    0.84170    0.05640    1.000
    C32      C        0.76550    0.28360    0.15120    1.000
    C33      C        0.24510    0.68140    0.96880    1.000
    C34      C        0.27740    0.44310    0.29060    1.000
    C35      C        0.93680    0.34500    0.77560    1.000
    C36      C        0.20180    0.99210    0.97510    1.000
    C37      C        0.71030    0.74250    0.93530    1.000
    C38      C        0.70470    0.65730    0.65160    1.000
    C39      C        0.51740    0.15830    0.44360    1.000
    C40      C        0.72260    0.55690    0.70940    1.000
    C41      C        0.67700    0.05920    0.99070    1.000
    C42      C        0.29820    0.99210    0.47510    1.000
    C43      C        0.02920    0.78860    0.30440    1.000
    C44      C        0.70180    0.00790    0.52490    1.000
    C45      C        0.10430    0.91810    0.16480    1.000
    C46      C        0.21030    0.25750    0.56470    1.000
    C47      C        0.73450    0.28360    0.65120    1.000
    C48      C        0.98260    0.15830    0.94360    1.000
    N1       N        0.66300    0.58110    0.76450    1.000
    N2       N        0.75750    0.77310    0.33030    1.000
    N3       N        0.69730    0.02410    0.25530    1.000
    N4       N        0.72690    0.78870    0.45800    1.000
    N5       N        0.33700    0.41890    0.23550    1.000
    N6       N        0.51140    0.38360    0.03200    1.000
    N7       N        0.80200    0.26940    0.90770    1.000
    N8       N        0.73610    0.30080    0.73300    1.000
    N9       N        0.22360    0.51670    0.72000    1.000
    N10      N        0.24250    0.22690    0.66970    1.000
    N11      N        0.75780    0.37230    0.49710    1.000
    N12      N        0.77340    0.33930    0.92030    1.000
    N13      N        0.21001    0.74590    0.02200    1.000
    N14      N        0.95820    0.77290    0.32770    1.000
    N15      N        0.83700    0.58110    0.26450    1.000
    N16      N        0.69800    0.21530    0.61230    1.000
    N17      N        0.08400    0.01210    0.94040    1.000
    N18      N        0.03060    0.89170    0.13530    1.000
    N19      N        0.54050    0.76300    0.44950    1.000
    N20      N        0.07500    0.73390    0.24540    1.000
    N21      N        0.34050    0.04250    0.45180    1.000
    N22      N        0.49350    0.37630    0.26470    1.000
    N23      N        0.56230    0.66020    0.89190    1.000
    N24      N        0.17520    0.81120    0.82680    1.000
    N25      N        0.82920    0.70970    0.48480    1.000
    N26      N        0.82760    0.75530    0.11950    1.000
    N27      N        0.04050    0.23700    0.05050    1.000
    N28      N        0.27310    0.21130    0.54200    1.000
    N29      N        0.44950    0.86250    0.84480    1.000
    N30      N        0.16610    0.46680    0.69060    1.000
    N31      N        0.54180    0.77290    0.82770    1.000
    N32      N        0.27640    0.51670    0.22000    1.000
    N33      N        0.21890    0.99870    0.49150    1.000
    N34      N        0.19800    0.73060    0.09230    1.000
    N35      N        0.25780    0.62770    0.00290    1.000
    N36      N        0.65950    0.95750    0.54820    1.000
    N37      N        0.80200    0.21530    0.11230    1.000
    N38      N        0.70790    0.80700    0.39030    1.000
    N39      N        0.49450    0.54440    0.70780    1.000
    N40      N        0.20790    0.19300    0.10970    1.000
    N41      N        0.25710    0.40830    0.34560    1.000
    N42      N        0.89960    0.05560    0.47440    1.000
    N43      N        0.77310    0.78870    0.95800    1.000
    N44      N        0.83390    0.53320    0.30940    1.000
    N45      N        0.72930    0.06320    0.32750    1.000
    N46      N        0.66610    0.53320    0.80940    1.000
    N47      N        0.23610    0.69920    0.76700    1.000
    N48      N        0.00650    0.37630    0.76470    1.000
    N49      N        0.76810    0.32930    0.61110    1.000
    N50      N        0.67520    0.18880    0.67320    1.000
    N51      N        0.84400    0.06570    0.01890    1.000
    N52      N        0.67240    0.75530    0.61950    1.000
    N53      N        0.32990    0.89930    0.62050    1.000
    N54      N        0.45950    0.23700    0.55050    1.000
    N55      N        0.05050    0.86250    0.34480    1.000
    N56      N        0.46570    0.76120    0.43330    1.000
    N57      N        0.42700    0.81160    0.49990    1.000
    N58      N        0.53060    0.10830    0.36470    1.000
    N59      N        0.69800    0.26940    0.40770    1.000
    N60      N        0.55610    0.64690    0.01110    1.000
    N61      N        0.30200    0.73060    0.59230    1.000
    N62      N        0.60040    0.05560    0.97440    1.000
    N63      N        0.30230    0.76070    0.25630    1.000
    N64      N        0.14800    0.83550    0.53200    1.000
    N65      N        0.78110    0.00130    0.50850    1.000
    N66      N        0.50650    0.62370    0.73530    1.000
    N67      N        0.27470    0.30450    0.39820    1.000
    N68      N        0.57500    0.26610    0.25460    1.000
    N69      N        0.17240    0.24470    0.88050    1.000
    N70      N        0.06230    0.33980    0.60810    1.000
    N71      N        0.58400    0.98790    0.55960    1.000
    N72      N        0.01140    0.61640    0.46800    1.000
    N73      N        0.72360    0.48330    0.78000    1.000
    N74      N        0.27340    0.66070    0.57970    1.000
    N75      N        0.94570    0.81460    0.02730    1.000
    N76      N        0.56710    0.83970    0.88780    1.000
    N77      N        0.05610    0.35310    0.48890    1.000
    N78      N        0.27070    0.93680    0.67250    1.000
    N79      N        0.17010    0.89930    0.12050    1.000
    N80      N        0.78999    0.25410    0.97800    1.000
    N81      N        0.79100    0.12560    0.48810    1.000
    N82      N        0.08140    0.94810    0.95750    1.000
    N83      N        0.22530    0.30450    0.89820    1.000
    N84      N        0.41860    0.94810    0.45750    1.000
    N85      N        0.71001    0.25410    0.47800    1.000
    N86      N        0.74220    0.37230    0.99710    1.000
    N87      N        0.79210    0.80700    0.89030    1.000
    N88      N        0.93770    0.66020    0.39190    1.000
    N89      N        0.07300    0.81160    0.99990    1.000
    N90      N        0.91600    0.98790    0.05960    1.000
    N91      N        0.31010    0.26880    0.14290    1.000
    N92      N        0.64220    0.69140    0.69810    1.000
    N93      N        0.65600    0.06570    0.51890    1.000
    N94      N        0.22690    0.21130    0.04200    1.000
    N95      N        0.94950    0.13750    0.65520    1.000
    N96      N        0.96570    0.23880    0.06670    1.000
    N97      N        0.98780    0.89150    0.39690    1.000
    N98      N        0.84050    0.95750    0.04820    1.000
    N99      N        0.98860    0.38360    0.53200    1.000
    N100     N        0.32480    0.81120    0.32680    1.000
    N101     N        0.45820    0.22710    0.17230    1.000
    N102     N        0.18990    0.26880    0.64290    1.000
    N103     N        0.72660    0.33930    0.42030    1.000
    N104     N        0.11660    0.59900    0.19190    1.000
    N105     N        0.15950    0.04250    0.95180    1.000
    N106     N        0.35200    0.83550    0.03200    1.000
    N107     N        0.77640    0.48330    0.28000    1.000
    N108     N        0.61660    0.40100    0.30810    1.000
    N109     N        0.73190    0.32930    0.11110    1.000
    N110     N        0.23190    0.67070    0.38890    1.000
    N111     N        0.82480    0.18880    0.17320    1.000
    N112     N        0.15600    0.93430    0.98110    1.000
    N113     N        0.34400    0.93430    0.48110    1.000
    N114     N        0.85780    0.69140    0.19810    1.000
    N115     N        0.46940    0.89170    0.63530    1.000
    N116     N        0.07750    0.52980    0.18150    1.000
    N117     N        0.33390    0.46680    0.19060    1.000
    N118     N        0.22660    0.66070    0.07970    1.000
    N119     N        0.76390    0.30080    0.23300    1.000
    N120     N        0.92500    0.26610    0.75460    1.000
    N121     N        0.67080    0.70970    0.98480    1.000
    N122     N        0.99350    0.62370    0.23530    1.000
    N123     N        0.12230    0.24560    0.82350    1.000
    N124     N        0.04180    0.22710    0.67230    1.000
    N125     N        0.30200    0.78470    0.38770    1.000
    N126     N        0.99450    0.45560    0.79220    1.000
    N127     N        0.72530    0.69550    0.60180    1.000
    N128     N        0.48860    0.61640    0.96800    1.000
    N129     N        0.58140    0.05190    0.54250    1.000
    N130     N        0.11750    0.96570    0.24300    1.000
    N131     N        0.42250    0.52980    0.68150    1.000
    N132     N        0.29100    0.87440    0.01190    1.000
    N133     N        0.28110    0.99870    0.99150    1.000
    N134     N        0.76180    0.49600    0.71630    1.000
    N135     N        0.00760    0.62380    0.39620    1.000
    N136     N        0.50550    0.45560    0.29220    1.000
    N137     N        0.25750    0.22690    0.16970    1.000
    N138     N        0.29210    0.19300    0.60970    1.000
    N139     N        0.88340    0.40100    0.80810    1.000
    N140     N        0.32920    0.29030    0.01520    1.000
    N141     N        0.80270    0.02410    0.75530    1.000
    N142     N        0.92250    0.47020    0.81850    1.000
    N143     N        0.73820    0.49600    0.21630    1.000
    N144     N        0.91860    0.05190    0.04250    1.000
    N145     N        0.53430    0.23880    0.56670    1.000
    N146     N        0.24290    0.40830    0.84560    1.000
    N147     N        0.44390    0.35310    0.98890    1.000
    N148     N        0.69770    0.23930    0.74370    1.000
    N149     N        0.08420    0.87570    0.53880    1.000
    N150     N        0.06710    0.16030    0.61220    1.000
    N151     N        0.37770    0.24560    0.32350    1.000
    N152     N        0.22930    0.93680    0.17250    1.000
    N153     N        0.01220    0.10850    0.60310    1.000
    N154     N        0.99240    0.37620    0.60380    1.000
    N155     N        0.61750    0.03430    0.25700    1.000
    N156     N        0.91580    0.12430    0.46120    1.000
    N157     N        0.57750    0.47020    0.31850    1.000
    N158     N        0.68990    0.73120    0.85710    1.000
    N159     N        0.10040    0.94440    0.52560    1.000
    N160     N        0.55430    0.81460    0.52730    1.000
    N161     N        0.39960    0.94440    0.02560    1.000
    N162     N        0.51220    0.89150    0.89690    1.000
    N163     N        0.38250    0.96570    0.74300    1.000
    N164     N        0.96940    0.10830    0.86470    1.000
    N165     N        0.85200    0.16450    0.46800    1.000
    N166     N        0.74250    0.77310    0.83030    1.000
    N167     N        0.26810    0.67070    0.88890    1.000
    N168     N        0.43290    0.16030    0.11220    1.000
    N169     N        0.24220    0.62770    0.50290    1.000
    N170     N        0.14220    0.30860    0.80190    1.000
    N171     N        0.43770    0.33980    0.10810    1.000
    N172     N        0.19730    0.97590    0.24470    1.000
    N173     N        0.67010    0.10070    0.37950    1.000
    N174     N        0.05430    0.18540    0.97270    1.000
    N175     N        0.44570    0.18540    0.47270    1.000
    N176     N        0.32760    0.24470    0.38050    1.000
    N177     N        0.70900    0.12560    0.98810    1.000
    N178     N        0.49240    0.62380    0.89620    1.000
    N179     N        0.75710    0.59170    0.15440    1.000
    N180     N        0.77070    0.06320    0.82750    1.000
    N181     N        0.95950    0.76300    0.94950    1.000
    N182     N        0.19770    0.76070    0.75630    1.000
    N183     N        0.64800    0.16450    0.96800    1.000
    N184     N        0.38340    0.59900    0.69190    1.000
    N185     N        0.55050    0.13750    0.15520    1.000
    N186     N        0.92700    0.18840    0.00010    1.000
    N187     N        0.88250    0.03430    0.75700    1.000
    N188     N        0.20900    0.87440    0.51190    1.000
    N189     N        0.23820    0.50400    0.28370    1.000
    N190     N        0.93290    0.83970    0.38780    1.000
    N191     N        0.87770    0.75440    0.17650    1.000
    N192     N        0.03430    0.76120    0.93330    1.000
    N193     N        0.57300    0.18840    0.50010    1.000
    N194     N        0.30270    0.97590    0.74470    1.000
    N195     N        0.42500    0.73390    0.74540    1.000
    N196     N        0.35780    0.30860    0.30190    1.000
    N197     N        0.17080    0.29030    0.51520    1.000
    N198     N        0.26180    0.50400    0.78370    1.000
    N199     N        0.16300    0.41890    0.73550    1.000
    N200     N        0.48780    0.10850    0.10310    1.000
    N201     N        0.28999    0.74590    0.52200    1.000
    N202     N        0.41600    0.01210    0.44040    1.000
    N203     N        0.94390    0.64690    0.51110    1.000
    N204     N        0.50760    0.37620    0.10380    1.000
    N205     N        0.19800    0.78470    0.88770    1.000
    N206     N        0.80230    0.23930    0.24370    1.000
    N207     N        0.81010    0.73120    0.35710    1.000
    N208     N        0.41580    0.87570    0.03880    1.000
    N209     N        0.82990    0.10070    0.87950    1.000
    N210     N        0.26390    0.69920    0.26700    1.000
    N211     N        0.74290    0.59170    0.65440    1.000
    N212     N        0.71890    0.00130    0.00850    1.000
    N213     N        0.62230    0.75440    0.67650    1.000
    N214     N        0.58420    0.12430    0.96120    1.000
    N215     N        0.00550    0.54440    0.20780    1.000
    N216     N        0.77470    0.69550    0.10180    1.000
