data_functionalizedCrystal
_audit_creation_method	'EQeq! by Chris Wilmer'
_symmetry_space_group_name_H-M	'P1'
_symmetry_Int_Tables_number	1
_symmetry_cell_setting	triclinic
loop_
_symmetry_equiv_pos_as_xyz
  x,y,z
_cell_length_a	17.306
_cell_length_b	19.517
_cell_length_c	18.722
_cell_angle_alpha	90
_cell_angle_beta	90
_cell_angle_gamma	90
loop_
_atom_site_label
_atom_site_type_symbol
_atom_site_fract_x
_atom_site_fract_y
_atom_site_fract_z
_atom_site_charge
Mof_Cd	Cd	0.7805	0.55875	0.65708	0.5
Mof_Cd	Cd	0.92918	0.57745	0.7864	0.396
Mof_Cd	Cd	0.2805	0.94125	0.15708	0.501
Mof_Cd	Cd	0.42918	0.92255	0.2864	0.397
Mof_H 	H 	0.4353	0.5028	0.11	0.065
Mof_H 	H 	0.4186	0.497	0.1942	0.054
Mof_H 	H 	0.4301	0.3742	0.1836	0.043
Mof_H 	H 	0.4488	0.3819	0.1	0.054
Mof_H 	H 	0.5084	0.4421	0.2754	0.034
Mof_H 	H 	0.5754	0.3923	0.2472	0.042
Mof_H 	H 	0.6135	0.4949	0.1242	0.058
Mof_H 	H 	0.6219	0.4131	0.1189	0.05
Mof_H 	H 	0.3411	0.1634	0.1339	0.005
Mof_H 	H 	0.2848	0.6886	0.161	0.007
Mof_H 	H 	0.3508	0.5846	0.1511	0.139
Mof_H 	H 	0.6325	0.445	0.4833	0.01
Mof_H 	H 	0.3843	0.275	0.1177	0.136
Mof_H 	H 	0.5811	0.4189	0.3708	0.115
Mof_H 	H 	0.5932	0.5012	0.8194	-0.013
Mof_H 	H 	0.5179	0.469	0.9163	0.142
Mof_H 	H 	0.5948	0.2185	0.1926	0.125
Mof_H 	H 	0.545	0.1099	0.2183	0.003
Mof_H 	H 	0.7092	0.477	0.0409	0.145
Mof_H 	H 	0.7771	0.5131	0.9458	-0.023
Mof_H 	H 	0.6915	0.5847	0.2875	0.117
Mof_H 	H 	0.7475	0.6076	0.3986	0.012
Mof_H 	H 	0.5537	0.6812	0.1943	0.118
Mof_H 	H 	0.4876	0.7864	0.1932	-0.001
Mof_H 	H 	0.9353	0.9972	0.61	0.064
Mof_H 	H 	0.9186	0.003	0.6942	0.054
Mof_H 	H 	0.9301	0.1258	0.6836	0.042
Mof_H 	H 	0.9488	0.1181	0.6	0.054
Mof_H 	H 	0.0084	0.0579	0.7754	0.033
Mof_H 	H 	0.0754	0.1077	0.7472	0.042
Mof_H 	H 	0.1135	0.0051	0.6242	0.057
Mof_H 	H 	0.1219	0.0869	0.6189	0.049
Mof_H 	H 	0.8411	0.3366	0.6339	0.005
Mof_H 	H 	0.7848	0.8114	0.661	0.007
Mof_H 	H 	0.8508	0.9154	0.6511	0.139
Mof_H 	H 	0.1325	0.055	0.9833	0.008
Mof_H 	H 	0.8843	0.225	0.6177	0.136
Mof_H 	H 	0.0811	0.0811	0.8708	0.114
Mof_H 	H 	0.0932	0.9988	0.3194	-0.012
Mof_H 	H 	0.0179	0.031	0.4163	0.143
Mof_H 	H 	0.0948	0.2815	0.6926	0.124
Mof_H 	H 	0.045	0.3901	0.7183	0.003
Mof_H 	H 	0.2092	0.023	0.5409	0.136
Mof_H 	H 	0.2771	0.9869	0.4458	-0.019
Mof_H 	H 	0.1915	0.9153	0.7875	0.117
Mof_H 	H 	0.2475	0.8924	0.8986	0.011
Mof_H 	H 	0.0537	0.8188	0.6943	0.118
Mof_H 	H 	0.9876	0.7136	0.6932	-0.001
Mof_C 	C 	0.3399	0.81544	0.17495	0.351
Mof_C 	C 	0.7251	0.5438	0.5239	0.338
Mof_C 	C 	0.51848	0.4435	0.1634	0.021
Mof_C 	C 	0.45962	0.50251	0.1579	-0.004
Mof_C 	C 	0.47218	0.37909	0.1481	0.005
Mof_C 	C 	0.6931	0.5294	0.45325	-0.156
Mof_C 	C 	0.551	0.43766	0.24045	0.022
Mof_C 	C 	0.5855	0.45189	0.11352	0.016
Mof_C 	C 	0.49084	0.25828	0.1592	0.269
Mof_C 	C 	0.3925	0.17505	0.1471	0.143
Mof_C 	C 	0.4401	0.1248	0.17484	-0.174
Mof_C 	C 	0.3394	0.68736	0.1658	0.133
Mof_C 	C 	0.3786	0.62536	0.1614	-0.246
Mof_C 	C 	0.6304	0.4997	0.31908	0.252
Mof_C 	C 	0.6447	0.47333	0.44354	0.113
Mof_C 	C 	0.3807	0.74756	0.1773	-0.168
Mof_C 	C 	0.4174	0.24143	0.1381	-0.254
Mof_C 	C 	0.6047	0.47158	0.98884	0.296
Mof_C 	C 	0.6938	0.51164	0.87157	-0.23
Mof_C 	C 	0.6135	0.45776	0.37673	-0.233
Mof_C 	C 	0.4564	0.62216	0.1716	0.257
Mof_C 	C 	0.7407	0.5326	0.80957	0.398
Mof_C 	C 	0.4108	0.05294	0.1856	0.36
Mof_C 	C 	0.6166	0.4974	0.86513	0.176
Mof_C 	C 	0.5714	0.4779	0.92259	-0.278
Mof_C 	C 	0.542	0.20812	0.184	-0.237
Mof_C 	C 	0.5132	0.14299	0.1955	0.133
Mof_C 	C 	0.6843	0.4834	0.99616	-0.309
Mof_C 	C 	0.7238	0.5035	0.9394	0.204
Mof_C 	C 	0.6801	0.5562	0.3273	-0.214
Mof_C 	C 	0.7125	0.5705	0.3934	0.105
Mof_C 	C 	0.4996	0.6829	0.1857	-0.214
Mof_C 	C 	0.4597	0.745	0.1864	0.116
Mof_C 	C 	0.8399	0.68456	0.67495	0.351
Mof_C 	C 	0.2251	0.9562	0.0239	0.342
Mof_C 	C 	0.01848	0.0565	0.6634	0.02
Mof_C 	C 	0.95962	0.99749	0.6579	-0.004
Mof_C 	C 	0.97218	0.12091	0.6481	0.006
Mof_C 	C 	0.1931	0.9706	0.95325	-0.16
Mof_C 	C 	0.051	0.06234	0.74045	0.023
Mof_C 	C 	0.0855	0.04811	0.61352	0.017
Mof_C 	C 	0.99084	0.24172	0.6592	0.268
Mof_C 	C 	0.8925	0.32495	0.6471	0.143
Mof_C 	C 	0.9401	0.3752	0.67484	-0.175
Mof_C 	C 	0.8394	0.81264	0.6658	0.133
Mof_C 	C 	0.8786	0.87464	0.6614	-0.246
Mof_C 	C 	0.1304	0.0003	0.81908	0.251
Mof_C 	C 	0.1447	0.02667	0.94354	0.114
Mof_C 	C 	0.8807	0.75244	0.6773	-0.169
Mof_C 	C 	0.9174	0.25857	0.6381	-0.254
Mof_C 	C 	0.1047	0.02842	0.48884	0.297
Mof_C 	C 	0.1938	0.98836	0.37157	-0.226
Mof_C 	C 	0.1135	0.04224	0.87673	-0.234
Mof_C 	C 	0.9564	0.87784	0.6716	0.256
Mof_C 	C 	0.2407	0.9674	0.30957	0.397
Mof_C 	C 	0.9108	0.44706	0.6856	0.36
Mof_C 	C 	0.1166	0.0026	0.36513	0.174
Mof_C 	C 	0.0714	0.0221	0.42259	-0.277
Mof_C 	C 	0.042	0.29188	0.684	-0.237
Mof_C 	C 	0.0132	0.35701	0.6955	0.133
Mof_C 	C 	0.1843	0.0166	0.49616	-0.296
Mof_C 	C 	0.2238	0.9965	0.4394	0.196
Mof_C 	C 	0.1801	0.9438	0.8273	-0.214
Mof_C 	C 	0.2125	0.9295	0.8934	0.106
Mof_C 	C 	0.9996	0.8171	0.6857	-0.216
Mof_C 	C 	0.9597	0.755	0.6864	0.116
Mof_O 	O 	0.27097	0.81843	0.16477	-0.289
Mof_O 	O 	0.38043	0.86939	0.18529	-0.313
Mof_O 	O 	0.78492	0.58122	0.52789	-0.262
Mof_O 	O 	0.69428	0.51918	0.5775	-0.298
Mof_O 	O 	0.52246	0.32183	0.15202	-0.239
Mof_O 	O 	0.34562	0.03878	0.16088	-0.293
Mof_O 	O 	0.50085	0.56477	0.1695	-0.221
Mof_O 	O 	0.55529	0.45374	0.04188	-0.239
Mof_O 	O 	0.70767	0.53928	0.75096	-0.313
Mof_O 	O 	0.60587	0.48971	0.2519	-0.236
Mof_O 	O 	0.4541	0.01374	0.22121	-0.297
Mof_O 	O 	0.811	0.541	0.81885	-0.318
Mof_O 	O 	0.77097	0.68157	0.66477	-0.29
Mof_O 	O 	0.88043	0.63061	0.68529	-0.313
Mof_O 	O 	0.28492	0.91878	0.02789	-0.262
Mof_O 	O 	0.19428	0.98082	0.0775	-0.298
Mof_O 	O 	0.02246	0.17817	0.65202	-0.24
Mof_O 	O 	0.84562	0.46122	0.66088	-0.293
Mof_O 	O 	0.00085	0.93523	0.6695	-0.221
Mof_O 	O 	0.05529	0.04626	0.54188	-0.242
Mof_O 	O 	0.20767	0.96072	0.25096	-0.313
Mof_O 	O 	0.10587	0.01029	0.7519	-0.237
Mof_O 	O 	0.9541	0.48626	0.72121	-0.298
Mof_O 	O 	0.311	0.959	0.31885	-0.317
Mof_Cd	Cd	0.2195	0.44125	0.15708	0.501
Mof_Cd	Cd	0.07082	0.42256	0.2864	0.397
Mof_Cd	Cd	0.7195	0.05875	0.65708	0.501
Mof_Cd	Cd	0.57082	0.07744	0.7864	0.395
Mof_H 	H 	0.5647	0.4972	0.61	0.064
Mof_H 	H 	0.5814	0.503	0.6942	0.054
Mof_H 	H 	0.5699	0.6258	0.6836	0.042
Mof_H 	H 	0.5512	0.6181	0.6	0.054
Mof_H 	H 	0.4916	0.5579	0.7754	0.033
Mof_H 	H 	0.4246	0.6077	0.7472	0.041
Mof_H 	H 	0.3865	0.5051	0.6242	0.057
Mof_H 	H 	0.3781	0.5869	0.6189	0.049
Mof_H 	H 	0.6589	0.8366	0.6339	0.005
Mof_H 	H 	0.7152	0.3114	0.661	0.007
Mof_H 	H 	0.6492	0.4154	0.6511	0.139
Mof_H 	H 	0.3675	0.555	0.9833	0.007
Mof_H 	H 	0.6157	0.725	0.6177	0.136
Mof_H 	H 	0.4189	0.5811	0.8708	0.115
Mof_H 	H 	0.4068	0.4988	0.3194	-0.012
Mof_H 	H 	0.4821	0.531	0.4163	0.142
Mof_H 	H 	0.4052	0.7815	0.6926	0.124
Mof_H 	H 	0.455	0.8901	0.7183	0.003
Mof_H 	H 	0.2908	0.523	0.5409	0.136
Mof_H 	H 	0.2229	0.4869	0.4458	-0.019
Mof_H 	H 	0.3085	0.4153	0.7875	0.118
Mof_H 	H 	0.2525	0.3924	0.8986	0.01
Mof_H 	H 	0.4463	0.3188	0.6943	0.118
Mof_H 	H 	0.5124	0.2136	0.6932	-0.001
Mof_H 	H 	0.0647	0.0028	0.11	0.065
Mof_H 	H 	0.0814	0.997	0.1942	0.054
Mof_H 	H 	0.0699	0.8742	0.1836	0.043
Mof_H 	H 	0.0512	0.8819	0.1	0.054
Mof_H 	H 	0.9916	0.9421	0.2754	0.034
Mof_H 	H 	0.9246	0.8923	0.2472	0.042
Mof_H 	H 	0.8865	0.9949	0.1242	0.058
Mof_H 	H 	0.8781	0.9131	0.1189	0.05
Mof_H 	H 	0.1589	0.6634	0.1339	0.005
Mof_H 	H 	0.2152	0.1886	0.161	0.007
Mof_H 	H 	0.1492	0.0846	0.1511	0.139
Mof_H 	H 	0.8675	0.945	0.4833	0.011
Mof_H 	H 	0.1157	0.775	0.1177	0.136
Mof_H 	H 	0.9189	0.9189	0.3708	0.114
Mof_H 	H 	0.9068	0.0012	0.8194	-0.013
Mof_H 	H 	0.9821	0.969	0.9163	0.142
Mof_H 	H 	0.9052	0.7185	0.1926	0.124
Mof_H 	H 	0.955	0.6099	0.2183	0.003
Mof_H 	H 	0.7908	0.977	0.0409	0.143
Mof_H 	H 	0.7229	0.0131	0.9458	-0.023
Mof_H 	H 	0.8085	0.0847	0.2875	0.117
Mof_H 	H 	0.7525	0.1076	0.3986	0.013
Mof_H 	H 	0.9463	0.1812	0.1943	0.119
Mof_H 	H 	0.0124	0.2864	0.1932	-0.001
Mof_C 	C 	0.6601	0.18456	0.67495	0.351
Mof_C 	C 	0.2749	0.4562	0.0239	0.345
Mof_C 	C 	0.48152	0.5565	0.6634	0.02
Mof_C 	C 	0.54038	0.49749	0.6579	-0.003
Mof_C 	C 	0.52782	0.62091	0.6481	0.006
Mof_C 	C 	0.3069	0.4706	0.95325	-0.164
Mof_C 	C 	0.449	0.56234	0.74045	0.023
Mof_C 	C 	0.4145	0.54811	0.61352	0.018
Mof_C 	C 	0.50916	0.74172	0.6592	0.269
Mof_C 	C 	0.6075	0.82495	0.6471	0.143
Mof_C 	C 	0.5599	0.8752	0.67484	-0.175
Mof_C 	C 	0.6606	0.31264	0.6658	0.133
Mof_C 	C 	0.6214	0.37464	0.6614	-0.247
Mof_C 	C 	0.3696	0.5003	0.81908	0.254
Mof_C 	C 	0.3553	0.52667	0.94354	0.118
Mof_C 	C 	0.6193	0.25244	0.6773	-0.169
Mof_C 	C 	0.5826	0.75857	0.6381	-0.254
Mof_C 	C 	0.3953	0.52842	0.48884	0.297
Mof_C 	C 	0.3062	0.48836	0.37157	-0.225
Mof_C 	C 	0.3865	0.54224	0.87673	-0.236
Mof_C 	C 	0.5436	0.37784	0.6716	0.256
Mof_C 	C 	0.2593	0.4674	0.30957	0.397
Mof_C 	C 	0.5892	0.94706	0.6856	0.36
Mof_C 	C 	0.3834	0.5026	0.36513	0.174
Mof_C 	C 	0.4286	0.5221	0.42259	-0.276
Mof_C 	C 	0.458	0.79188	0.684	-0.238
Mof_C 	C 	0.4868	0.85701	0.6955	0.132
Mof_C 	C 	0.3157	0.5166	0.49616	-0.295
Mof_C 	C 	0.2762	0.4965	0.4394	0.196
Mof_C 	C 	0.3199	0.4438	0.8273	-0.217
Mof_C 	C 	0.2875	0.4295	0.8934	0.109
Mof_C 	C 	0.5004	0.3171	0.6857	-0.215
Mof_C 	C 	0.5403	0.255	0.6864	0.115
Mof_C 	C 	0.1601	0.31544	0.17495	0.351
Mof_C 	C 	0.7749	0.0438	0.5239	0.338
Mof_C 	C 	0.98152	0.9435	0.1634	0.021
Mof_C 	C 	0.04038	0.00251	0.1579	-0.004
Mof_C 	C 	0.02782	0.87909	0.1481	0.004
Mof_C 	C 	0.8069	0.0294	0.45325	-0.155
Mof_C 	C 	0.949	0.93766	0.24045	0.022
Mof_C 	C 	0.9145	0.95189	0.11352	0.016
Mof_C 	C 	0.00916	0.75828	0.1592	0.268
Mof_C 	C 	0.1075	0.67505	0.1471	0.143
Mof_C 	C 	0.0599	0.6248	0.17484	-0.174
Mof_C 	C 	0.1606	0.18736	0.1658	0.134
Mof_C 	C 	0.1214	0.12536	0.1614	-0.246
Mof_C 	C 	0.8696	0.9997	0.31908	0.25
Mof_C 	C 	0.8553	0.97333	0.44354	0.112
Mof_C 	C 	0.1193	0.24756	0.1773	-0.168
Mof_C 	C 	0.0826	0.74143	0.1381	-0.253
Mof_C 	C 	0.8953	0.97158	0.98884	0.295
Mof_C 	C 	0.8062	0.01164	0.87157	-0.229
Mof_C 	C 	0.8865	0.95776	0.37673	-0.232
Mof_C 	C 	0.0436	0.12216	0.1716	0.256
Mof_C 	C 	0.7593	0.0326	0.80957	0.398
Mof_C 	C 	0.0892	0.55294	0.1856	0.36
Mof_C 	C 	0.8834	0.9974	0.86513	0.176
Mof_C 	C 	0.9286	0.9779	0.92259	-0.278
Mof_C 	C 	0.958	0.70812	0.184	-0.236
Mof_C 	C 	0.9868	0.64299	0.1955	0.133
Mof_C 	C 	0.8157	0.9834	0.99616	-0.305
Mof_C 	C 	0.7762	0.0035	0.9394	0.201
Mof_C 	C 	0.8199	0.0562	0.3273	-0.212
Mof_C 	C 	0.7875	0.0705	0.3934	0.104
Mof_C 	C 	0.0004	0.1829	0.1857	-0.215
Mof_C 	C 	0.0403	0.245	0.1864	0.116
Mof_O 	O 	0.72903	0.18157	0.66477	-0.29
Mof_O 	O 	0.61957	0.13061	0.68529	-0.313
Mof_O 	O 	0.21508	0.41878	0.02789	-0.262
Mof_O 	O 	0.30572	0.48082	0.0775	-0.299
Mof_O 	O 	0.47754	0.67817	0.65202	-0.24
Mof_O 	O 	0.65438	0.96122	0.66088	-0.293
Mof_O 	O 	0.49915	0.43523	0.6695	-0.222
Mof_O 	O 	0.44471	0.54626	0.54188	-0.242
Mof_O 	O 	0.29233	0.46072	0.25096	-0.313
Mof_O 	O 	0.39413	0.51029	0.7519	-0.237
Mof_O 	O 	0.5459	0.98626	0.72121	-0.298
Mof_O 	O 	0.189	0.459	0.31885	-0.317
Mof_O 	O 	0.22903	0.31843	0.16477	-0.289
Mof_O 	O 	0.11957	0.36939	0.18529	-0.313
Mof_O 	O 	0.71508	0.08122	0.52789	-0.262
Mof_O 	O 	0.80572	0.01918	0.5775	-0.298
Mof_O 	O 	0.97754	0.82183	0.15202	-0.239
Mof_O 	O 	0.15438	0.53878	0.16088	-0.293
Mof_O 	O 	0.99915	0.06477	0.1695	-0.22
Mof_O 	O 	0.94471	0.95374	0.04188	-0.239
Mof_O 	O 	0.79233	0.03928	0.75096	-0.313
Mof_O 	O 	0.89413	0.98971	0.2519	-0.236
Mof_O 	O 	0.0459	0.51374	0.22121	-0.298
Mof_O 	O 	0.689	0.041	0.81885	-0.318
_end
