data_functionalizedCrystal
_audit_creation_method	'EQeq! by Chris Wilmer'
_symmetry_space_group_name_H-M	'P1'
_symmetry_Int_Tables_number	1
_symmetry_cell_setting	triclinic
loop_
_symmetry_equiv_pos_as_xyz
  x,y,z
_cell_length_a	6.7192
_cell_length_b	15.2402
_cell_length_c	15.2402
_cell_angle_alpha	62.1212
_cell_angle_beta	81.549
_cell_angle_gamma	98.451
loop_
_atom_site_label
_atom_site_type_symbol
_atom_site_fract_x
_atom_site_fract_y
_atom_site_fract_z
_atom_site_charge
Mof_Co	Co	0.30199	0.26484	0.3142	1.152
Mof_Co	Co	0.61619	0.3142	0.42096	1.152
Mof_Co	Co	0.03715	0.42096	0.26484	1.151
Mof_Co	Co	0.69801	0.73516	0.6858	1.152
Mof_Co	Co	0.38381	0.6858	0.57904	1.152
Mof_Co	Co	0.96285	0.57904	0.73516	1.151
Mof_H 	H 	0.3021	0.4688	0.5478	0.08
Mof_H 	H 	0.8499	0.5478	0.9834	0.079
Mof_H 	H 	0.8333	0.9834	0.4688	0.08
Mof_H 	H 	0.6979	0.5312	0.4522	0.08
Mof_H 	H 	0.1501	0.4522	0.0166	0.079
Mof_H 	H 	0.1667	0.0166	0.5312	0.08
Mof_C 	C 	0.2399	0.3872	0.4374	0.392
Mof_C 	C 	0.1135	0.447	0.4657	-0.179
Mof_C 	C 	0.9288	0.467	0.4338	0.187
Mof_C 	C 	0.179	0.4813	0.5291	-0.099
Mof_C 	C 	0.6773	0.4374	0.1754	0.391
Mof_C 	C 	0.5792	0.4657	0.0873	-0.178
Mof_C 	C 	0.3626	0.4338	0.0992	0.186
Mof_C 	C 	0.7081	0.5291	0.9896	-0.099
Mof_C 	C 	0.8527	0.1754	0.3872	0.392
Mof_C 	C 	0.6665	0.0873	0.447	-0.179
Mof_C 	C 	0.4618	0.0992	0.467	0.186
Mof_C 	C 	0.6977	0.9896	0.4813	-0.099
Mof_C 	C 	0.7601	0.6128	0.5626	0.392
Mof_C 	C 	0.8865	0.553	0.5343	-0.179
Mof_C 	C 	0.0712	0.533	0.5662	0.187
Mof_C 	C 	0.821	0.5187	0.4709	-0.099
Mof_C 	C 	0.3227	0.5626	0.8246	0.391
Mof_C 	C 	0.4208	0.5343	0.9127	-0.178
Mof_C 	C 	0.6374	0.5662	0.9008	0.186
Mof_C 	C 	0.2919	0.4709	0.0104	-0.099
Mof_C 	C 	0.1473	0.8246	0.6128	0.392
Mof_C 	C 	0.3335	0.9127	0.553	-0.179
Mof_C 	C 	0.5382	0.9008	0.533	0.186
Mof_C 	C 	0.3023	0.0104	0.5187	-0.099
Mof_O 	O 	0.1865	0.3542	0.3795	-0.564
Mof_O 	O 	0.3958	0.3677	0.4746	-0.451
Mof_O 	O 	0.8529	0.4409	0.3699	-0.518
Mof_O 	O 	0.566	0.3795	0.2663	-0.563
Mof_O 	O 	0.8704	0.4746	0.1577	-0.449
Mof_O 	O 	0.2228	0.3699	0.1892	-0.518
Mof_O 	O 	0.8323	0.2663	0.3542	-0.563
Mof_O 	O 	0.0281	0.1577	0.3677	-0.451
Mof_O 	O 	0.412	0.1892	0.4409	-0.518
Mof_O 	O 	0.8135	0.6458	0.6205	-0.564
Mof_O 	O 	0.6042	0.6323	0.5254	-0.451
Mof_O 	O 	0.1471	0.5591	0.6301	-0.518
Mof_O 	O 	0.434	0.6205	0.7337	-0.563
Mof_O 	O 	0.1296	0.5254	0.8423	-0.449
Mof_O 	O 	0.7772	0.6301	0.8108	-0.518
Mof_O 	O 	0.1677	0.7337	0.6458	-0.563
Mof_O 	O 	0.9719	0.8423	0.6323	-0.451
Mof_O 	O 	0.588	0.8108	0.5591	-0.518
_end
