data_functionalizedCrystal
_audit_creation_method	'EQeq! by Chris Wilmer'
_symmetry_space_group_name_H-M	'P1'
_symmetry_Int_Tables_number	1
_symmetry_cell_setting	triclinic
loop_
_symmetry_equiv_pos_as_xyz
  x,y,z
_cell_length_a	8.594
_cell_length_b	49.85
_cell_length_c	7.419
_cell_angle_alpha	90
_cell_angle_beta	92.7
_cell_angle_gamma	90
loop_
_atom_site_label
_atom_site_type_symbol
_atom_site_fract_x
_atom_site_fract_y
_atom_site_fract_z
_atom_site_charge
Mof_Ag	Ag	0.36561	0.71686	0.87743	0.387
Mof_Ag	Ag	0.2646	0.82126	0.7981	0.335
Mof_Ag	Ag	0.3377	0.82279	0.8701	0.099
Mof_Ag	Ag	0.07941	0.91651	0.6743	0.191
Mof_Ag	Ag	0.19675	0.92568	0.8719	0.521
Mof_Ag	Ag	0.09645	0.51537	0.8534	0.332
Mof_Ag	Ag	0.03634	0.02063	0.8393	0.208
Mof_Ag	Ag	0.74388	0.11249	0.6399	0.449
Mof_Ag	Ag	0.1231	0.62053	0.7072	0.198
Mof_N 	N 	0.616	0.6703	0.4845	-0.212
Mof_C 	C 	0.747	0.6849	0.4525	0.083
Mof_C 	C 	0.894	0.6749	0.506	-0.215
Mof_C 	C 	0.9001	0.6499	0.5933	0.204
Mof_N 	N 	0.9001	0.8501	0.0933	-0.208
Mof_C 	C 	0.7716	0.63866	0.6141	-0.314
Mof_C 	C 	0.6378	0.6487	0.5685	0.196
Mof_C 	C 	0.616	0.8297	0.9845	0.128
Mof_C 	C 	0.8336	0.89864	0.5628	-0.126
Mof_C 	C 	0.7444	0.91671	0.4748	0.081
Mof_C 	C 	0.5959	0.91208	0.4304	-0.217
Mof_C 	C 	0.5255	0.88981	0.4719	0.17
Mof_C 	C 	0.6096	0.87081	0.565	-0.184
Mof_C 	C 	0.7634	0.87546	0.614	0.046
Mof_C 	C 	0.4477	0.93773	0.9685	0.193
Mof_C 	C 	0.5766	0.92369	0.9303	-0.208
Mof_C 	C 	0.7214	0.93361	0.9776	0.037
Mof_C 	C 	0.7344	0.9578	0.0625	-0.071
Mof_C 	C 	0.6066	0.97082	0.0982	0.035
Mof_C 	C 	0.4651	0.96068	0.0517	-0.209
Mof_N 	N 	0.3488	0.50531	0.9537	-0.136
Mof_C 	C 	0.6512	0.00531	0.5463	0.674
Mof_C 	C 	0.4175	0.48195	0.9062	-0.021
Mof_C 	C 	0.437	0.52323	0.0474	0.01
Mof_C 	C 	0.3336	0.75887	0.8567	-0.148
Mof_C 	C 	0.3196	0.78105	0.8458	-0.167
Mof_C 	C 	0.239	0.86182	0.807	-0.126
Mof_C 	C 	0.201	0.88293	0.794	-0.2
Mof_C 	C 	0.065	0.95944	0.7605	-0.156
Mof_C 	C 	0.0309	0.98011	0.757	-0.198
Mof_N 	N 	0.101	0.55753	0.7639	-0.178
Mof_C 	C 	0.899	0.05753	0.7361	-0.153
Mof_C 	C 	0.1362	0.57789	0.7737	-0.172
Mof_N 	N 	0.8638	0.07789	0.7263	-0.203
Mof_N 	N 	0.2587	0.65647	0.8117	-0.181
Mof_C 	C 	0.7413	0.15647	0.6883	-0.113
Mof_C 	C 	0.2975	0.67725	0.8362	-0.127
Mof_N 	N 	0.7025	0.17725	0.6638	-0.192
Mof_H 	H 	0.50729	0.82465	0.94124	-0.091
Mof_H 	H 	0.72955	0.70176	0.38883	-0.032
Mof_H 	H 	0.97497	0.68744	0.47865	0.059
Mof_H 	H 	0.99541	0.8589	0.13703	0.036
Mof_H 	H 	0.76518	0.62106	0.66945	0.113
Mof_H 	H 	0.54373	0.63921	0.60644	-0.06
Mof_H 	H 	0.94596	0.90166	0.58809	-0.025
Mof_H 	H 	0.79006	0.93403	0.4488	-0.029
Mof_H 	H 	0.54035	0.92619	0.35983	0.078
Mof_H 	H 	0.41673	0.887	0.43803	-0.18
Mof_H 	H 	0.56473	0.85364	0.59645	0.056
Mof_H 	H 	0.82297	0.86248	0.68822	-0.006
Mof_H 	H 	0.34693	0.93098	0.93689	-0.216
Mof_H 	H 	0.57117	0.90647	0.86913	0.08
Mof_H 	H 	0.81466	0.92374	0.95051	-0.022
Mof_H 	H 	0.83659	0.96518	0.09929	-0.112
Mof_H 	H 	0.61516	0.98802	0.16082	-0.005
Mof_H 	H 	0.37442	0.9714	0.06688	0.064
Mof_H 	H 	0.75874	0.00866	0.5742	-0.393
Mof_H 	H 	0.35957	0.46896	0.83552	0.022
Mof_H 	H 	0.3923	0.54031	0.07801	-0.007
Mof_N 	N 	0.1664	0.39864	0.9372	-0.195
Mof_N 	N 	0.6664	0.25887	0.6433	-0.184
Mof_N 	N 	0.761	0.36182	0.693	-0.174
Mof_N 	N 	0.935	0.45944	0.7395	-0.19
Mof_Ag	Ag	0.63439	0.21686	0.62257	0.426
Mof_Ag	Ag	0.7354	0.32126	0.7019	0.342
Mof_Ag	Ag	0.6623	0.32279	0.6299	0.106
Mof_Ag	Ag	0.92059	0.41651	0.8257	0.101
Mof_Ag	Ag	0.80325	0.42568	0.6281	0.605
Mof_Ag	Ag	0.90355	0.01537	0.6466	0.545
Mof_Ag	Ag	0.96366	0.52063	0.6607	0.317
Mof_Ag	Ag	0.25612	0.61249	0.8601	0.441
Mof_Ag	Ag	0.8769	0.12053	0.7928	0.161
Mof_N 	N 	0.384	0.1703	0.0155	-0.21
Mof_C 	C 	0.253	0.1849	0.0475	0.05
Mof_C 	C 	0.106	0.1749	0.994	-0.157
Mof_C 	C 	0.0999	0.1499	0.9067	0.164
Mof_N 	N 	0.0999	0.3501	0.4067	-0.211
Mof_C 	C 	0.2284	0.13866	0.8859	-0.283
Mof_C 	C 	0.3622	0.1487	0.9315	0.191
Mof_C 	C 	0.384	0.3297	0.5155	0.146
Mof_C 	C 	0.2556	0.41671	0.0252	0.134
Mof_C 	C 	0.4041	0.41208	0.0696	-0.261
Mof_C 	C 	0.4745	0.38981	0.0281	0.201
Mof_C 	C 	0.3904	0.37081	0.935	-0.209
Mof_C 	C 	0.2366	0.37546	0.886	0.094
Mof_C 	C 	0.5523	0.43773	0.5315	0.332
Mof_C 	C 	0.4234	0.42369	0.5697	-0.321
Mof_C 	C 	0.2786	0.43361	0.5224	0.155
Mof_C 	C 	0.2656	0.4578	0.4375	-0.193
Mof_C 	C 	0.3934	0.47082	0.4018	0.164
Mof_C 	C 	0.5349	0.46068	0.4483	-0.343
Mof_C 	C 	0.5825	0.98195	0.5938	-0.724
Mof_C 	C 	0.563	0.02323	0.4526	-0.7
Mof_C 	C 	0.6804	0.28105	0.6542	-0.137
Mof_C 	C 	0.799	0.38293	0.706	-0.158
Mof_C 	C 	0.9691	0.48011	0.743	-0.162
Mof_H 	H 	0.49271	0.32465	0.55876	-0.096
Mof_H 	H 	0.27045	0.20176	0.11117	-0.022
Mof_H 	H 	0.02503	0.18744	0.02135	0.038
Mof_H 	H 	0.00459	0.3589	0.36297	0.053
Mof_H 	H 	0.23482	0.12106	0.83055	0.107
Mof_H 	H 	0.45627	0.13921	0.89356	-0.056
Mof_H 	H 	0.05404	0.40166	0.91191	0.028
Mof_H 	H 	0.20994	0.43403	0.0512	-0.039
Mof_H 	H 	0.45965	0.42619	0.14017	0.088
Mof_H 	H 	0.58327	0.387	0.06197	-0.202
Mof_H 	H 	0.43527	0.35364	0.90355	0.067
Mof_H 	H 	0.17703	0.36248	0.81178	-0.015
Mof_H 	H 	0.65307	0.43098	0.56311	-0.285
Mof_H 	H 	0.42883	0.40647	0.63087	0.118
Mof_H 	H 	0.18534	0.42374	0.54949	-0.051
Mof_H 	H 	0.16341	0.46518	0.40071	-0.044
Mof_H 	H 	0.38484	0.48802	0.33918	-0.043
Mof_H 	H 	0.62558	0.4714	0.43312	0.106
Mof_H 	H 	0.24126	0.50866	0.9258	-0.046
Mof_H 	H 	0.64043	0.96896	0.66448	0.248
Mof_H 	H 	0.6077	0.04031	0.42199	0.219
Mof_Ag	Ag	0.63439	0.28314	0.12257	0.383
Mof_Ag	Ag	0.7354	0.17874	0.2019	0.264
Mof_Ag	Ag	0.6623	0.17721	0.1299	0.139
Mof_Ag	Ag	0.92059	0.08349	0.3257	0.124
Mof_Ag	Ag	0.80325	0.07432	0.1281	0.545
Mof_Ag	Ag	0.90355	0.48463	0.1466	0.312
Mof_Ag	Ag	0.96366	0.97937	0.1607	0.43
Mof_Ag	Ag	0.25612	0.88751	0.3601	0.498
Mof_Ag	Ag	0.8769	0.37947	0.2928	0.058
Mof_C 	C 	0.253	0.3151	0.5475	-0.193
Mof_C 	C 	0.106	0.3251	0.494	0.08
Mof_C 	C 	0.2284	0.36134	0.3859	0.16
Mof_C 	C 	0.3622	0.3513	0.4315	-0.246
Mof_C 	C 	0.1664	0.10136	0.4372	-0.146
Mof_C 	C 	0.2556	0.08329	0.5252	0.102
Mof_C 	C 	0.4041	0.08792	0.5696	-0.231
Mof_C 	C 	0.4745	0.11019	0.5281	0.174
Mof_C 	C 	0.3904	0.12919	0.435	-0.193
Mof_C 	C 	0.2366	0.12454	0.386	0.061
Mof_C 	C 	0.5523	0.06227	0.0315	0.226
Mof_C 	C 	0.4234	0.07631	0.0697	-0.241
Mof_C 	C 	0.2786	0.06639	0.0224	0.088
Mof_C 	C 	0.2656	0.0422	0.9375	-0.131
Mof_C 	C 	0.3934	0.02918	0.9018	0.091
Mof_C 	C 	0.5349	0.03932	0.9483	-0.244
Mof_N 	N 	0.6512	0.49469	0.0463	-0.14
Mof_C 	C 	0.3488	0.99469	0.4537	-0.621
Mof_C 	C 	0.5825	0.51805	0.0938	-0.018
Mof_C 	C 	0.563	0.47677	0.9526	0.015
Mof_C 	C 	0.6664	0.24113	0.1433	-0.151
Mof_C 	C 	0.6804	0.21895	0.1542	-0.164
Mof_C 	C 	0.761	0.13818	0.193	-0.122
Mof_C 	C 	0.799	0.11707	0.206	-0.202
Mof_C 	C 	0.935	0.04056	0.2395	-0.168
Mof_C 	C 	0.9691	0.01989	0.243	-0.195
Mof_N 	N 	0.899	0.44247	0.2361	-0.179
Mof_C 	C 	0.101	0.94247	0.2639	-0.107
Mof_C 	C 	0.8638	0.42211	0.2263	-0.169
Mof_N 	N 	0.1362	0.92211	0.2737	-0.212
Mof_N 	N 	0.7413	0.34353	0.1883	-0.182
Mof_C 	C 	0.2587	0.84353	0.3117	-0.114
Mof_C 	C 	0.7025	0.32275	0.1638	-0.13
Mof_N 	N 	0.2975	0.82275	0.3362	-0.191
Mof_H 	H 	0.49271	0.17535	0.05876	0.01
Mof_H 	H 	0.27045	0.29824	0.61117	0.056
Mof_H 	H 	0.02503	0.31256	0.52135	-0.033
Mof_H 	H 	0.00459	0.1411	0.86297	-0.088
Mof_H 	H 	0.23482	0.37894	0.33055	-0.034
Mof_H 	H 	0.45627	0.36079	0.39356	0.076
Mof_H 	H 	0.05404	0.09834	0.41191	0.006
Mof_H 	H 	0.20994	0.06597	0.5512	-0.028
Mof_H 	H 	0.45965	0.07381	0.64017	0.08
Mof_H 	H 	0.58327	0.113	0.56197	-0.172
Mof_H 	H 	0.43527	0.14636	0.40355	0.061
Mof_H 	H 	0.17703	0.13752	0.31178	-0.007
Mof_H 	H 	0.65307	0.06902	0.06311	-0.237
Mof_H 	H 	0.42883	0.09353	0.13087	0.09
Mof_H 	H 	0.18534	0.07626	0.04949	-0.03
Mof_H 	H 	0.16341	0.03482	0.90071	-0.03
Mof_H 	H 	0.38484	0.01198	0.83918	-0.02
Mof_H 	H 	0.62558	0.0286	0.93312	0.068
Mof_H 	H 	0.24126	0.99134	0.4258	0.149
Mof_H 	H 	0.64043	0.53104	0.16448	0.021
Mof_H 	H 	0.6077	0.45969	0.92199	-0.009
Mof_N 	N 	0.8336	0.60136	0.0628	-0.193
Mof_N 	N 	0.3336	0.74113	0.3567	-0.184
Mof_N 	N 	0.239	0.63818	0.307	-0.17
Mof_N 	N 	0.065	0.54056	0.2605	-0.19
Mof_Ag	Ag	0.36561	0.78314	0.37743	0.423
Mof_Ag	Ag	0.2646	0.67874	0.2981	0.262
Mof_Ag	Ag	0.3377	0.67721	0.3701	0.163
Mof_Ag	Ag	0.07941	0.58349	0.1743	0.129
Mof_Ag	Ag	0.19675	0.57432	0.3719	0.578
Mof_Ag	Ag	0.09645	0.98463	0.3534	0.165
Mof_Ag	Ag	0.03634	0.47937	0.3393	0.337
Mof_Ag	Ag	0.74388	0.38751	0.1399	0.541
Mof_Ag	Ag	0.1231	0.87947	0.2072	0.107
Mof_C 	C 	0.747	0.8151	0.9525	-0.198
Mof_C 	C 	0.894	0.8251	0.006	0.092
Mof_C 	C 	0.7716	0.86134	0.1141	0.146
Mof_C 	C 	0.6378	0.8513	0.0685	-0.223
Mof_C 	C 	0.7444	0.58329	0.9748	0.125
Mof_C 	C 	0.5959	0.58792	0.9304	-0.248
Mof_C 	C 	0.5255	0.61019	0.9719	0.183
Mof_C 	C 	0.6096	0.62919	0.065	-0.201
Mof_C 	C 	0.7634	0.62454	0.114	0.087
Mof_C 	C 	0.4477	0.56227	0.4685	0.322
Mof_C 	C 	0.5766	0.57631	0.4303	-0.315
Mof_C 	C 	0.7214	0.56639	0.4776	0.15
Mof_C 	C 	0.7344	0.5422	0.5625	-0.192
Mof_C 	C 	0.6066	0.52918	0.5982	0.16
Mof_C 	C 	0.4651	0.53932	0.5517	-0.335
Mof_C 	C 	0.4175	0.01805	0.4062	0.56
Mof_C 	C 	0.437	0.97677	0.5474	0.589
Mof_C 	C 	0.3196	0.71895	0.3458	-0.133
Mof_C 	C 	0.201	0.61707	0.294	-0.16
Mof_C 	C 	0.0309	0.51989	0.257	-0.162
Mof_H 	H 	0.50729	0.67535	0.44124	0.008
Mof_H 	H 	0.72955	0.79824	0.88883	0.054
Mof_H 	H 	0.97497	0.81256	0.97865	-0.046
Mof_H 	H 	0.99541	0.6411	0.63703	-0.114
Mof_H 	H 	0.76518	0.87894	0.16945	-0.031
Mof_H 	H 	0.54373	0.86079	0.10644	0.07
Mof_H 	H 	0.94596	0.59834	0.08809	0.019
Mof_H 	H 	0.79006	0.56597	0.9488	-0.037
Mof_H 	H 	0.54035	0.57381	0.85983	0.086
Mof_H 	H 	0.41673	0.613	0.93803	-0.173
Mof_H 	H 	0.56473	0.64636	0.09645	0.065
Mof_H 	H 	0.82297	0.63752	0.18822	-0.014
Mof_H 	H 	0.34693	0.56902	0.43689	-0.275
Mof_H 	H 	0.57117	0.59353	0.36913	0.116
Mof_H 	H 	0.81466	0.57626	0.45051	-0.053
Mof_H 	H 	0.83659	0.53482	0.59929	-0.04
Mof_H 	H 	0.61516	0.51198	0.66082	-0.042
Mof_H 	H 	0.37442	0.5286	0.56688	0.104
Mof_H 	H 	0.75874	0.49134	0.0742	-0.041
Mof_H 	H 	0.35957	0.03104	0.33552	-0.17
Mof_H 	H 	0.3923	0.95969	0.57801	-0.198
_end
