data_functionalizedCrystal
_audit_creation_method	'EQeq! by Chris Wilmer'
_symmetry_space_group_name_H-M	'P1'
_symmetry_Int_Tables_number	1
_symmetry_cell_setting	triclinic
loop_
_symmetry_equiv_pos_as_xyz
  x,y,z
_cell_length_a	8.5536
_cell_length_b	19.3919
_cell_length_c	44.3014
_cell_angle_alpha	90
_cell_angle_beta	91.111
_cell_angle_gamma	90
loop_
_atom_site_label
_atom_site_type_symbol
_atom_site_fract_x
_atom_site_fract_y
_atom_site_fract_z
_atom_site_charge
Mof_U 	U 	0.08011	0.80385	0.84339	-0.023
Mof_O 	O 	0.0126	0.7333	0.79763	-0.556
Mof_C 	C 	0.6887	0.5575	0.7363	0.034
Mof_C 	C 	0.5483	0.6243	0.7027	0.079
Mof_N 	N 	0.6524	0.6189	0.7262	-0.124
Mof_O 	O 	0.1638	0.8571	0.892	-0.185
Mof_C 	C 	0.1579	0.4718	0.8433	-0.015
Mof_H 	H 	0.2365	0.4656	0.8579	0.05
Mof_C 	C 	0.1887	0.7966	0.9052	0.244
Mof_C 	C 	0.1172	0.5398	0.8359	-0.065
Mof_H 	H 	0.1529	0.578	0.8466	0.084
Mof_C 	C 	0.518	0.8005	0.9638	0.08
Mof_C 	C 	0.204	0.7699	0.9588	-0.054
Mof_H 	H 	0.0986	0.758	0.9574	0.061
Mof_C 	C 	0.437	0.8086	0.9357	0.02
Mof_C 	C 	0.2767	0.7937	0.9343	-0.042
Mof_C 	C 	0.5275	0.4988	0.7002	-0.142
Mof_C 	C 	0.9715	0.612	0.7992	-0.047
Mof_C 	C 	0.6283	0.4949	0.7242	0.015
Mof_H 	H 	0.6568	0.4525	0.7325	-0.017
Mof_C 	C 	0.8683	0.6144	0.7749	-0.034
Mof_H 	H 	0.8396	0.6569	0.7668	0.013
Mof_C 	C 	0.9492	0.4881	0.7962	0.106
Mof_C 	C 	0.9878	0.4172	0.8062	-0.033
Mof_H 	H 	0.9473	0.3777	0.7971	0.08
Mof_C 	C 	0.3683	0.5761	0.6644	-0.082
Mof_H 	H 	0.3184	0.5391	0.655	0.083
Mof_C 	C 	0.0944	0.4163	0.8315	-0.068
Mof_H 	H 	0.1201	0.3738	0.84	0.052
Mof_C 	C 	0.4812	0.5633	0.6881	0.05
Mof_C 	C 	0.5064	0.6861	0.6924	-0.091
Mof_H 	H 	0.5514	0.7232	0.7027	0.092
Mof_C 	C 	0.0233	0.6793	0.8131	0.378
Mof_C 	C 	0.4737	0.4329	0.6869	0.378
Mof_C 	C 	0.3332	0.6409	0.6555	-0.02
Mof_H 	H 	0.258	0.6458	0.6402	0.052
Mof_O 	O 	0.1441	0.7437	0.8916	-0.191
Mof_C 	C 	0.4032	0.7047	0.6679	-0.014
Mof_H 	H 	0.3837	0.7493	0.6609	0.04
Mof_N 	N 	0.8413	0.4916	0.7722	-0.129
Mof_C 	C 	0.768	0.8367	0.9421	-0.005
Mof_H 	H 	0.8751	0.8446	0.9438	0.057
Mof_C 	C 	0.684	0.8471	0.9143	-0.032
Mof_H 	H 	0.7375	0.8639	0.8977	0.063
Mof_C 	C 	0.288	0.7628	0.987	0.05
Mof_C 	C 	0.0186	0.544	0.8109	-0.033
Mof_N 	N 	0.4401	0.777	0.989	-0.122
Mof_C 	C 	0.68	0.8139	0.9666	-0.089
Mof_H 	H 	0.7297	0.8074	0.9853	0.08
Mof_C 	C 	0.525	0.8331	0.911	-0.055
Mof_H 	H 	0.4751	0.84	0.8924	0.071
Mof_C 	C 	0.8053	0.5531	0.7621	0.064
Mof_O 	O 	0.2775	0.8377	0.7503	-0.351
Mof_O 	O 	0.0672	0.6767	0.84027	-0.248
Mof_O 	O 	0.4824	0.3756	0.70159	-0.527
Mof_O 	O 	0.4294	0.4259	0.6589	-0.224
Mof_O 	O 	0.2797	0.7659	0.7509	-0.321
Mof_U 	U 	0.58011	0.30385	0.84339	-0.016
Mof_O 	O 	0.5126	0.2333	0.79763	-0.571
Mof_C 	C 	0.1887	0.0575	0.7363	0.014
Mof_C 	C 	0.0483	0.1243	0.7027	0.035
Mof_N 	N 	0.1524	0.1189	0.7262	-0.118
Mof_O 	O 	0.6638	0.3571	0.892	-0.181
Mof_C 	C 	0.6579	0.9718	0.8433	-0.003
Mof_H 	H 	0.7365	0.9656	0.8579	0.055
Mof_C 	C 	0.6887	0.2966	0.9052	0.27
Mof_C 	C 	0.6172	0.0398	0.8359	-0.102
Mof_H 	H 	0.6529	0.078	0.8466	0.106
Mof_C 	C 	0.018	0.3005	0.9638	-0.038
Mof_C 	C 	0.704	0.2699	0.9588	-0.011
Mof_H 	H 	0.5986	0.258	0.9574	0.055
Mof_C 	C 	0.937	0.3086	0.9357	0.174
Mof_C 	C 	0.7767	0.2937	0.9343	-0.103
Mof_C 	C 	0.0275	0.9988	0.7002	-0.242
Mof_C 	C 	0.4715	0.112	0.7992	-0.147
Mof_C 	C 	0.1283	0.9949	0.7242	0.058
Mof_H 	H 	0.1568	0.9525	0.7325	-0.037
Mof_C 	C 	0.3683	0.1144	0.7749	0.009
Mof_H 	H 	0.3396	0.1569	0.7668	-0.015
Mof_C 	C 	0.4492	0.9881	0.7962	0.054
Mof_C 	C 	0.4878	0.9172	0.8062	-0.06
Mof_H 	H 	0.4473	0.8777	0.7971	0.082
Mof_C 	C 	0.8683	0.0761	0.6644	-0.12
Mof_H 	H 	0.8184	0.0391	0.655	0.103
Mof_C 	C 	0.5944	0.9163	0.8315	-0.032
Mof_H 	H 	0.6201	0.8738	0.84	0.051
Mof_C 	C 	0.9812	0.0633	0.6881	0.145
Mof_C 	C 	0.0064	0.1861	0.6924	-0.118
Mof_H 	H 	0.0514	0.2232	0.7027	0.093
Mof_C 	C 	0.5233	0.1793	0.8131	0.438
Mof_C 	C 	0.9737	0.9329	0.6869	0.429
Mof_C 	C 	0.8332	0.1409	0.6555	-0
Mof_H 	H 	0.758	0.1458	0.6402	0.055
Mof_O 	O 	0.6441	0.2437	0.8916	-0.189
Mof_C 	C 	0.9032	0.2047	0.6679	0.018
Mof_H 	H 	0.8837	0.2493	0.6609	0.04
Mof_N 	N 	0.3413	0.9916	0.7722	-0.122
Mof_C 	C 	0.268	0.3367	0.9421	-0.112
Mof_H 	H 	0.3751	0.3446	0.9438	0.085
Mof_C 	C 	0.184	0.3471	0.9143	0.098
Mof_H 	H 	0.2375	0.3639	0.8977	0.009
Mof_C 	C 	0.788	0.2628	0.987	0.043
Mof_C 	C 	0.5186	0.044	0.8109	0.063
Mof_N 	N 	0.9401	0.277	0.989	-0.085
Mof_C 	C 	0.18	0.3139	0.9666	0.003
Mof_H 	H 	0.2297	0.3074	0.9853	0.041
Mof_C 	C 	0.025	0.3331	0.911	-0.259
Mof_H 	H 	0.9751	0.34	0.8924	0.163
Mof_C 	C 	0.3053	0.0531	0.7621	0.042
Mof_O 	O 	0.7775	0.3377	0.7503	-0.353
Mof_O 	O 	0.5672	0.1767	0.84027	-0.255
Mof_O 	O 	0.9824	0.8756	0.70159	-0.511
Mof_O 	O 	0.9294	0.9259	0.6589	-0.227
Mof_O 	O 	0.7797	0.2659	0.7509	-0.322
Mof_U 	U 	0.91989	0.80385	0.65661	-0.01
Mof_O 	O 	0.9874	0.7333	0.70237	-0.553
Mof_C 	C 	0.3113	0.5575	0.7637	0.046
Mof_C 	C 	0.4517	0.6243	0.7973	0.083
Mof_N 	N 	0.3476	0.6189	0.7738	-0.128
Mof_O 	O 	0.8362	0.8571	0.608	-0.17
Mof_C 	C 	0.8421	0.4718	0.6567	0.007
Mof_H 	H 	0.7635	0.4656	0.6421	0.045
Mof_C 	C 	0.8113	0.7966	0.5948	0.244
Mof_C 	C 	0.8828	0.5398	0.6641	-0.142
Mof_H 	H 	0.8471	0.578	0.6534	0.122
Mof_C 	C 	0.482	0.8005	0.5362	0.086
Mof_C 	C 	0.796	0.7699	0.5412	-0.069
Mof_H 	H 	0.9014	0.758	0.5426	0.082
Mof_C 	C 	0.563	0.8086	0.5643	0.012
Mof_C 	C 	0.7233	0.7937	0.5657	-0.027
Mof_C 	C 	0.4725	0.4988	0.7998	-0.138
Mof_C 	C 	0.0285	0.612	0.7008	-0.241
Mof_C 	C 	0.3717	0.4949	0.7758	0.005
Mof_H 	H 	0.3432	0.4525	0.7675	-0.017
Mof_C 	C 	0.1317	0.6144	0.7251	0.055
Mof_H 	H 	0.1604	0.6569	0.7332	-0.032
Mof_C 	C 	0.0508	0.4881	0.7038	0.001
Mof_C 	C 	0.0122	0.4172	0.6938	-0.088
Mof_H 	H 	0.0527	0.3777	0.7029	0.083
Mof_C 	C 	0.6317	0.5761	0.8356	-0.078
Mof_H 	H 	0.6816	0.5391	0.845	0.089
Mof_C 	C 	0.9056	0.4163	0.6685	-0.001
Mof_H 	H 	0.8799	0.3738	0.66	0.044
Mof_C 	C 	0.5188	0.5633	0.8119	0.047
Mof_C 	C 	0.4936	0.6861	0.8076	-0.093
Mof_H 	H 	0.4486	0.7232	0.7973	0.094
Mof_C 	C 	0.9767	0.6793	0.6869	0.486
Mof_C 	C 	0.5263	0.4329	0.8131	0.376
Mof_C 	C 	0.6668	0.6409	0.8445	-0.021
Mof_H 	H 	0.742	0.6458	0.8598	0.067
Mof_O 	O 	0.8559	0.7437	0.6084	-0.178
Mof_C 	C 	0.5968	0.7047	0.8321	-0.006
Mof_H 	H 	0.6163	0.7493	0.8391	0.045
Mof_N 	N 	0.1587	0.4916	0.7278	-0.111
Mof_C 	C 	0.232	0.8367	0.5579	-0.005
Mof_H 	H 	0.1249	0.8446	0.5562	0.036
Mof_C 	C 	0.316	0.8471	0.5857	-0.04
Mof_H 	H 	0.2625	0.8639	0.6023	0.055
Mof_C 	C 	0.712	0.7628	0.513	0.075
Mof_C 	C 	0.9814	0.544	0.6891	0.161
Mof_N 	N 	0.5599	0.777	0.511	-0.126
Mof_C 	C 	0.32	0.8139	0.5334	-0.097
Mof_H 	H 	0.2703	0.8074	0.5147	0.076
Mof_C 	C 	0.475	0.8331	0.589	-0.051
Mof_H 	H 	0.5249	0.84	0.6076	0.069
Mof_C 	C 	0.1947	0.5531	0.7379	0.013
Mof_O 	O 	0.7225	0.8377	0.7497	-0.342
Mof_O 	O 	0.9328	0.6767	0.65973	-0.261
Mof_O 	O 	0.5176	0.3756	0.79841	-0.528
Mof_O 	O 	0.5706	0.4259	0.8411	-0.22
Mof_O 	O 	0.7203	0.7659	0.7491	-0.313
Mof_U 	U 	0.41989	0.30385	0.65661	-0.018
Mof_O 	O 	0.4874	0.2333	0.70237	-0.571
Mof_C 	C 	0.8113	0.0575	0.7637	0.071
Mof_C 	C 	0.9517	0.1243	0.7973	0.13
Mof_N 	N 	0.8476	0.1189	0.7738	-0.136
Mof_O 	O 	0.3362	0.3571	0.608	-0.173
Mof_C 	C 	0.3421	0.9718	0.6567	0
Mof_H 	H 	0.2635	0.9656	0.6421	0.04
Mof_C 	C 	0.3113	0.2966	0.5948	0.219
Mof_C 	C 	0.3828	0.0398	0.6641	-0.108
Mof_H 	H 	0.3471	0.078	0.6534	0.103
Mof_C 	C 	0.982	0.3005	0.5362	0.205
Mof_C 	C 	0.296	0.2699	0.5412	-0.111
Mof_H 	H 	0.4014	0.258	0.5426	0.089
Mof_C 	C 	0.063	0.3086	0.5643	-0.144
Mof_C 	C 	0.2233	0.2937	0.5657	0.035
Mof_C 	C 	0.9725	0.9988	0.7998	-0.028
Mof_C 	C 	0.5285	0.112	0.7008	-0.151
Mof_C 	C 	0.8717	0.9949	0.7758	-0.047
Mof_H 	H 	0.8432	0.9525	0.7675	0.014
Mof_C 	C 	0.6317	0.1144	0.7251	0.02
Mof_H 	H 	0.6604	0.1569	0.7332	-0.015
Mof_C 	C 	0.5508	0.9881	0.7038	0.052
Mof_C 	C 	0.5122	0.9172	0.6938	-0.059
Mof_H 	H 	0.5527	0.8777	0.7029	0.081
Mof_C 	C 	0.1317	0.0761	0.8356	-0.037
Mof_H 	H 	0.1816	0.0391	0.845	0.067
Mof_C 	C 	0.4056	0.9163	0.6685	-0.04
Mof_H 	H 	0.3799	0.8738	0.66	0.047
Mof_C 	C 	0.0188	0.0633	0.8119	-0.052
Mof_C 	C 	0.9936	0.1861	0.8076	-0.069
Mof_H 	H 	0.9486	0.2232	0.7973	0.093
Mof_C 	C 	0.4767	0.1793	0.6869	0.44
Mof_C 	C 	0.0263	0.9329	0.8131	0.313
Mof_C 	C 	0.1668	0.1409	0.8445	-0.043
Mof_H 	H 	0.242	0.1458	0.8598	0.065
Mof_O 	O 	0.3559	0.2437	0.6084	-0.181
Mof_C 	C 	0.0968	0.2047	0.8321	-0.036
Mof_H 	H 	0.1163	0.2493	0.8391	0.043
Mof_N 	N 	0.6587	0.9916	0.7278	-0.116
Mof_C 	C 	0.732	0.3367	0.5579	0.103
Mof_H 	H 	0.6249	0.3446	0.5562	0.009
Mof_C 	C 	0.816	0.3471	0.5857	-0.171
Mof_H 	H 	0.7625	0.3639	0.6023	0.109
Mof_C 	C 	0.212	0.2628	0.513	0.083
Mof_C 	C 	0.4814	0.044	0.6891	0.067
Mof_N 	N 	0.0599	0.277	0.511	-0.162
Mof_C 	C 	0.82	0.3139	0.5334	-0.189
Mof_H 	H 	0.7703	0.3074	0.5147	0.115
Mof_C 	C 	0.975	0.3331	0.589	0.154
Mof_H 	H 	0.0249	0.34	0.6076	-0.024
Mof_C 	C 	0.6947	0.0531	0.7379	0.03
Mof_O 	O 	0.2225	0.3377	0.7497	-0.365
Mof_O 	O 	0.4328	0.1767	0.65973	-0.259
Mof_O 	O 	0.0176	0.8756	0.79841	-0.511
Mof_O 	O 	0.0706	0.9259	0.8411	-0.214
Mof_O 	O 	0.2203	0.2659	0.7491	-0.334
Mof_U 	U 	0.91989	0.19615	0.15661	-0.01
Mof_O 	O 	0.9874	0.2667	0.20237	-0.553
Mof_C 	C 	0.3113	0.4425	0.2637	0.046
Mof_C 	C 	0.4517	0.3757	0.2973	0.083
Mof_N 	N 	0.3476	0.3811	0.2738	-0.128
Mof_O 	O 	0.8362	0.1429	0.108	-0.17
Mof_C 	C 	0.8421	0.5282	0.1567	0.007
Mof_H 	H 	0.7635	0.5344	0.1421	0.045
Mof_C 	C 	0.8113	0.2034	0.0948	0.244
Mof_C 	C 	0.8828	0.4602	0.1641	-0.142
Mof_H 	H 	0.8471	0.422	0.1534	0.122
Mof_C 	C 	0.482	0.1995	0.0362	0.086
Mof_C 	C 	0.796	0.2301	0.0412	-0.069
Mof_H 	H 	0.9014	0.242	0.0426	0.082
Mof_C 	C 	0.563	0.1914	0.0643	0.012
Mof_C 	C 	0.7233	0.2063	0.0657	-0.027
Mof_C 	C 	0.4725	0.5012	0.2998	-0.138
Mof_C 	C 	0.0285	0.388	0.2008	-0.241
Mof_C 	C 	0.3717	0.5051	0.2758	0.005
Mof_H 	H 	0.3432	0.5475	0.2675	-0.017
Mof_C 	C 	0.1317	0.3856	0.2251	0.055
Mof_H 	H 	0.1604	0.3431	0.2332	-0.032
Mof_C 	C 	0.0508	0.5119	0.2038	0.001
Mof_C 	C 	0.0122	0.5828	0.1938	-0.088
Mof_H 	H 	0.0527	0.6223	0.2029	0.083
Mof_C 	C 	0.6317	0.4239	0.3356	-0.078
Mof_H 	H 	0.6816	0.4609	0.345	0.089
Mof_C 	C 	0.9056	0.5837	0.1685	-0.001
Mof_H 	H 	0.8799	0.6262	0.16	0.044
Mof_C 	C 	0.5188	0.4367	0.3119	0.047
Mof_C 	C 	0.4936	0.3139	0.3076	-0.093
Mof_H 	H 	0.4486	0.2768	0.2973	0.094
Mof_C 	C 	0.9767	0.3207	0.1869	0.486
Mof_C 	C 	0.5263	0.5671	0.3131	0.376
Mof_C 	C 	0.6668	0.3591	0.3445	-0.021
Mof_H 	H 	0.742	0.3542	0.3598	0.067
Mof_O 	O 	0.8559	0.2563	0.1084	-0.178
Mof_C 	C 	0.5968	0.2953	0.3321	-0.006
Mof_H 	H 	0.6163	0.2507	0.3391	0.045
Mof_N 	N 	0.1587	0.5084	0.2278	-0.111
Mof_C 	C 	0.232	0.1633	0.0579	-0.005
Mof_H 	H 	0.1249	0.1554	0.0562	0.036
Mof_C 	C 	0.316	0.1529	0.0857	-0.04
Mof_H 	H 	0.2625	0.1361	0.1023	0.055
Mof_C 	C 	0.712	0.2372	0.013	0.075
Mof_C 	C 	0.9814	0.456	0.1891	0.161
Mof_N 	N 	0.5599	0.223	0.011	-0.126
Mof_C 	C 	0.32	0.1861	0.0334	-0.097
Mof_H 	H 	0.2703	0.1926	0.0147	0.076
Mof_C 	C 	0.475	0.1669	0.089	-0.051
Mof_H 	H 	0.5249	0.16	0.1076	0.069
Mof_C 	C 	0.1947	0.4469	0.2379	0.013
Mof_O 	O 	0.7225	0.1623	0.2497	-0.342
Mof_O 	O 	0.9328	0.3233	0.15973	-0.261
Mof_O 	O 	0.5176	0.6244	0.29841	-0.528
Mof_O 	O 	0.5706	0.5741	0.3411	-0.22
Mof_O 	O 	0.7203	0.2341	0.2491	-0.313
Mof_U 	U 	0.41989	0.69615	0.15661	-0.018
Mof_O 	O 	0.4874	0.7667	0.20237	-0.571
Mof_C 	C 	0.8113	0.9425	0.2637	0.071
Mof_C 	C 	0.9517	0.8757	0.2973	0.13
Mof_N 	N 	0.8476	0.8811	0.2738	-0.136
Mof_O 	O 	0.3362	0.6429	0.108	-0.173
Mof_C 	C 	0.3421	0.0282	0.1567	0
Mof_H 	H 	0.2635	0.0344	0.1421	0.04
Mof_C 	C 	0.3113	0.7034	0.0948	0.219
Mof_C 	C 	0.3828	0.9602	0.1641	-0.108
Mof_H 	H 	0.3471	0.922	0.1534	0.103
Mof_C 	C 	0.982	0.6995	0.0362	0.205
Mof_C 	C 	0.296	0.7301	0.0412	-0.111
Mof_H 	H 	0.4014	0.742	0.0426	0.088
Mof_C 	C 	0.063	0.6914	0.0643	-0.144
Mof_C 	C 	0.2233	0.7063	0.0657	0.035
Mof_C 	C 	0.9725	0.0012	0.2998	-0.028
Mof_C 	C 	0.5285	0.888	0.2008	-0.151
Mof_C 	C 	0.8717	0.0051	0.2758	-0.047
Mof_H 	H 	0.8432	0.0475	0.2675	0.014
Mof_C 	C 	0.6317	0.8856	0.2251	0.02
Mof_H 	H 	0.6604	0.8431	0.2332	-0.015
Mof_C 	C 	0.5508	0.0119	0.2038	0.052
Mof_C 	C 	0.5122	0.0828	0.1938	-0.059
Mof_H 	H 	0.5527	0.1223	0.2029	0.081
Mof_C 	C 	0.1317	0.9239	0.3356	-0.037
Mof_H 	H 	0.1816	0.9609	0.345	0.067
Mof_C 	C 	0.4056	0.0837	0.1685	-0.04
Mof_H 	H 	0.3799	0.1262	0.16	0.047
Mof_C 	C 	0.0188	0.9367	0.3119	-0.052
Mof_C 	C 	0.9936	0.8139	0.3076	-0.069
Mof_H 	H 	0.9486	0.7768	0.2973	0.093
Mof_C 	C 	0.4767	0.8207	0.1869	0.44
Mof_C 	C 	0.0263	0.0671	0.3131	0.313
Mof_C 	C 	0.1668	0.8591	0.3445	-0.043
Mof_H 	H 	0.242	0.8542	0.3598	0.065
Mof_O 	O 	0.3559	0.7563	0.1084	-0.181
Mof_C 	C 	0.0968	0.7953	0.3321	-0.036
Mof_H 	H 	0.1163	0.7507	0.3391	0.043
Mof_N 	N 	0.6587	0.0084	0.2278	-0.116
Mof_C 	C 	0.732	0.6633	0.0579	0.103
Mof_H 	H 	0.6249	0.6554	0.0562	0.009
Mof_C 	C 	0.816	0.6529	0.0857	-0.171
Mof_H 	H 	0.7625	0.6361	0.1023	0.109
Mof_C 	C 	0.212	0.7372	0.013	0.083
Mof_C 	C 	0.4814	0.956	0.1891	0.067
Mof_N 	N 	0.0599	0.723	0.011	-0.162
Mof_C 	C 	0.82	0.6861	0.0334	-0.189
Mof_H 	H 	0.7703	0.6926	0.0147	0.115
Mof_C 	C 	0.975	0.6669	0.089	0.154
Mof_H 	H 	0.0249	0.66	0.1076	-0.024
Mof_C 	C 	0.6947	0.9469	0.2379	0.03
Mof_O 	O 	0.2225	0.6623	0.2497	-0.365
Mof_O 	O 	0.4328	0.8233	0.15973	-0.259
Mof_O 	O 	0.0176	0.1244	0.29841	-0.511
Mof_O 	O 	0.0706	0.0741	0.3411	-0.214
Mof_O 	O 	0.2203	0.7341	0.2491	-0.334
Mof_U 	U 	0.08011	0.19615	0.34339	-0.022
Mof_O 	O 	0.0126	0.2667	0.29763	-0.555
Mof_C 	C 	0.6887	0.4425	0.2363	0.035
Mof_C 	C 	0.5483	0.3757	0.2027	0.08
Mof_N 	N 	0.6524	0.3811	0.2262	-0.123
Mof_O 	O 	0.1638	0.1429	0.392	-0.184
Mof_C 	C 	0.1579	0.5282	0.3433	-0.014
Mof_H 	H 	0.2365	0.5344	0.3579	0.051
Mof_C 	C 	0.1887	0.2034	0.4052	0.245
Mof_C 	C 	0.1172	0.4602	0.3359	-0.064
Mof_H 	H 	0.1529	0.422	0.3466	0.085
Mof_C 	C 	0.518	0.1995	0.4638	0.081
Mof_C 	C 	0.204	0.2301	0.4588	-0.054
Mof_H 	H 	0.0986	0.242	0.4574	0.061
Mof_C 	C 	0.437	0.1914	0.4357	0.02
Mof_C 	C 	0.2767	0.2063	0.4343	-0.042
Mof_C 	C 	0.5275	0.5012	0.2002	-0.142
Mof_C 	C 	0.9715	0.388	0.2992	-0.047
Mof_C 	C 	0.6283	0.5051	0.2242	0.015
Mof_H 	H 	0.6568	0.5475	0.2325	-0.017
Mof_C 	C 	0.8683	0.3856	0.2749	-0.034
Mof_H 	H 	0.8396	0.3431	0.2668	0.013
Mof_C 	C 	0.9492	0.5119	0.2962	0.106
Mof_C 	C 	0.9878	0.5828	0.3062	-0.033
Mof_H 	H 	0.9473	0.6223	0.2971	0.08
Mof_C 	C 	0.3683	0.4239	0.1644	-0.082
Mof_H 	H 	0.3184	0.4609	0.155	0.083
Mof_C 	C 	0.0944	0.5837	0.3315	-0.068
Mof_H 	H 	0.1201	0.6262	0.34	0.052
Mof_C 	C 	0.4812	0.4367	0.1881	0.05
Mof_C 	C 	0.5064	0.3139	0.1924	-0.091
Mof_H 	H 	0.5514	0.2768	0.2027	0.092
Mof_C 	C 	0.0233	0.3207	0.3131	0.378
Mof_C 	C 	0.4737	0.5671	0.1869	0.378
Mof_C 	C 	0.3332	0.3591	0.1555	-0.02
Mof_H 	H 	0.258	0.3542	0.1402	0.052
Mof_O 	O 	0.1441	0.2563	0.3916	-0.191
Mof_C 	C 	0.4032	0.2953	0.1679	-0.014
Mof_H 	H 	0.3837	0.2507	0.1609	0.04
Mof_N 	N 	0.8413	0.5084	0.2722	-0.129
Mof_C 	C 	0.768	0.1633	0.4421	-0.005
Mof_H 	H 	0.8751	0.1554	0.4438	0.057
Mof_C 	C 	0.684	0.1529	0.4143	-0.032
Mof_H 	H 	0.7375	0.1361	0.3977	0.063
Mof_C 	C 	0.288	0.2372	0.487	0.05
Mof_C 	C 	0.0186	0.456	0.3109	-0.033
Mof_N 	N 	0.4401	0.223	0.489	-0.122
Mof_C 	C 	0.68	0.1861	0.4666	-0.089
Mof_H 	H 	0.7297	0.1926	0.4853	0.08
Mof_C 	C 	0.525	0.1669	0.411	-0.055
Mof_H 	H 	0.4751	0.16	0.3924	0.071
Mof_C 	C 	0.8053	0.4469	0.2621	0.064
Mof_O 	O 	0.2775	0.1623	0.2503	-0.351
Mof_O 	O 	0.0672	0.3233	0.34027	-0.248
Mof_O 	O 	0.4824	0.6244	0.20159	-0.527
Mof_O 	O 	0.4294	0.5741	0.1589	-0.224
Mof_O 	O 	0.2797	0.2341	0.2509	-0.321
Mof_U 	U 	0.58011	0.69615	0.34339	-0.016
Mof_O 	O 	0.5126	0.7667	0.29763	-0.571
Mof_C 	C 	0.1887	0.9425	0.2363	0.014
Mof_C 	C 	0.0483	0.8757	0.2027	0.035
Mof_N 	N 	0.1524	0.8811	0.2262	-0.118
Mof_O 	O 	0.6638	0.6429	0.392	-0.181
Mof_C 	C 	0.6579	0.0282	0.3433	-0.003
Mof_H 	H 	0.7365	0.0344	0.3579	0.055
Mof_C 	C 	0.6887	0.7034	0.4052	0.27
Mof_C 	C 	0.6172	0.9602	0.3359	-0.102
Mof_H 	H 	0.6529	0.922	0.3466	0.106
Mof_C 	C 	0.018	0.6995	0.4638	-0.038
Mof_C 	C 	0.704	0.7301	0.4588	-0.011
Mof_H 	H 	0.5986	0.742	0.4574	0.055
Mof_C 	C 	0.937	0.6914	0.4357	0.174
Mof_C 	C 	0.7767	0.7063	0.4343	-0.103
Mof_C 	C 	0.0275	0.0012	0.2002	-0.242
Mof_C 	C 	0.4715	0.888	0.2992	-0.147
Mof_C 	C 	0.1283	0.0051	0.2242	0.058
Mof_H 	H 	0.1568	0.0475	0.2325	-0.037
Mof_C 	C 	0.3683	0.8856	0.2749	0.009
Mof_H 	H 	0.3396	0.8431	0.2668	-0.015
Mof_C 	C 	0.4492	0.0119	0.2962	0.054
Mof_C 	C 	0.4878	0.0828	0.3062	-0.06
Mof_H 	H 	0.4473	0.1223	0.2971	0.082
Mof_C 	C 	0.8683	0.9239	0.1644	-0.12
Mof_H 	H 	0.8184	0.9609	0.155	0.103
Mof_C 	C 	0.5944	0.0837	0.3315	-0.032
Mof_H 	H 	0.6201	0.1262	0.34	0.051
Mof_C 	C 	0.9812	0.9367	0.1881	0.145
Mof_C 	C 	0.0064	0.8139	0.1924	-0.118
Mof_H 	H 	0.0514	0.7768	0.2027	0.093
Mof_C 	C 	0.5233	0.8207	0.3131	0.438
Mof_C 	C 	0.9737	0.0671	0.1869	0.429
Mof_C 	C 	0.8332	0.8591	0.1555	-0
Mof_H 	H 	0.758	0.8542	0.1402	0.055
Mof_O 	O 	0.6441	0.7563	0.3916	-0.189
Mof_C 	C 	0.9032	0.7953	0.1679	0.018
Mof_H 	H 	0.8837	0.7507	0.1609	0.04
Mof_N 	N 	0.3413	0.0084	0.2722	-0.122
Mof_C 	C 	0.268	0.6633	0.4421	-0.112
Mof_H 	H 	0.3751	0.6554	0.4438	0.085
Mof_C 	C 	0.184	0.6529	0.4143	0.098
Mof_H 	H 	0.2375	0.6361	0.3977	0.009
Mof_C 	C 	0.788	0.7372	0.487	0.042
Mof_C 	C 	0.5186	0.956	0.3109	0.063
Mof_N 	N 	0.9401	0.723	0.489	-0.085
Mof_C 	C 	0.18	0.6861	0.4666	0.003
Mof_H 	H 	0.2297	0.6926	0.4853	0.041
Mof_C 	C 	0.025	0.6669	0.411	-0.259
Mof_H 	H 	0.9751	0.66	0.3924	0.163
Mof_C 	C 	0.3053	0.9469	0.2621	0.042
Mof_O 	O 	0.7775	0.6623	0.2503	-0.353
Mof_O 	O 	0.5672	0.8233	0.34027	-0.255
Mof_O 	O 	0.9824	0.1244	0.20159	-0.511
Mof_O 	O 	0.9294	0.0741	0.1589	-0.227
Mof_O 	O 	0.7797	0.7341	0.2509	-0.322
Mof_Na	Na	1.54741e-17	0.8043	0.75	2.995
Mof_Na	Na	0.5	0.3043	0.75	3.13
Mof_Na	Na	4.94892e-33	0.1957	0.25	2.995
Mof_Na	Na	0.5	0.6957	0.25	3.13
_end
