# CIF file generated by openbabel 3.1.0, see https://openbabel.org
data_I
_chemical_name_common 'image0'
_cell_length_a 7.1407
_cell_length_b 7.1407
_cell_length_c 20.489
_cell_angle_alpha 90
_cell_angle_beta 90
_cell_angle_gamma 90
_space_group_name_H-M_alt 'P 1'
_space_group_name_Hall 'P 1'
loop_
    _symmetry_equiv_pos_as_xyz
    x,y,z
loop_
    _atom_site_label
    _atom_site_type_symbol
    _atom_site_fract_x
    _atom_site_fract_y
    _atom_site_fract_z
    _atom_site_occupancy
    Pt1      Pt       0.00000    0.00000    0.50000    1.000
    Fe1      Fe       0.50000    0.50000    0.50000    1.000
    N1       N        0.50000    0.50000    0.59690    1.000
    C1       C        0.50000    0.50000    0.73290    1.000
    C2       C        0.50000    0.50000    0.93100    1.000
    C3       C        0.50000    0.50000    0.86400    1.000
    C4       C        0.50000    0.50000    0.80480    1.000
    N2       N        0.50000    0.50000    0.40310    1.000
    C5       C        0.50000    0.50000    0.26710    1.000
    C6       C        0.50000    0.50000    0.06900    1.000
    C7       C        0.50000    0.50000    0.13600    1.000
    C8       C        0.50000    0.50000    0.19520    1.000
    N3       N        0.69000    0.69000    0.50000    1.000
    C9       C        0.80800    0.80800    0.50000    1.000
    N4       N        0.31000    0.31000    0.50000    1.000
    C10      C        0.19200    0.19200    0.50000    1.000
    N5       N        0.31000    0.69000    0.50000    1.000
    C11      C        0.19200    0.80800    0.50000    1.000
    N6       N        0.69000    0.31000    0.50000    1.000
    C12      C        0.80800    0.19200    0.50000    1.000
    C13      C        0.65800    0.50000    0.63080    1.000
    C14      C        0.66700    0.50000    0.69960    1.000
    C15      C        0.63600    0.50000    0.96500    1.000
    C16      C        0.34200    0.50000    0.63080    1.000
    C17      C        0.33300    0.50000    0.69960    1.000
    C18      C        0.36400    0.50000    0.96500    1.000
    C19      C        0.50000    0.65800    0.63080    1.000
    C20      C        0.50000    0.66700    0.69960    1.000
    C21      C        0.50000    0.63600    0.96500    1.000
    C22      C        0.50000    0.34200    0.63080    1.000
    C23      C        0.50000    0.33300    0.69960    1.000
    C24      C        0.50000    0.36400    0.96500    1.000
    C25      C        0.34200    0.50000    0.36920    1.000
    C26      C        0.33300    0.50000    0.30040    1.000
    C27      C        0.36400    0.50000    0.03500    1.000
    C28      C        0.65800    0.50000    0.36920    1.000
    C29      C        0.66700    0.50000    0.30040    1.000
    C30      C        0.63600    0.50000    0.03500    1.000
    C31      C        0.50000    0.65800    0.36920    1.000
    C32      C        0.50000    0.66700    0.30040    1.000
    C33      C        0.50000    0.63600    0.03500    1.000
    C34      C        0.50000    0.34200    0.36920    1.000
    C35      C        0.50000    0.33300    0.30040    1.000
    C36      C        0.50000    0.36400    0.03500    1.000
