data_functionalizedCrystal
_audit_creation_method	'EQeq! by Chris Wilmer'
_symmetry_space_group_name_H-M	'P1'
_symmetry_Int_Tables_number	1
_symmetry_cell_setting	triclinic
loop_
_symmetry_equiv_pos_as_xyz
  x,y,z
_cell_length_a	21.1882
_cell_length_b	21.1882
_cell_length_c	21.1882
_cell_angle_alpha	90
_cell_angle_beta	90
_cell_angle_gamma	90
loop_
_atom_site_label
_atom_site_type_symbol
_atom_site_fract_x
_atom_site_fract_y
_atom_site_fract_z
_atom_site_charge
Mof_N 	N 	0.566	0.6936	0.0666	-0.239
Mof_C 	C 	0.583	0.7543	0.0849	0.063
Mof_H 	H 	0.5651	0.7891	0.0649	-0.024
Mof_C 	C 	0.6267	0.763	0.133	-0.147
Mof_H 	H 	0.638	0.8036	0.1453	0.079
Mof_C 	C 	0.6533	0.7111	0.1629	0.083
Mof_C 	C 	0.6364	0.6504	0.1446	-0.148
Mof_H 	H 	0.6542	0.6156	0.1646	0.075
Mof_C 	C 	0.5927	0.6417	0.0964	0.065
Mof_H 	H 	0.5814	0.6011	0.0842	-0.027
Mof_C 	C 	0.6898	0.7211	0.2138	-0.013
Mof_C 	C 	0.7396	0.6813	0.2291	-0.06
Mof_H 	H 	0.7437	0.6451	0.2046	0.047
Mof_N 	N 	0.434	0.3064	0.0666	-0.239
Mof_C 	C 	0.417	0.2457	0.0849	0.06
Mof_H 	H 	0.4349	0.2109	0.0649	-0.029
Mof_C 	C 	0.3733	0.237	0.133	-0.147
Mof_H 	H 	0.362	0.1964	0.1453	0.071
Mof_C 	C 	0.3467	0.2889	0.1629	0.08
Mof_C 	C 	0.3636	0.3496	0.1446	-0.147
Mof_H 	H 	0.3458	0.3844	0.1646	0.075
Mof_C 	C 	0.4073	0.3583	0.0964	0.064
Mof_H 	H 	0.4186	0.3989	0.0842	-0.027
Mof_C 	C 	0.3102	0.2789	0.2138	-0.015
Mof_C 	C 	0.2604	0.3187	0.2291	-0.06
Mof_H 	H 	0.2563	0.3549	0.2046	0.045
Mof_N 	N 	0.434	0.6936	0.9334	-0.224
Mof_C 	C 	0.417	0.7543	0.9151	0.069
Mof_H 	H 	0.4349	0.7891	0.9351	-0.008
Mof_C 	C 	0.3733	0.763	0.867	-0.141
Mof_H 	H 	0.362	0.8036	0.8547	0.084
Mof_C 	C 	0.3467	0.7111	0.8371	0.085
Mof_C 	C 	0.3636	0.6504	0.8554	-0.143
Mof_H 	H 	0.3458	0.6156	0.8354	0.078
Mof_C 	C 	0.4073	0.6417	0.9036	0.071
Mof_H 	H 	0.4186	0.6011	0.9158	-0.015
Mof_C 	C 	0.3102	0.7211	0.7862	-0.01
Mof_C 	C 	0.2604	0.6813	0.7709	-0.058
Mof_H 	H 	0.2563	0.6451	0.7954	0.049
Mof_N 	N 	0.566	0.3064	0.9334	-0.224
Mof_C 	C 	0.583	0.2457	0.9151	0.068
Mof_H 	H 	0.5651	0.2109	0.9351	-0.013
Mof_C 	C 	0.6267	0.237	0.867	-0.142
Mof_H 	H 	0.638	0.1964	0.8547	0.079
Mof_C 	C 	0.6533	0.2889	0.8371	0.085
Mof_C 	C 	0.6364	0.3496	0.8554	-0.143
Mof_H 	H 	0.6542	0.3844	0.8354	0.079
Mof_C 	C 	0.5927	0.3583	0.9036	0.071
Mof_H 	H 	0.5814	0.3989	0.9158	-0.014
Mof_C 	C 	0.6898	0.2789	0.7862	-0.011
Mof_C 	C 	0.7396	0.3187	0.7709	-0.058
Mof_H 	H 	0.7437	0.3549	0.7954	0.051
Mof_N 	N 	0.0666	0.566	0.6936	-0.238
Mof_C 	C 	0.0849	0.583	0.7543	0.064
Mof_H 	H 	0.0649	0.5651	0.7891	-0.023
Mof_C 	C 	0.133	0.6267	0.763	-0.146
Mof_H 	H 	0.1453	0.638	0.8036	0.08
Mof_C 	C 	0.1629	0.6533	0.7111	0.084
Mof_C 	C 	0.1446	0.6364	0.6504	-0.147
Mof_H 	H 	0.1646	0.6542	0.6156	0.076
Mof_C 	C 	0.0964	0.5927	0.6417	0.066
Mof_H 	H 	0.0842	0.5814	0.6011	-0.026
Mof_C 	C 	0.2138	0.6898	0.7211	-0.012
Mof_C 	C 	0.2291	0.7396	0.6813	-0.059
Mof_H 	H 	0.2046	0.7437	0.6451	0.047
Mof_N 	N 	0.0666	0.434	0.3064	-0.239
Mof_C 	C 	0.0849	0.417	0.2457	0.06
Mof_H 	H 	0.0649	0.4349	0.2109	-0.029
Mof_C 	C 	0.133	0.3733	0.237	-0.147
Mof_H 	H 	0.1453	0.362	0.1964	0.071
Mof_C 	C 	0.1629	0.3467	0.2889	0.08
Mof_C 	C 	0.1446	0.3636	0.3496	-0.147
Mof_H 	H 	0.1646	0.3458	0.3844	0.075
Mof_C 	C 	0.0964	0.4073	0.3583	0.064
Mof_H 	H 	0.0842	0.4186	0.3989	-0.027
Mof_C 	C 	0.2138	0.3102	0.2789	-0.015
Mof_C 	C 	0.2291	0.2604	0.3187	-0.06
Mof_H 	H 	0.2046	0.2563	0.3549	0.045
Mof_N 	N 	0.9334	0.434	0.6936	-0.224
Mof_C 	C 	0.9151	0.417	0.7543	0.069
Mof_H 	H 	0.9351	0.4349	0.7891	-0.008
Mof_C 	C 	0.867	0.3733	0.763	-0.141
Mof_H 	H 	0.8547	0.362	0.8036	0.084
Mof_C 	C 	0.8371	0.3467	0.7111	0.085
Mof_C 	C 	0.8554	0.3636	0.6504	-0.143
Mof_H 	H 	0.8354	0.3458	0.6156	0.078
Mof_C 	C 	0.9036	0.4073	0.6417	0.071
Mof_H 	H 	0.9158	0.4186	0.6011	-0.015
Mof_C 	C 	0.7862	0.3102	0.7211	-0.01
Mof_C 	C 	0.7709	0.2604	0.6813	-0.058
Mof_H 	H 	0.7954	0.2563	0.6451	0.049
Mof_N 	N 	0.9334	0.566	0.3064	-0.224
Mof_C 	C 	0.9151	0.583	0.2457	0.068
Mof_H 	H 	0.9351	0.5651	0.2109	-0.013
Mof_C 	C 	0.867	0.6267	0.237	-0.142
Mof_H 	H 	0.8547	0.638	0.1964	0.079
Mof_C 	C 	0.8371	0.6533	0.2889	0.085
Mof_C 	C 	0.8554	0.6364	0.3496	-0.143
Mof_H 	H 	0.8354	0.6542	0.3844	0.079
Mof_C 	C 	0.9036	0.5927	0.3583	0.071
Mof_H 	H 	0.9158	0.5814	0.3989	-0.014
Mof_C 	C 	0.7862	0.6898	0.2789	-0.011
Mof_C 	C 	0.7709	0.7396	0.3187	-0.058
Mof_H 	H 	0.7954	0.7437	0.3549	0.051
Mof_N 	N 	0.6936	0.0666	0.566	-0.238
Mof_C 	C 	0.7543	0.0849	0.583	0.064
Mof_H 	H 	0.7891	0.0649	0.5651	-0.023
Mof_C 	C 	0.763	0.133	0.6267	-0.146
Mof_H 	H 	0.8036	0.1453	0.638	0.08
Mof_C 	C 	0.7111	0.1629	0.6533	0.084
Mof_C 	C 	0.6504	0.1446	0.6364	-0.147
Mof_H 	H 	0.6156	0.1646	0.6542	0.076
Mof_C 	C 	0.6417	0.0964	0.5927	0.066
Mof_H 	H 	0.6011	0.0842	0.5814	-0.026
Mof_C 	C 	0.7211	0.2138	0.6898	-0.012
Mof_C 	C 	0.6813	0.2291	0.7396	-0.059
Mof_H 	H 	0.6451	0.2046	0.7437	0.047
Mof_N 	N 	0.3064	0.0666	0.434	-0.239
Mof_C 	C 	0.2457	0.0849	0.417	0.06
Mof_H 	H 	0.2109	0.0649	0.4349	-0.029
Mof_C 	C 	0.237	0.133	0.3733	-0.147
Mof_H 	H 	0.1964	0.1453	0.362	0.071
Mof_C 	C 	0.2889	0.1629	0.3467	0.08
Mof_C 	C 	0.3496	0.1446	0.3636	-0.147
Mof_H 	H 	0.3844	0.1646	0.3458	0.075
Mof_C 	C 	0.3583	0.0964	0.4073	0.064
Mof_H 	H 	0.3989	0.0842	0.4186	-0.027
Mof_C 	C 	0.2789	0.2138	0.3102	-0.015
Mof_C 	C 	0.3187	0.2291	0.2604	-0.06
Mof_H 	H 	0.3549	0.2046	0.2563	0.045
Mof_N 	N 	0.6936	0.9334	0.434	-0.224
Mof_C 	C 	0.7543	0.9151	0.417	0.069
Mof_H 	H 	0.7891	0.9351	0.4349	-0.008
Mof_C 	C 	0.763	0.867	0.3733	-0.141
Mof_H 	H 	0.8036	0.8547	0.362	0.084
Mof_C 	C 	0.7111	0.8371	0.3467	0.085
Mof_C 	C 	0.6504	0.8554	0.3636	-0.143
Mof_H 	H 	0.6156	0.8354	0.3458	0.078
Mof_C 	C 	0.6417	0.9036	0.4073	0.071
Mof_H 	H 	0.6011	0.9158	0.4186	-0.015
Mof_C 	C 	0.7211	0.7862	0.3102	-0.01
Mof_C 	C 	0.6813	0.7709	0.2604	-0.058
Mof_H 	H 	0.6451	0.7954	0.2563	0.049
Mof_N 	N 	0.3064	0.9334	0.566	-0.224
Mof_C 	C 	0.2457	0.9151	0.583	0.068
Mof_H 	H 	0.2109	0.9351	0.5651	-0.013
Mof_C 	C 	0.237	0.867	0.6267	-0.142
Mof_H 	H 	0.1964	0.8547	0.638	0.079
Mof_C 	C 	0.2889	0.8371	0.6533	0.085
Mof_C 	C 	0.3496	0.8554	0.6364	-0.143
Mof_H 	H 	0.3844	0.8354	0.6542	0.079
Mof_C 	C 	0.3583	0.9036	0.5927	0.071
Mof_H 	H 	0.3989	0.9158	0.5814	-0.014
Mof_C 	C 	0.2789	0.7862	0.6898	-0.011
Mof_C 	C 	0.3187	0.7709	0.7396	-0.058
Mof_H 	H 	0.3549	0.7954	0.7437	0.051
Mof_N 	N 	0.434	0.3064	0.9334	-0.224
Mof_C 	C 	0.417	0.2457	0.9151	0.067
Mof_H 	H 	0.4349	0.2109	0.9351	-0.013
Mof_C 	C 	0.3733	0.237	0.867	-0.142
Mof_H 	H 	0.362	0.1964	0.8547	0.077
Mof_C 	C 	0.3467	0.2889	0.8371	0.083
Mof_C 	C 	0.3636	0.3496	0.8554	-0.143
Mof_H 	H 	0.3458	0.3844	0.8354	0.078
Mof_C 	C 	0.4073	0.3583	0.9036	0.07
Mof_H 	H 	0.4186	0.3989	0.9158	-0.014
Mof_C 	C 	0.3102	0.2789	0.7862	-0.012
Mof_C 	C 	0.2604	0.3187	0.7709	-0.059
Mof_H 	H 	0.2563	0.3549	0.7954	0.049
Mof_N 	N 	0.566	0.6936	0.9334	-0.224
Mof_C 	C 	0.583	0.7543	0.9151	0.07
Mof_H 	H 	0.5651	0.7891	0.9351	-0.008
Mof_C 	C 	0.6267	0.763	0.867	-0.141
Mof_H 	H 	0.638	0.8036	0.8547	0.086
Mof_C 	C 	0.6533	0.7111	0.8371	0.087
Mof_C 	C 	0.6364	0.6504	0.8554	-0.143
Mof_H 	H 	0.6542	0.6156	0.8354	0.079
Mof_C 	C 	0.5927	0.6417	0.9036	0.072
Mof_H 	H 	0.5814	0.6011	0.9158	-0.014
Mof_C 	C 	0.6898	0.7211	0.7862	-0.009
Mof_C 	C 	0.7396	0.6813	0.7709	-0.058
Mof_H 	H 	0.7437	0.6451	0.7954	0.051
Mof_N 	N 	0.566	0.3064	0.0666	-0.239
Mof_C 	C 	0.583	0.2457	0.0849	0.062
Mof_H 	H 	0.5651	0.2109	0.0649	-0.029
Mof_C 	C 	0.6267	0.237	0.133	-0.146
Mof_H 	H 	0.638	0.1964	0.1453	0.073
Mof_C 	C 	0.6533	0.2889	0.1629	0.082
Mof_C 	C 	0.6364	0.3496	0.1446	-0.147
Mof_H 	H 	0.6542	0.3844	0.1646	0.076
Mof_C 	C 	0.5927	0.3583	0.0964	0.065
Mof_H 	H 	0.5814	0.3989	0.0842	-0.026
Mof_C 	C 	0.6898	0.2789	0.2138	-0.014
Mof_C 	C 	0.7396	0.3187	0.2291	-0.059
Mof_H 	H 	0.7437	0.3549	0.2046	0.047
Mof_N 	N 	0.434	0.6936	0.0666	-0.238
Mof_C 	C 	0.417	0.7543	0.0849	0.062
Mof_H 	H 	0.4349	0.7891	0.0649	-0.024
Mof_C 	C 	0.3733	0.763	0.133	-0.146
Mof_H 	H 	0.362	0.8036	0.1453	0.078
Mof_C 	C 	0.3467	0.7111	0.1629	0.082
Mof_C 	C 	0.3636	0.6504	0.1446	-0.148
Mof_H 	H 	0.3458	0.6156	0.1646	0.075
Mof_C 	C 	0.4073	0.6417	0.0964	0.065
Mof_H 	H 	0.4186	0.6011	0.0842	-0.027
Mof_C 	C 	0.3102	0.7211	0.2138	-0.013
Mof_C 	C 	0.2604	0.6813	0.2291	-0.059
Mof_H 	H 	0.2563	0.6451	0.2046	0.046
Mof_N 	N 	0.9334	0.434	0.3064	-0.224
Mof_C 	C 	0.9151	0.417	0.2457	0.067
Mof_H 	H 	0.9351	0.4349	0.2109	-0.013
Mof_C 	C 	0.867	0.3733	0.237	-0.142
Mof_H 	H 	0.8547	0.362	0.1964	0.077
Mof_C 	C 	0.8371	0.3467	0.2889	0.083
Mof_C 	C 	0.8554	0.3636	0.3496	-0.143
Mof_H 	H 	0.8354	0.3458	0.3844	0.078
Mof_C 	C 	0.9036	0.4073	0.3583	0.07
Mof_H 	H 	0.9158	0.4186	0.3989	-0.014
Mof_C 	C 	0.7862	0.3102	0.2789	-0.012
Mof_C 	C 	0.7709	0.2604	0.3187	-0.059
Mof_H 	H 	0.7954	0.2563	0.3549	0.049
Mof_N 	N 	0.9334	0.566	0.6936	-0.224
Mof_C 	C 	0.9151	0.583	0.7543	0.07
Mof_H 	H 	0.9351	0.5651	0.7891	-0.008
Mof_C 	C 	0.867	0.6267	0.763	-0.141
Mof_H 	H 	0.8547	0.638	0.8036	0.086
Mof_C 	C 	0.8371	0.6533	0.7111	0.087
Mof_C 	C 	0.8554	0.6364	0.6504	-0.143
Mof_H 	H 	0.8354	0.6542	0.6156	0.079
Mof_C 	C 	0.9036	0.5927	0.6417	0.072
Mof_H 	H 	0.9158	0.5814	0.6011	-0.014
Mof_C 	C 	0.7862	0.6898	0.7211	-0.009
Mof_C 	C 	0.7709	0.7396	0.6813	-0.058
Mof_H 	H 	0.7954	0.7437	0.6451	0.051
Mof_N 	N 	0.0666	0.566	0.3064	-0.239
Mof_C 	C 	0.0849	0.583	0.2457	0.062
Mof_H 	H 	0.0649	0.5651	0.2109	-0.029
Mof_C 	C 	0.133	0.6267	0.237	-0.146
Mof_H 	H 	0.1453	0.638	0.1964	0.073
Mof_C 	C 	0.1629	0.6533	0.2889	0.082
Mof_C 	C 	0.1446	0.6364	0.3496	-0.147
Mof_H 	H 	0.1646	0.6542	0.3844	0.076
Mof_C 	C 	0.0964	0.5927	0.3583	0.065
Mof_H 	H 	0.0842	0.5814	0.3989	-0.026
Mof_C 	C 	0.2138	0.6898	0.2789	-0.014
Mof_C 	C 	0.2291	0.7396	0.3187	-0.059
Mof_H 	H 	0.2046	0.7437	0.3549	0.047
Mof_N 	N 	0.0666	0.434	0.6936	-0.238
Mof_C 	C 	0.0849	0.417	0.7543	0.062
Mof_H 	H 	0.0649	0.4349	0.7891	-0.024
Mof_C 	C 	0.133	0.3733	0.763	-0.146
Mof_H 	H 	0.1453	0.362	0.8036	0.078
Mof_C 	C 	0.1629	0.3467	0.7111	0.082
Mof_C 	C 	0.1446	0.3636	0.6504	-0.148
Mof_H 	H 	0.1646	0.3458	0.6156	0.075
Mof_C 	C 	0.0964	0.4073	0.6417	0.065
Mof_H 	H 	0.0842	0.4186	0.6011	-0.027
Mof_C 	C 	0.2138	0.3102	0.7211	-0.013
Mof_C 	C 	0.2291	0.2604	0.6813	-0.059
Mof_H 	H 	0.2046	0.2563	0.6451	0.046
Mof_N 	N 	0.3064	0.9334	0.434	-0.224
Mof_C 	C 	0.2457	0.9151	0.417	0.067
Mof_H 	H 	0.2109	0.9351	0.4349	-0.013
Mof_C 	C 	0.237	0.867	0.3733	-0.142
Mof_H 	H 	0.1964	0.8547	0.362	0.077
Mof_C 	C 	0.2889	0.8371	0.3467	0.083
Mof_C 	C 	0.3496	0.8554	0.3636	-0.143
Mof_H 	H 	0.3844	0.8354	0.3458	0.078
Mof_C 	C 	0.3583	0.9036	0.4073	0.07
Mof_H 	H 	0.3989	0.9158	0.4186	-0.014
Mof_C 	C 	0.2789	0.7862	0.3102	-0.012
Mof_C 	C 	0.3187	0.7709	0.2604	-0.059
Mof_H 	H 	0.3549	0.7954	0.2563	0.049
Mof_N 	N 	0.6936	0.9334	0.566	-0.224
Mof_C 	C 	0.7543	0.9151	0.583	0.07
Mof_H 	H 	0.7891	0.9351	0.5651	-0.008
Mof_C 	C 	0.763	0.867	0.6267	-0.141
Mof_H 	H 	0.8036	0.8547	0.638	0.086
Mof_C 	C 	0.7111	0.8371	0.6533	0.087
Mof_C 	C 	0.6504	0.8554	0.6364	-0.143
Mof_H 	H 	0.6156	0.8354	0.6542	0.079
Mof_C 	C 	0.6417	0.9036	0.5927	0.072
Mof_H 	H 	0.6011	0.9158	0.5814	-0.014
Mof_C 	C 	0.7211	0.7862	0.6898	-0.009
Mof_C 	C 	0.6813	0.7709	0.7396	-0.058
Mof_H 	H 	0.6451	0.7954	0.7437	0.051
Mof_N 	N 	0.3064	0.0666	0.566	-0.239
Mof_C 	C 	0.2457	0.0849	0.583	0.062
Mof_H 	H 	0.2109	0.0649	0.5651	-0.029
Mof_C 	C 	0.237	0.133	0.6267	-0.146
Mof_H 	H 	0.1964	0.1453	0.638	0.073
Mof_C 	C 	0.2889	0.1629	0.6533	0.082
Mof_C 	C 	0.3496	0.1446	0.6364	-0.147
Mof_H 	H 	0.3844	0.1646	0.6542	0.076
Mof_C 	C 	0.3583	0.0964	0.5927	0.065
Mof_H 	H 	0.3989	0.0842	0.5814	-0.026
Mof_C 	C 	0.2789	0.2138	0.6898	-0.014
Mof_C 	C 	0.3187	0.2291	0.7396	-0.059
Mof_H 	H 	0.3549	0.2046	0.7437	0.047
Mof_N 	N 	0.6936	0.0666	0.434	-0.238
Mof_C 	C 	0.7543	0.0849	0.417	0.062
Mof_H 	H 	0.7891	0.0649	0.4349	-0.024
Mof_C 	C 	0.763	0.133	0.3733	-0.146
Mof_H 	H 	0.8036	0.1453	0.362	0.078
Mof_C 	C 	0.7111	0.1629	0.3467	0.082
Mof_C 	C 	0.6504	0.1446	0.3636	-0.148
Mof_H 	H 	0.6156	0.1646	0.3458	0.075
Mof_C 	C 	0.6417	0.0964	0.4073	0.065
Mof_H 	H 	0.6011	0.0842	0.4186	-0.027
Mof_C 	C 	0.7211	0.2138	0.3102	-0.013
Mof_C 	C 	0.6813	0.2291	0.2604	-0.059
Mof_H 	H 	0.6451	0.2046	0.2563	0.046
Mof_Cu	Cu	0.5	0.68697	-0	0.84
Mof_Cu	Cu	0.5	0.31303	-0	0.839
Mof_Cu	Cu	-8.03948e-33	0.5	0.68697	0.84
Mof_Cu	Cu	-4.13393e-33	0.5	0.31303	0.839
Mof_Cu	Cu	0.68697	0	0.5	0.84
Mof_Cu	Cu	0.31303	0	0.5	0.839
_end
