data_functionalizedCrystal
_audit_creation_method	'EQeq! by Chris Wilmer'
_symmetry_space_group_name_H-M	'P1'
_symmetry_Int_Tables_number	1
_symmetry_cell_setting	triclinic
loop_
_symmetry_equiv_pos_as_xyz
  x,y,z
_cell_length_a	22.604
_cell_length_b	22.604
_cell_length_c	7.454
_cell_angle_alpha	90
_cell_angle_beta	90
_cell_angle_gamma	120
loop_
_atom_site_label
_atom_site_type_symbol
_atom_site_fract_x
_atom_site_fract_y
_atom_site_fract_z
_atom_site_charge
Mof_C 	C 	0.4885	0.4468	0.8868	-0.015
Mof_H 	H 	0.4803	0.4099	0.8079	0.04
Mof_C 	C 	0.5457	0.5169	0.1402	-0.02
Mof_H 	H 	0.5765	0.5281	0.2395	0.032
Mof_C 	C 	0.15517	0.78013	0.22013	-0.035
Mof_H 	H 	0.14697	0.74323	0.14123	0.04
Mof_C 	C 	0.21237	0.85023	0.47353	-0.03
Mof_H 	H 	0.24317	0.86143	0.57283	0.039
Mof_C 	C 	0.82183	0.11347	0.55347	-0.034
Mof_H 	H 	0.81363	0.07657	0.47457	0.037
Mof_C 	C 	0.87903	0.18357	0.80687	-0.031
Mof_H 	H 	0.90983	0.19477	0.90617	0.043
Mof_C 	C 	0.5532	0.0417	0.8868	-0.086
Mof_H 	H 	0.5901	0.0704	0.8079	0.056
Mof_C 	C 	0.4831	0.0288	0.1402	-0.093
Mof_H 	H 	0.4719	0.0484	0.2395	0.048
Mof_C 	C 	0.21987	0.37503	0.22013	-0.034
Mof_H 	H 	0.25677	0.40373	0.14123	0.042
Mof_C 	C 	0.14977	0.36213	0.47353	-0.035
Mof_H 	H 	0.13857	0.38173	0.57283	0.035
Mof_C 	C 	0.88653	0.70837	0.55347	-0.034
Mof_H 	H 	0.92343	0.73707	0.47457	0.049
Mof_C 	C 	0.81643	0.69547	0.80687	-0.034
Mof_H 	H 	0.80523	0.71507	0.90617	0.039
Mof_C 	C 	0.9583	0.5115	0.8868	0.048
Mof_H 	H 	0.9296	0.5197	0.8079	0.024
Mof_C 	C 	0.9712	0.4543	0.1402	0.042
Mof_H 	H 	0.9516	0.4235	0.2395	0.018
Mof_C 	C 	0.62497	0.84483	0.22013	-0.032
Mof_H 	H 	0.59627	0.85303	0.14123	0.044
Mof_C 	C 	0.63787	0.78763	0.47353	-0.033
Mof_H 	H 	0.61827	0.75683	0.57283	0.037
Mof_C 	C 	0.29163	0.17817	0.55347	-0.034
Mof_H 	H 	0.26293	0.18637	0.47457	0.042
Mof_C 	C 	0.30453	0.12097	0.80687	-0.034
Mof_H 	H 	0.28493	0.09017	0.90617	0.034
Mof_C 	C 	0.4468	0.4885	0.1132	-0.052
Mof_H 	H 	0.4099	0.4803	0.1921	0.048
Mof_C 	C 	0.5169	0.5457	0.8598	-0.044
Mof_H 	H 	0.5281	0.5765	0.7605	0.041
Mof_C 	C 	0.11347	0.82183	0.44653	-0.035
Mof_H 	H 	0.07657	0.81363	0.52543	0.039
Mof_C 	C 	0.18357	0.87903	0.19313	-0.031
Mof_H 	H 	0.19477	0.90983	0.09383	0.039
Mof_C 	C 	0.78013	0.15517	0.77987	-0.035
Mof_H 	H 	0.74323	0.14697	0.85877	0.044
Mof_C 	C 	0.85023	0.21237	0.52647	-0.03
Mof_H 	H 	0.86143	0.24317	0.42717	0.037
Mof_C 	C 	0.0417	0.5532	0.1132	-0.116
Mof_H 	H 	0.0704	0.5901	0.1921	0.063
Mof_C 	C 	0.0288	0.4831	0.8598	-0.107
Mof_H 	H 	0.0484	0.4719	0.7605	0.055
Mof_C 	C 	0.70837	0.88653	0.44653	-0.034
Mof_H 	H 	0.73707	0.92343	0.52543	0.051
Mof_C 	C 	0.69547	0.81643	0.19313	-0.034
Mof_H 	H 	0.71507	0.80523	0.09383	0.035
Mof_C 	C 	0.37503	0.21987	0.77987	-0.034
Mof_H 	H 	0.40373	0.25677	0.85877	0.045
Mof_C 	C 	0.36213	0.14977	0.52647	-0.035
Mof_H 	H 	0.38173	0.13857	0.42717	0.033
Mof_C 	C 	0.5115	0.9583	0.1132	0.021
Mof_H 	H 	0.5197	0.9296	0.1921	0.03
Mof_C 	C 	0.4543	0.9712	0.8598	0.026
Mof_H 	H 	0.4235	0.9516	0.7605	0.025
Mof_C 	C 	0.17817	0.29163	0.44653	-0.034
Mof_H 	H 	0.18637	0.26293	0.52543	0.044
Mof_C 	C 	0.12097	0.30453	0.19313	-0.034
Mof_H 	H 	0.09017	0.28493	0.09383	0.03
Mof_C 	C 	0.84483	0.62497	0.77987	-0.032
Mof_H 	H 	0.85303	0.59627	0.85877	0.047
Mof_C 	C 	0.78763	0.63787	0.52647	-0.033
Mof_H 	H 	0.75683	0.61827	0.42717	0.036
Mof_C 	C 	0.5115	0.5532	0.1132	-0.052
Mof_H 	H 	0.5197	0.5901	0.1921	0.048
Mof_C 	C 	0.4543	0.4831	0.8598	-0.044
Mof_H 	H 	0.4235	0.4719	0.7605	0.041
Mof_C 	C 	0.17817	0.88653	0.44653	-0.034
Mof_H 	H 	0.18637	0.92343	0.52543	0.051
Mof_C 	C 	0.12097	0.81643	0.19313	-0.035
Mof_H 	H 	0.09017	0.80523	0.09383	0.031
Mof_C 	C 	0.84483	0.21987	0.77987	-0.032
Mof_H 	H 	0.85303	0.25677	0.85877	0.047
Mof_C 	C 	0.78763	0.14977	0.52647	-0.035
Mof_H 	H 	0.75683	0.13857	0.42717	0.033
Mof_C 	C 	0.4468	0.9583	0.1132	0.022
Mof_H 	H 	0.4099	0.9296	0.1921	0.03
Mof_C 	C 	0.5169	0.9712	0.8598	0.026
Mof_H 	H 	0.5281	0.9516	0.7605	0.025
Mof_C 	C 	0.11347	0.29163	0.44653	-0.034
Mof_H 	H 	0.07657	0.26293	0.52543	0.038
Mof_C 	C 	0.18357	0.30453	0.19313	-0.032
Mof_H 	H 	0.19477	0.28493	0.09383	0.034
Mof_C 	C 	0.78013	0.62497	0.77987	-0.033
Mof_H 	H 	0.74323	0.59627	0.85877	0.045
Mof_C 	C 	0.85023	0.63787	0.52647	-0.03
Mof_H 	H 	0.86143	0.61827	0.42717	0.038
Mof_C 	C 	0.0417	0.4885	0.1132	-0.116
Mof_H 	H 	0.0704	0.4803	0.1921	0.063
Mof_C 	C 	0.0288	0.5457	0.8598	-0.107
Mof_H 	H 	0.0484	0.5765	0.7605	0.054
Mof_C 	C 	0.70837	0.82183	0.44653	-0.034
Mof_H 	H 	0.73707	0.81363	0.52543	0.045
Mof_C 	C 	0.69547	0.87903	0.19313	-0.032
Mof_H 	H 	0.71507	0.90983	0.09383	0.04
Mof_C 	C 	0.37503	0.15517	0.77987	-0.036
Mof_H 	H 	0.40373	0.14697	0.85877	0.044
Mof_C 	C 	0.36213	0.21237	0.52647	-0.033
Mof_H 	H 	0.38173	0.24317	0.42717	0.035
Mof_C 	C 	0.5532	0.5115	0.8868	-0.016
Mof_H 	H 	0.5901	0.5197	0.8079	0.039
Mof_C 	C 	0.4831	0.4543	0.1402	-0.022
Mof_H 	H 	0.4719	0.4235	0.2395	0.032
Mof_C 	C 	0.21987	0.84483	0.22013	-0.032
Mof_H 	H 	0.25677	0.85303	0.14123	0.044
Mof_C 	C 	0.14977	0.78763	0.47353	-0.035
Mof_H 	H 	0.13857	0.75683	0.57283	0.035
Mof_C 	C 	0.88653	0.17817	0.55347	-0.034
Mof_H 	H 	0.92343	0.18637	0.47457	0.049
Mof_C 	C 	0.81643	0.12097	0.80687	-0.035
Mof_H 	H 	0.80523	0.09017	0.90617	0.035
Mof_C 	C 	0.9583	0.4468	0.8868	0.049
Mof_H 	H 	0.9296	0.4099	0.8079	0.024
Mof_C 	C 	0.9712	0.5169	0.1402	0.041
Mof_H 	H 	0.9516	0.5281	0.2395	0.018
Mof_C 	C 	0.62497	0.78013	0.22013	-0.034
Mof_H 	H 	0.59627	0.74323	0.14123	0.042
Mof_C 	C 	0.63787	0.85023	0.47353	-0.03
Mof_H 	H 	0.61827	0.86143	0.57283	0.039
Mof_C 	C 	0.29163	0.11347	0.55347	-0.034
Mof_H 	H 	0.26293	0.07657	0.47457	0.036
Mof_C 	C 	0.30453	0.18357	0.80687	-0.032
Mof_H 	H 	0.28493	0.19477	0.90617	0.038
Mof_C 	C 	0.4885	0.0417	0.8868	-0.087
Mof_H 	H 	0.4803	0.0704	0.8079	0.056
Mof_C 	C 	0.5457	0.0288	0.1402	-0.093
Mof_H 	H 	0.5765	0.0484	0.2395	0.048
Mof_C 	C 	0.15517	0.37503	0.22013	-0.036
Mof_H 	H 	0.14697	0.40373	0.14123	0.04
Mof_C 	C 	0.21237	0.36213	0.47353	-0.032
Mof_H 	H 	0.24317	0.38173	0.57283	0.037
Mof_C 	C 	0.82183	0.70837	0.55347	-0.034
Mof_H 	H 	0.81363	0.73707	0.47457	0.044
Mof_C 	C 	0.87903	0.69547	0.80687	-0.032
Mof_H 	H 	0.90983	0.71507	0.90617	0.043
Mof_Fe	Fe	0.66667	0.33333	0.83333	0.763
Mof_Fe	Fe	-0	-3.82675e-33	0.5	0.68
Mof_Fe	Fe	0.33333	0.66667	0.16667	0.759
Mof_Fe	Fe	0.66667	0.33333	0.33333	0.631
Mof_Fe	Fe	0.33333	0.66667	0.66667	0.635
Mof_Fe	Fe	-0	0	-0	0.548
Mof_N 	N 	0.58948	0.41052	0.2017	-0.163
Mof_H 	H 	0.5805	0.4195	0.3129	0.104
Mof_N 	N 	0.62264	0.37736	0.1564	-0.103
Mof_N 	N 	0.62496	0.37504	0.9796	-0.117
Mof_N 	N 	0.59399	0.40601	0.9063	-0.089
Mof_C 	C 	0.57282	0.42717	0.0466	0.116
Mof_C 	C 	0.53519	0.46482	0.0247	-0.033
Mof_N 	N 	0.25615	0.74385	0.53503	-0.162
Mof_H 	H 	0.24717	0.75283	0.64623	0.105
Mof_N 	N 	0.28931	0.71069	0.48973	-0.099
Mof_N 	N 	0.29163	0.70837	0.31293	-0.121
Mof_N 	N 	0.26065	0.73935	0.23963	-0.093
Mof_C 	C 	0.23949	0.76051	0.37993	0.118
Mof_C 	C 	0.20185	0.79815	0.35803	-0.006
Mof_N 	N 	0.92282	0.07718	0.86837	-0.162
Mof_H 	H 	0.91383	0.08617	0.97957	0.109
Mof_N 	N 	0.95597	0.04403	0.82307	-0.086
Mof_N 	N 	0.95829	0.04171	0.64627	-0.109
Mof_N 	N 	0.92732	0.07268	0.57297	-0.091
Mof_C 	C 	0.90616	0.09384	0.71327	0.119
Mof_C 	C 	0.86852	0.13148	0.69137	-0.005
Mof_N 	N 	0.58948	0.17897	0.2017	-0.156
Mof_H 	H 	0.5805	0.161	0.3129	0.1
Mof_N 	N 	0.62264	0.24528	0.1564	-0.103
Mof_N 	N 	0.62496	0.24992	0.9796	-0.117
Mof_N 	N 	0.59399	0.18797	0.9063	-0.083
Mof_C 	C 	0.57282	0.14565	0.0466	0.084
Mof_C 	C 	0.53519	0.07037	0.0247	0.062
Mof_N 	N 	0.25615	0.5123	0.53503	-0.162
Mof_H 	H 	0.24717	0.49433	0.64623	0.104
Mof_N 	N 	0.28931	0.57861	0.48973	-0.099
Mof_N 	N 	0.29163	0.58325	0.31293	-0.121
Mof_N 	N 	0.26065	0.5213	0.23963	-0.093
Mof_C 	C 	0.23949	0.47898	0.37993	0.116
Mof_C 	C 	0.20185	0.4037	0.35803	-0.005
Mof_N 	N 	0.92282	0.84564	0.86837	-0.161
Mof_H 	H 	0.91383	0.82767	0.97957	0.114
Mof_N 	N 	0.95597	0.91195	0.82307	-0.075
Mof_N 	N 	0.95829	0.91659	0.64627	-0.097
Mof_N 	N 	0.92732	0.85464	0.57297	-0.088
Mof_C 	C 	0.90616	0.81232	0.71327	0.122
Mof_C 	C 	0.86852	0.73704	0.69137	-0.003
Mof_N 	N 	0.82103	0.41052	0.2017	-0.17
Mof_H 	H 	0.839	0.4195	0.3129	0.108
Mof_N 	N 	0.75472	0.37736	0.1564	-0.103
Mof_N 	N 	0.75008	0.37504	0.9796	-0.117
Mof_N 	N 	0.81203	0.40602	0.9063	-0.093
Mof_C 	C 	0.85435	0.42718	0.0466	0.145
Mof_C 	C 	0.92963	0.46481	0.0247	-0.119
Mof_N 	N 	0.4877	0.74385	0.53503	-0.162
Mof_H 	H 	0.50567	0.75283	0.64623	0.105
Mof_N 	N 	0.42139	0.71069	0.48973	-0.099
Mof_N 	N 	0.41675	0.70837	0.31293	-0.121
Mof_N 	N 	0.4787	0.73935	0.23963	-0.093
Mof_C 	C 	0.52102	0.76051	0.37993	0.119
Mof_C 	C 	0.5963	0.79815	0.35803	-0.007
Mof_N 	N 	0.15436	0.07718	0.86837	-0.163
Mof_H 	H 	0.17233	0.08617	0.97957	0.105
Mof_N 	N 	0.08805	0.04403	0.82307	-0.098
Mof_N 	N 	0.08341	0.04171	0.64627	-0.122
Mof_N 	N 	0.14536	0.07268	0.57297	-0.095
Mof_C 	C 	0.18768	0.09384	0.71327	0.115
Mof_C 	C 	0.26296	0.13148	0.69137	-0.007
Mof_N 	N 	0.41052	0.58948	0.7983	-0.161
Mof_H 	H 	0.4195	0.5805	0.6871	0.103
Mof_N 	N 	0.37736	0.62264	0.8436	-0.095
Mof_N 	N 	0.37504	0.62496	0.0204	-0.125
Mof_N 	N 	0.40601	0.59398	0.0937	-0.095
Mof_C 	C 	0.42718	0.57282	0.9534	0.117
Mof_C 	C 	0.46481	0.53518	0.9753	0.022
Mof_N 	N 	0.07718	0.92282	0.13163	-0.162
Mof_H 	H 	0.08617	0.91383	0.02043	0.104
Mof_N 	N 	0.04403	0.95597	0.17693	-0.089
Mof_N 	N 	0.04171	0.95829	0.35373	-0.108
Mof_N 	N 	0.07268	0.92732	0.42703	-0.09
Mof_C 	C 	0.09384	0.90616	0.28673	0.117
Mof_C 	C 	0.13148	0.86852	0.30863	-0.005
Mof_N 	N 	0.74385	0.25615	0.46497	-0.162
Mof_H 	H 	0.75283	0.24717	0.35377	0.102
Mof_N 	N 	0.71069	0.28931	0.51027	-0.099
Mof_N 	N 	0.70837	0.29163	0.68707	-0.121
Mof_N 	N 	0.73935	0.26065	0.76037	-0.091
Mof_C 	C 	0.76051	0.23949	0.62007	0.117
Mof_C 	C 	0.79815	0.20185	0.64197	-0.005
Mof_N 	N 	0.17897	0.58948	0.7983	-0.155
Mof_H 	H 	0.161	0.5805	0.6871	0.099
Mof_N 	N 	0.24528	0.62264	0.8436	-0.096
Mof_N 	N 	0.24992	0.62496	0.0204	-0.125
Mof_N 	N 	0.18797	0.59398	0.0937	-0.091
Mof_C 	C 	0.14565	0.57282	0.9534	0.089
Mof_C 	C 	0.07037	0.53518	0.9753	0.108
Mof_N 	N 	0.84564	0.92282	0.13163	-0.161
Mof_H 	H 	0.82767	0.91383	0.02043	0.107
Mof_N 	N 	0.91195	0.95597	0.17693	-0.079
Mof_N 	N 	0.91659	0.95829	0.35373	-0.098
Mof_N 	N 	0.85464	0.92732	0.42703	-0.087
Mof_C 	C 	0.81232	0.90616	0.28673	0.12
Mof_C 	C 	0.73704	0.86852	0.30863	-0.003
Mof_N 	N 	0.5123	0.25615	0.46497	-0.162
Mof_H 	H 	0.49433	0.24717	0.35377	0.102
Mof_N 	N 	0.57861	0.28931	0.51027	-0.099
Mof_N 	N 	0.58325	0.29163	0.68707	-0.122
Mof_N 	N 	0.5213	0.26065	0.76037	-0.091
Mof_C 	C 	0.47898	0.23949	0.62007	0.116
Mof_C 	C 	0.4037	0.20185	0.64197	-0.004
Mof_N 	N 	0.41052	0.82103	0.7983	-0.169
Mof_H 	H 	0.4195	0.839	0.6871	0.108
Mof_N 	N 	0.37736	0.75472	0.8436	-0.095
Mof_N 	N 	0.37504	0.75008	0.0204	-0.125
Mof_N 	N 	0.40601	0.81203	0.0937	-0.1
Mof_C 	C 	0.42718	0.85435	0.9534	0.149
Mof_C 	C 	0.46481	0.92963	0.9753	-0.075
Mof_N 	N 	0.07718	0.15436	0.13163	-0.163
Mof_H 	H 	0.08617	0.17233	0.02043	0.098
Mof_N 	N 	0.04403	0.08805	0.17693	-0.103
Mof_N 	N 	0.04171	0.08341	0.35373	-0.122
Mof_N 	N 	0.07268	0.14536	0.42703	-0.094
Mof_C 	C 	0.09384	0.18768	0.28673	0.112
Mof_C 	C 	0.13148	0.26296	0.30863	-0.007
Mof_N 	N 	0.74385	0.4877	0.46497	-0.162
Mof_H 	H 	0.75283	0.50567	0.35377	0.103
Mof_N 	N 	0.71069	0.42139	0.51027	-0.099
Mof_N 	N 	0.70837	0.41675	0.68707	-0.121
Mof_N 	N 	0.73935	0.4787	0.76037	-0.091
Mof_C 	C 	0.76051	0.52102	0.62007	0.119
Mof_C 	C 	0.79815	0.5963	0.64197	-0.006
_end
