# CIF file generated by openbabel 3.1.0, see https://openbabel.org
data_I
_chemical_name_common 'image0'
_cell_length_a 20.328
_cell_length_b 20.328
_cell_length_c 17.91
_cell_angle_alpha 90
_cell_angle_beta 90
_cell_angle_gamma 90
_space_group_name_H-M_alt 'P 1'
_space_group_name_Hall 'P 1'
loop_
    _symmetry_equiv_pos_as_xyz
    x,y,z
loop_
    _atom_site_label
    _atom_site_type_symbol
    _atom_site_fract_x
    _atom_site_fract_y
    _atom_site_fract_z
    _atom_site_occupancy
    Zn1      Zn       0.25841    0.11757    0.76401    1.000
    O1       O        0.19410    0.17210    0.71010    1.000
    O2       O        0.25720    0.03310    0.71190    1.000
    O3       O        0.23300    0.13040    0.86860    1.000
    C1       C        0.19890    0.17800    0.63920    1.000
    O4       O        0.24560    0.15700    0.59970    1.000
    O5       O        0.33970    0.05160    0.62960    1.000
    C2       C        0.14270    0.21280    0.60170    1.000
    C3       C        0.48080    0.20910    0.65330    1.000
    C4       C        0.09000    0.23370    0.64400    1.000
    C5       C        0.14310    0.22420    0.52390    1.000
    C6       C        0.53910    0.23040    0.61020    1.000
    H1       H        0.08820    0.22400    0.69470    1.000
    C7       C        0.09280    0.25750    0.49040    1.000
    H2       H        0.17810    0.20890    0.49530    1.000
    C8       C        0.54110    0.21830    0.53330    1.000
    C9       C        0.09120    0.26790    0.40770    1.000
    H3       H        0.50770    0.19400    0.51080    1.000
    O6       O        0.05230    0.30780    0.38040    1.000
    Zn2      Zn       0.75841    0.61757    0.26401    1.000
    O7       O        0.69410    0.67210    0.21010    1.000
    O8       O        0.75720    0.53310    0.21190    1.000
    O9       O        0.73300    0.63040    0.36860    1.000
    C10      C        0.69890    0.67800    0.13920    1.000
    O10      O        0.74560    0.65700    0.09970    1.000
    O11      O        0.83970    0.55160    0.12960    1.000
    C11      C        0.64270    0.71280    0.10170    1.000
    C12      C        0.98080    0.70910    0.15330    1.000
    C13      C        0.59000    0.73370    0.14400    1.000
    C14      C        0.64310    0.72420    0.02390    1.000
    C15      C        0.03910    0.73040    0.11020    1.000
    H4       H        0.58820    0.72400    0.19470    1.000
    C16      C        0.59280    0.75750    0.99040    1.000
    H5       H        0.67810    0.70890    0.99530    1.000
    C17      C        0.04110    0.71830    0.03330    1.000
    C18      C        0.59120    0.76790    0.90770    1.000
    H6       H        0.00770    0.69400    0.01080    1.000
    O12      O        0.55230    0.80780    0.88040    1.000
    Zn3      Zn       0.74159    0.88243    0.76401    1.000
    O13      O        0.80590    0.82790    0.71010    1.000
    O14      O        0.74280    0.96690    0.71190    1.000
    O15      O        0.76700    0.86960    0.86860    1.000
    C19      C        0.80110    0.82200    0.63920    1.000
    O16      O        0.75440    0.84300    0.59970    1.000
    O17      O        0.66030    0.94840    0.62960    1.000
    C20      C        0.85730    0.78720    0.60170    1.000
    C21      C        0.51920    0.79090    0.65330    1.000
    C22      C        0.91000    0.76630    0.64400    1.000
    C23      C        0.85690    0.77580    0.52390    1.000
    C24      C        0.46090    0.76960    0.61020    1.000
    H7       H        0.91180    0.77600    0.69470    1.000
    C25      C        0.90720    0.74250    0.49040    1.000
    H8       H        0.82190    0.79110    0.49530    1.000
    C26      C        0.45890    0.78170    0.53330    1.000
    C27      C        0.90880    0.73210    0.40770    1.000
    H9       H        0.49230    0.80600    0.51080    1.000
    O18      O        0.94770    0.69220    0.38040    1.000
    Zn4      Zn       0.24159    0.38243    0.26401    1.000
    O19      O        0.30590    0.32790    0.21010    1.000
    O20      O        0.24280    0.46690    0.21190    1.000
    O21      O        0.26700    0.36960    0.36860    1.000
    C28      C        0.30110    0.32200    0.13920    1.000
    O22      O        0.25440    0.34300    0.09970    1.000
    O23      O        0.16030    0.44840    0.12960    1.000
    C29      C        0.35730    0.28720    0.10170    1.000
    C30      C        0.01920    0.29090    0.15330    1.000
    C31      C        0.41000    0.26630    0.14400    1.000
    C32      C        0.35690    0.27580    0.02390    1.000
    C33      C        0.96090    0.26960    0.11020    1.000
    H10      H        0.41180    0.27600    0.19470    1.000
    C34      C        0.40720    0.24250    0.99040    1.000
    H11      H        0.32190    0.29110    0.99530    1.000
    C35      C        0.95890    0.28170    0.03330    1.000
    C36      C        0.40880    0.23210    0.90770    1.000
    H12      H        0.99230    0.30600    0.01080    1.000
    O24      O        0.44770    0.19220    0.88040    1.000
    Zn5      Zn       0.88243    0.25841    0.76401    1.000
    O25      O        0.82790    0.19410    0.71010    1.000
    O26      O        0.96690    0.25720    0.71190    1.000
    O27      O        0.86960    0.23300    0.86860    1.000
    C37      C        0.82200    0.19890    0.63920    1.000
    O28      O        0.84300    0.24560    0.59970    1.000
    O29      O        0.94840    0.33970    0.62960    1.000
    C38      C        0.78720    0.14270    0.60170    1.000
    C39      C        0.79090    0.48080    0.65330    1.000
    C40      C        0.76630    0.09000    0.64400    1.000
    C41      C        0.77580    0.14310    0.52390    1.000
    C42      C        0.76960    0.53910    0.61020    1.000
    H13      H        0.77600    0.08820    0.69470    1.000
    C43      C        0.74250    0.09280    0.49040    1.000
    H14      H        0.79110    0.17810    0.49530    1.000
    C44      C        0.78170    0.54110    0.53330    1.000
    C45      C        0.73210    0.09120    0.40770    1.000
    H15      H        0.80600    0.50770    0.51080    1.000
    O30      O        0.69220    0.05230    0.38040    1.000
    Zn6      Zn       0.38243    0.75841    0.26401    1.000
    O31      O        0.32790    0.69410    0.21010    1.000
    O32      O        0.46690    0.75720    0.21190    1.000
    O33      O        0.36960    0.73300    0.36860    1.000
    C46      C        0.32200    0.69890    0.13920    1.000
    O34      O        0.34300    0.74560    0.09970    1.000
    O35      O        0.44840    0.83970    0.12960    1.000
    C47      C        0.28720    0.64270    0.10170    1.000
    C48      C        0.29090    0.98080    0.15330    1.000
    C49      C        0.26630    0.59000    0.14400    1.000
    C50      C        0.27580    0.64310    0.02390    1.000
    C51      C        0.26960    0.03910    0.11020    1.000
    H16      H        0.27600    0.58820    0.19470    1.000
    C52      C        0.24250    0.59280    0.99040    1.000
    H17      H        0.29110    0.67810    0.99530    1.000
    C53      C        0.28170    0.04110    0.03330    1.000
    C54      C        0.23210    0.59120    0.90770    1.000
    H18      H        0.30600    0.00770    0.01080    1.000
    O36      O        0.19220    0.55230    0.88040    1.000
    Zn7      Zn       0.11757    0.74159    0.76401    1.000
    O37      O        0.17210    0.80590    0.71010    1.000
    O38      O        0.03310    0.74280    0.71190    1.000
    O39      O        0.13040    0.76700    0.86860    1.000
    C55      C        0.17800    0.80110    0.63920    1.000
    O40      O        0.15700    0.75440    0.59970    1.000
    O41      O        0.05160    0.66030    0.62960    1.000
    C56      C        0.21280    0.85730    0.60170    1.000
    C57      C        0.20910    0.51920    0.65330    1.000
    C58      C        0.23370    0.91000    0.64400    1.000
    C59      C        0.22420    0.85690    0.52390    1.000
    C60      C        0.23040    0.46090    0.61020    1.000
    H19      H        0.22400    0.91180    0.69470    1.000
    C61      C        0.25750    0.90720    0.49040    1.000
    H20      H        0.20890    0.82190    0.49530    1.000
    C62      C        0.21830    0.45890    0.53330    1.000
    C63      C        0.26790    0.90880    0.40770    1.000
    H21      H        0.19400    0.49230    0.51080    1.000
    O42      O        0.30780    0.94770    0.38040    1.000
    Zn8      Zn       0.61757    0.24159    0.26401    1.000
    O43      O        0.67210    0.30590    0.21010    1.000
    O44      O        0.53310    0.24280    0.21190    1.000
    O45      O        0.63040    0.26700    0.36860    1.000
    C64      C        0.67800    0.30110    0.13920    1.000
    O46      O        0.65700    0.25440    0.09970    1.000
    O47      O        0.55160    0.16030    0.12960    1.000
    C65      C        0.71280    0.35730    0.10170    1.000
    C66      C        0.70910    0.01920    0.15330    1.000
    C67      C        0.73370    0.41000    0.14400    1.000
    C68      C        0.72420    0.35690    0.02390    1.000
    C69      C        0.73040    0.96090    0.11020    1.000
    H22      H        0.72400    0.41180    0.19470    1.000
    C70      C        0.75750    0.40720    0.99040    1.000
    H23      H        0.70890    0.32190    0.99530    1.000
    C71      C        0.71830    0.95890    0.03330    1.000
    C72      C        0.76790    0.40880    0.90770    1.000
    H24      H        0.69400    0.99230    0.01080    1.000
    O48      O        0.80780    0.44770    0.88040    1.000
    Zn9      Zn       0.25841    0.88243    0.26401    1.000
    O49      O        0.19410    0.82790    0.21010    1.000
    O50      O        0.25720    0.96690    0.21190    1.000
    O51      O        0.23300    0.86960    0.36860    1.000
    C73      C        0.19890    0.82200    0.13920    1.000
    O52      O        0.24560    0.84300    0.09970    1.000
    O53      O        0.33970    0.94840    0.12960    1.000
    C74      C        0.14270    0.78720    0.10170    1.000
    C75      C        0.48080    0.79090    0.15330    1.000
    C76      C        0.09000    0.76630    0.14400    1.000
    C77      C        0.14310    0.77580    0.02390    1.000
    C78      C        0.53910    0.76960    0.11020    1.000
    H25      H        0.08820    0.77600    0.19470    1.000
    C79      C        0.09280    0.74250    0.99040    1.000
    H26      H        0.17810    0.79110    0.99530    1.000
    C80      C        0.54110    0.78170    0.03330    1.000
    C81      C        0.09120    0.73210    0.90770    1.000
    H27      H        0.50770    0.80600    0.01080    1.000
    O54      O        0.05230    0.69220    0.88040    1.000
    Zn10     Zn       0.75841    0.38243    0.76401    1.000
    O55      O        0.69410    0.32790    0.71010    1.000
    O56      O        0.75720    0.46690    0.71190    1.000
    O57      O        0.73300    0.36960    0.86860    1.000
    C82      C        0.69890    0.32200    0.63920    1.000
    O58      O        0.74560    0.34300    0.59970    1.000
    O59      O        0.83970    0.44840    0.62960    1.000
    C83      C        0.64270    0.28720    0.60170    1.000
    C84      C        0.98080    0.29090    0.65330    1.000
    C85      C        0.59000    0.26630    0.64400    1.000
    C86      C        0.64310    0.27580    0.52390    1.000
    C87      C        0.03910    0.26960    0.61020    1.000
    H28      H        0.58820    0.27600    0.69470    1.000
    C88      C        0.59280    0.24250    0.49040    1.000
    H29      H        0.67810    0.29110    0.49530    1.000
    C89      C        0.04110    0.28170    0.53330    1.000
    C90      C        0.59120    0.23210    0.40770    1.000
    H30      H        0.00770    0.30600    0.51080    1.000
    O60      O        0.55230    0.19220    0.38040    1.000
    Zn11     Zn       0.74159    0.11757    0.26401    1.000
    O61      O        0.80590    0.17210    0.21010    1.000
    O62      O        0.74280    0.03310    0.21190    1.000
    O63      O        0.76700    0.13040    0.36860    1.000
    C91      C        0.80110    0.17800    0.13920    1.000
    O64      O        0.75440    0.15700    0.09970    1.000
    O65      O        0.66030    0.05160    0.12960    1.000
    C92      C        0.85730    0.21280    0.10170    1.000
    C93      C        0.51920    0.20910    0.15330    1.000
    C94      C        0.91000    0.23370    0.14400    1.000
    C95      C        0.85690    0.22420    0.02390    1.000
    C96      C        0.46090    0.23040    0.11020    1.000
    H31      H        0.91180    0.22400    0.19470    1.000
    C97      C        0.90720    0.25750    0.99040    1.000
    H32      H        0.82190    0.20890    0.99530    1.000
    C98      C        0.45890    0.21830    0.03330    1.000
    C99      C        0.90880    0.26790    0.90770    1.000
    H33      H        0.49230    0.19400    0.01080    1.000
    O66      O        0.94770    0.30780    0.88040    1.000
    Zn12     Zn       0.24159    0.61757    0.76401    1.000
    O67      O        0.30590    0.67210    0.71010    1.000
    O68      O        0.24280    0.53310    0.71190    1.000
    O69      O        0.26700    0.63040    0.86860    1.000
    C100     C        0.30110    0.67800    0.63920    1.000
    O70      O        0.25440    0.65700    0.59970    1.000
    O71      O        0.16030    0.55160    0.62960    1.000
    C101     C        0.35730    0.71280    0.60170    1.000
    C102     C        0.01920    0.70910    0.65330    1.000
    C103     C        0.41000    0.73370    0.64400    1.000
    C104     C        0.35690    0.72420    0.52390    1.000
    C105     C        0.96090    0.73040    0.61020    1.000
    H34      H        0.41180    0.72400    0.69470    1.000
    C106     C        0.40720    0.75750    0.49040    1.000
    H35      H        0.32190    0.70890    0.49530    1.000
    C107     C        0.95890    0.71830    0.53330    1.000
    C108     C        0.40880    0.76790    0.40770    1.000
    H36      H        0.99230    0.69400    0.51080    1.000
    O72      O        0.44770    0.80780    0.38040    1.000
    Zn13     Zn       0.88243    0.74159    0.26401    1.000
    O73      O        0.82790    0.80590    0.21010    1.000
    O74      O        0.96690    0.74280    0.21190    1.000
    O75      O        0.86960    0.76700    0.36860    1.000
    C109     C        0.82200    0.80110    0.13920    1.000
    O76      O        0.84300    0.75440    0.09970    1.000
    O77      O        0.94840    0.66030    0.12960    1.000
    C110     C        0.78720    0.85730    0.10170    1.000
    C111     C        0.79090    0.51920    0.15330    1.000
    C112     C        0.76630    0.91000    0.14400    1.000
    C113     C        0.77580    0.85690    0.02390    1.000
    C114     C        0.76960    0.46090    0.11020    1.000
    H37      H        0.77600    0.91180    0.19470    1.000
    C115     C        0.74250    0.90720    0.99040    1.000
    H38      H        0.79110    0.82190    0.99530    1.000
    C116     C        0.78170    0.45890    0.03330    1.000
    C117     C        0.73210    0.90880    0.90770    1.000
    H39      H        0.80600    0.49230    0.01080    1.000
    O78      O        0.69220    0.94770    0.88040    1.000
    Zn14     Zn       0.38243    0.24159    0.76401    1.000
    O79      O        0.32790    0.30590    0.71010    1.000
    O80      O        0.46690    0.24280    0.71190    1.000
    O81      O        0.36960    0.26700    0.86860    1.000
    C118     C        0.32200    0.30110    0.63920    1.000
    O82      O        0.34300    0.25440    0.59970    1.000
    O83      O        0.44840    0.16030    0.62960    1.000
    C119     C        0.28720    0.35730    0.60170    1.000
    C120     C        0.29090    0.01920    0.65330    1.000
    C121     C        0.26630    0.41000    0.64400    1.000
    C122     C        0.27580    0.35690    0.52390    1.000
    C123     C        0.26960    0.96090    0.61020    1.000
    H40      H        0.27600    0.41180    0.69470    1.000
    C124     C        0.24250    0.40720    0.49040    1.000
    H41      H        0.29110    0.32190    0.49530    1.000
    C125     C        0.28170    0.95890    0.53330    1.000
    C126     C        0.23210    0.40880    0.40770    1.000
    H42      H        0.30600    0.99230    0.51080    1.000
    O84      O        0.19220    0.44770    0.38040    1.000
    Zn15     Zn       0.11757    0.25841    0.26401    1.000
    O85      O        0.17210    0.19410    0.21010    1.000
    O86      O        0.03310    0.25720    0.21190    1.000
    O87      O        0.13040    0.23300    0.36860    1.000
    C127     C        0.17800    0.19890    0.13920    1.000
    O88      O        0.15700    0.24560    0.09970    1.000
    O89      O        0.05160    0.33970    0.12960    1.000
    C128     C        0.21280    0.14270    0.10170    1.000
    C129     C        0.20910    0.48080    0.15330    1.000
    C130     C        0.23370    0.09000    0.14400    1.000
    C131     C        0.22420    0.14310    0.02390    1.000
    C132     C        0.23040    0.53910    0.11020    1.000
    H43      H        0.22400    0.08820    0.19470    1.000
    C133     C        0.25750    0.09280    0.99040    1.000
    H44      H        0.20890    0.17810    0.99530    1.000
    C134     C        0.21830    0.54110    0.03330    1.000
    C135     C        0.26790    0.09120    0.90770    1.000
    H45      H        0.19400    0.50770    0.01080    1.000
    O90      O        0.30780    0.05230    0.88040    1.000
    Zn16     Zn       0.61757    0.75841    0.76401    1.000
    O91      O        0.67210    0.69410    0.71010    1.000
    O92      O        0.53310    0.75720    0.71190    1.000
    O93      O        0.63040    0.73300    0.86860    1.000
    C136     C        0.67800    0.69890    0.63920    1.000
    O94      O        0.65700    0.74560    0.59970    1.000
    O95      O        0.55160    0.83970    0.62960    1.000
    C137     C        0.71280    0.64270    0.60170    1.000
    C138     C        0.70910    0.98080    0.65330    1.000
    C139     C        0.73370    0.59000    0.64400    1.000
    C140     C        0.72420    0.64310    0.52390    1.000
    C141     C        0.73040    0.03910    0.61020    1.000
    H46      H        0.72400    0.58820    0.69470    1.000
    C142     C        0.75750    0.59280    0.49040    1.000
    H47      H        0.70890    0.67810    0.49530    1.000
    C143     C        0.71830    0.04110    0.53330    1.000
    C144     C        0.76790    0.59120    0.40770    1.000
    H48      H        0.69400    0.00770    0.51080    1.000
    O96      O        0.80780    0.55230    0.38040    1.000
    O97      O        0.34370    0.15630    0.73700    1.000
    Co1      Co       0.34706    0.15294    0.61906    1.000
    O98      O        0.65630    0.84370    0.73700    1.000
    Co2      Co       0.65294    0.84706    0.61906    1.000
    O99      O        0.15630    0.34370    0.23700    1.000
    Co3      Co       0.15294    0.34706    0.11906    1.000
    O100     O        0.84370    0.34370    0.73700    1.000
    Co4      Co       0.84706    0.34706    0.61906    1.000
    O101     O        0.15630    0.65630    0.73700    1.000
    Co5      Co       0.15294    0.65294    0.61906    1.000
    O102     O        0.34370    0.84370    0.23700    1.000
    Co6      Co       0.34706    0.84706    0.11906    1.000
    O103     O        0.65630    0.15630    0.23700    1.000
    Co7      Co       0.65294    0.15294    0.11906    1.000
    O104     O        0.84370    0.65630    0.23700    1.000
    Co8      Co       0.84706    0.65294    0.11906    1.000
