# CIF file generated by openbabel 3.1.0, see https://openbabel.org
data_I
_chemical_name_common 'ic8004536-file004_clean'
_cell_length_a 13.118
_cell_length_b 14.624
_cell_length_c 15.193
_cell_angle_alpha 95
_cell_angle_beta 114.61
_cell_angle_gamma 111.88
_space_group_name_H-M_alt 'P 1'
_space_group_name_Hall 'P 1'
loop_
    _symmetry_equiv_pos_as_xyz
    x,y,z
loop_
    _atom_site_label
    _atom_site_type_symbol
    _atom_site_fract_x
    _atom_site_fract_y
    _atom_site_fract_z
    _atom_site_occupancy
    V1       V        0.23848    0.00236    0.23950    1.000
    V2       V        0.76152    0.99764    0.76050    1.000
    Cu1      Cu       0.00000    0.00000    0.00000    1.000
    Mo1      Mo       0.66603    0.27822    0.57424    1.000
    Mo2      Mo       0.68145    0.98201    0.37795    1.000
    Mo3      Mo       0.83733    0.13302    0.63259    1.000
    Mo4      Mo       0.52323    0.13677    0.31819    1.000
    Mo5      Mo       0.31855    0.01799    0.62205    1.000
    Mo6      Mo       0.66528    0.84598    0.55849    1.000
    Mo7      Mo       0.47677    0.86323    0.68181    1.000
    Mo8      Mo       0.65083    0.14900    0.75928    1.000
    Mo9      Mo       0.33472    0.15402    0.44151    1.000
    Mo10     Mo       0.34917    0.85100    0.24072    1.000
    Mo11     Mo       0.33397    0.72178    0.42576    1.000
    Mo12     Mo       0.16267    0.86698    0.36741    1.000
    P1       P        0.50000    0.00000    0.50000    1.000
    H1       H        0.45420    0.85130    0.04990    1.000
    H2       H        0.78800    0.07180    0.97710    1.000
    H3       H        0.25010    0.28710    0.83390    1.000
    H4       H        0.29220    0.17850    0.14180    1.000
    H5       H        0.64330    0.74740    0.12530    1.000
    H6       H        0.65190    0.99040    0.13820    1.000
    H7       H        0.21200    0.92820    0.02290    1.000
    H8       H        0.35670    0.25260    0.87470    1.000
    H9       H        0.54820    0.39460    0.92590    1.000
    H10      H        0.70780    0.82150    0.85820    1.000
    H11      H        0.08220    0.13590    0.22650    1.000
    H12      H        0.34810    0.00960    0.86180    1.000
    H13      H        0.25200    0.77320    0.91970    1.000
    H14      H        0.45180    0.60540    0.07410    1.000
    H15      H        0.76020    0.19590    0.17900    1.000
    H16      H        0.74990    0.71290    0.16610    1.000
    H17      H        0.74800    0.22680    0.08030    1.000
    H18      H        0.91860    0.86090    0.14050    1.000
    H19      H        0.68340    0.56180    0.99100    1.000
    H20      H        0.08140    0.13910    0.85950    1.000
    H21      H        0.91780    0.86410    0.77350    1.000
    H22      H        0.31660    0.43820    0.00900    1.000
    H23      H        0.23980    0.80410    0.82100    1.000
    H24      H        0.54580    0.14870    0.95010    1.000
    C1       C        0.38950    0.46250    0.00350    1.000
    C2       C        0.58970    0.99440    0.08190    1.000
    C3       C        0.15070    0.90390    0.95520    1.000
    C4       C        0.47220    0.56130    0.04470    1.000
    C5       C        0.52880    0.08960    0.97130    1.000
    C6       C        0.25550    0.82890    0.88890    1.000
    C7       C        0.41030    0.00560    0.91810    1.000
    C8       C        0.47120    0.91040    0.02870    1.000
    C9       C        0.52780    0.43870    0.95530    1.000
    C10      C        0.58840    0.60280    0.04640    1.000
    C11      C        0.61050    0.53750    0.99650    1.000
    C12      C        0.00540    0.13080    0.17960    1.000
    C13      C        0.73640    0.81550    0.92360    1.000
    C14      C        0.61740    0.08470    0.05280    1.000
    C15      C        0.38260    0.91530    0.94720    1.000
    C16      C        0.99460    0.86920    0.82040    1.000
    C17      C        0.14950    0.16250    0.92430    1.000
    C18      C        0.74450    0.17110    0.11110    1.000
    C19      C        0.68350    0.71240    0.10510    1.000
    C20      C        0.85050    0.83750    0.07570    1.000
    C21      C        0.41160    0.39720    0.95360    1.000
    C22      C        0.31650    0.28760    0.89490    1.000
    C23      C        0.84930    0.09610    0.04480    1.000
    C24      C        0.26360    0.18450    0.07640    1.000
    N1       N        0.15700    0.85480    0.88270    1.000
    N2       N        0.26090    0.23050    0.94970    1.000
    N3       N        0.85700    0.87040    0.99810    1.000
    N4       N        0.94300    0.16560    0.20480    1.000
    N5       N        0.84300    0.14520    0.11730    1.000
    N6       N        0.66170    0.75090    0.95420    1.000
    N7       N        0.05700    0.83440    0.79520    1.000
    N8       N        0.73910    0.76950    0.05030    1.000
    N9       N        0.14300    0.12960    0.00190    1.000
    N10      N        0.33830    0.24910    0.04580    1.000
    N11      N        0.04810    0.91430    0.92060    1.000
    N12      N        0.95190    0.08570    0.07940    1.000
    O1       O        0.51210    0.99790    0.39880    1.000
    O2       O        0.79710    0.99060    0.65070    1.000
    O3       O        0.21020    0.86770    0.25580    1.000
    O4       O        0.38650    0.00630    0.48290    1.000
    O5       O        0.33020    0.74790    0.30300    1.000
    O6       O        0.37620    0.99440    0.23320    1.000
    O7       O        0.20290    0.00940    0.34930    1.000
    O8       O        0.62870    0.86330    0.67530    1.000
    O9       O        0.87150    0.00100    0.86770    1.000
    O10      O        0.51260    0.88400    0.27830    1.000
    O11      O        0.12850    0.99900    0.13230    1.000
    O12      O        0.37780    0.90200    0.42080    1.000
    O13      O        0.48740    0.11600    0.72170    1.000
    O14      O        0.63510    0.08710    0.33080    1.000
    O15      O        0.80750    0.08440    0.50550    1.000
    O16      O        0.50460    0.74560    0.47730    1.000
    O17      O        0.48790    0.00210    0.60120    1.000
    O18      O        0.61350    0.99370    0.51710    1.000
    O19      O        0.62750    0.24160    0.43630    1.000
    O20      O        0.62380    0.00560    0.76680    1.000
    O21      O        0.78980    0.13230    0.74420    1.000
    O22      O        0.37250    0.75840    0.56370    1.000
    O23      O        0.36490    0.91290    0.66920    1.000
    O24      O        0.49490    0.09380    0.47210    1.000
    O25      O        0.66980    0.25210    0.69700    1.000
    O26      O        0.50510    0.90620    0.52790    1.000
    O27      O        0.20240    0.76340    0.39240    1.000
    O28      O        0.79760    0.23660    0.60760    1.000
    O29      O        0.37130    0.13670    0.32470    1.000
    O30      O        0.49540    0.25440    0.52270    1.000
    O31      O        0.68710    0.88360    0.45160    1.000
    O32      O        0.19250    0.91560    0.49450    1.000
    O33      O        0.31290    0.11640    0.54840    1.000
    O34      O        0.62220    0.09800    0.57920    1.000
