# CIF file generated by openbabel 3.1.0, see https://openbabel.org
data_I
_chemical_name_common 'QAWRIQ_clean'
_cell_length_a 10.524
_cell_length_b 11.307
_cell_length_c 14.316
_cell_angle_alpha 111.186
_cell_angle_beta 107.831
_cell_angle_gamma 91.583
_space_group_name_H-M_alt 'P 1'
_space_group_name_Hall 'P 1'
loop_
    _symmetry_equiv_pos_as_xyz
    x,y,z
loop_
    _atom_site_label
    _atom_site_type_symbol
    _atom_site_fract_x
    _atom_site_fract_y
    _atom_site_fract_z
    _atom_site_occupancy
    Gd1      Gd       0.30683    0.51726    0.91887    1.000
    Gd2      Gd       0.21557    0.36764    0.60525    1.000
    Gd3      Gd       0.69317    0.48274    0.08113    1.000
    Gd4      Gd       0.78443    0.63236    0.39475    1.000
    H1       H        0.88630    0.61920    0.02390    1.000
    H2       H        0.73800    0.60760    0.00350    1.000
    H3       H        0.13360    0.89280    0.50940    1.000
    H4       H        0.15810    0.03570    0.55950    1.000
    H5       H        0.57840    0.06220    0.41020    1.000
    H6       H        0.50750    0.14220    0.48010    1.000
    H7       H        0.54940    0.35360    0.64390    1.000
    H8       H        0.73290    0.31510    0.58930    1.000
    H9       H        0.97680    0.52910    0.88590    1.000
    H10      H        0.36700    0.11830    0.91720    1.000
    H11      H        0.37700    0.91450    0.91830    1.000
    H12      H        0.17460    0.76470    0.60480    1.000
    H13      H        0.05520    0.97080    0.28890    1.000
    H14      H        0.06020    0.80700    0.13790    1.000
    H15      H        0.46670    0.88480    0.25470    1.000
    H16      H        0.11370    0.38080    0.97610    1.000
    H17      H        0.26200    0.39240    0.99650    1.000
    H18      H        0.86640    0.10720    0.49060    1.000
    H19      H        0.84190    0.96430    0.44050    1.000
    H20      H        0.42160    0.93780    0.58980    1.000
    H21      H        0.49250    0.85780    0.51990    1.000
    H22      H        0.45060    0.64640    0.35610    1.000
    H23      H        0.26710    0.68490    0.41070    1.000
    H24      H        0.02320    0.47090    0.11410    1.000
    H25      H        0.63300    0.88170    0.08280    1.000
    H26      H        0.62300    0.08550    0.08170    1.000
    H27      H        0.82540    0.23530    0.39520    1.000
    H28      H        0.94480    0.02920    0.71110    1.000
    H29      H        0.93980    0.19300    0.86210    1.000
    H30      H        0.53330    0.11520    0.74530    1.000
    C1       C        0.52750    0.48050    0.82970    1.000
    C2       C        0.64960    0.46470    0.79750    1.000
    C3       C        0.63570    0.38960    0.69290    1.000
    C4       C        0.74460    0.36670    0.65960    1.000
    C5       C        0.87320    0.42210    0.73290    1.000
    C6       C        0.99640    0.40390    0.70060    1.000
    C7       C        0.88990    0.49520    0.83730    1.000
    C8       C        0.78030    0.51980    0.87220    1.000
    C9       C        0.25880    0.20030    0.76580    1.000
    C10      C        0.26420    0.06650    0.76140    1.000
    C11      C        0.32690    0.04720    0.85400    1.000
    C12      C        0.33180    0.92500    0.85560    1.000
    C13      C        0.26780    0.81920    0.76190    1.000
    C14      C        0.26130    0.68460    0.76070    1.000
    C15      C        0.21210    0.83650    0.66790    1.000
    C16      C        0.21010    0.95800    0.66430    1.000
    C17      C        0.24240    0.14070    0.45150    1.000
    C18      C        0.25460    0.02990    0.36170    1.000
    C19      C        0.13830    0.95420    0.28120    1.000
    C20      C        0.13980    0.85610    0.19070    1.000
    C21      C        0.26620    0.83280    0.18100    1.000
    C22      C        0.27640    0.72990    0.08230    1.000
    C23      C        0.38370    0.90410    0.26120    1.000
    C24      C        0.38000    0.00340    0.35070    1.000
    C25      C        0.47250    0.51950    0.17030    1.000
    C26      C        0.35040    0.53530    0.20250    1.000
    C27      C        0.36430    0.61040    0.30710    1.000
    C28      C        0.25540    0.63330    0.34040    1.000
    C29      C        0.12680    0.57790    0.26710    1.000
    C30      C        0.00360    0.59610    0.29940    1.000
    C31      C        0.11010    0.50480    0.16270    1.000
    C32      C        0.21970    0.48020    0.12780    1.000
    C33      C        0.74120    0.79970    0.23420    1.000
    C34      C        0.73580    0.93350    0.23860    1.000
    C35      C        0.67310    0.95280    0.14600    1.000
    C36      C        0.66820    0.07500    0.14440    1.000
    C37      C        0.73220    0.18080    0.23810    1.000
    C38      C        0.73870    0.31540    0.23930    1.000
    C39      C        0.78790    0.16350    0.33210    1.000
    C40      C        0.78990    0.04200    0.33570    1.000
    C41      C        0.75760    0.85930    0.54850    1.000
    C42      C        0.74540    0.97010    0.63830    1.000
    C43      C        0.86170    0.04580    0.71880    1.000
    C44      C        0.86020    0.14390    0.80930    1.000
    C45      C        0.73380    0.16720    0.81900    1.000
    C46      C        0.72360    0.27010    0.91770    1.000
    C47      C        0.61630    0.09590    0.73880    1.000
    C48      C        0.62000    0.99660    0.64930    1.000
    N1       N        0.80470    0.59140    0.98050    1.000
    N2       N        0.16120    0.96280    0.56550    1.000
    N3       N        0.50490    0.07910    0.42310    1.000
    N4       N        0.19530    0.40860    0.01950    1.000
    N5       N        0.83880    0.03720    0.43450    1.000
    N6       N        0.49510    0.92090    0.57690    1.000
    O1       O        0.54180    0.53220    0.92830    1.000
    O2       O        0.41110    0.44390    0.76110    1.000
    O3       O        0.11120    0.44310    0.77090    1.000
    O4       O        0.98290    0.35440    0.60350    1.000
    O5       O        0.29470    0.29070    0.85650    1.000
    O6       O        0.21810    0.21500    0.67910    1.000
    O7       O        0.30830    0.67490    0.84790    1.000
    O8       O        0.20600    0.59200    0.67170    1.000
    O9       O        0.12680    0.16660    0.45230    1.000
    O10      O        0.34640    0.21010    0.52560    1.000
    O11      O        0.39040    0.70770    0.07800    1.000
    O12      O        0.16940    0.66340    0.00670    1.000
    O13      O        0.45820    0.46780    0.07170    1.000
    O14      O        0.58890    0.55610    0.23890    1.000
    O15      O        0.88880    0.55690    0.22910    1.000
    O16      O        0.01710    0.64560    0.39650    1.000
    O17      O        0.70530    0.70930    0.14350    1.000
    O18      O        0.78190    0.78500    0.32090    1.000
    O19      O        0.69170    0.32510    0.15210    1.000
    O20      O        0.79400    0.40800    0.32830    1.000
    O21      O        0.87320    0.83340    0.54770    1.000
    O22      O        0.65360    0.78990    0.47440    1.000
    O23      O        0.60960    0.29230    0.92200    1.000
    O24      O        0.83060    0.33660    0.99330    1.000
