# CIF file generated by openbabel 3.1.0, see https://openbabel.org
data_I
_chemical_name_common 'XEXMEU_clean'
_cell_length_a 5.6364
_cell_length_b 18.8863
_cell_length_c 25.301
_cell_angle_alpha 90
_cell_angle_beta 90
_cell_angle_gamma 95.47
_space_group_name_H-M_alt 'P 1'
_space_group_name_Hall 'P 1'
loop_
    _symmetry_equiv_pos_as_xyz
    x,y,z
loop_
    _atom_site_label
    _atom_site_type_symbol
    _atom_site_fract_x
    _atom_site_fract_y
    _atom_site_fract_z
    _atom_site_occupancy
    Zn1      Zn       0.10300    0.56025    0.53332    1.000
    Zn2      Zn       0.89700    0.93975    0.03332    1.000
    Zn3      Zn       0.89700    0.43975    0.46668    1.000
    Zn4      Zn       0.10300    0.06025    0.96668    1.000
    H1       H        0.47530    0.91060    0.10740    1.000
    H2       H        0.39080    0.84530    0.18420    1.000
    H3       H        0.98700    0.74540    0.15830    1.000
    H4       H        0.05840    0.81550    0.08430    1.000
    H5       H        0.12700    0.60080    0.25690    1.000
    H6       H        0.07280    0.53440    0.33480    1.000
    H7       H        0.02950    0.70740    0.43250    1.000
    H8       H        0.06710    0.77610    0.35580    1.000
    H9       H        0.52470    0.58940    0.60740    1.000
    H10      H        0.60920    0.65470    0.68420    1.000
    H11      H        0.01300    0.75460    0.65830    1.000
    H12      H        0.94160    0.68450    0.58430    1.000
    H13      H        0.87300    0.89920    0.75690    1.000
    H14      H        0.92720    0.96560    0.83480    1.000
    H15      H        0.97050    0.79260    0.93250    1.000
    H16      H        0.93290    0.72390    0.85580    1.000
    H17      H        0.52470    0.08940    0.89260    1.000
    H18      H        0.60920    0.15470    0.81580    1.000
    H19      H        0.01300    0.25460    0.84170    1.000
    H20      H        0.94160    0.18450    0.91570    1.000
    H21      H        0.87300    0.39920    0.74310    1.000
    H22      H        0.92720    0.46560    0.66520    1.000
    H23      H        0.97050    0.29260    0.56750    1.000
    H24      H        0.93290    0.22390    0.64420    1.000
    H25      H        0.47530    0.41060    0.39260    1.000
    H26      H        0.39080    0.34530    0.31580    1.000
    H27      H        0.98700    0.24540    0.34170    1.000
    H28      H        0.05840    0.31550    0.41570    1.000
    H29      H        0.12700    0.10080    0.24310    1.000
    H30      H        0.07280    0.03440    0.16520    1.000
    H31      H        0.02950    0.20740    0.06750    1.000
    H32      H        0.06710    0.27610    0.14420    1.000
    C1       C        0.58130    0.87740    0.11861    1.000
    C2       C        0.52990    0.83900    0.16413    1.000
    C3       C        0.68730    0.79110    0.17976    1.000
    C4       C        0.88300    0.78020    0.14909    1.000
    C5       C        0.92120    0.82130    0.10510    1.000
    C6       C        0.45090    0.70220    0.23209    1.000
    C7       C        0.42390    0.66110    0.28170    1.000
    C8       C        0.58870    0.67340    0.32322    1.000
    C9       C        0.78470    0.72680    0.31817    1.000
    C10      C        0.82060    0.76720    0.26881    1.000
    C11      C        0.23470    0.60950    0.28559    1.000
    C12      C        0.20340    0.57000    0.33210    1.000
    C13      C        0.35730    0.58130    0.37428    1.000
    C14      C        0.56120    0.63220    0.37026    1.000
    C15      C        0.73850    0.64400    0.40998    1.000
    C16      C        0.91850    0.69800    0.40451    1.000
    C17      C        0.94110    0.73910    0.35871    1.000
    C18      C        0.27520    0.54480    0.42483    1.000
    C19      C        0.77440    0.59290    0.45461    1.000
    C20      C        0.41870    0.62260    0.61861    1.000
    C21      C        0.47010    0.66100    0.66413    1.000
    C22      C        0.31270    0.70890    0.67976    1.000
    C23      C        0.11700    0.71980    0.64909    1.000
    C24      C        0.07880    0.67870    0.60510    1.000
    C25      C        0.54910    0.79780    0.73209    1.000
    C26      C        0.57610    0.83890    0.78170    1.000
    C27      C        0.41130    0.82660    0.82322    1.000
    C28      C        0.21530    0.77320    0.81817    1.000
    C29      C        0.17940    0.73280    0.76881    1.000
    C30      C        0.76530    0.89050    0.78559    1.000
    C31      C        0.79660    0.93000    0.83210    1.000
    C32      C        0.64270    0.91870    0.87428    1.000
    C33      C        0.43880    0.86780    0.87026    1.000
    C34      C        0.26150    0.85600    0.90998    1.000
    C35      C        0.08150    0.80200    0.90451    1.000
    C36      C        0.05890    0.76090    0.85871    1.000
    C37      C        0.72480    0.95520    0.92483    1.000
    C38      C        0.22560    0.90710    0.95461    1.000
    C39      C        0.41870    0.12260    0.88139    1.000
    C40      C        0.47010    0.16100    0.83587    1.000
    C41      C        0.31270    0.20890    0.82024    1.000
    C42      C        0.11700    0.21980    0.85091    1.000
    C43      C        0.07880    0.17870    0.89490    1.000
    C44      C        0.54910    0.29780    0.76791    1.000
    C45      C        0.57610    0.33890    0.71830    1.000
    C46      C        0.41130    0.32660    0.67678    1.000
    C47      C        0.21530    0.27320    0.68183    1.000
    C48      C        0.17940    0.23280    0.73119    1.000
    C49      C        0.76530    0.39050    0.71441    1.000
    C50      C        0.79660    0.43000    0.66790    1.000
    C51      C        0.64270    0.41870    0.62572    1.000
    C52      C        0.43880    0.36780    0.62974    1.000
    C53      C        0.26150    0.35600    0.59002    1.000
    C54      C        0.08150    0.30200    0.59549    1.000
    C55      C        0.05890    0.26090    0.64129    1.000
    C56      C        0.72480    0.45520    0.57517    1.000
    C57      C        0.22560    0.40710    0.54539    1.000
    C58      C        0.58130    0.37740    0.38139    1.000
    C59      C        0.52990    0.33900    0.33587    1.000
    C60      C        0.68730    0.29110    0.32024    1.000
    C61      C        0.88300    0.28020    0.35091    1.000
    C62      C        0.92120    0.32130    0.39490    1.000
    C63      C        0.45090    0.20220    0.26791    1.000
    C64      C        0.42390    0.16110    0.21830    1.000
    C65      C        0.58870    0.17340    0.17678    1.000
    C66      C        0.78470    0.22680    0.18183    1.000
    C67      C        0.82060    0.26720    0.23119    1.000
    C68      C        0.23470    0.10950    0.21441    1.000
    C69      C        0.20340    0.07000    0.16790    1.000
    C70      C        0.35730    0.08130    0.12572    1.000
    C71      C        0.56120    0.13220    0.12974    1.000
    C72      C        0.73850    0.14400    0.09002    1.000
    C73      C        0.91850    0.19800    0.09549    1.000
    C74      C        0.94110    0.23910    0.14129    1.000
    C75      C        0.27520    0.04480    0.07517    1.000
    C76      C        0.77440    0.09290    0.04539    1.000
    N1       N        0.77590    0.86945    0.08952    1.000
    N2       N        0.65120    0.75290    0.22903    1.000
    N3       N        0.22410    0.63055    0.58952    1.000
    N4       N        0.34880    0.74710    0.72903    1.000
    N5       N        0.22410    0.13055    0.91048    1.000
    N6       N        0.34880    0.24710    0.77097    1.000
    N7       N        0.77590    0.36945    0.41048    1.000
    N8       N        0.65120    0.25290    0.27097    1.000
    O1       O        0.29020    0.58200    0.46635    1.000
    O2       O        0.17860    0.48232    0.42084    1.000
    O3       O        0.74120    0.52770    0.44293    1.000
    O4       O        0.85490    0.61830    0.49715    1.000
    O5       O        0.31540    0.69422    0.19483    1.000
    O6       O        0.98740    0.81190    0.26188    1.000
    O7       O        0.70980    0.91800    0.96635    1.000
    O8       O        0.82140    0.01768    0.92084    1.000
    O9       O        0.25880    0.97230    0.94293    1.000
    O10      O        0.14510    0.88170    0.99715    1.000
    O11      O        0.68460    0.80578    0.69483    1.000
    O12      O        0.01260    0.68810    0.76188    1.000
    O13      O        0.70980    0.41800    0.53365    1.000
    O14      O        0.82140    0.51768    0.57916    1.000
    O15      O        0.25880    0.47230    0.55707    1.000
    O16      O        0.14510    0.38170    0.50285    1.000
    O17      O        0.68460    0.30578    0.80517    1.000
    O18      O        0.01260    0.18810    0.73812    1.000
    O19      O        0.29020    0.08200    0.03365    1.000
    O20      O        0.17860    0.98232    0.07916    1.000
    O21      O        0.74120    0.02770    0.05707    1.000
    O22      O        0.85490    0.11830    0.00285    1.000
    O23      O        0.31540    0.19422    0.30517    1.000
    O24      O        0.98740    0.31190    0.23812    1.000
