# CIF file generated by openbabel 3.1.0, see https://openbabel.org
data_I
_chemical_name_common 'image0'
_cell_length_a 15.7709
_cell_length_b 23.107
_cell_length_c 18.3269
_cell_angle_alpha 90
_cell_angle_beta 106.271
_cell_angle_gamma 90
_space_group_name_H-M_alt 'P 1'
_space_group_name_Hall 'P 1'
loop_
    _symmetry_equiv_pos_as_xyz
    x,y,z
loop_
    _atom_site_label
    _atom_site_type_symbol
    _atom_site_fract_x
    _atom_site_fract_y
    _atom_site_fract_z
    _atom_site_occupancy
    Ni1      Ni       0.43689    0.70670    0.19277    1.000
    Ni2      Ni       0.93806    0.57346    0.25169    1.000
    N1       N        0.47130    0.64737    0.28320    1.000
    N2       N        0.45390    0.57120    0.34970    1.000
    N3       N        0.04150    0.51830    0.30580    1.000
    N4       N        0.17650    0.48317    0.35210    1.000
    N5       N        0.44570    0.42698    0.54090    1.000
    N6       N        0.83620    0.62290    0.18390    1.000
    N7       N        0.75770    0.66650    0.07920    1.000
    N8       N        0.88830    0.73275    0.75700    1.000
    N9       N        0.81330    0.69994    0.83350    1.000
    N10      N        0.48000    0.85923    0.82900    1.000
    N11      N        0.55930    0.78494    0.88850    1.000
    C1       C        0.45090    0.49740    0.44400    1.000
    H1       H        0.51120    0.50210    0.46580    1.000
    C2       C        0.40740    0.52880    0.38090    1.000
    C3       C        0.31730    0.52070    0.34710    1.000
    H2       H        0.28910    0.53990    0.30230    1.000
    C4       C        0.27080    0.48460    0.38010    1.000
    C5       C        0.31200    0.45200    0.44390    1.000
    H3       H        0.27990    0.42680    0.46540    1.000
    C6       C        0.40260    0.45830    0.47470    1.000
    C7       C        0.54170    0.58630    0.37420    1.000
    H4       H        0.58570    0.56830    0.41200    1.000
    C8       C        0.55110    0.63260    0.33200    1.000
    H5       H        0.60410    0.65150    0.33560    1.000
    C9       C        0.41570    0.61040    0.29560    1.000
    H6       H        0.35580    0.61070    0.27000    1.000
    C10      C        0.12570    0.52950    0.31910    1.000
    H7       H        0.14820    0.56440    0.30750    1.000
    C11      C        0.03750    0.46310    0.33290    1.000
    H8       H        0.98570    0.44370    0.33250    1.000
    C12      C        0.11860    0.44140    0.35990    1.000
    H9       H        0.13300    0.40470    0.38020    1.000
    C13      C        0.52420    0.44080    0.59330    1.000
    H10      H        0.56030    0.47240    0.59210    1.000
    C14      C        0.41950    0.37560    0.56350    1.000
    H11      H        0.36880    0.35590    0.53700    1.000
    N12      N        0.47370    0.35730    0.62670    1.000
    C15      C        0.53830    0.39850    0.64750    1.000
    H12      H        0.58410    0.39170    0.70100    1.000
    C16      C        0.73140    0.68750    0.00380    1.000
    C17      C        0.78320    0.67810    0.95520    1.000
    H13      H        0.83430    0.65590    0.97060    1.000
    C18      C        0.75730    0.70240    0.88280    1.000
    C19      C        0.67970    0.73430    0.85760    1.000
    H14      H        0.66030    0.74750    0.80770    1.000
    C20      C        0.63230    0.74580    0.90950    1.000
    C21      C        0.65630    0.72190    0.98180    1.000
    H15      H        0.62250    0.72880    0.01510    1.000
    C22      C        0.82440    0.62970    0.11080    1.000
    H16      H        0.85830    0.61130    0.08360    1.000
    C23      C        0.72950    0.68670    0.13920    1.000
    H17      H        0.68580    0.71410    0.13720    1.000
    C24      C        0.77820    0.65860    0.20180    1.000
    H18      H        0.77220    0.66340    0.25050    1.000
    C25      C        0.87470    0.65840    0.83100    1.000
    H19      H        0.88380    0.62320    0.85660    1.000
    C26      C        0.91910    0.67930    0.78360    1.000
    H20      H        0.96460    0.66000    0.77080    1.000
    C27      C        0.82530    0.74250    0.78870    1.000
    H21      H        0.79180    0.77630    0.78070    1.000
    C28      C        0.54520    0.82320    0.82960    1.000
    H22      H        0.57750    0.82390    0.79420    1.000
    C29      C        0.45190    0.84340    0.89120    1.000
    H23      H        0.40600    0.86110    0.90550    1.000
    C30      C        0.49970    0.79950    0.92760    1.000
    H24      H        0.49390    0.78180    0.97150    1.000
    Ni3      Ni       0.93689    0.20670    0.19277    1.000
    Ni4      Ni       0.43806    0.07346    0.25169    1.000
    N13      N        0.97130    0.14737    0.28320    1.000
    N14      N        0.95390    0.07120    0.34970    1.000
    N15      N        0.54150    0.01830    0.30580    1.000
    N16      N        0.67650    0.98317    0.35210    1.000
    N17      N        0.94570    0.92698    0.54090    1.000
    N18      N        0.33620    0.12290    0.18390    1.000
    N19      N        0.25770    0.16650    0.07920    1.000
    N20      N        0.38830    0.23275    0.75700    1.000
    N21      N        0.31330    0.19994    0.83350    1.000
    N22      N        0.98000    0.35923    0.82900    1.000
    N23      N        0.05930    0.28494    0.88850    1.000
    C31      C        0.95090    0.99740    0.44400    1.000
    H25      H        0.01120    0.00210    0.46580    1.000
    C32      C        0.90740    0.02880    0.38090    1.000
    C33      C        0.81730    0.02070    0.34710    1.000
    H26      H        0.78910    0.03990    0.30230    1.000
    C34      C        0.77080    0.98460    0.38010    1.000
    C35      C        0.81200    0.95200    0.44390    1.000
    H27      H        0.77990    0.92680    0.46540    1.000
    C36      C        0.90260    0.95830    0.47470    1.000
    C37      C        0.04170    0.08630    0.37420    1.000
    H28      H        0.08570    0.06830    0.41200    1.000
    C38      C        0.05110    0.13260    0.33200    1.000
    H29      H        0.10410    0.15150    0.33560    1.000
    C39      C        0.91570    0.11040    0.29560    1.000
    H30      H        0.85580    0.11070    0.27000    1.000
    C40      C        0.62570    0.02950    0.31910    1.000
    H31      H        0.64820    0.06440    0.30750    1.000
    C41      C        0.53750    0.96310    0.33290    1.000
    H32      H        0.48570    0.94370    0.33250    1.000
    C42      C        0.61860    0.94140    0.35990    1.000
    H33      H        0.63300    0.90470    0.38020    1.000
    C43      C        0.02420    0.94080    0.59330    1.000
    H34      H        0.06030    0.97240    0.59210    1.000
    C44      C        0.91950    0.87560    0.56350    1.000
    H35      H        0.86880    0.85590    0.53700    1.000
    N24      N        0.97370    0.85730    0.62670    1.000
    C45      C        0.03830    0.89850    0.64750    1.000
    H36      H        0.08410    0.89170    0.70100    1.000
    C46      C        0.23140    0.18750    0.00380    1.000
    C47      C        0.28320    0.17810    0.95520    1.000
    H37      H        0.33430    0.15590    0.97060    1.000
    C48      C        0.25730    0.20240    0.88280    1.000
    C49      C        0.17970    0.23430    0.85760    1.000
    H38      H        0.16030    0.24750    0.80770    1.000
    C50      C        0.13230    0.24580    0.90950    1.000
    C51      C        0.15630    0.22190    0.98180    1.000
    H39      H        0.12250    0.22880    0.01510    1.000
    C52      C        0.32440    0.12970    0.11080    1.000
    H40      H        0.35830    0.11130    0.08360    1.000
    C53      C        0.22950    0.18670    0.13920    1.000
    H41      H        0.18580    0.21410    0.13720    1.000
    C54      C        0.27820    0.15860    0.20180    1.000
    H42      H        0.27220    0.16340    0.25050    1.000
    C55      C        0.37470    0.15840    0.83100    1.000
    H43      H        0.38380    0.12320    0.85660    1.000
    C56      C        0.41910    0.17930    0.78360    1.000
    H44      H        0.46460    0.16000    0.77080    1.000
    C57      C        0.32530    0.24250    0.78870    1.000
    H45      H        0.29180    0.27630    0.78070    1.000
    C58      C        0.04520    0.32320    0.82960    1.000
    H46      H        0.07750    0.32390    0.79420    1.000
    C59      C        0.95190    0.34340    0.89120    1.000
    H47      H        0.90600    0.36110    0.90550    1.000
    C60      C        0.99970    0.29950    0.92760    1.000
    H48      H        0.99390    0.28180    0.97150    1.000
    Ni5      Ni       0.43689    0.29330    0.69277    1.000
    Ni6      Ni       0.93806    0.42654    0.75169    1.000
    N25      N        0.47130    0.35263    0.78320    1.000
    N26      N        0.45390    0.42880    0.84970    1.000
    N27      N        0.04150    0.48170    0.80580    1.000
    N28      N        0.17650    0.51683    0.85210    1.000
    N29      N        0.44570    0.57302    0.04090    1.000
    N30      N        0.83620    0.37710    0.68390    1.000
    N31      N        0.75770    0.33350    0.57920    1.000
    N32      N        0.88830    0.26725    0.25700    1.000
    N33      N        0.81330    0.30006    0.33350    1.000
    N34      N        0.48000    0.14077    0.32900    1.000
    N35      N        0.55930    0.21506    0.38850    1.000
    C61      C        0.45090    0.50260    0.94400    1.000
    H49      H        0.51120    0.49790    0.96580    1.000
    C62      C        0.40740    0.47120    0.88090    1.000
    C63      C        0.31730    0.47930    0.84710    1.000
    H50      H        0.28910    0.46010    0.80230    1.000
    C64      C        0.27080    0.51540    0.88010    1.000
    C65      C        0.31200    0.54800    0.94390    1.000
    H51      H        0.27990    0.57320    0.96540    1.000
    C66      C        0.40260    0.54170    0.97470    1.000
    C67      C        0.54170    0.41370    0.87420    1.000
    H52      H        0.58570    0.43170    0.91200    1.000
    C68      C        0.55110    0.36740    0.83200    1.000
    H53      H        0.60410    0.34850    0.83560    1.000
    C69      C        0.41570    0.38960    0.79560    1.000
    H54      H        0.35580    0.38930    0.77000    1.000
    C70      C        0.12570    0.47050    0.81910    1.000
    H55      H        0.14820    0.43560    0.80750    1.000
    C71      C        0.03750    0.53690    0.83290    1.000
    H56      H        0.98570    0.55630    0.83250    1.000
    C72      C        0.11860    0.55860    0.85990    1.000
    H57      H        0.13300    0.59530    0.88020    1.000
    C73      C        0.52420    0.55920    0.09330    1.000
    H58      H        0.56030    0.52760    0.09210    1.000
    C74      C        0.41950    0.62440    0.06350    1.000
    H59      H        0.36880    0.64410    0.03700    1.000
    N36      N        0.47370    0.64270    0.12670    1.000
    C75      C        0.53830    0.60150    0.14750    1.000
    H60      H        0.58410    0.60830    0.20100    1.000
    C76      C        0.73140    0.31250    0.50380    1.000
    C77      C        0.78320    0.32190    0.45520    1.000
    H61      H        0.83430    0.34410    0.47060    1.000
    C78      C        0.75730    0.29760    0.38280    1.000
    C79      C        0.67970    0.26570    0.35760    1.000
    H62      H        0.66030    0.25250    0.30770    1.000
    C80      C        0.63230    0.25420    0.40950    1.000
    C81      C        0.65630    0.27810    0.48180    1.000
    H63      H        0.62250    0.27120    0.51510    1.000
    C82      C        0.82440    0.37030    0.61080    1.000
    H64      H        0.85830    0.38870    0.58360    1.000
    C83      C        0.72950    0.31330    0.63920    1.000
    H65      H        0.68580    0.28590    0.63720    1.000
    C84      C        0.77820    0.34140    0.70180    1.000
    H66      H        0.77220    0.33660    0.75050    1.000
    C85      C        0.87470    0.34160    0.33100    1.000
    H67      H        0.88380    0.37680    0.35660    1.000
    C86      C        0.91910    0.32070    0.28360    1.000
    H68      H        0.96460    0.34000    0.27080    1.000
    C87      C        0.82530    0.25750    0.28870    1.000
    H69      H        0.79180    0.22370    0.28070    1.000
    C88      C        0.54520    0.17680    0.32960    1.000
    H70      H        0.57750    0.17610    0.29420    1.000
    C89      C        0.45190    0.15660    0.39120    1.000
    H71      H        0.40600    0.13890    0.40550    1.000
    C90      C        0.49970    0.20050    0.42760    1.000
    H72      H        0.49390    0.21820    0.47150    1.000
    Ni7      Ni       0.93689    0.79330    0.69277    1.000
    Ni8      Ni       0.43806    0.92654    0.75169    1.000
    N37      N        0.97130    0.85263    0.78320    1.000
    N38      N        0.95390    0.92880    0.84970    1.000
    N39      N        0.54150    0.98170    0.80580    1.000
    N40      N        0.67650    0.01683    0.85210    1.000
    N41      N        0.94570    0.07302    0.04090    1.000
    N42      N        0.33620    0.87710    0.68390    1.000
    N43      N        0.25770    0.83350    0.57920    1.000
    N44      N        0.38830    0.76725    0.25700    1.000
    N45      N        0.31330    0.80006    0.33350    1.000
    N46      N        0.98000    0.64077    0.32900    1.000
    N47      N        0.05930    0.71506    0.38850    1.000
    C91      C        0.95090    0.00260    0.94400    1.000
    H73      H        0.01120    0.99790    0.96580    1.000
    C92      C        0.90740    0.97120    0.88090    1.000
    C93      C        0.81730    0.97930    0.84710    1.000
    H74      H        0.78910    0.96010    0.80230    1.000
    C94      C        0.77080    0.01540    0.88010    1.000
    C95      C        0.81200    0.04800    0.94390    1.000
    H75      H        0.77990    0.07320    0.96540    1.000
    C96      C        0.90260    0.04170    0.97470    1.000
    C97      C        0.04170    0.91370    0.87420    1.000
    H76      H        0.08570    0.93170    0.91200    1.000
    C98      C        0.05110    0.86740    0.83200    1.000
    H77      H        0.10410    0.84850    0.83560    1.000
    C99      C        0.91570    0.88960    0.79560    1.000
    H78      H        0.85580    0.88930    0.77000    1.000
    C100     C        0.62570    0.97050    0.81910    1.000
    H79      H        0.64820    0.93560    0.80750    1.000
    C101     C        0.53750    0.03690    0.83290    1.000
    H80      H        0.48570    0.05630    0.83250    1.000
    C102     C        0.61860    0.05860    0.85990    1.000
    H81      H        0.63300    0.09530    0.88020    1.000
    C103     C        0.02420    0.05920    0.09330    1.000
    H82      H        0.06030    0.02760    0.09210    1.000
    C104     C        0.91950    0.12440    0.06350    1.000
    H83      H        0.86880    0.14410    0.03700    1.000
    N48      N        0.97370    0.14270    0.12670    1.000
    C105     C        0.03830    0.10150    0.14750    1.000
    H84      H        0.08410    0.10830    0.20100    1.000
    C106     C        0.23140    0.81250    0.50380    1.000
    C107     C        0.28320    0.82190    0.45520    1.000
    H85      H        0.33430    0.84410    0.47060    1.000
    C108     C        0.25730    0.79760    0.38280    1.000
    C109     C        0.17970    0.76570    0.35760    1.000
    H86      H        0.16030    0.75250    0.30770    1.000
    C110     C        0.13230    0.75420    0.40950    1.000
    C111     C        0.15630    0.77810    0.48180    1.000
    H87      H        0.12250    0.77120    0.51510    1.000
    C112     C        0.32440    0.87030    0.61080    1.000
    H88      H        0.35830    0.88870    0.58360    1.000
    C113     C        0.22950    0.81330    0.63920    1.000
    H89      H        0.18580    0.78590    0.63720    1.000
    C114     C        0.27820    0.84140    0.70180    1.000
    H90      H        0.27220    0.83660    0.75050    1.000
    C115     C        0.37470    0.84160    0.33100    1.000
    H91      H        0.38380    0.87680    0.35660    1.000
    C116     C        0.41910    0.82070    0.28360    1.000
    H92      H        0.46460    0.84000    0.27080    1.000
    C117     C        0.32530    0.75750    0.28870    1.000
    H93      H        0.29180    0.72370    0.28070    1.000
    C118     C        0.04520    0.67680    0.32960    1.000
    H94      H        0.07750    0.67610    0.29420    1.000
    C119     C        0.95190    0.65660    0.39120    1.000
    H95      H        0.90600    0.63890    0.40550    1.000
    C120     C        0.99970    0.70050    0.42760    1.000
    H96      H        0.99390    0.71820    0.47150    1.000
