# CIF file generated by openbabel 3.1.0, see https://openbabel.org
data_I
_chemical_name_common 'image0'
_cell_length_a 6.487
_cell_length_b 24.779
_cell_length_c 7.805
_cell_angle_alpha 90
_cell_angle_beta 91.029
_cell_angle_gamma 90
_space_group_name_H-M_alt 'P 1'
_space_group_name_Hall 'P 1'
loop_
    _symmetry_equiv_pos_as_xyz
    x,y,z
loop_
    _atom_site_label
    _atom_site_type_symbol
    _atom_site_fract_x
    _atom_site_fract_y
    _atom_site_fract_z
    _atom_site_occupancy
    Ni1      Ni       0.66040    0.45169    0.68520    1.000
    Ni2      Ni       0.83860    0.02113    0.80860    1.000
    N1       N        0.82700    0.38050    0.71600    1.000
    C1       C        0.74900    0.33660    0.78800    1.000
    H1       H        0.60880    0.33750    0.82250    1.000
    C2       C        0.86100    0.28930    0.81700    1.000
    H2       H        0.80160    0.25930    0.87370    1.000
    C3       C        0.06200    0.28770    0.75900    1.000
    C4       C        0.15100    0.33410    0.69300    1.000
    H3       H        0.29230    0.33480    0.66310    1.000
    C5       C        0.02700    0.37940    0.67100    1.000
    H4       H        0.08560    0.41090    0.62200    1.000
    N2       N        0.15800    0.23550    0.78800    1.000
    N3       N        0.65800    0.08950    0.77100    1.000
    C6       C        0.72400    0.13310    0.68700    1.000
    H5       H        0.85690    0.13170    0.63820    1.000
    C7       C        0.61100    0.18020    0.66700    1.000
    H6       H        0.66440    0.21000    0.60590    1.000
    C8       C        0.41800    0.18270    0.74000    1.000
    C9       C        0.34300    0.13820    0.82700    1.000
    H7       H        0.21080    0.13860    0.87650    1.000
    C10      C        0.46900    0.09340    0.83900    1.000
    H8       H        0.41910    0.06300    0.89940    1.000
    N4       N        0.31700    0.23490    0.71200    1.000
    O1       O        0.87600    0.48940    0.85130    1.000
    C11      C        0.90900    0.53850    0.87500    1.000
    O2       O        0.00800    0.55840    0.00120    1.000
    C12      C        0.84300    0.58020    0.74080    1.000
    H9       H        0.96940    0.59740    0.69660    1.000
    H10      H        0.76290    0.60860    0.79870    1.000
    C13      C        0.71600    0.55960    0.58810    1.000
    H11      H        0.66100    0.59110    0.52140    1.000
    N5       N        0.54100    0.52660    0.64900    1.000
    H12      H        0.43540    0.52590    0.56860    1.000
    H13      H        0.49100    0.54020    0.74990    1.000
    C14      C        0.85100    0.52500    0.47160    1.000
    O3       O        0.83500    0.47500    0.48150    1.000
    O4       O        0.95700    0.55190    0.37220    1.000
    O5       O        0.36200    0.49190    0.01980    1.000
    C15      C        0.37900    0.44190    0.99100    1.000
    O6       O        0.47100    0.42430    0.85960    1.000
    C16      C        0.34200    0.39560    0.11600    1.000
    H14      H        0.27690    0.36550    0.05140    1.000
    H15      H        0.47790    0.38270    0.15880    1.000
    C17      C        0.21200    0.40770    0.26700    1.000
    H16      H        0.15610    0.37400    0.31880    1.000
    N6       N        0.04100    0.44290    0.19500    1.000
    H17      H        0.92680    0.44120    0.26280    1.000
    H18      H        0.00400    0.43200    0.08580    1.000
    C18      C        0.35200    0.43880    0.39600    1.000
    O7       O        0.33300    0.48840    0.38610    1.000
    O8       O        0.46700    0.41280    0.49310    1.000
    Ni3      Ni       0.33960    0.95169    0.31480    1.000
    Ni4      Ni       0.16140    0.52113    0.19140    1.000
    N7       N        0.17300    0.88050    0.28400    1.000
    C19      C        0.25100    0.83660    0.21200    1.000
    H19      H        0.39120    0.83750    0.17750    1.000
    C20      C        0.13900    0.78930    0.18300    1.000
    H20      H        0.19840    0.75930    0.12630    1.000
    C21      C        0.93800    0.78770    0.24100    1.000
    C22      C        0.84900    0.83410    0.30700    1.000
    H21      H        0.70770    0.83480    0.33690    1.000
    C23      C        0.97300    0.87940    0.32900    1.000
    H22      H        0.91440    0.91090    0.37800    1.000
    N8       N        0.84200    0.73550    0.21200    1.000
    N9       N        0.34200    0.58950    0.22900    1.000
    C24      C        0.27600    0.63310    0.31300    1.000
    H23      H        0.14310    0.63170    0.36180    1.000
    C25      C        0.38900    0.68020    0.33300    1.000
    H24      H        0.33560    0.71000    0.39410    1.000
    C26      C        0.58200    0.68270    0.26000    1.000
    C27      C        0.65700    0.63820    0.17300    1.000
    H25      H        0.78920    0.63860    0.12350    1.000
    C28      C        0.53100    0.59340    0.16100    1.000
    H26      H        0.58090    0.56300    0.10060    1.000
    N10      N        0.68300    0.73490    0.28800    1.000
    O9       O        0.12400    0.98940    0.14870    1.000
    C29      C        0.09100    0.03850    0.12500    1.000
    O10      O        0.99200    0.05840    0.99880    1.000
    C30      C        0.15700    0.08020    0.25920    1.000
    H27      H        0.03060    0.09740    0.30340    1.000
    H28      H        0.23710    0.10860    0.20130    1.000
    C31      C        0.28400    0.05960    0.41190    1.000
    H29      H        0.33900    0.09110    0.47860    1.000
    N11      N        0.45900    0.02660    0.35100    1.000
    H30      H        0.56460    0.02590    0.43140    1.000
    H31      H        0.50900    0.04020    0.25010    1.000
    C32      C        0.14900    0.02500    0.52840    1.000
    O11      O        0.16500    0.97500    0.51850    1.000
    O12      O        0.04300    0.05190    0.62780    1.000
    O13      O        0.63800    0.99190    0.98020    1.000
    C33      C        0.62100    0.94190    0.00900    1.000
    O14      O        0.52900    0.92430    0.14040    1.000
    C34      C        0.65800    0.89560    0.88400    1.000
    H32      H        0.72310    0.86550    0.94860    1.000
    H33      H        0.52210    0.88270    0.84120    1.000
    C35      C        0.78800    0.90770    0.73300    1.000
    H34      H        0.84390    0.87400    0.68120    1.000
    N12      N        0.95900    0.94290    0.80500    1.000
    H35      H        0.07320    0.94120    0.73720    1.000
    H36      H        0.99600    0.93200    0.91420    1.000
    C36      C        0.64800    0.93880    0.60400    1.000
    O15      O        0.66700    0.98840    0.61390    1.000
    O16      O        0.53300    0.91280    0.50690    1.000
