data_functionalizedCrystal
_audit_creation_method	'EQeq! by Chris Wilmer'
_symmetry_space_group_name_H-M	'P1'
_symmetry_Int_Tables_number	1
_symmetry_cell_setting	triclinic
loop_
_symmetry_equiv_pos_as_xyz
  x,y,z
_cell_length_a	9.7441
_cell_length_b	12.3318
_cell_length_c	15.7737
_cell_angle_alpha	88.979
_cell_angle_beta	77.399
_cell_angle_gamma	69.498
loop_
_atom_site_label
_atom_site_type_symbol
_atom_site_fract_x
_atom_site_fract_y
_atom_site_fract_z
_atom_site_charge
Mof_Ce	Ce	0.79883	0.47203	0.01559	2.948
Mof_O 	O 	0.6567	0.3657	0.1078	-0.62
Mof_O 	O 	0.5148	0.262	0.0937	-0.53
Mof_H 	H 	0.4929	0.3075	0.0544	0.292
Mof_O 	O 	0.7541	0.5521	0.1661	-0.574
Mof_O 	O 	0.9535	0.5846	0.0914	-0.733
Mof_O 	O 	0.0161	0.6767	0.9226	-0.65
Mof_O 	O 	0.8063	0.6349	0.9336	-0.662
Mof_O 	O 	0.6953	0.4036	0.9082	-0.636
Mof_O 	O 	0.4689	0.3873	0.9558	-0.595
Mof_C 	C 	0.7284	0.0442	0.4379	-0.022
Mof_C 	C 	0.7694	0.9241	0.4426	-0.024
Mof_C 	C 	0.7917	0.8757	0.5219	-0.05
Mof_H 	H 	0.8222	0.7938	0.5245	0.034
Mof_C 	C 	0.7711	0.943	0.5975	-0.024
Mof_C 	C 	0.7259	0.0634	0.5935	-0.025
Mof_C 	C 	0.7077	0.1113	0.5132	-0.05
Mof_H 	H 	0.6801	0.1929	0.5102	0.035
Mof_C 	C 	0.6989	0.1058	0.3574	0.092
Mof_C 	C 	0.6209	0.0729	0.3044	-0.164
Mof_H 	H 	0.5879	0.0095	0.3187	0.088
Mof_C 	C 	0.5913	0.1316	0.2313	0.106
Mof_H 	H 	0.5373	0.1088	0.1961	0.013
Mof_C 	C 	0.6396	0.2234	0.2089	-0.219
Mof_C 	C 	0.718	0.2573	0.2611	0.111
Mof_H 	H 	0.7508	0.3207	0.2466	-0.004
Mof_C 	C 	0.7477	0.1976	0.3344	-0.171
Mof_H 	H 	0.8023	0.2201	0.3694	0.081
Mof_C 	C 	0.6042	0.2906	0.1325	0.538
Mof_C 	C 	0.7934	0.841	0.3684	0.09
Mof_C 	C 	0.9016	0.83	0.292	-0.173
Mof_H 	H 	0.9602	0.8784	0.2851	0.086
Mof_C 	C 	0.9245	0.7481	0.2257	0.115
Mof_H 	H 	0.0021	0.7386	0.175	-0.031
Mof_C 	C 	0.8359	0.6806	0.2327	-0.217
Mof_C 	C 	0.7266	0.6922	0.3089	0.099
Mof_H 	H 	0.6642	0.6469	0.3143	0.001
Mof_C 	C 	0.7082	0.7691	0.3767	-0.17
Mof_H 	H 	0.637	0.7732	0.4295	0.078
Mof_C 	C 	0.8494	0.6004	0.1598	0.486
Mof_C 	C 	0.8024	0.8789	0.6766	0.094
Mof_C 	C 	0.7581	0.7839	0.696	-0.173
Mof_H 	H 	0.7075	0.7609	0.6586	0.081
Mof_C 	C 	0.7858	0.7223	0.768	0.123
Mof_H 	H 	0.7511	0.6596	0.781	-0.009
Mof_C 	C 	0.8651	0.7523	0.8219	-0.218
Mof_C 	C 	0.914	0.8445	0.802	0.116
Mof_H 	H 	0.9703	0.8643	0.8372	-0.004
Mof_C 	C 	0.8813	0.9081	0.7309	-0.166
Mof_H 	H 	0.9131	0.9725	0.7191	0.087
Mof_C 	C 	0.8992	0.6829	0.8993	0.572
Mof_C 	C 	0.6875	0.1446	0.6712	0.1
Mof_C 	C 	0.5875	0.1379	0.7472	-0.18
Mof_H 	H 	0.5436	0.0798	0.7503	0.092
Mof_C 	C 	0.5513	0.215	0.8182	0.137
Mof_H 	H 	0.4791	0.2118	0.8687	-0.022
Mof_C 	C 	0.6192	0.2965	0.8164	-0.24
Mof_C 	C 	0.7169	0.3054	0.7425	0.127
Mof_H 	H 	0.7632	0.3619	0.741	-0.017
Mof_C 	C 	0.749	0.2314	0.6687	-0.182
Mof_H 	H 	0.8133	0.2404	0.6165	0.081
Mof_C 	C 	0.5929	0.3689	0.8984	0.542
Mof_Ce	Ce	0.20117	0.52797	0.98441	2.947
Mof_O 	O 	0.3433	0.6343	0.8922	-0.621
Mof_O 	O 	0.4852	0.738	0.9063	-0.53
Mof_H 	H 	0.5071	0.6925	0.9456	0.292
Mof_O 	O 	0.2459	0.4479	0.8339	-0.574
Mof_O 	O 	0.0465	0.4154	0.9086	-0.733
Mof_O 	O 	0.9839	0.3233	0.0774	-0.65
Mof_O 	O 	0.1937	0.3651	0.0664	-0.662
Mof_O 	O 	0.3047	0.5964	0.0918	-0.636
Mof_O 	O 	0.5311	0.6127	0.0442	-0.595
Mof_C 	C 	0.2716	0.9558	0.5621	-0.022
Mof_C 	C 	0.2306	0.0759	0.5574	-0.024
Mof_C 	C 	0.2083	0.1243	0.4781	-0.05
Mof_H 	H 	0.1778	0.2062	0.4755	0.034
Mof_C 	C 	0.2289	0.057	0.4025	-0.024
Mof_C 	C 	0.2741	0.9366	0.4065	-0.025
Mof_C 	C 	0.2923	0.8887	0.4868	-0.05
Mof_H 	H 	0.3199	0.8071	0.4898	0.035
Mof_C 	C 	0.3011	0.8942	0.6426	0.092
Mof_C 	C 	0.3791	0.9271	0.6956	-0.164
Mof_H 	H 	0.4121	0.9905	0.6813	0.088
Mof_C 	C 	0.4087	0.8684	0.7687	0.106
Mof_H 	H 	0.4627	0.8912	0.8039	0.013
Mof_C 	C 	0.3604	0.7766	0.7911	-0.219
Mof_C 	C 	0.282	0.7427	0.7389	0.111
Mof_H 	H 	0.2492	0.6793	0.7534	-0.004
Mof_C 	C 	0.2523	0.8024	0.6656	-0.171
Mof_H 	H 	0.1977	0.7799	0.6306	0.081
Mof_C 	C 	0.3958	0.7094	0.8675	0.538
Mof_C 	C 	0.2066	0.159	0.6316	0.09
Mof_C 	C 	0.0984	0.17	0.708	-0.173
Mof_H 	H 	0.0398	0.1216	0.7149	0.086
Mof_C 	C 	0.0755	0.2519	0.7743	0.115
Mof_H 	H 	0.9979	0.2614	0.825	-0.031
Mof_C 	C 	0.1641	0.3194	0.7673	-0.217
Mof_C 	C 	0.2734	0.3078	0.6911	0.099
Mof_H 	H 	0.3358	0.3531	0.6857	0.001
Mof_C 	C 	0.2918	0.2309	0.6233	-0.17
Mof_H 	H 	0.363	0.2268	0.5705	0.078
Mof_C 	C 	0.1506	0.3996	0.8402	0.486
Mof_C 	C 	0.1976	0.1211	0.3234	0.094
Mof_C 	C 	0.2419	0.2161	0.304	-0.173
Mof_H 	H 	0.2925	0.2391	0.3414	0.081
Mof_C 	C 	0.2142	0.2777	0.232	0.123
Mof_H 	H 	0.2489	0.3404	0.219	-0.009
Mof_C 	C 	0.1349	0.2477	0.1781	-0.218
Mof_C 	C 	0.086	0.1555	0.198	0.116
Mof_H 	H 	0.0297	0.1357	0.1628	-0.004
Mof_C 	C 	0.1187	0.0919	0.2691	-0.166
Mof_H 	H 	0.0869	0.0275	0.2809	0.087
Mof_C 	C 	0.1008	0.3171	0.1007	0.572
Mof_C 	C 	0.3125	0.8554	0.3288	0.1
Mof_C 	C 	0.4125	0.8621	0.2528	-0.18
Mof_H 	H 	0.4564	0.9202	0.2497	0.092
Mof_C 	C 	0.4487	0.785	0.1818	0.137
Mof_H 	H 	0.5209	0.7882	0.1313	-0.022
Mof_C 	C 	0.3808	0.7035	0.1836	-0.24
Mof_C 	C 	0.2831	0.6946	0.2575	0.127
Mof_H 	H 	0.2368	0.6381	0.259	-0.017
Mof_C 	C 	0.251	0.7686	0.3313	-0.182
Mof_H 	H 	0.1867	0.7596	0.3835	0.081
Mof_C 	C 	0.4071	0.6311	0.1016	0.542
Mof_C 	C 	0.703	0.499	0.544	-0.121
Mof_C 	C 	0.74	0.462	0.4565	-0.066
Mof_H 	H 	0.6686	0.4464	0.431	-0.062
Mof_C 	C 	0.883	0.447	0.4063	0.139
Mof_H 	H 	0.9082	0.4215	0.3465	-0.042
Mof_C 	C 	0.988	0.469	0.4436	-0.086
Mof_H 	H 	0.0848	0.4591	0.4094	0.044
Mof_C 	C 	0.95	0.506	0.5311	-0.047
Mof_C 	C 	0.808	0.521	0.5813	0.094
Mof_H 	H 	0.7822	0.5464	0.6411	0.002
Mof_C 	C 	0.538	0.516	0.596	-0.089
Mof_H 	H 	0.4653	0.5752	0.5705	0.131
Mof_H 	H 	0.5264	0.5401	0.6572	0.001
Mof_H 	H 	0.521	0.4423	0.594	0.076
Mof_C 	C 	0.093	0.528	0.552	-0.166
Mof_H 	H 	0.1779	0.4547	0.5453	0.115
Mof_H 	H 	0.0672	0.5612	0.6122	0.011
Mof_H 	H 	0.1205	0.5828	0.512	0.113
Mof_C 	C 	0.797	0.48	0.4729	-0.162
Mof_C 	C 	0.756	0.509	0.5618	-0.009
Mof_H 	H 	0.8277	0.5162	0.5915	-0.08
Mof_C 	C 	0.609	0.529	0.6074	0.164
Mof_H 	H 	0.581	0.5487	0.6682	-0.065
Mof_C 	C 	0.504	0.519	0.564	-0.106
Mof_H 	H 	0.4039	0.532	0.5951	0.001
Mof_C 	C 	0.545	0.49	0.475	0.058
Mof_C 	C 	0.692	0.47	0.4294	0.106
Mof_H 	H 	0.7202	0.4503	0.3686	-0.005
Mof_C 	C 	0.963	0.467	0.425	-0.09
Mof_H 	H 	0.9774	0.5414	0.4309	0.092
Mof_H 	H 	0.9794	0.4457	0.363	0.023
Mof_H 	H 	0.0348	0.4071	0.4508	0.091
Mof_C 	C 	0.398	0.484	0.447	-0.398
Mof_H 	H 	0.3698	0.4218	0.4771	0.154
Mof_H 	H 	0.4207	0.4675	0.3842	0.087
Mof_H 	H 	0.3154	0.558	0.4638	0.203
Mof_C 	C 	0.297	0.501	0.456	-0.121
Mof_C 	C 	0.26	0.538	0.5435	-0.066
Mof_H 	H 	0.3314	0.5536	0.569	-0.062
Mof_C 	C 	0.117	0.553	0.5937	0.139
Mof_H 	H 	0.0918	0.5785	0.6535	-0.042
Mof_C 	C 	0.012	0.531	0.5564	-0.086
Mof_H 	H 	0.9152	0.5409	0.5906	0.044
Mof_C 	C 	0.05	0.494	0.4689	-0.047
Mof_C 	C 	0.192	0.479	0.4187	0.094
Mof_H 	H 	0.2178	0.4536	0.3589	0.002
Mof_C 	C 	0.462	0.484	0.404	-0.089
Mof_H 	H 	0.5347	0.4248	0.4295	0.131
Mof_H 	H 	0.4736	0.4599	0.3428	0.001
Mof_H 	H 	0.479	0.5577	0.406	0.076
Mof_C 	C 	0.907	0.472	0.448	-0.166
Mof_H 	H 	0.8221	0.5453	0.4547	0.115
Mof_H 	H 	0.9328	0.4388	0.3878	0.011
Mof_H 	H 	0.8795	0.4172	0.488	0.113
Mof_C 	C 	0.203	0.52	0.5271	-0.162
Mof_C 	C 	0.244	0.491	0.4382	-0.009
Mof_H 	H 	0.1723	0.4838	0.4085	-0.08
Mof_C 	C 	0.391	0.471	0.3926	0.164
Mof_H 	H 	0.419	0.4513	0.3318	-0.065
Mof_C 	C 	0.496	0.481	0.436	-0.106
Mof_H 	H 	0.5961	0.468	0.4049	0.001
Mof_C 	C 	0.455	0.51	0.525	0.058
Mof_C 	C 	0.308	0.53	0.5706	0.106
Mof_H 	H 	0.2798	0.5497	0.6314	-0.005
Mof_C 	C 	0.037	0.533	0.575	-0.09
Mof_H 	H 	0.0226	0.4586	0.5691	0.092
Mof_H 	H 	0.0206	0.5543	0.637	0.023
Mof_H 	H 	0.9652	0.5929	0.5492	0.091
Mof_C 	C 	0.602	0.516	0.553	-0.398
Mof_H 	H 	0.6302	0.5782	0.5229	0.154
Mof_H 	H 	0.5793	0.5325	0.6158	0.087
Mof_H 	H 	0.6846	0.442	0.5362	0.203
_end
