# CIF file generated by openbabel 3.1.0, see https://openbabel.org
data_I
_chemical_name_common 'image0'
_cell_length_a 33.02
_cell_length_b 13.317
_cell_length_c 14.22
_cell_angle_alpha 90
_cell_angle_beta 101.739
_cell_angle_gamma 90
_space_group_name_H-M_alt 'P 1'
_space_group_name_Hall 'P 1'
loop_
    _symmetry_equiv_pos_as_xyz
    x,y,z
loop_
    _atom_site_label
    _atom_site_type_symbol
    _atom_site_fract_x
    _atom_site_fract_y
    _atom_site_fract_z
    _atom_site_occupancy
    C1       C        0.11680    0.75050    0.50390    1.000
    C2       C        0.07810    0.77390    0.54050    1.000
    C3       C        0.06970    0.87120    0.56540    1.000
    H1       H        0.08820    0.92280    0.56080    1.000
    C4       C        0.03360    0.89100    0.59740    1.000
    H2       H        0.02930    0.95590    0.61750    1.000
    C5       C        0.00430    0.82190    0.60100    1.000
    C6       C        0.01280    0.72970    0.57860    1.000
    H3       H        0.99320    0.68050    0.58260    1.000
    C7       C        0.04950    0.69880    0.54880    1.000
    H4       H        0.05420    0.63190    0.53550    1.000
    C8       C        0.96490    0.84900    0.62910    1.000
    C9       C        0.94920    0.94400    0.62020    1.000
    H5       H        0.96490    0.99550    0.60160    1.000
    C10      C        0.91060    0.96550    0.63820    1.000
    H6       H        0.90040    0.03070    0.62910    1.000
    C11      C        0.88690    0.89320    0.66930    1.000
    C12      C        0.90330    0.79760    0.68140    1.000
    H7       H        0.88820    0.74770    0.70460    1.000
    C13      C        0.94080    0.77340    0.66060    1.000
    H8       H        0.95040    0.70760    0.66720    1.000
    C14      C        0.84440    0.91360    0.68270    1.000
    C15      C        0.82000    0.98530    0.62770    1.000
    H9       H        0.83110    0.02530    0.58570    1.000
    C16      C        0.77910    0.99800    0.63460    1.000
    C17      C        0.76330    0.94200    0.70140    1.000
    H10      H        0.73570    0.94910    0.70550    1.000
    C18      C        0.78790    0.87750    0.76040    1.000
    C19      C        0.82780    0.85930    0.75000    1.000
    H11      H        0.84370    0.81090    0.78780    1.000
    C20      C        0.75300    0.07090    0.57150    1.000
    C21      C        0.77060    0.81570    0.83560    1.000
    Eu1      Eu       0.19208    0.70332    0.45242    1.000
    O1       O        0.13760    0.82110    0.48120    1.000
    O2       O        0.12740    0.65950    0.50360    1.000
    O3       O        0.79440    0.75440    0.88440    1.000
    O4       O        0.73498    0.83900    0.84360    1.000
    O5       O        0.71548    0.05380    0.54960    1.000
    O6       O        0.76868    0.14950    0.54220    1.000
    C22      C        0.61680    0.25050    0.50390    1.000
    C23      C        0.57810    0.27390    0.54050    1.000
    C24      C        0.56970    0.37120    0.56540    1.000
    H12      H        0.58820    0.42280    0.56080    1.000
    C25      C        0.53360    0.39100    0.59740    1.000
    H13      H        0.52930    0.45590    0.61750    1.000
    C26      C        0.50430    0.32190    0.60100    1.000
    C27      C        0.51280    0.22970    0.57860    1.000
    H14      H        0.49320    0.18050    0.58260    1.000
    C28      C        0.54950    0.19880    0.54880    1.000
    H15      H        0.55420    0.13190    0.53550    1.000
    C29      C        0.46490    0.34900    0.62910    1.000
    C30      C        0.44920    0.44400    0.62020    1.000
    H16      H        0.46490    0.49550    0.60160    1.000
    C31      C        0.41060    0.46550    0.63820    1.000
    H17      H        0.40040    0.53070    0.62910    1.000
    C32      C        0.38690    0.39320    0.66930    1.000
    C33      C        0.40330    0.29760    0.68140    1.000
    H18      H        0.38820    0.24770    0.70460    1.000
    C34      C        0.44080    0.27340    0.66060    1.000
    H19      H        0.45040    0.20760    0.66720    1.000
    C35      C        0.34440    0.41360    0.68270    1.000
    C36      C        0.32000    0.48530    0.62770    1.000
    H20      H        0.33110    0.52530    0.58570    1.000
    C37      C        0.27910    0.49800    0.63460    1.000
    C38      C        0.26330    0.44200    0.70140    1.000
    H21      H        0.23570    0.44910    0.70550    1.000
    C39      C        0.28790    0.37750    0.76040    1.000
    C40      C        0.32780    0.35930    0.75000    1.000
    H22      H        0.34370    0.31090    0.78780    1.000
    C41      C        0.25300    0.57090    0.57150    1.000
    C42      C        0.27060    0.31570    0.83560    1.000
    Eu2      Eu       0.69208    0.20332    0.45242    1.000
    O7       O        0.63760    0.32110    0.48120    1.000
    O8       O        0.62740    0.15950    0.50360    1.000
    O9       O        0.29440    0.25440    0.88440    1.000
    O10      O        0.23498    0.33900    0.84360    1.000
    O11      O        0.21548    0.55380    0.54960    1.000
    O12      O        0.26868    0.64950    0.54220    1.000
    C43      C        0.88320    0.75050    0.99610    1.000
    C44      C        0.92190    0.77390    0.95950    1.000
    C45      C        0.93030    0.87120    0.93460    1.000
    H23      H        0.91180    0.92280    0.93920    1.000
    C46      C        0.96640    0.89100    0.90260    1.000
    H24      H        0.97070    0.95590    0.88250    1.000
    C47      C        0.99570    0.82190    0.89900    1.000
    C48      C        0.98720    0.72970    0.92140    1.000
    H25      H        0.00680    0.68050    0.91740    1.000
    C49      C        0.95050    0.69880    0.95120    1.000
    H26      H        0.94580    0.63190    0.96450    1.000
    C50      C        0.03510    0.84900    0.87090    1.000
    C51      C        0.05080    0.94400    0.87980    1.000
    H27      H        0.03510    0.99550    0.89840    1.000
    C52      C        0.08940    0.96550    0.86180    1.000
    H28      H        0.09960    0.03070    0.87090    1.000
    C53      C        0.11310    0.89320    0.83070    1.000
    C54      C        0.09670    0.79760    0.81860    1.000
    H29      H        0.11180    0.74770    0.79540    1.000
    C55      C        0.05920    0.77340    0.83940    1.000
    H30      H        0.04960    0.70760    0.83280    1.000
    C56      C        0.15560    0.91360    0.81730    1.000
    C57      C        0.18000    0.98530    0.87230    1.000
    H31      H        0.16890    0.02530    0.91430    1.000
    C58      C        0.22090    0.99800    0.86540    1.000
    C59      C        0.23670    0.94200    0.79860    1.000
    H32      H        0.26430    0.94910    0.79450    1.000
    C60      C        0.21210    0.87750    0.73960    1.000
    C61      C        0.17220    0.85930    0.75000    1.000
    H33      H        0.15630    0.81090    0.71220    1.000
    C62      C        0.24700    0.07090    0.92850    1.000
    C63      C        0.22940    0.81570    0.66440    1.000
    Eu3      Eu       0.80792    0.70332    0.04758    1.000
    O13      O        0.86240    0.82110    0.01880    1.000
    O14      O        0.87260    0.65950    0.99640    1.000
    O15      O        0.20560    0.75440    0.61560    1.000
    O16      O        0.26502    0.83900    0.65640    1.000
    O17      O        0.28452    0.05380    0.95040    1.000
    O18      O        0.23132    0.14950    0.95780    1.000
    C64      C        0.38320    0.25050    0.99610    1.000
    C65      C        0.42190    0.27390    0.95950    1.000
    C66      C        0.43030    0.37120    0.93460    1.000
    H34      H        0.41180    0.42280    0.93920    1.000
    C67      C        0.46640    0.39100    0.90260    1.000
    H35      H        0.47070    0.45590    0.88250    1.000
    C68      C        0.49570    0.32190    0.89900    1.000
    C69      C        0.48720    0.22970    0.92140    1.000
    H36      H        0.50680    0.18050    0.91740    1.000
    C70      C        0.45050    0.19880    0.95120    1.000
    H37      H        0.44580    0.13190    0.96450    1.000
    C71      C        0.53510    0.34900    0.87090    1.000
    C72      C        0.55080    0.44400    0.87980    1.000
    H38      H        0.53510    0.49550    0.89840    1.000
    C73      C        0.58940    0.46550    0.86180    1.000
    H39      H        0.59960    0.53070    0.87090    1.000
    C74      C        0.61310    0.39320    0.83070    1.000
    C75      C        0.59670    0.29760    0.81860    1.000
    H40      H        0.61180    0.24770    0.79540    1.000
    C76      C        0.55920    0.27340    0.83940    1.000
    H41      H        0.54960    0.20760    0.83280    1.000
    C77      C        0.65560    0.41360    0.81730    1.000
    C78      C        0.68000    0.48530    0.87230    1.000
    H42      H        0.66890    0.52530    0.91430    1.000
    C79      C        0.72090    0.49800    0.86540    1.000
    C80      C        0.73670    0.44200    0.79860    1.000
    H43      H        0.76430    0.44910    0.79450    1.000
    C81      C        0.71210    0.37750    0.73960    1.000
    C82      C        0.67220    0.35930    0.75000    1.000
    H44      H        0.65630    0.31090    0.71220    1.000
    C83      C        0.74700    0.57090    0.92850    1.000
    C84      C        0.72940    0.31570    0.66440    1.000
    Eu4      Eu       0.30792    0.20332    0.04758    1.000
    O19      O        0.36240    0.32110    0.01880    1.000
    O20      O        0.37260    0.15950    0.99640    1.000
    O21      O        0.70560    0.25440    0.61560    1.000
    O22      O        0.76502    0.33900    0.65640    1.000
    O23      O        0.78452    0.55380    0.95040    1.000
    O24      O        0.73132    0.64950    0.95780    1.000
    C85      C        0.88320    0.24950    0.49610    1.000
    C86      C        0.92190    0.22610    0.45950    1.000
    C87      C        0.93030    0.12880    0.43460    1.000
    H45      H        0.91180    0.07720    0.43920    1.000
    C88      C        0.96640    0.10900    0.40260    1.000
    H46      H        0.97070    0.04410    0.38250    1.000
    C89      C        0.99570    0.17810    0.39900    1.000
    C90      C        0.98720    0.27030    0.42140    1.000
    H47      H        0.00680    0.31950    0.41740    1.000
    C91      C        0.95050    0.30120    0.45120    1.000
    H48      H        0.94580    0.36810    0.46450    1.000
    C92      C        0.03510    0.15100    0.37090    1.000
    C93      C        0.05080    0.05600    0.37980    1.000
    H49      H        0.03510    0.00450    0.39840    1.000
    C94      C        0.08940    0.03450    0.36180    1.000
    H50      H        0.09960    0.96930    0.37090    1.000
    C95      C        0.11310    0.10680    0.33070    1.000
    C96      C        0.09670    0.20240    0.31860    1.000
    H51      H        0.11180    0.25230    0.29540    1.000
    C97      C        0.05920    0.22660    0.33940    1.000
    H52      H        0.04960    0.29240    0.33280    1.000
    C98      C        0.15560    0.08640    0.31730    1.000
    C99      C        0.18000    0.01470    0.37230    1.000
    H53      H        0.16890    0.97470    0.41430    1.000
    C100     C        0.22090    0.00200    0.36540    1.000
    C101     C        0.23670    0.05800    0.29860    1.000
    H54      H        0.26430    0.05090    0.29450    1.000
    C102     C        0.21210    0.12250    0.23960    1.000
    C103     C        0.17220    0.14070    0.25000    1.000
    H55      H        0.15630    0.18910    0.21220    1.000
    C104     C        0.24700    0.92910    0.42850    1.000
    C105     C        0.22940    0.18430    0.16440    1.000
    Eu5      Eu       0.80792    0.29668    0.54758    1.000
    O25      O        0.86240    0.17890    0.51880    1.000
    O26      O        0.87260    0.34050    0.49640    1.000
    O27      O        0.20560    0.24560    0.11560    1.000
    O28      O        0.26502    0.16100    0.15640    1.000
    O29      O        0.28452    0.94620    0.45040    1.000
    O30      O        0.23132    0.85050    0.45780    1.000
    C106     C        0.38320    0.74950    0.49610    1.000
    C107     C        0.42190    0.72610    0.45950    1.000
    C108     C        0.43030    0.62880    0.43460    1.000
    H56      H        0.41180    0.57720    0.43920    1.000
    C109     C        0.46640    0.60900    0.40260    1.000
    H57      H        0.47070    0.54410    0.38250    1.000
    C110     C        0.49570    0.67810    0.39900    1.000
    C111     C        0.48720    0.77030    0.42140    1.000
    H58      H        0.50680    0.81950    0.41740    1.000
    C112     C        0.45050    0.80120    0.45120    1.000
    H59      H        0.44580    0.86810    0.46450    1.000
    C113     C        0.53510    0.65100    0.37090    1.000
    C114     C        0.55080    0.55600    0.37980    1.000
    H60      H        0.53510    0.50450    0.39840    1.000
    C115     C        0.58940    0.53450    0.36180    1.000
    H61      H        0.59960    0.46930    0.37090    1.000
    C116     C        0.61310    0.60680    0.33070    1.000
    C117     C        0.59670    0.70240    0.31860    1.000
    H62      H        0.61180    0.75230    0.29540    1.000
    C118     C        0.55920    0.72660    0.33940    1.000
    H63      H        0.54960    0.79240    0.33280    1.000
    C119     C        0.65560    0.58640    0.31730    1.000
    C120     C        0.68000    0.51470    0.37230    1.000
    H64      H        0.66890    0.47470    0.41430    1.000
    C121     C        0.72090    0.50200    0.36540    1.000
    C122     C        0.73670    0.55800    0.29860    1.000
    H65      H        0.76430    0.55090    0.29450    1.000
    C123     C        0.71210    0.62250    0.23960    1.000
    C124     C        0.67220    0.64070    0.25000    1.000
    H66      H        0.65630    0.68910    0.21220    1.000
    C125     C        0.74700    0.42910    0.42850    1.000
    C126     C        0.72940    0.68430    0.16440    1.000
    Eu6      Eu       0.30792    0.79668    0.54758    1.000
    O31      O        0.36240    0.67890    0.51880    1.000
    O32      O        0.37260    0.84050    0.49640    1.000
    O33      O        0.70560    0.74560    0.11560    1.000
    O34      O        0.76502    0.66100    0.15640    1.000
    O35      O        0.78452    0.44620    0.45040    1.000
    O36      O        0.73132    0.35050    0.45780    1.000
    C127     C        0.11680    0.24950    0.00390    1.000
    C128     C        0.07810    0.22610    0.04050    1.000
    C129     C        0.06970    0.12880    0.06540    1.000
    H67      H        0.08820    0.07720    0.06080    1.000
    C130     C        0.03360    0.10900    0.09740    1.000
    H68      H        0.02930    0.04410    0.11750    1.000
    C131     C        0.00430    0.17810    0.10100    1.000
    C132     C        0.01280    0.27030    0.07860    1.000
    H69      H        0.99320    0.31950    0.08260    1.000
    C133     C        0.04950    0.30120    0.04880    1.000
    H70      H        0.05420    0.36810    0.03550    1.000
    C134     C        0.96490    0.15100    0.12910    1.000
    C135     C        0.94920    0.05600    0.12020    1.000
    H71      H        0.96490    0.00450    0.10160    1.000
    C136     C        0.91060    0.03450    0.13820    1.000
    H72      H        0.90040    0.96930    0.12910    1.000
    C137     C        0.88690    0.10680    0.16930    1.000
    C138     C        0.90330    0.20240    0.18140    1.000
    H73      H        0.88820    0.25230    0.20460    1.000
    C139     C        0.94080    0.22660    0.16060    1.000
    H74      H        0.95040    0.29240    0.16720    1.000
    C140     C        0.84440    0.08640    0.18270    1.000
    C141     C        0.82000    0.01470    0.12770    1.000
    H75      H        0.83110    0.97470    0.08570    1.000
    C142     C        0.77910    0.00200    0.13460    1.000
    C143     C        0.76330    0.05800    0.20140    1.000
    H76      H        0.73570    0.05090    0.20550    1.000
    C144     C        0.78790    0.12250    0.26040    1.000
    C145     C        0.82780    0.14070    0.25000    1.000
    H77      H        0.84370    0.18910    0.28780    1.000
    C146     C        0.75300    0.92910    0.07150    1.000
    C147     C        0.77060    0.18430    0.33560    1.000
    Eu7      Eu       0.19208    0.29668    0.95242    1.000
    O37      O        0.13760    0.17890    0.98120    1.000
    O38      O        0.12740    0.34050    0.00360    1.000
    O39      O        0.79440    0.24560    0.38440    1.000
    O40      O        0.73498    0.16100    0.34360    1.000
    O41      O        0.71548    0.94620    0.04960    1.000
    O42      O        0.76868    0.85050    0.04220    1.000
    C148     C        0.61680    0.74950    0.00390    1.000
    C149     C        0.57810    0.72610    0.04050    1.000
    C150     C        0.56970    0.62880    0.06540    1.000
    H78      H        0.58820    0.57720    0.06080    1.000
    C151     C        0.53360    0.60900    0.09740    1.000
    H79      H        0.52930    0.54410    0.11750    1.000
    C152     C        0.50430    0.67810    0.10100    1.000
    C153     C        0.51280    0.77030    0.07860    1.000
    H80      H        0.49320    0.81950    0.08260    1.000
    C154     C        0.54950    0.80120    0.04880    1.000
    H81      H        0.55420    0.86810    0.03550    1.000
    C155     C        0.46490    0.65100    0.12910    1.000
    C156     C        0.44920    0.55600    0.12020    1.000
    H82      H        0.46490    0.50450    0.10160    1.000
    C157     C        0.41060    0.53450    0.13820    1.000
    H83      H        0.40040    0.46930    0.12910    1.000
    C158     C        0.38690    0.60680    0.16930    1.000
    C159     C        0.40330    0.70240    0.18140    1.000
    H84      H        0.38820    0.75230    0.20460    1.000
    C160     C        0.44080    0.72660    0.16060    1.000
    H85      H        0.45040    0.79240    0.16720    1.000
    C161     C        0.34440    0.58640    0.18270    1.000
    C162     C        0.32000    0.51470    0.12770    1.000
    H86      H        0.33110    0.47470    0.08570    1.000
    C163     C        0.27910    0.50200    0.13460    1.000
    C164     C        0.26330    0.55800    0.20140    1.000
    H87      H        0.23570    0.55090    0.20550    1.000
    C165     C        0.28790    0.62250    0.26040    1.000
    C166     C        0.32780    0.64070    0.25000    1.000
    H88      H        0.34370    0.68910    0.28780    1.000
    C167     C        0.25300    0.42910    0.07150    1.000
    C168     C        0.27060    0.68430    0.33560    1.000
    Eu8      Eu       0.69208    0.79668    0.95242    1.000
    O43      O        0.63760    0.67890    0.98120    1.000
    O44      O        0.62740    0.84050    0.00360    1.000
    O45      O        0.29440    0.74560    0.38440    1.000
    O46      O        0.23498    0.66100    0.34360    1.000
    O47      O        0.21548    0.44620    0.04960    1.000
    O48      O        0.26868    0.35050    0.04220    1.000
