data_functionalizedCrystal
_audit_creation_method	'EQeq! by Chris Wilmer'
_symmetry_space_group_name_H-M	'P1'
_symmetry_Int_Tables_number	1
_symmetry_cell_setting	triclinic
loop_
_symmetry_equiv_pos_as_xyz
  x,y,z
_cell_length_a	20.6721
_cell_length_b	14.7515
_cell_length_c	13.1281
_cell_angle_alpha	90.002
_cell_angle_beta	67.1358
_cell_angle_gamma	90.0004
loop_
_atom_site_label
_atom_site_type_symbol
_atom_site_fract_x
_atom_site_fract_y
_atom_site_fract_z
_atom_site_charge
Mof_H 	H 	0.16578	0.39801	0.19427	0.018
Mof_H 	H 	0.29473	0.42257	0.14225	0.043
Mof_C 	C 	0.17797	0.36153	0.02883	-0.326
Mof_C 	C 	0.20307	0.38818	0.10949	0.089
Mof_C 	C 	0.1022	0.33873	0.06193	0.851
Mof_C 	C 	0.27466	0.40084	0.08082	-0.058
Mof_O 	O 	0.08127	0.31732	0.98569	-1.185
Mof_O 	O 	0.06378	0.33806	0.16508	-1.297
Mof_H 	H 	0.66592	0.14926	0.19418	0.021
Mof_H 	H 	0.79502	0.17258	0.14215	0.011
Mof_C 	C 	0.678	0.11294	0.02875	-0.247
Mof_C 	C 	0.70318	0.13919	0.10944	-0.022
Mof_C 	C 	0.60216	0.09081	0.06186	0.576
Mof_C 	C 	0.77483	0.15112	0.08079	-0.025
Mof_O 	O 	0.58117	0.06965	0.98563	-0.928
Mof_O 	O 	0.56374	0.09038	0.16501	-0.899
Mof_H 	H 	0.83426	0.3983	0.05574	0.02
Mof_H 	H 	0.70532	0.42282	0.10773	0.016
Mof_C 	C 	0.82204	0.36159	0.22113	-0.244
Mof_C 	C 	0.79696	0.38835	0.14049	0.037
Mof_C 	C 	0.8978	0.33877	0.18805	0.919
Mof_C 	C 	0.72536	0.401	0.16914	0.039
Mof_O 	O 	0.91873	0.31736	0.2643	-1.302
Mof_O 	O 	0.93623	0.33808	0.08491	-1.327
Mof_H 	H 	0.33411	0.14936	0.05579	0.013
Mof_H 	H 	0.20501	0.17267	0.10778	-0.015
Mof_C 	C 	0.322	0.11295	0.2212	-0.198
Mof_C 	C 	0.29684	0.13925	0.14051	-0.056
Mof_C 	C 	0.39784	0.09085	0.18812	0.619
Mof_C 	C 	0.22519	0.15118	0.16914	0.033
Mof_O 	O 	0.41882	0.06967	0.26436	-0.922
Mof_O 	O 	0.43627	0.09041	0.08498	-0.98
Mof_H 	H 	0.8341	0.1007	0.3058	-0.046
Mof_H 	H 	0.705	0.07735	0.35782	-0.036
Mof_C 	C 	0.822	0.13701	0.47124	-0.328
Mof_C 	C 	0.79682	0.11078	0.39054	0.031
Mof_C 	C 	0.89784	0.15912	0.43814	0.941
Mof_C 	C 	0.72518	0.09882	0.41918	-0.067
Mof_O 	O 	0.91885	0.18021	0.51437	-1.437
Mof_O 	O 	0.93625	0.15957	0.33499	-1.407
Mof_H 	H 	0.33412	0.35065	0.30586	0.031
Mof_H 	H 	0.20518	0.3261	0.35785	0.029
Mof_C 	C 	0.32192	0.38715	0.47129	-0.248
Mof_C 	C 	0.29682	0.36053	0.39061	0.044
Mof_C 	C 	0.39772	0.4097	0.43815	0.941
Mof_C 	C 	0.22523	0.34788	0.41927	0.036
Mof_O 	O 	0.41876	0.43088	0.51434	-1.318
Mof_O 	O 	0.4361	0.41034	0.33498	-1.35
Mof_H 	H 	0.16589	0.10066	0.44407	-0.042
Mof_H 	H 	0.295	0.07735	0.39209	-0.038
Mof_C 	C 	0.178	0.13704	0.27866	-0.323
Mof_C 	C 	0.20317	0.11077	0.35935	0.029
Mof_C 	C 	0.10216	0.15913	0.3118	0.939
Mof_C 	C 	0.27481	0.09884	0.33073	-0.063
Mof_O 	O 	0.08115	0.18026	0.23558	-1.343
Mof_O 	O 	0.06375	0.15957	0.41495	-1.451
Mof_H 	H 	0.66584	0.35039	0.44403	0.033
Mof_H 	H 	0.79478	0.3259	0.39207	0.027
Mof_C 	C 	0.67806	0.38709	0.27865	-0.247
Mof_C 	C 	0.70315	0.36038	0.35931	0.044
Mof_C 	C 	0.60225	0.40966	0.3118	0.941
Mof_C 	C 	0.77474	0.34775	0.33067	0.035
Mof_O 	O 	0.58123	0.43091	0.23563	-1.32
Mof_O 	O 	0.56386	0.41023	0.41497	-1.35
Mof_F 	F 	0.99999	0.30364	0.37502	-1.999
Mof_F 	F 	0.49999	0.05619	0.37502	-1.355
Mof_F 	F 	0.99999	0.19375	0.12501	-1.96
Mof_F 	F 	0.49998	0.44427	0.12501	-1.92
Mof_Al	Al	0.50001	0.00118	0.25003	3.073
Mof_Al	Al	0.99996	0.24878	0.24997	5.557
Mof_Al	Al	0.49997	0.00118	0.99998	3.42
Mof_Al	Al	2e-05	0.24876	4e-05	5.39
Mof_H 	H 	0.16589	0.90001	0.19421	0.076
Mof_H 	H 	0.29491	0.92397	0.1422	0.146
Mof_C 	C 	0.17802	0.86365	0.02877	-0.304
Mof_C 	C 	0.20317	0.89006	0.10945	0.17
Mof_C 	C 	0.10221	0.84124	0.06188	0.909
Mof_C 	C 	0.27479	0.90238	0.0808	-0.069
Mof_O 	O 	0.08121	0.82005	0.98566	-1.147
Mof_O 	O 	0.0638	0.84067	0.16504	-1.328
Mof_H 	H 	0.66579	0.64899	0.19428	0.023
Mof_H 	H 	0.79466	0.674	0.14225	0.025
Mof_C 	C 	0.678	0.61244	0.02883	-0.282
Mof_C 	C 	0.70308	0.63922	0.10949	0.059
Mof_C 	C 	0.60224	0.58947	0.06195	0.889
Mof_C 	C 	0.77466	0.65215	0.08081	-0.003
Mof_O 	O 	0.58127	0.5681	0.98575	-1.234
Mof_O 	O 	0.56385	0.58868	0.16511	-1.337
Mof_H 	H 	0.83411	0.90006	0.05576	0.072
Mof_H 	H 	0.7051	0.92401	0.10773	0.122
Mof_C 	C 	0.82196	0.86362	0.22119	-0.229
Mof_C 	C 	0.79682	0.89006	0.1405	0.124
Mof_C 	C 	0.89778	0.84122	0.1881	0.972
Mof_C 	C 	0.72521	0.90239	0.16914	0.013
Mof_O 	O 	0.91877	0.82001	0.26432	-1.343
Mof_O 	O 	0.9362	0.84068	0.08495	-1.269
Mof_H 	H 	0.33424	0.64895	0.05566	0.013
Mof_H 	H 	0.20537	0.67394	0.10764	0.005
Mof_C 	C 	0.32202	0.61247	0.22112	-0.244
Mof_C 	C 	0.29694	0.63921	0.14045	0.033
Mof_C 	C 	0.39777	0.58951	0.18803	0.926
Mof_C 	C 	0.22537	0.65211	0.1691	0.038
Mof_O 	O 	0.41874	0.56815	0.26424	-1.313
Mof_O 	O 	0.43617	0.5887	0.08487	-1.321
Mof_H 	H 	0.83423	0.6019	0.30574	0.023
Mof_H 	H 	0.70536	0.57687	0.35774	0.022
Mof_C 	C 	0.822	0.63842	0.47119	-0.255
Mof_C 	C 	0.79693	0.61166	0.39052	0.045
Mof_C 	C 	0.89776	0.6614	0.43807	0.952
Mof_C 	C 	0.72536	0.59873	0.41919	0.033
Mof_O 	O 	0.91873	0.68277	0.51428	-1.304
Mof_O 	O 	0.93615	0.66217	0.3349	-1.421
Mof_H 	H 	0.33418	0.85214	0.30576	0.077
Mof_H 	H 	0.20516	0.82813	0.35777	0.031
Mof_C 	C 	0.32204	0.88855	0.4712	-0.064
Mof_C 	C 	0.2969	0.86207	0.39053	0.012
Mof_C 	C 	0.39782	0.9112	0.43808	0.637
Mof_C 	C 	0.22528	0.84972	0.41918	0.112
Mof_O 	O 	0.41878	0.93251	0.51432	-0.626
Mof_O 	O 	0.43623	0.91188	0.33493	-0.667
Mof_H 	H 	0.16581	0.60209	0.44415	0.028
Mof_H 	H 	0.29469	0.57709	0.39216	0.023
Mof_C 	C 	0.17804	0.63856	0.27869	-0.25
Mof_C 	C 	0.20312	0.61182	0.35936	0.041
Mof_C 	C 	0.10227	0.66147	0.31182	0.947
Mof_C 	C 	0.27469	0.59892	0.3307	0.034
Mof_O 	O 	0.0813	0.68285	0.23562	-1.368
Mof_O 	O 	0.06388	0.6622	0.41499	-1.301
Mof_H 	H 	0.6658	0.8521	0.44413	0.079
Mof_H 	H 	0.79482	0.82812	0.39214	0.031
Mof_C 	C 	0.67795	0.88854	0.2787	-0.064
Mof_C 	C 	0.70309	0.86205	0.35937	0.011
Mof_C 	C 	0.60217	0.9112	0.31185	0.637
Mof_C 	C 	0.77471	0.8497	0.33073	0.115
Mof_O 	O 	0.58121	0.93257	0.23563	-0.625
Mof_O 	O 	0.56376	0.91183	0.415	-0.67
Mof_F 	F 	0.99999	0.80637	0.37501	-1.945
Mof_F 	F 	0.49999	0.55437	0.37502	-1.949
Mof_F 	F 	7.54056e-18	0.69656	0.12499	-1.941
Mof_F 	F 	0.49997	0.9463	0.12501	-1.083
Mof_Al	Al	0.49997	0.49945	0.24997	5.646
Mof_Al	Al	1e-05	0.75144	0.24999	5.967
Mof_Al	Al	0.50002	0.49944	4e-05	5.406
Mof_Al	Al	0.99999	0.75146	0.99999	5.27
Mof_H 	H 	0.16574	0.39814	0.69427	0.036
Mof_H 	H 	0.29468	0.4227	0.64227	0.023
Mof_C 	C 	0.17794	0.36158	0.52884	-0.239
Mof_C 	C 	0.20303	0.38828	0.6095	0.037
Mof_C 	C 	0.10218	0.33875	0.56195	0.925
Mof_C 	C 	0.27463	0.40094	0.58084	0.043
Mof_O 	O 	0.08125	0.31733	0.48571	-1.354
Mof_O 	O 	0.06377	0.33804	0.6651	-1.257
Mof_H 	H 	0.66589	0.14927	0.69415	0.032
Mof_H 	H 	0.795	0.1726	0.64214	-0.003
Mof_C 	C 	0.678	0.11291	0.52872	-0.186
Mof_C 	C 	0.70317	0.13917	0.60942	-0.059
Mof_C 	C 	0.60217	0.09075	0.56184	0.597
Mof_C 	C 	0.77481	0.15113	0.58077	0.042
Mof_O 	O 	0.58116	0.0696	0.48562	-0.915
Mof_O 	O 	0.56376	0.0903	0.66499	-0.902
Mof_H 	H 	0.83421	0.39782	0.5558	0.027
Mof_H 	H 	0.70526	0.4224	0.60781	0.025
Mof_C 	C 	0.82202	0.3615	0.72128	-0.25
Mof_C 	C 	0.79692	0.38807	0.64059	0.046
Mof_C 	C 	0.89778	0.33868	0.68816	0.934
Mof_C 	C 	0.72533	0.40074	0.66925	0.034
Mof_O 	O 	0.91874	0.3173	0.76438	-1.268
Mof_O 	O 	0.93619	0.33799	0.585	-1.422
Mof_H 	H 	0.33408	0.14919	0.55594	0.029
Mof_H 	H 	0.20498	0.17253	0.60796	0.001
Mof_C 	C 	0.322	0.1129	0.72137	-0.191
Mof_C 	C 	0.29681	0.13915	0.64068	-0.051
Mof_C 	C 	0.39783	0.09076	0.68822	0.599
Mof_C 	C 	0.22517	0.15109	0.66933	0.026
Mof_O 	O 	0.41884	0.0696	0.76443	-0.915
Mof_O 	O 	0.43622	0.09028	0.58507	-0.899
Mof_H 	H 	0.8341	0.10071	0.80583	-0.036
Mof_H 	H 	0.70499	0.0774	0.85784	-0.049
Mof_C 	C 	0.82201	0.13702	0.97126	-0.255
Mof_C 	C 	0.79683	0.11079	0.89056	-0.011
Mof_C 	C 	0.89784	0.15911	0.93816	0.893
Mof_C 	C 	0.72518	0.09886	0.91921	0.004
Mof_O 	O 	0.91883	0.18027	0.01441	-1.339
Mof_O 	O 	0.93628	0.15951	0.83502	-1.344
Mof_H 	H 	0.33413	0.3506	0.80583	0.047
Mof_H 	H 	0.2052	0.32606	0.85784	0.01
Mof_C 	C 	0.32195	0.38708	0.97126	-0.156
Mof_C 	C 	0.29684	0.36047	0.89059	-0.009
Mof_C 	C 	0.39775	0.40967	0.93814	0.963
Mof_C 	C 	0.22525	0.34783	0.91926	0.136
Mof_O 	O 	0.41876	0.43092	0.01432	-1.32
Mof_O 	O 	0.43614	0.41026	0.83497	-1.35
Mof_H 	H 	0.1659	0.10076	0.94431	-0.017
Mof_H 	H 	0.295	0.07743	0.8923	-0.025
Mof_C 	C 	0.17799	0.13702	0.77887	-0.295
Mof_C 	C 	0.20317	0.11081	0.85957	0.021
Mof_C 	C 	0.10215	0.1591	0.81193	0.872
Mof_C 	C 	0.27482	0.09888	0.83093	-0.055
Mof_O 	O 	0.08117	0.18024	0.73568	-1.257
Mof_O 	O 	0.06371	0.15952	0.91507	-1.297
Mof_H 	H 	0.66586	0.35074	0.94431	0.045
Mof_H 	H 	0.7948	0.32619	0.89233	0.032
Mof_C 	C 	0.67805	0.38706	0.77883	-0.236
Mof_C 	C 	0.70315	0.36055	0.85954	0.04
Mof_C 	C 	0.60225	0.40965	0.81193	0.922
Mof_C 	C 	0.77475	0.34789	0.83088	0.041
Mof_O 	O 	0.58124	0.43084	0.73572	-1.312
Mof_O 	O 	0.56386	0.41029	0.91509	-1.285
Mof_F 	F 	1e-05	0.30363	0.87501	-1.795
Mof_F 	F 	0.50001	0.05619	0.87499	-1.395
Mof_F 	F 	1e-05	0.19373	0.62501	-1.939
Mof_F 	F 	0.50001	0.4442	0.62499	-1.949
Mof_Al	Al	0.50004	0.0011	0.75004	3.131
Mof_Al	Al	0.99998	0.24873	0.75	5.225
Mof_Al	Al	0.49997	0.00111	0.49998	3.093
Mof_Al	Al	2e-05	0.24875	0.50004	5.992
Mof_H 	H 	0.16589	0.90001	0.69417	0.087
Mof_H 	H 	0.2949	0.92398	0.64218	0.129
Mof_C 	C 	0.17803	0.8636	0.52874	-0.226
Mof_C 	C 	0.20317	0.89004	0.60942	0.129
Mof_C 	C 	0.10221	0.8412	0.56186	0.981
Mof_C 	C 	0.27479	0.90237	0.58077	0.014
Mof_O 	O 	0.08121	0.81999	0.48565	-1.235
Mof_O 	O 	0.06382	0.84063	0.66502	-1.352
Mof_H 	H 	0.66581	0.6488	0.69423	0.03
Mof_H 	H 	0.79468	0.67381	0.64224	0.016
Mof_C 	C 	0.67803	0.61229	0.52878	-0.245
Mof_C 	C 	0.70311	0.63905	0.60944	0.039
Mof_C 	C 	0.60227	0.58936	0.56189	0.941
Mof_C 	C 	0.77468	0.65198	0.58078	0.04
Mof_O 	O 	0.58129	0.568	0.4857	-1.32
Mof_O 	O 	0.56388	0.58857	0.66505	-1.354
Mof_H 	H 	0.83408	0.8999	0.55592	0.081
Mof_H 	H 	0.70506	0.9239	0.60794	0.128
Mof_C 	C 	0.82195	0.86355	0.72135	-0.232
Mof_C 	C 	0.79679	0.88995	0.64067	0.126
Mof_C 	C 	0.89777	0.84114	0.6882	0.984
Mof_C 	C 	0.72518	0.9023	0.66934	0.015
Mof_O 	O 	0.91879	0.81997	0.76439	-1.376
Mof_O 	O 	0.93615	0.84056	0.58503	-1.292
Mof_H 	H 	0.33424	0.64901	0.5558	0.027
Mof_H 	H 	0.20537	0.67404	0.60782	0.019
Mof_C 	C 	0.32201	0.61238	0.72122	-0.246
Mof_C 	C 	0.29694	0.63922	0.64058	0.041
Mof_C 	C 	0.39778	0.58942	0.68809	0.941
Mof_C 	C 	0.22537	0.65215	0.66925	0.037
Mof_O 	O 	0.41876	0.56804	0.76428	-1.318
Mof_O 	O 	0.43616	0.58862	0.58493	-1.351
Mof_H 	H 	0.8342	0.602	0.80579	0.029
Mof_H 	H 	0.70532	0.57698	0.85781	0.014
Mof_C 	C 	0.82198	0.63855	0.97123	-0.217
Mof_C 	C 	0.7969	0.61177	0.89058	0.022
Mof_C 	C 	0.89775	0.66148	0.93811	0.953
Mof_C 	C 	0.72533	0.59884	0.91926	0.078
Mof_O 	O 	0.91871	0.68287	0.01432	-1.297
Mof_O 	O 	0.93616	0.66218	0.83495	-1.45
Mof_H 	H 	0.33416	0.85222	0.80577	0.09
Mof_H 	H 	0.20514	0.82823	0.8578	0.014
Mof_C 	C 	0.32203	0.88858	0.97122	0.003
Mof_C 	C 	0.29689	0.86213	0.89054	-0.031
Mof_C 	C 	0.39781	0.91122	0.93811	0.69
Mof_C 	C 	0.22526	0.84979	0.91921	0.2
Mof_O 	O 	0.41876	0.9326	0.01434	-0.734
Mof_O 	O 	0.43624	0.91184	0.83496	-0.692
Mof_H 	H 	0.16581	0.60189	0.94424	0.047
Mof_H 	H 	0.29468	0.57686	0.89223	0.033
Mof_C 	C 	0.17804	0.63852	0.77882	-0.239
Mof_C 	C 	0.20311	0.6117	0.85946	0.039
Mof_C 	C 	0.10228	0.66147	0.81193	0.934
Mof_C 	C 	0.27468	0.59877	0.83079	0.041
Mof_O 	O 	0.08131	0.68285	0.73571	-1.368
Mof_O 	O 	0.06387	0.66221	0.91509	-1.249
Mof_H 	H 	0.66581	0.85215	0.94436	0.085
Mof_H 	H 	0.79483	0.82813	0.89233	0.033
Mof_C 	C 	0.67794	0.88851	0.77891	-0.07
Mof_C 	C 	0.70309	0.86206	0.85959	0.014
Mof_C 	C 	0.60216	0.91117	0.81201	0.658
Mof_C 	C 	0.77471	0.84969	0.83092	0.115
Mof_O 	O 	0.58122	0.9325	0.73575	-0.641
Mof_O 	O 	0.56374	0.91184	0.91515	-0.724
Mof_F 	F 	1e-05	0.80639	0.87499	-1.865
Mof_F 	F 	0.50002	0.55438	0.87498	-1.903
Mof_F 	F 	2e-05	0.69652	0.62499	-1.943
Mof_F 	F 	0.50002	0.94622	0.625	-1.033
Mof_Al	Al	0.5	0.49937	0.74996	5.671
Mof_Al	Al	3e-05	0.75141	0.75001	6.047
Mof_Al	Al	0.50003	0.49937	0.50002	5.657
Mof_Al	Al	0.99998	0.7514	0.49998	5.44
_end
