data_functionalizedCrystal
_audit_creation_method	'EQeq! by Chris Wilmer'
_symmetry_space_group_name_H-M	'P1'
_symmetry_Int_Tables_number	1
_symmetry_cell_setting	triclinic
loop_
_symmetry_equiv_pos_as_xyz
  x,y,z
_cell_length_a	13.163
_cell_length_b	14.793
_cell_length_c	13.215
_cell_angle_alpha	90
_cell_angle_beta	119.74
_cell_angle_gamma	90
loop_
_atom_site_label
_atom_site_type_symbol
_atom_site_fract_x
_atom_site_fract_y
_atom_site_fract_z
_atom_site_charge
Mof_P 	P 	0.4067	0.1706	0.8408	2.187
Mof_P 	P 	0.9288	0.1689	0.5929	2.14
Mof_P 	P 	0.1536	0.1711	0.0646	1.982
Mof_P 	P 	0.7339	0.3308	0.7387	2.425
Mof_P 	P 	0.5048	0.3273	0.2666	2.185
Mof_P 	P 	0.2622	0.3208	0.5024	2.14
Mof_P 	P 	0.7387	0.009	0.7391	1.574
Mof_P 	P 	0.2628	0.0132	0.5021	1.775
Mof_P 	P 	0.5039	0.0157	0.262	1.662
Mof_Al	Al	0.1761	0.1654	0.601	7.51
Mof_Al	Al	0.9135	0.1698	0.8207	7.904
Mof_Al	Al	0.3972	0.1728	0.0781	8.023
Mof_Al	Al	0.4936	0.3094	0.7319	9.141
Mof_Al	Al	0.7279	0.306	0.5024	9.056
Mof_Al	Al	0.2743	0.2928	0.2746	6.859
Mof_Al	Al	0.4974	0.0367	0.7279	7.107
Mof_Al	Al	0.2738	0.0446	0.2717	7.059
Mof_Al	Al	0.7283	0.0341	0.4985	6.712
Mof_O 	O 	0.3279	0.1668	0.3075	-2.814
Mof_H 	H 	0.4081	0.1664	0.3587	0.48
Mof_O 	O 	0.4607	0.0854	0.8266	-2.312
Mof_O 	O 	0.499	0.166	0.682	-2.305
Mof_H 	H 	0.503	0.1656	0.6137	0.406
Mof_O 	O 	0.2782	0.179	0.7514	-2.31
Mof_O 	O 	0.4633	0.2558	0.8284	-2.67
Mof_O 	O 	0.676	0.173	0.519	-2.161
Mof_H 	H 	0.6183	0.1726	0.5404	0.404
Mof_O 	O 	0.4133	0.1749	0.9592	-2.441
Mof_O 	O 	0.0391	0.171	0.586	-2.289
Mof_O 	O 	0.8585	0.0848	0.5305	-2.282
Mof_O 	O 	0.8624	0.2547	0.5352	-2.485
Mof_O 	O 	0.9605	0.17	0.7193	-2.505
Mof_O 	O 	0.1647	0.0822	0.1318	-2.197
Mof_O 	O 	0.2509	0.1772	0.0312	-2.534
Mof_O 	O 	0.161	0.2493	0.132	-1.97
Mof_O 	O 	0.0363	0.1723	0.9551	-2.33
Mof_O 	O 	0.6864	0.3147	0.6095	-2.708
Mof_O 	O 	0.8402	0.2654	0.808	-2.556
Mof_O 	O 	0.7759	0.4238	0.7734	-2.228
Mof_O 	O 	0.6383	0.309	0.7573	-2.674
Mof_O 	O 	0.6182	0.2927	0.3611	-2.68
Mof_O 	O 	0.4622	0.271	0.1512	-2.379
Mof_O 	O 	0.4213	0.3276	0.3122	-2.204
Mof_O 	O 	0.514	0.4139	0.227	-2.126
Mof_O 	O 	0.1885	0.2646	0.5331	-2.255
Mof_O 	O 	0.2262	0.2953	0.3813	-2.026
Mof_O 	O 	0.2295	0.418	0.5045	-2.339
Mof_O 	O 	0.3943	0.3106	0.5829	-2.732
Mof_O 	O 	0.8371	0.0688	0.8067	-2.394
Mof_O 	O 	0.6946	0.0199	0.6091	-2.31
Mof_O 	O 	0.6407	0.0345	0.7691	-2.339
Mof_O 	O 	0.7774	0.9103	0.7747	-1.414
Mof_O 	O 	0.383	0.0331	0.586	-2.464
Mof_O 	O 	0.2391	0.044	0.381	-2.32
Mof_O 	O 	0.1902	0.0689	0.5441	-2.477
Mof_O 	O 	0.232	0.9143	0.51	-2.206
Mof_O 	O 	0.6212	0.0536	0.3585	-2.205
Mof_O 	O 	0.4629	0.0755	0.1565	-2.459
Mof_O 	O 	0.4175	0.0197	0.3021	-2.397
Mof_O 	O 	0.5225	0.9177	0.2292	-2.167
Mof_P 	P 	0.5933	0.6706	0.1592	2.328
Mof_P 	P 	0.0712	0.6689	0.4071	2.281
Mof_P 	P 	0.8464	0.6711	0.9354	2.092
Mof_P 	P 	0.2661	0.8308	0.2613	2.372
Mof_P 	P 	0.4952	0.8273	0.7334	2.11
Mof_P 	P 	0.7378	0.8208	0.4976	2.057
Mof_P 	P 	0.2613	0.509	0.2609	2.178
Mof_P 	P 	0.7372	0.5132	0.4979	2.389
Mof_P 	P 	0.4961	0.5157	0.738	2.257
Mof_Al	Al	0.8239	0.6654	0.399	7.922
Mof_Al	Al	0.0865	0.6698	0.1793	8.337
Mof_Al	Al	0.6028	0.6728	0.9219	8.425
Mof_Al	Al	0.5064	0.8094	0.2681	9.255
Mof_Al	Al	0.2721	0.806	0.4976	9.116
Mof_Al	Al	0.7257	0.7928	0.7254	6.939
Mof_Al	Al	0.5026	0.5367	0.2721	8.934
Mof_Al	Al	0.7262	0.5446	0.7283	8.795
Mof_Al	Al	0.2717	0.5341	0.5015	8.783
Mof_O 	O 	0.6721	0.6668	0.6925	-3.134
Mof_H 	H 	0.5919	0.6664	0.6413	0.527
Mof_O 	O 	0.5393	0.5854	0.1734	-2.586
Mof_O 	O 	0.501	0.666	0.318	-2.582
Mof_H 	H 	0.497	0.6656	0.3863	0.446
Mof_O 	O 	0.7218	0.679	0.2486	-2.377
Mof_O 	O 	0.5367	0.7558	0.1716	-2.671
Mof_O 	O 	0.324	0.673	0.481	-2.388
Mof_H 	H 	0.3817	0.6726	0.4596	0.435
Mof_O 	O 	0.5867	0.6749	0.0408	-2.478
Mof_O 	O 	0.9609	0.671	0.414	-2.324
Mof_O 	O 	0.1415	0.5848	0.4695	-2.626
Mof_O 	O 	0.1376	0.7547	0.4648	-2.484
Mof_O 	O 	0.0395	0.67	0.2807	-2.592
Mof_O 	O 	0.8353	0.5822	0.8682	-2.421
Mof_O 	O 	0.7491	0.6772	0.9688	-2.606
Mof_O 	O 	0.839	0.7493	0.868	-1.964
Mof_O 	O 	0.9637	0.6723	0.0449	-2.366
Mof_O 	O 	0.3136	0.8147	0.3905	-2.618
Mof_O 	O 	0.1598	0.7654	0.192	-2.611
Mof_O 	O 	0.2241	0.9238	0.2266	-1.61
Mof_O 	O 	0.3617	0.809	0.2427	-2.596
Mof_O 	O 	0.3818	0.7927	0.6389	-2.622
Mof_O 	O 	0.5378	0.771	0.8488	-2.416
Mof_O 	O 	0.5787	0.8276	0.6878	-2.077
Mof_O 	O 	0.486	0.9139	0.773	-1.53
Mof_O 	O 	0.8115	0.7646	0.4669	-2.284
Mof_O 	O 	0.7738	0.7953	0.6187	-1.954
Mof_O 	O 	0.7705	0.918	0.4955	-1.617
Mof_O 	O 	0.6057	0.8106	0.4171	-2.651
Mof_O 	O 	0.1629	0.5688	0.1933	-2.5
Mof_O 	O 	0.3054	0.5199	0.3909	-2.697
Mof_O 	O 	0.3593	0.5345	0.2309	-2.68
Mof_O 	O 	0.2226	0.4103	0.2253	-1.839
Mof_O 	O 	0.617	0.5331	0.414	-2.852
Mof_O 	O 	0.7609	0.544	0.619	-2.643
Mof_O 	O 	0.8098	0.5689	0.4559	-2.558
Mof_O 	O 	0.768	0.4143	0.49	-2.633
Mof_O 	O 	0.3788	0.5536	0.6415	-2.624
Mof_O 	O 	0.5371	0.5755	0.8435	-2.546
Mof_O 	O 	0.5825	0.5197	0.6979	-2.699
Mof_O 	O 	0.4775	0.4177	0.7708	-2.589
_end
