data_functionalizedCrystal
_audit_creation_method	'EQeq! by Chris Wilmer'
_symmetry_space_group_name_H-M	'P1'
_symmetry_Int_Tables_number	1
_symmetry_cell_setting	triclinic
loop_
_symmetry_equiv_pos_as_xyz
  x,y,z
_cell_length_a	15.369
_cell_length_b	15.403
_cell_length_c	20.104
_cell_angle_alpha	84.835
_cell_angle_beta	89.828
_cell_angle_gamma	74.46
loop_
_atom_site_label
_atom_site_type_symbol
_atom_site_fract_x
_atom_site_fract_y
_atom_site_fract_z
_atom_site_charge
Mof_Ce	Ce	0.35975	0.36248	0.50151	1.906
Mof_Ce	Ce	0.64672	0.30881	0.86178	1.79
Mof_Ce	Ce	0.35328	0.69119	0.13822	1.79
Mof_Ce	Ce	0.64025	0.63752	0.49849	1.906
Mof_Mn	Mn	0.93069	0.93077	0.50095	0.981
Mof_Mn	Mn	0.90514	0.08616	0.6084	0.9
Mof_Mn	Mn	0.09486	0.91384	0.3916	0.901
Mof_Mn	Mn	0.06931	0.06923	0.49905	0.982
Mof_P 	P 	0.2639	0.7151	0.7594	0.586
Mof_P 	P 	0.9144	0.096	0.3742	0.545
Mof_P 	P 	0.7361	0.2849	0.2406	0.586
Mof_P 	P 	0.0856	0.904	0.6258	0.545
Mof_H 	H 	0.2175	0.9694	0.1031	-0.031
Mof_H 	H 	0.2699	0.0594	0.3812	0.066
Mof_H 	H 	0.8451	0.7398	0.4568	0.006
Mof_H 	H 	0.0872	0.7842	0.1193	-0.002
Mof_H 	H 	0.116	0.0575	0.0327	0.054
Mof_H 	H 	0.1012	0.5241	0.5369	0.01
Mof_H 	H 	0.3034	0.0119	0.2741	0.034
Mof_H 	H 	0.4586	0.2339	0.7222	-0.006
Mof_H 	H 	0.8988	0.4759	0.4631	0.01
Mof_H 	H 	0.7301	0.9406	0.6188	0.066
Mof_H 	H 	0.2589	0.1627	0.4499	-0.002
Mof_H 	H 	0.0093	0.4703	0.3852	0.057
Mof_H 	H 	0.9907	0.5297	0.6148	0.057
Mof_H 	H 	0.4619	0.1358	0.6436	0.038
Mof_H 	H 	0.9789	0.8677	0.0387	0.023
Mof_H 	H 	0.4734	0.8944	0.5338	0.01
Mof_H 	H 	0.7825	0.0306	0.8969	-0.031
Mof_H 	H 	0.538	0.9964	0.392	0.058
Mof_H 	H 	0.884	0.9425	0.9673	0.054
Mof_H 	H 	0.7411	0.8373	0.5501	-0.002
Mof_H 	H 	0.8884	0.5337	0.6809	0.041
Mof_H 	H 	0.1549	0.2602	0.5432	0.006
Mof_H 	H 	0.6966	0.9881	0.7259	0.034
Mof_H 	H 	0.5381	0.8642	0.3564	0.038
Mof_H 	H 	0.8416	0.2668	0.7707	0.01
Mof_H 	H 	0.2153	0.4689	0.238	0.001
Mof_H 	H 	0.1116	0.4663	0.3191	0.041
Mof_H 	H 	0.5266	0.1056	0.4662	0.01
Mof_H 	H 	0.7847	0.5311	0.762	0.001
Mof_H 	H 	0.0374	0.2662	0.6204	0.055
Mof_H 	H 	0.1584	0.7332	0.2293	0.01
Mof_H 	H 	0.3108	0.9056	0.201	0.008
Mof_H 	H 	0.9564	0.2682	0.6947	0.054
Mof_H 	H 	0.9128	0.2158	0.8807	-0.002
Mof_H 	H 	0.5414	0.7661	0.2778	-0.006
Mof_H 	H 	0.0211	0.1323	0.9613	0.023
Mof_H 	H 	0.0436	0.7318	0.3053	0.054
Mof_H 	H 	0.462	0.0036	0.608	0.058
Mof_H 	H 	0.9626	0.7338	0.3796	0.055
Mof_H 	H 	0.6892	0.0944	0.799	0.008
Mof_W 	W 	0.45044	0.52602	0.78023	1.364
Mof_W 	W 	0.76012	0.96264	0.3739	1.029
Mof_W 	W 	0.73096	0.12197	0.48225	1.016
Mof_W 	W 	0.40456	0.86368	0.74698	1.06
Mof_W 	W 	0.88562	0.42177	0.24583	1.076
Mof_W 	W 	0.08466	0.75284	0.87386	1.029
Mof_W 	W 	0.11438	0.57823	0.75417	1.076
Mof_W 	W 	0.4324	0.70544	0.63921	1.425
Mof_W 	W 	0.91534	0.24716	0.12614	1.029
Mof_W 	W 	0.77758	0.11163	0.12939	1.019
Mof_W 	W 	0.11925	0.73004	0.52015	1.035
Mof_W 	W 	0.04839	0.24887	0.36902	1.023
Mof_W 	W 	0.26904	0.87803	0.51775	1.016
Mof_W 	W 	0.05899	0.05957	0.74732	0.98
Mof_W 	W 	0.5767	0.3123	0.10984	0.931
Mof_W 	W 	0.54956	0.47398	0.21977	1.364
Mof_W 	W 	0.94101	0.94043	0.25268	0.98
Mof_W 	W 	0.28134	0.54933	0.89415	0.998
Mof_W 	W 	0.59544	0.13632	0.25302	1.06
Mof_W 	W 	0.07833	0.07725	0.25027	0.997
Mof_W 	W 	0.95161	0.75113	0.63098	1.023
Mof_W 	W 	0.72002	0.44364	0.35752	1.381
Mof_W 	W 	0.88075	0.26996	0.47985	1.035
Mof_W 	W 	0.4233	0.6877	0.89016	0.931
Mof_W 	W 	0.27998	0.55636	0.64248	1.381
Mof_W 	W 	0.23988	0.03736	0.6261	1.029
Mof_W 	W 	0.92167	0.92275	0.74973	0.997
Mof_W 	W 	0.22242	0.88837	0.87061	1.019
Mof_W 	W 	0.5676	0.29456	0.36079	1.425
Mof_W 	W 	0.71866	0.45067	0.10585	0.998
Mof_C 	C 	0.818	0.476	0.748	0.037
Mof_C 	C 	0.5253	0.904	0.552	0.054
Mof_C 	C 	0.1096	0.0007	0.0478	-0.179
Mof_C 	C 	0.506	0.181	0.7231	0.028
Mof_C 	C 	0.353	0.961	0.276	-0.099
Mof_C 	C 	0.6771	0.9307	0.603	-0.132
Mof_C 	C 	0.4155	0.9497	0.326	0.012
Mof_C 	C 	0.8783	0.6852	0.4423	0.035
Mof_C 	C 	0.118	0.5217	0.301	-0.137
Mof_C 	C 	0.0893	0.4709	0.555	0.055
Mof_C 	C 	0.003	0.3971	0.629	0.015
Mof_C 	C 	0.051	0.3197	0.6051	-0.114
Mof_C 	C 	0.5086	0.125	0.6751	-0.134
Mof_C 	C 	0.5938	0.9837	0.6262	0.023
Mof_C 	C 	0.1217	0.3148	0.5577	0.035
Mof_C 	C 	0.6843	0.8708	0.562	0.052
Mof_C 	C 	0.039	0.974	0.0246	0.053
Mof_C 	C 	0.4914	0.875	0.3249	-0.134
Mof_C 	C 	0.647	0.039	0.724	-0.099
Mof_C 	C 	0.9339	0.4003	0.677	0.03
Mof_C 	C 	0.5189	0.969	0.5972	-0.105
Mof_C 	C 	0.9771	0.5261	0.3984	-0.103
Mof_C 	C 	0.9107	0.5291	0.445	0.055
Mof_C 	C 	0.168	0.9497	0.0904	0.079
Mof_C 	C 	0.949	0.6803	0.3949	-0.114
Mof_C 	C 	0.907	0.161	0.9004	0.026
Mof_C 	C 	0.973	0.111	0.9482	-0.098
Mof_C 	C 	0.8904	0.9993	0.9522	-0.179
Mof_C 	C 	0.0801	0.677	0.2935	-0.125
Mof_C 	C 	0.182	0.524	0.252	0.037
Mof_C 	C 	0.882	0.4783	0.699	-0.137
Mof_C 	C 	0.3157	0.1292	0.438	0.052
Mof_C 	C 	0.961	0.026	0.9754	0.053
Mof_C 	C 	0.832	0.0503	0.9096	0.079
Mof_C 	C 	0.853	0.3209	0.7541	0.001
Mof_C 	C 	0.997	0.6029	0.371	0.015
Mof_C 	C 	0.5845	0.0503	0.674	0.012
Mof_C 	C 	0.642	0.099	0.769	0
Mof_C 	C 	0.494	0.819	0.2769	0.028
Mof_C 	C 	0.027	0.889	0.0518	-0.098
Mof_C 	C 	0.0229	0.4739	0.6016	-0.103
Mof_C 	C 	0.4811	0.031	0.4028	-0.105
Mof_C 	C 	0.3229	0.0693	0.397	-0.132
Mof_C 	C 	0.147	0.6791	0.2459	0.001
Mof_C 	C 	0.093	0.839	0.0996	0.026
Mof_C 	C 	0.358	0.901	0.231	0
Mof_C 	C 	0.4062	0.0163	0.3738	0.023
Mof_C 	C 	0.4747	0.096	0.448	0.054
Mof_C 	C 	0.0661	0.5997	0.323	0.03
Mof_C 	C 	0.9199	0.323	0.7065	-0.125
Mof_N 	N 	0.1606	0.868	0.1173	-0.079
Mof_N 	N 	0.1959	0.5968	0.2249	-0.074
Mof_N 	N 	0.3929	0.1444	0.4647	-0.071
Mof_N 	N 	0.8041	0.4032	0.7751	-0.074
Mof_N 	N 	0.6071	0.8556	0.5353	-0.071
Mof_N 	N 	0.8394	0.132	0.8827	-0.079
Mof_N 	N 	0.566	0.1642	0.7709	-0.056
Mof_N 	N 	0.136	0.3922	0.5363	-0.067
Mof_N 	N 	0.864	0.6078	0.4637	-0.067
Mof_N 	N 	0.434	0.8358	0.2291	-0.056
Mof_O 	O 	0.06	0.189	0.291	-0.456
Mof_O 	O 	0.1904	0.6517	0.9097	-0.451
Mof_O 	O 	0.0446	0.647	0.6895	-0.442
Mof_O 	O 	0.8185	0.086	0.387	-0.345
Mof_O 	O 	0.2119	0.5284	0.8253	-0.447
Mof_O 	O 	0.3025	0.9746	0.5532	-0.438
Mof_O 	O 	0.9638	0.0162	0.7868	-0.418
Mof_O 	O 	0.6317	0.4943	0.2803	-0.495
Mof_O 	O 	0.8507	0.9007	0.4285	-0.475
Mof_O 	O 	0.6129	0.7979	0.4884	-0.422
Mof_O 	O 	0.9427	0.0735	0.3027	-0.331
Mof_O 	O 	0.8697	0.9928	0.6778	-0.48
Mof_O 	O 	0.94	0.811	0.709	-0.456
Mof_O 	O 	0.1925	0.6313	0.5871	-0.481
Mof_O 	O 	0.0209	0.6931	0.5574	-0.439
Mof_O 	O 	0.3683	0.5057	0.7197	-0.495
Mof_O 	O 	0.646	0.3892	0.0651	-0.504
Mof_O 	O 	0.1303	0.0072	0.3222	-0.48
Mof_O 	O 	0.9936	0.1161	0.6752	-0.467
Mof_O 	O 	0.0064	0.8839	0.3248	-0.467
Mof_O 	O 	0.5416	0.4332	0.7812	-0.613
Mof_O 	O 	0.359	0.6314	0.6248	-0.567
Mof_O 	O 	0.4965	0.5907	0.8414	-0.498
Mof_O 	O 	0.0115	0.8428	0.8204	-0.425
Mof_O 	O 	0.1687	0.9483	0.4708	-0.531
Mof_O 	O 	0.196	0.5106	0.6951	-0.488
Mof_O 	O 	0.0362	0.9838	0.2132	-0.418
Mof_O 	O 	0.2	0.7793	0.801	-0.333
Mof_O 	O 	0.7881	0.4716	0.1747	-0.447
Mof_O 	O 	0.8592	0.1709	0.0816	-0.445
Mof_O 	O 	0.0182	0.9757	0.5731	-0.484
Mof_O 	O 	0.9791	0.3069	0.4426	-0.439
Mof_O 	O 	0.8096	0.3483	0.0903	-0.451
Mof_O 	O 	0.9818	0.0243	0.4269	-0.484
Mof_O 	O 	0.6779	0.2382	0.2832	-0.367
Mof_O 	O 	0.3204	0.4709	0.5912	-0.662
Mof_O 	O 	0.9264	0.3335	0.1849	-0.468
Mof_O 	O 	0.641	0.3686	0.3752	-0.567
Mof_O 	O 	0.7485	0.4041	0.829	-0.381
Mof_O 	O 	0.9885	0.1572	0.1796	-0.425
Mof_O 	O 	0.1493	0.0993	0.5715	-0.475
Mof_O 	O 	0.4785	0.7839	0.6905	-0.482
Mof_O 	O 	0.8	0.2207	0.199	-0.333
Mof_O 	O 	0.7845	0.3392	0.2774	-0.369
Mof_O 	O 	0.3391	0.9395	0.6815	-0.437
Mof_O 	O 	0.5232	0.3887	0.2836	-0.491
Mof_O 	O 	0.7765	0.1838	0.8407	-0.379
Mof_O 	O 	0.2235	0.8162	0.1593	-0.379
Mof_O 	O 	0.3313	0.6455	0.813	-0.389
Mof_O 	O 	0.0523	0.8332	0.473	-0.535
Mof_O 	O 	0.4768	0.6113	0.7164	-0.491
Mof_O 	O 	0.6876	0.0997	0.1911	-0.471
Mof_O 	O 	0.8243	0.9555	0.2953	-0.458
Mof_O 	O 	0.5239	0.6666	0.5912	-0.668
Mof_O 	O 	0.1757	0.0445	0.7047	-0.458
Mof_O 	O 	0.3124	0.9003	0.8089	-0.471
Mof_O 	O 	0.5528	0.2401	0.1842	-0.438
Mof_O 	O 	0.4761	0.3334	0.4088	-0.668
Mof_O 	O 	0.3871	0.2021	0.5116	-0.422
Mof_O 	O 	0.5215	0.2161	0.3095	-0.482
Mof_O 	O 	0.5035	0.4093	0.1586	-0.498
Mof_O 	O 	0.1408	0.8291	0.9184	-0.445
Mof_O 	O 	0.199	0.3907	0.4911	-0.416
Mof_O 	O 	0.6975	0.0254	0.4468	-0.438
Mof_O 	O 	0.6815	0.2223	0.0915	-0.455
Mof_O 	O 	0.9232	0.1891	0.3848	-0.349
Mof_O 	O 	0.8313	0.0517	0.5292	-0.531
Mof_O 	O 	0.4433	0.7808	0.184	-0.401
Mof_O 	O 	0.6687	0.3545	0.187	-0.389
Mof_O 	O 	0.3807	0.4779	0.8437	-0.509
Mof_O 	O 	0.3221	0.7618	0.7168	-0.367
Mof_O 	O 	0.2515	0.5959	0.171	-0.381
Mof_O 	O 	0.8075	0.3687	0.4129	-0.481
Mof_O 	O 	0.2155	0.6608	0.7226	-0.369
Mof_O 	O 	0.804	0.4894	0.3049	-0.488
Mof_O 	O 	0.1043	0.1542	0.4224	-0.476
Mof_O 	O 	0.4472	0.7599	0.8158	-0.438
Mof_O 	O 	0.801	0.6093	0.5089	-0.416
Mof_O 	O 	0.6366	0.2031	0.415	-0.493
Mof_O 	O 	0.2195	0.7769	0.5245	-0.491
Mof_O 	O 	0.1815	0.914	0.613	-0.345
Mof_O 	O 	0.6193	0.5221	0.1563	-0.509
Mof_O 	O 	0.0573	0.9265	0.6973	-0.331
Mof_O 	O 	0.6796	0.5291	0.4088	-0.662
Mof_O 	O 	0.7805	0.2231	0.4755	-0.491
Mof_O 	O 	0.3634	0.7969	0.585	-0.493
Mof_O 	O 	0.0768	0.8109	0.6152	-0.349
Mof_O 	O 	0.6609	0.0605	0.3185	-0.437
Mof_O 	O 	0.5567	0.2192	0.816	-0.401
Mof_O 	O 	0.0736	0.6665	0.8151	-0.468
Mof_O 	O 	0.3185	0.7777	0.9085	-0.455
Mof_O 	O 	0.354	0.6108	0.9349	-0.504
Mof_O 	O 	0.4584	0.5668	0.2188	-0.613
Mof_O 	O 	0.8957	0.8458	0.5776	-0.476
Mof_O 	O 	0.8636	0.0338	0.181	-0.423
Mof_O 	O 	0.1364	0.9662	0.819	-0.423
Mof_O 	O 	0.9554	0.353	0.3105	-0.442
Mof_O 	O 	0.9477	0.1668	0.527	-0.535
_end
