data_functionalizedCrystal
_audit_creation_method	'EQeq! by Chris Wilmer'
_symmetry_space_group_name_H-M	'P1'
_symmetry_Int_Tables_number	1
_symmetry_cell_setting	triclinic
loop_
_symmetry_equiv_pos_as_xyz
  x,y,z
_cell_length_a	16.217
_cell_length_b	17.9831
_cell_length_c	19.6402
_cell_angle_alpha	90
_cell_angle_beta	90
_cell_angle_gamma	90
loop_
_atom_site_label
_atom_site_type_symbol
_atom_site_fract_x
_atom_site_fract_y
_atom_site_fract_z
_atom_site_charge
Mof_Mn	Mn	0.89764	0.4282	0.89729	1.008
Mof_Cu	Cu	0.21909	0.06905	0.84918	0.929
Mof_Cu	Cu	0.02992	0.14915	0.80037	0.932
Mof_Cu	Cu	0.15529	0.21203	0.93119	0.932
Mof_Br	Br	0.25342	0.21412	0.81867	-0.374
Mof_C 	C 	0.19044	0.00419	0.7253	0.297
Mof_C 	C 	0.3072	0.04132	0.96584	0.29
Mof_C 	C 	0.04316	0.32496	0.9309	0.301
Mof_C 	C 	0.10361	0.01833	0.7556	0.058
Mof_C 	C 	0.23289	0.0882	0.9912	0.057
Mof_C 	C 	0.99982	0.26012	0.89265	0.068
Mof_C 	C 	0.04059	0.04489	0.7024	0.311
Mof_C 	C 	0.26523	0.16124	0.02328	0.31
Mof_C 	C 	0.96466	0.28523	0.82296	0.306
Mof_O 	O 	0.25021	0.02169	0.76334	-0.322
Mof_O 	O 	0.31097	0.02859	0.90225	-0.322
Mof_O 	O 	0.11758	0.31326	0.94798	-0.319
Mof_O 	O 	0.19786	0.97502	0.66752	-0.326
Mof_O 	O 	0.35823	0.0182	0.00834	-0.307
Mof_O 	O 	0.00468	0.38227	0.94433	-0.318
Mof_O 	O 	0.10919	0.06984	0.8073	-0.42
Mof_O 	O 	0.17896	0.10389	0.93875	-0.395
Mof_O 	O 	0.05352	0.20206	0.88267	-0.433
Mof_O 	O 	0.07532	0.95076	0.78531	-0.343
Mof_H 	H 	0.0702	0.9191	0.7556	0.259
Mof_O 	O 	0.18996	0.04772	0.04208	-0.318
Mof_H 	H 	0.2214	0.0382	0.0736	0.241
Mof_O 	O 	0.93322	0.2339	0.93303	-0.345
Mof_H 	H 	0.8996	0.2675	0.9384	0.258
Mof_O 	O 	0.02861	0.00813	0.6498	-0.33
Mof_O 	O 	0.31553	0.15754	0.07128	-0.35
Mof_O 	O 	0.92983	0.34618	0.81659	-0.331
Mof_O 	O 	0.99971	0.10187	0.71568	-0.335
Mof_O 	O 	0.23934	0.22142	0.00068	-0.34
Mof_O 	O 	0.9711	0.23926	0.77542	-0.335
Mof_Mn	Mn	0.60236	0.5718	0.39729	1.009
Mof_Cu	Cu	0.28091	0.93095	0.34918	0.93
Mof_Cu	Cu	0.47008	0.85085	0.30037	0.934
Mof_Cu	Cu	0.34471	0.78797	0.43119	0.933
Mof_Br	Br	0.24658	0.78588	0.31867	-0.373
Mof_C 	C 	0.30956	0.99581	0.2253	0.298
Mof_C 	C 	0.1928	0.95868	0.46584	0.291
Mof_C 	C 	0.45684	0.67504	0.4309	0.302
Mof_C 	C 	0.39639	0.98167	0.2556	0.058
Mof_C 	C 	0.26711	0.9118	0.4912	0.058
Mof_C 	C 	0.50018	0.73988	0.39265	0.066
Mof_C 	C 	0.45941	0.95511	0.2024	0.312
Mof_C 	C 	0.23477	0.83876	0.52328	0.309
Mof_C 	C 	0.53534	0.71477	0.32296	0.307
Mof_O 	O 	0.24979	0.97831	0.26334	-0.322
Mof_O 	O 	0.18903	0.97141	0.40225	-0.322
Mof_O 	O 	0.38242	0.68674	0.44798	-0.319
Mof_O 	O 	0.30214	0.02498	0.16752	-0.326
Mof_O 	O 	0.14177	0.9818	0.50834	-0.307
Mof_O 	O 	0.49532	0.61773	0.44433	-0.318
Mof_O 	O 	0.39081	0.93016	0.3073	-0.42
Mof_O 	O 	0.32104	0.89611	0.43875	-0.395
Mof_O 	O 	0.44648	0.79794	0.38267	-0.432
Mof_O 	O 	0.42468	0.04924	0.28531	-0.344
Mof_H 	H 	0.4298	0.0809	0.2556	0.259
Mof_O 	O 	0.31004	0.95228	0.54208	-0.318
Mof_H 	H 	0.2786	0.9618	0.5736	0.241
Mof_O 	O 	0.56678	0.7661	0.43303	-0.345
Mof_H 	H 	0.6004	0.7325	0.4384	0.258
Mof_O 	O 	0.47139	0.99187	0.1498	-0.33
Mof_O 	O 	0.18447	0.84246	0.57128	-0.35
Mof_O 	O 	0.57017	0.65382	0.31659	-0.331
Mof_O 	O 	0.50029	0.89813	0.21568	-0.337
Mof_O 	O 	0.26066	0.77858	0.50068	-0.34
Mof_O 	O 	0.5289	0.76074	0.27542	-0.335
Mof_Mn	Mn	0.10236	0.9282	0.60271	1.01
Mof_Cu	Cu	0.78091	0.56905	0.65082	0.93
Mof_Cu	Cu	0.97008	0.64915	0.69963	0.934
Mof_Cu	Cu	0.84471	0.71203	0.56881	0.933
Mof_Br	Br	0.74658	0.71412	0.68133	-0.373
Mof_C 	C 	0.80956	0.50419	0.7747	0.299
Mof_C 	C 	0.6928	0.54132	0.53416	0.291
Mof_C 	C 	0.95684	0.82496	0.5691	0.301
Mof_C 	C 	0.89639	0.51833	0.7444	0.059
Mof_C 	C 	0.76711	0.5882	0.5088	0.058
Mof_C 	C 	0.00018	0.76012	0.60735	0.068
Mof_C 	C 	0.95941	0.54489	0.7976	0.311
Mof_C 	C 	0.73477	0.66124	0.47672	0.309
Mof_C 	C 	0.03534	0.78523	0.67704	0.306
Mof_O 	O 	0.74979	0.52169	0.73666	-0.322
Mof_O 	O 	0.68903	0.52859	0.59775	-0.322
Mof_O 	O 	0.88242	0.81326	0.55202	-0.319
Mof_O 	O 	0.80214	0.47502	0.83248	-0.326
Mof_O 	O 	0.64177	0.5182	0.49166	-0.308
Mof_O 	O 	0.99532	0.88227	0.55567	-0.319
Mof_O 	O 	0.89081	0.56984	0.6927	-0.42
Mof_O 	O 	0.82104	0.60389	0.56125	-0.395
Mof_O 	O 	0.94648	0.70206	0.61733	-0.433
Mof_O 	O 	0.92468	0.45076	0.71469	-0.344
Mof_H 	H 	0.9298	0.4191	0.7444	0.259
Mof_O 	O 	0.81004	0.54772	0.45792	-0.318
Mof_H 	H 	0.7786	0.5382	0.4264	0.241
Mof_O 	O 	0.06678	0.7339	0.56697	-0.345
Mof_H 	H 	0.1004	0.7675	0.5616	0.258
Mof_O 	O 	0.97139	0.50813	0.8502	-0.329
Mof_O 	O 	0.68447	0.65754	0.42872	-0.35
Mof_O 	O 	0.07017	0.84618	0.68341	-0.33
Mof_O 	O 	0.00029	0.60187	0.78432	-0.336
Mof_O 	O 	0.76066	0.72142	0.49932	-0.34
Mof_O 	O 	0.0289	0.73926	0.72458	-0.335
Mof_Mn	Mn	0.39764	0.0718	0.10271	1.009
Mof_Cu	Cu	0.71909	0.43095	0.15082	0.93
Mof_Cu	Cu	0.52992	0.35085	0.19963	0.934
Mof_Cu	Cu	0.65529	0.28797	0.06881	0.933
Mof_Br	Br	0.75342	0.28588	0.18133	-0.373
Mof_C 	C 	0.69044	0.49581	0.2747	0.299
Mof_C 	C 	0.8072	0.45868	0.03416	0.289
Mof_C 	C 	0.54316	0.17504	0.0691	0.302
Mof_C 	C 	0.60361	0.48167	0.2444	0.058
Mof_C 	C 	0.73289	0.4118	0.0088	0.057
Mof_C 	C 	0.49982	0.23988	0.10735	0.066
Mof_C 	C 	0.54059	0.45511	0.2976	0.312
Mof_C 	C 	0.76523	0.33876	0.97672	0.31
Mof_C 	C 	0.46466	0.21477	0.17704	0.307
Mof_O 	O 	0.75021	0.47831	0.23666	-0.322
Mof_O 	O 	0.81097	0.47141	0.09775	-0.322
Mof_O 	O 	0.61758	0.18674	0.05202	-0.319
Mof_O 	O 	0.69786	0.52498	0.33248	-0.326
Mof_O 	O 	0.85823	0.4818	0.99166	-0.307
Mof_O 	O 	0.50468	0.11773	0.05567	-0.318
Mof_O 	O 	0.60919	0.43016	0.1927	-0.42
Mof_O 	O 	0.67896	0.39611	0.06125	-0.395
Mof_O 	O 	0.55352	0.29794	0.11733	-0.432
Mof_O 	O 	0.57532	0.54924	0.21469	-0.344
Mof_H 	H 	0.5702	0.5809	0.2444	0.259
Mof_O 	O 	0.68996	0.45228	0.95792	-0.318
Mof_H 	H 	0.7214	0.4618	0.9264	0.241
Mof_O 	O 	0.43322	0.2661	0.06697	-0.345
Mof_H 	H 	0.3996	0.2325	0.0616	0.258
Mof_O 	O 	0.52861	0.49187	0.3502	-0.329
Mof_O 	O 	0.81553	0.34246	0.92872	-0.35
Mof_O 	O 	0.42983	0.15382	0.18341	-0.331
Mof_O 	O 	0.49971	0.39813	0.28432	-0.336
Mof_O 	O 	0.73934	0.27858	0.99932	-0.34
Mof_O 	O 	0.4711	0.26074	0.22458	-0.335
_end
