data_functionalizedCrystal
_audit_creation_method	'EQeq! by Chris Wilmer'
_symmetry_space_group_name_H-M	'P1'
_symmetry_Int_Tables_number	1
_symmetry_cell_setting	triclinic
loop_
_symmetry_equiv_pos_as_xyz
  x,y,z
_cell_length_a	22.7345
_cell_length_b	22.7345
_cell_length_c	25.1354
_cell_angle_alpha	63.1124
_cell_angle_beta	63.1124
_cell_angle_gamma	60
loop_
_atom_site_label
_atom_site_type_symbol
_atom_site_fract_x
_atom_site_fract_y
_atom_site_fract_z
_atom_site_charge
Mof_Zn	Zn	0.18028	0.02726	0.73714	1.206
Mof_Zn	Zn	0.02726	0.05532	0.73714	1.205
Mof_Zn	Zn	0.05532	0.18028	0.73714	1.207
Mof_Zn	Zn	0.68028	0.55532	0.23714	1.208
Mof_Zn	Zn	0.52726	0.68028	0.23714	1.207
Mof_Zn	Zn	0.55532	0.52726	0.23714	1.207
Mof_Zn	Zn	0.04853	0.04853	0.85441	1.205
Mof_Zn	Zn	0.54853	0.54853	0.35441	1.208
Mof_H 	H 	0.3231	0.8786	0.8497	0.111
Mof_H 	H 	0.1414	0.8824	0.9877	0.128
Mof_H 	H 	0.4373	0.7528	0.9418	0.224
Mof_H 	H 	0.4315	0.8321	0.913	0.213
Mof_H 	H 	0.4352	0.7936	0.8725	0.213
Mof_H 	H 	0.1404	0.8363	0.0951	0.249
Mof_H 	H 	0.2117	0.7967	0.1125	0.252
Mof_H 	H 	0.1851	0.7563	0.0969	0.245
Mof_H 	H 	0.3961	0.7946	0.1254	0.126
Mof_H 	H 	0.4246	0.6052	0.1257	0.114
Mof_H 	H 	0.345	0.9002	0.0039	0.243
Mof_H 	H 	0.2713	0.9006	0.0528	0.258
Mof_H 	H 	0.3281	0.9016	0.0711	0.242
Mof_H 	H 	0.3954	0.6325	0.0096	0.212
Mof_H 	H 	0.3526	0.6033	0.0783	0.211
Mof_H 	H 	0.3133	0.6726	0.0333	0.218
Mof_H 	H 	0.8786	0.9486	0.8497	0.104
Mof_H 	H 	0.8824	0.9885	0.9877	0.118
Mof_H 	H 	0.7528	0.8681	0.9418	0.22
Mof_H 	H 	0.8321	0.8234	0.913	0.208
Mof_H 	H 	0.7936	0.8987	0.8725	0.208
Mof_H 	H 	0.8363	0.9282	0.0951	0.237
Mof_H 	H 	0.7967	0.8791	0.1125	0.242
Mof_H 	H 	0.7563	0.9617	0.0969	0.234
Mof_H 	H 	0.7946	0.6839	0.1254	0.126
Mof_H 	H 	0.6052	0.8445	0.1257	0.114
Mof_H 	H 	0.9002	0.7509	0.0039	0.239
Mof_H 	H 	0.9006	0.7753	0.0528	0.255
Mof_H 	H 	0.9016	0.6992	0.0711	0.24
Mof_H 	H 	0.6325	0.9625	0.0096	0.211
Mof_H 	H 	0.6033	0.9658	0.0783	0.211
Mof_H 	H 	0.6726	0.9808	0.0333	0.217
Mof_H 	H 	0.9486	0.3231	0.8497	0.113
Mof_H 	H 	0.9885	0.1414	0.9877	0.131
Mof_H 	H 	0.8681	0.4373	0.9418	0.225
Mof_H 	H 	0.8234	0.4315	0.913	0.213
Mof_H 	H 	0.8987	0.4352	0.8725	0.214
Mof_H 	H 	0.9282	0.1404	0.0951	0.249
Mof_H 	H 	0.8791	0.2117	0.1125	0.252
Mof_H 	H 	0.9617	0.1851	0.0969	0.246
Mof_H 	H 	0.6839	0.3961	0.1254	0.125
Mof_H 	H 	0.8445	0.4246	0.1257	0.114
Mof_H 	H 	0.7509	0.345	0.0039	0.241
Mof_H 	H 	0.7753	0.2713	0.0528	0.256
Mof_H 	H 	0.6992	0.3281	0.0711	0.24
Mof_H 	H 	0.9625	0.3954	0.0096	0.212
Mof_H 	H 	0.9658	0.3526	0.0783	0.212
Mof_H 	H 	0.9808	0.3133	0.0333	0.219
Mof_H 	H 	0.8231	0.4486	0.3497	0.11
Mof_H 	H 	0.6414	0.4885	0.4877	0.127
Mof_H 	H 	0.9373	0.3681	0.4418	0.224
Mof_H 	H 	0.9315	0.3234	0.413	0.213
Mof_H 	H 	0.9352	0.3987	0.3725	0.213
Mof_H 	H 	0.6404	0.4282	0.5951	0.248
Mof_H 	H 	0.7117	0.3791	0.6125	0.251
Mof_H 	H 	0.6851	0.4617	0.5969	0.244
Mof_H 	H 	0.8961	0.1839	0.6254	0.126
Mof_H 	H 	0.9246	0.3445	0.6257	0.114
Mof_H 	H 	0.845	0.2509	0.5039	0.242
Mof_H 	H 	0.7713	0.2753	0.5528	0.257
Mof_H 	H 	0.8281	0.1992	0.5711	0.242
Mof_H 	H 	0.8954	0.4625	0.5096	0.212
Mof_H 	H 	0.8526	0.4658	0.5783	0.212
Mof_H 	H 	0.8133	0.4808	0.5333	0.218
Mof_H 	H 	0.3786	0.8231	0.3497	0.111
Mof_H 	H 	0.3824	0.6414	0.4877	0.127
Mof_H 	H 	0.2528	0.9373	0.4418	0.225
Mof_H 	H 	0.3321	0.9315	0.413	0.213
Mof_H 	H 	0.2936	0.9352	0.3725	0.214
Mof_H 	H 	0.3363	0.6404	0.5951	0.248
Mof_H 	H 	0.2967	0.7117	0.6125	0.251
Mof_H 	H 	0.2563	0.6851	0.5969	0.244
Mof_H 	H 	0.2946	0.8961	0.6254	0.126
Mof_H 	H 	0.1052	0.9246	0.6257	0.115
Mof_H 	H 	0.4002	0.845	0.5039	0.242
Mof_H 	H 	0.4006	0.7713	0.5528	0.257
Mof_H 	H 	0.4016	0.8281	0.5711	0.241
Mof_H 	H 	0.1325	0.8954	0.5096	0.214
Mof_H 	H 	0.1033	0.8526	0.5783	0.213
Mof_H 	H 	0.1726	0.8133	0.5333	0.219
Mof_H 	H 	0.4486	0.3786	0.3497	0.11
Mof_H 	H 	0.4885	0.3824	0.4877	0.127
Mof_H 	H 	0.3681	0.2528	0.4418	0.223
Mof_H 	H 	0.3234	0.3321	0.413	0.212
Mof_H 	H 	0.3987	0.2936	0.3725	0.212
Mof_H 	H 	0.4282	0.3363	0.5951	0.248
Mof_H 	H 	0.3791	0.2967	0.6125	0.251
Mof_H 	H 	0.4617	0.2563	0.5969	0.244
Mof_H 	H 	0.1839	0.2946	0.6254	0.125
Mof_H 	H 	0.3445	0.1052	0.6257	0.113
Mof_H 	H 	0.2509	0.4002	0.5039	0.241
Mof_H 	H 	0.2753	0.4006	0.5528	0.256
Mof_H 	H 	0.1992	0.4016	0.5711	0.24
Mof_H 	H 	0.4625	0.1325	0.5096	0.212
Mof_H 	H 	0.4658	0.1033	0.5783	0.211
Mof_H 	H 	0.4808	0.1726	0.5333	0.218
Mof_C 	C 	0.18454	0.94074	0.86698	0.305
Mof_C 	C 	0.22545	0.88905	0.91255	0.059
Mof_C 	C 	0.2992	0.8658	0.892	-0.248
Mof_C 	C 	0.33665	0.82295	0.93595	0.251
Mof_C 	C 	0.3022	0.8028	0.9982	-0.167
Mof_C 	C 	0.22768	0.82388	0.01896	0.276
Mof_C 	C 	0.19058	0.86748	0.97486	-0.262
Mof_C 	C 	0.41776	0.79796	0.91372	-0.699
Mof_C 	C 	0.1876	0.8012	0.087	-0.771
Mof_C 	C 	0.4557	0.6577	0.1812	0.267
Mof_C 	C 	0.41449	0.69569	0.13383	0.087
Mof_C 	C 	0.38841	0.76831	0.11127	-0.286
Mof_C 	C 	0.35136	0.80286	0.06882	0.296
Mof_C 	C 	0.34177	0.76477	0.04599	-0.177
Mof_C 	C 	0.36969	0.69029	0.06633	0.246
Mof_C 	C 	0.40633	0.65453	0.11121	-0.25
Mof_C 	C 	0.32121	0.88381	0.04707	-0.784
Mof_C 	C 	0.35657	0.64547	0.04479	-0.696
Mof_C 	C 	0.94074	0.00774	0.86698	0.314
Mof_C 	C 	0.88905	0.97295	0.91255	0.039
Mof_C 	C 	0.8658	0.943	0.892	-0.233
Mof_C 	C 	0.82295	0.90445	0.93595	0.235
Mof_C 	C 	0.8028	0.8968	0.9982	-0.146
Mof_C 	C 	0.82388	0.92948	0.01896	0.248
Mof_C 	C 	0.86748	0.96708	0.97486	-0.238
Mof_C 	C 	0.79796	0.87056	0.91372	-0.682
Mof_C 	C 	0.8012	0.9242	0.087	-0.738
Mof_C 	C 	0.6577	0.7054	0.1812	0.267
Mof_C 	C 	0.69569	0.75599	0.13383	0.088
Mof_C 	C 	0.76831	0.73201	0.11127	-0.288
Mof_C 	C 	0.80286	0.77696	0.06882	0.298
Mof_C 	C 	0.76477	0.84747	0.04599	-0.186
Mof_C 	C 	0.69029	0.87369	0.06633	0.249
Mof_C 	C 	0.65453	0.82793	0.11121	-0.253
Mof_C 	C 	0.88381	0.74791	0.04707	-0.78
Mof_C 	C 	0.64547	0.95317	0.04479	-0.698
Mof_C 	C 	0.00774	0.18454	0.86698	0.297
Mof_C 	C 	0.97295	0.22545	0.91255	0.068
Mof_C 	C 	0.943	0.2992	0.892	-0.253
Mof_C 	C 	0.90445	0.33665	0.93595	0.254
Mof_C 	C 	0.8968	0.3022	0.9982	-0.168
Mof_C 	C 	0.92948	0.22768	0.01896	0.277
Mof_C 	C 	0.96708	0.19058	0.97486	-0.266
Mof_C 	C 	0.87056	0.41776	0.91372	-0.702
Mof_C 	C 	0.9242	0.1876	0.087	-0.773
Mof_C 	C 	0.7054	0.4557	0.1812	0.267
Mof_C 	C 	0.75599	0.41449	0.13383	0.086
Mof_C 	C 	0.73201	0.38841	0.11127	-0.285
Mof_C 	C 	0.77696	0.35136	0.06882	0.294
Mof_C 	C 	0.84747	0.34177	0.04599	-0.177
Mof_C 	C 	0.87369	0.36969	0.06633	0.246
Mof_C 	C 	0.82793	0.40633	0.11121	-0.25
Mof_C 	C 	0.74791	0.32121	0.04707	-0.78
Mof_C 	C 	0.95317	0.35657	0.04479	-0.698
Mof_C 	C 	0.68454	0.50774	0.36698	0.305
Mof_C 	C 	0.72545	0.47295	0.41255	0.058
Mof_C 	C 	0.7992	0.443	0.392	-0.248
Mof_C 	C 	0.83665	0.40445	0.43595	0.251
Mof_C 	C 	0.8022	0.3968	0.4982	-0.167
Mof_C 	C 	0.72768	0.42948	0.51896	0.276
Mof_C 	C 	0.69058	0.46708	0.47486	-0.263
Mof_C 	C 	0.91776	0.37056	0.41372	-0.699
Mof_C 	C 	0.6876	0.4242	0.587	-0.769
Mof_C 	C 	0.9557	0.2054	0.6812	0.267
Mof_C 	C 	0.91449	0.25599	0.63383	0.088
Mof_C 	C 	0.88841	0.23201	0.61127	-0.286
Mof_C 	C 	0.85136	0.27696	0.56882	0.296
Mof_C 	C 	0.84177	0.34747	0.54599	-0.177
Mof_C 	C 	0.86969	0.37369	0.56633	0.246
Mof_C 	C 	0.90633	0.32793	0.61121	-0.251
Mof_C 	C 	0.82121	0.24791	0.54707	-0.782
Mof_C 	C 	0.85657	0.45317	0.54479	-0.697
Mof_C 	C 	0.44074	0.68454	0.36698	0.305
Mof_C 	C 	0.38905	0.72545	0.41255	0.058
Mof_C 	C 	0.3658	0.7992	0.392	-0.249
Mof_C 	C 	0.32295	0.83665	0.43595	0.251
Mof_C 	C 	0.3028	0.8022	0.4982	-0.168
Mof_C 	C 	0.32388	0.72768	0.51896	0.276
Mof_C 	C 	0.36748	0.69058	0.47486	-0.263
Mof_C 	C 	0.29796	0.91776	0.41372	-0.7
Mof_C 	C 	0.3012	0.6876	0.587	-0.769
Mof_C 	C 	0.1577	0.9557	0.6812	0.267
Mof_C 	C 	0.19569	0.91449	0.63383	0.088
Mof_C 	C 	0.26831	0.88841	0.61127	-0.286
Mof_C 	C 	0.30286	0.85136	0.56882	0.296
Mof_C 	C 	0.26477	0.84177	0.54599	-0.177
Mof_C 	C 	0.19029	0.86969	0.56633	0.247
Mof_C 	C 	0.15453	0.90633	0.61121	-0.251
Mof_C 	C 	0.38381	0.82121	0.54707	-0.782
Mof_C 	C 	0.14547	0.85657	0.54479	-0.7
Mof_C 	C 	0.50774	0.44074	0.36698	0.305
Mof_C 	C 	0.47295	0.38905	0.41255	0.058
Mof_C 	C 	0.443	0.3658	0.392	-0.248
Mof_C 	C 	0.40445	0.32295	0.43595	0.25
Mof_C 	C 	0.3968	0.3028	0.4982	-0.167
Mof_C 	C 	0.42948	0.32388	0.51896	0.276
Mof_C 	C 	0.46708	0.36748	0.47486	-0.262
Mof_C 	C 	0.37056	0.29796	0.41372	-0.697
Mof_C 	C 	0.4242	0.3012	0.587	-0.769
Mof_C 	C 	0.2054	0.1577	0.6812	0.267
Mof_C 	C 	0.25599	0.19569	0.63383	0.086
Mof_C 	C 	0.23201	0.26831	0.61127	-0.285
Mof_C 	C 	0.27696	0.30286	0.56882	0.294
Mof_C 	C 	0.34747	0.26477	0.54599	-0.176
Mof_C 	C 	0.37369	0.19029	0.56633	0.245
Mof_C 	C 	0.32793	0.15453	0.61121	-0.25
Mof_C 	C 	0.24791	0.38381	0.54707	-0.78
Mof_C 	C 	0.45317	0.14547	0.54479	-0.696
Mof_O 	O 	0.21695	0.96281	0.81046	-0.485
Mof_O 	O 	0.11711	0.96109	0.88939	-0.5
Mof_O 	O 	0.48431	0.58951	0.19407	-0.492
Mof_O 	O 	0.46457	0.70037	0.19599	-0.5
Mof_O 	O 	0.96281	0.00978	0.81046	-0.487
Mof_O 	O 	0.96109	0.03241	0.88939	-0.502
Mof_O 	O 	0.58951	0.73211	0.19407	-0.492
Mof_O 	O 	0.70037	0.63907	0.19599	-0.5
Mof_O 	O 	0.00978	0.21695	0.81046	-0.489
Mof_O 	O 	0.03241	0.11711	0.88939	-0.506
Mof_O 	O 	0.73211	0.48431	0.19407	-0.492
Mof_O 	O 	0.63907	0.46457	0.19599	-0.5
Mof_O 	O 	0.71695	0.50978	0.31046	-0.489
Mof_O 	O 	0.61711	0.53241	0.38939	-0.504
Mof_O 	O 	0.98431	0.23211	0.69407	-0.489
Mof_O 	O 	0.96457	0.13907	0.69599	-0.497
Mof_O 	O 	0.46281	0.71695	0.31046	-0.488
Mof_O 	O 	0.46109	0.61711	0.38939	-0.504
Mof_O 	O 	0.08951	0.98431	0.69407	-0.489
Mof_O 	O 	0.20037	0.96457	0.69599	-0.497
Mof_O 	O 	0.50978	0.46281	0.31046	-0.489
Mof_O 	O 	0.53241	0.46109	0.38939	-0.504
Mof_O 	O 	0.23211	0.08951	0.69407	-0.494
Mof_O 	O 	0.13907	0.20037	0.69599	-0.501
Mof_O 	O 	0.07841	0.07841	0.76477	-0.974
Mof_O 	O 	0.57841	0.57841	0.26477	-0.97
Mof_Zn	Zn	0.31972	0.44468	0.76286	1.207
Mof_Zn	Zn	0.47274	0.31972	0.76286	1.207
Mof_Zn	Zn	0.44468	0.47274	0.76286	1.207
Mof_Zn	Zn	0.81972	0.97274	0.26286	1.205
Mof_Zn	Zn	0.97274	0.94468	0.26286	1.204
Mof_Zn	Zn	0.94468	0.81972	0.26286	1.206
Mof_Zn	Zn	0.45147	0.45147	0.64559	1.208
Mof_Zn	Zn	0.95147	0.95147	0.14559	1.205
Mof_H 	H 	0.1769	0.5514	0.6503	0.11
Mof_H 	H 	0.3586	0.5115	0.5123	0.127
Mof_H 	H 	0.0627	0.6319	0.5582	0.224
Mof_H 	H 	0.0685	0.6766	0.587	0.213
Mof_H 	H 	0.0648	0.6013	0.6275	0.213
Mof_H 	H 	0.3596	0.5718	0.4049	0.248
Mof_H 	H 	0.2883	0.6209	0.3875	0.251
Mof_H 	H 	0.3149	0.5383	0.4031	0.244
Mof_H 	H 	0.1039	0.8161	0.3746	0.126
Mof_H 	H 	0.0754	0.6555	0.3743	0.114
Mof_H 	H 	0.155	0.7491	0.4961	0.242
Mof_H 	H 	0.2287	0.7247	0.4472	0.257
Mof_H 	H 	0.1719	0.8008	0.4289	0.242
Mof_H 	H 	0.1046	0.5375	0.4904	0.212
Mof_H 	H 	0.1474	0.5342	0.4217	0.212
Mof_H 	H 	0.1867	0.5192	0.4667	0.218
Mof_H 	H 	0.6214	0.1769	0.6503	0.111
Mof_H 	H 	0.6176	0.3586	0.5123	0.127
Mof_H 	H 	0.7472	0.0627	0.5582	0.225
Mof_H 	H 	0.6679	0.0685	0.587	0.213
Mof_H 	H 	0.7064	0.0648	0.6275	0.214
Mof_H 	H 	0.6637	0.3596	0.4049	0.248
Mof_H 	H 	0.7033	0.2883	0.3875	0.251
Mof_H 	H 	0.7437	0.3149	0.4031	0.244
Mof_H 	H 	0.7054	0.1039	0.3746	0.126
Mof_H 	H 	0.8948	0.0754	0.3743	0.115
Mof_H 	H 	0.5998	0.155	0.4961	0.242
Mof_H 	H 	0.5994	0.2287	0.4472	0.257
Mof_H 	H 	0.5984	0.1719	0.4289	0.241
Mof_H 	H 	0.8675	0.1046	0.4904	0.214
Mof_H 	H 	0.8967	0.1474	0.4217	0.213
Mof_H 	H 	0.8274	0.1867	0.4667	0.219
Mof_H 	H 	0.5514	0.6214	0.6503	0.11
Mof_H 	H 	0.5115	0.6176	0.5123	0.127
Mof_H 	H 	0.6319	0.7472	0.5582	0.223
Mof_H 	H 	0.6766	0.6679	0.587	0.212
Mof_H 	H 	0.6013	0.7064	0.6275	0.212
Mof_H 	H 	0.5718	0.6637	0.4049	0.248
Mof_H 	H 	0.6209	0.7033	0.3875	0.251
Mof_H 	H 	0.5383	0.7437	0.4031	0.244
Mof_H 	H 	0.8161	0.7054	0.3746	0.125
Mof_H 	H 	0.6555	0.8948	0.3743	0.113
Mof_H 	H 	0.7491	0.5998	0.4961	0.241
Mof_H 	H 	0.7247	0.5994	0.4472	0.256
Mof_H 	H 	0.8008	0.5984	0.4289	0.24
Mof_H 	H 	0.5375	0.8675	0.4904	0.212
Mof_H 	H 	0.5342	0.8967	0.4217	0.211
Mof_H 	H 	0.5192	0.8274	0.4667	0.218
Mof_H 	H 	0.6769	0.1214	0.1503	0.111
Mof_H 	H 	0.8586	0.1176	0.0123	0.128
Mof_H 	H 	0.5627	0.2472	0.0582	0.224
Mof_H 	H 	0.5685	0.1679	0.087	0.213
Mof_H 	H 	0.5648	0.2064	0.1275	0.213
Mof_H 	H 	0.8596	0.1637	0.9049	0.249
Mof_H 	H 	0.7883	0.2033	0.8875	0.252
Mof_H 	H 	0.8149	0.2437	0.9031	0.245
Mof_H 	H 	0.6039	0.2054	0.8746	0.126
Mof_H 	H 	0.5754	0.3948	0.8743	0.114
Mof_H 	H 	0.655	0.0998	0.9961	0.243
Mof_H 	H 	0.7287	0.0994	0.9472	0.258
Mof_H 	H 	0.6719	0.0984	0.9289	0.242
Mof_H 	H 	0.6046	0.3675	0.9904	0.212
Mof_H 	H 	0.6474	0.3967	0.9217	0.211
Mof_H 	H 	0.6867	0.3274	0.9667	0.218
Mof_H 	H 	0.1214	0.0514	0.1503	0.104
Mof_H 	H 	0.1176	0.0115	0.0123	0.118
Mof_H 	H 	0.2472	0.1319	0.0582	0.22
Mof_H 	H 	0.1679	0.1766	0.087	0.208
Mof_H 	H 	0.2064	0.1013	0.1275	0.208
Mof_H 	H 	0.1637	0.0718	0.9049	0.237
Mof_H 	H 	0.2033	0.1209	0.8875	0.242
Mof_H 	H 	0.2437	0.0383	0.9031	0.234
Mof_H 	H 	0.2054	0.3161	0.8746	0.126
Mof_H 	H 	0.3948	0.1555	0.8743	0.114
Mof_H 	H 	0.0998	0.2491	0.9961	0.239
Mof_H 	H 	0.0994	0.2247	0.9472	0.255
Mof_H 	H 	0.0984	0.3008	0.9289	0.24
Mof_H 	H 	0.3675	0.0375	0.9904	0.211
Mof_H 	H 	0.3967	0.0342	0.9217	0.211
Mof_H 	H 	0.3274	0.0192	0.9667	0.217
Mof_H 	H 	0.0514	0.6769	0.1503	0.113
Mof_H 	H 	0.0115	0.8586	0.0123	0.131
Mof_H 	H 	0.1319	0.5627	0.0582	0.225
Mof_H 	H 	0.1766	0.5685	0.087	0.213
Mof_H 	H 	0.1013	0.5648	0.1275	0.214
Mof_H 	H 	0.0718	0.8596	0.9049	0.249
Mof_H 	H 	0.1209	0.7883	0.8875	0.252
Mof_H 	H 	0.0383	0.8149	0.9031	0.246
Mof_H 	H 	0.3161	0.6039	0.8746	0.125
Mof_H 	H 	0.1555	0.5754	0.8743	0.114
Mof_H 	H 	0.2491	0.655	0.9961	0.241
Mof_H 	H 	0.2247	0.7287	0.9472	0.256
Mof_H 	H 	0.3008	0.6719	0.9289	0.24
Mof_H 	H 	0.0375	0.6046	0.9904	0.212
Mof_H 	H 	0.0342	0.6474	0.9217	0.212
Mof_H 	H 	0.0192	0.6867	0.9667	0.219
Mof_C 	C 	0.31546	0.49226	0.63302	0.305
Mof_C 	C 	0.27455	0.52705	0.58745	0.058
Mof_C 	C 	0.2008	0.557	0.608	-0.248
Mof_C 	C 	0.16335	0.59555	0.56405	0.251
Mof_C 	C 	0.1978	0.6032	0.5018	-0.167
Mof_C 	C 	0.27232	0.57052	0.48104	0.276
Mof_C 	C 	0.30942	0.53292	0.52514	-0.263
Mof_C 	C 	0.08224	0.62944	0.58628	-0.699
Mof_C 	C 	0.3124	0.5758	0.413	-0.769
Mof_C 	C 	0.0443	0.7946	0.3188	0.267
Mof_C 	C 	0.08551	0.74401	0.36617	0.088
Mof_C 	C 	0.11159	0.76799	0.38873	-0.286
Mof_C 	C 	0.14864	0.72304	0.43118	0.296
Mof_C 	C 	0.15823	0.65253	0.45401	-0.177
Mof_C 	C 	0.13031	0.62631	0.43367	0.246
Mof_C 	C 	0.09367	0.67207	0.38879	-0.251
Mof_C 	C 	0.17879	0.75209	0.45293	-0.782
Mof_C 	C 	0.14343	0.54683	0.45521	-0.697
Mof_C 	C 	0.55926	0.31546	0.63302	0.305
Mof_C 	C 	0.61095	0.27455	0.58745	0.058
Mof_C 	C 	0.6342	0.2008	0.608	-0.249
Mof_C 	C 	0.67705	0.16335	0.56405	0.251
Mof_C 	C 	0.6972	0.1978	0.5018	-0.168
Mof_C 	C 	0.67612	0.27232	0.48104	0.276
Mof_C 	C 	0.63252	0.30942	0.52514	-0.263
Mof_C 	C 	0.70204	0.08224	0.58628	-0.7
Mof_C 	C 	0.6988	0.3124	0.413	-0.769
Mof_C 	C 	0.8423	0.0443	0.3188	0.267
Mof_C 	C 	0.80431	0.08551	0.36617	0.088
Mof_C 	C 	0.73169	0.11159	0.38873	-0.286
Mof_C 	C 	0.69714	0.14864	0.43118	0.296
Mof_C 	C 	0.73523	0.15823	0.45401	-0.177
Mof_C 	C 	0.80971	0.13031	0.43367	0.247
Mof_C 	C 	0.84547	0.09367	0.38879	-0.251
Mof_C 	C 	0.61619	0.17879	0.45293	-0.782
Mof_C 	C 	0.85453	0.14343	0.45521	-0.7
Mof_C 	C 	0.49226	0.55926	0.63302	0.305
Mof_C 	C 	0.52705	0.61095	0.58745	0.058
Mof_C 	C 	0.557	0.6342	0.608	-0.248
Mof_C 	C 	0.59555	0.67705	0.56405	0.25
Mof_C 	C 	0.6032	0.6972	0.5018	-0.167
Mof_C 	C 	0.57052	0.67612	0.48104	0.276
Mof_C 	C 	0.53292	0.63252	0.52514	-0.262
Mof_C 	C 	0.62944	0.70204	0.58628	-0.697
Mof_C 	C 	0.5758	0.6988	0.413	-0.769
Mof_C 	C 	0.7946	0.8423	0.3188	0.267
Mof_C 	C 	0.74401	0.80431	0.36617	0.086
Mof_C 	C 	0.76799	0.73169	0.38873	-0.285
Mof_C 	C 	0.72304	0.69714	0.43118	0.294
Mof_C 	C 	0.65253	0.73523	0.45401	-0.176
Mof_C 	C 	0.62631	0.80971	0.43367	0.245
Mof_C 	C 	0.67207	0.84547	0.38879	-0.25
Mof_C 	C 	0.75209	0.61619	0.45293	-0.78
Mof_C 	C 	0.54683	0.85453	0.45521	-0.696
Mof_C 	C 	0.81546	0.05926	0.13302	0.305
Mof_C 	C 	0.77455	0.11095	0.08745	0.059
Mof_C 	C 	0.7008	0.1342	0.108	-0.248
Mof_C 	C 	0.66335	0.17705	0.06405	0.251
Mof_C 	C 	0.6978	0.1972	0.0018	-0.167
Mof_C 	C 	0.77232	0.17612	0.98104	0.276
Mof_C 	C 	0.80942	0.13252	0.02514	-0.262
Mof_C 	C 	0.58224	0.20204	0.08628	-0.699
Mof_C 	C 	0.8124	0.1988	0.913	-0.771
Mof_C 	C 	0.5443	0.3423	0.8188	0.267
Mof_C 	C 	0.58551	0.30431	0.86617	0.087
Mof_C 	C 	0.61159	0.23169	0.88873	-0.286
Mof_C 	C 	0.64864	0.19714	0.93118	0.296
Mof_C 	C 	0.65823	0.23523	0.95401	-0.177
Mof_C 	C 	0.63031	0.30971	0.93367	0.246
Mof_C 	C 	0.59367	0.34547	0.88879	-0.25
Mof_C 	C 	0.67879	0.11619	0.95293	-0.784
Mof_C 	C 	0.64343	0.35453	0.95521	-0.696
Mof_C 	C 	0.05926	0.99226	0.13302	0.314
Mof_C 	C 	0.11095	0.02705	0.08745	0.039
Mof_C 	C 	0.1342	0.057	0.108	-0.233
Mof_C 	C 	0.17705	0.09555	0.06405	0.235
Mof_C 	C 	0.1972	0.1032	0.0018	-0.146
Mof_C 	C 	0.17612	0.07052	0.98104	0.248
Mof_C 	C 	0.13252	0.03292	0.02514	-0.238
Mof_C 	C 	0.20204	0.12944	0.08628	-0.682
Mof_C 	C 	0.1988	0.0758	0.913	-0.738
Mof_C 	C 	0.3423	0.2946	0.8188	0.267
Mof_C 	C 	0.30431	0.24401	0.86617	0.088
Mof_C 	C 	0.23169	0.26799	0.88873	-0.288
Mof_C 	C 	0.19714	0.22304	0.93118	0.298
Mof_C 	C 	0.23523	0.15253	0.95401	-0.186
Mof_C 	C 	0.30971	0.12631	0.93367	0.249
Mof_C 	C 	0.34547	0.17207	0.88879	-0.253
Mof_C 	C 	0.11619	0.25209	0.95293	-0.78
Mof_C 	C 	0.35453	0.04683	0.95521	-0.698
Mof_C 	C 	0.99226	0.81546	0.13302	0.297
Mof_C 	C 	0.02705	0.77455	0.08745	0.068
Mof_C 	C 	0.057	0.7008	0.108	-0.253
Mof_C 	C 	0.09555	0.66335	0.06405	0.254
Mof_C 	C 	0.1032	0.6978	0.0018	-0.168
Mof_C 	C 	0.07052	0.77232	0.98104	0.277
Mof_C 	C 	0.03292	0.80942	0.02514	-0.266
Mof_C 	C 	0.12944	0.58224	0.08628	-0.702
Mof_C 	C 	0.0758	0.8124	0.913	-0.773
Mof_C 	C 	0.2946	0.5443	0.8188	0.267
Mof_C 	C 	0.24401	0.58551	0.86617	0.086
Mof_C 	C 	0.26799	0.61159	0.88873	-0.285
Mof_C 	C 	0.22304	0.64864	0.93118	0.294
Mof_C 	C 	0.15253	0.65823	0.95401	-0.177
Mof_C 	C 	0.12631	0.63031	0.93367	0.246
Mof_C 	C 	0.17207	0.59367	0.88879	-0.25
Mof_C 	C 	0.25209	0.67879	0.95293	-0.78
Mof_C 	C 	0.04683	0.64343	0.95521	-0.698
Mof_O 	O 	0.28305	0.49022	0.68954	-0.489
Mof_O 	O 	0.38289	0.46759	0.61061	-0.504
Mof_O 	O 	0.01569	0.76789	0.30593	-0.489
Mof_O 	O 	0.03543	0.86093	0.30401	-0.497
Mof_O 	O 	0.53719	0.28305	0.68954	-0.488
Mof_O 	O 	0.53891	0.38289	0.61061	-0.504
Mof_O 	O 	0.91049	0.01569	0.30593	-0.489
Mof_O 	O 	0.79963	0.03543	0.30401	-0.497
Mof_O 	O 	0.49022	0.53719	0.68954	-0.489
Mof_O 	O 	0.46759	0.53891	0.61061	-0.504
Mof_O 	O 	0.76789	0.91049	0.30593	-0.494
Mof_O 	O 	0.86093	0.79963	0.30401	-0.501
Mof_O 	O 	0.78305	0.03719	0.18954	-0.485
Mof_O 	O 	0.88289	0.03891	0.11061	-0.5
Mof_O 	O 	0.51569	0.41049	0.80593	-0.492
Mof_O 	O 	0.53543	0.29963	0.80401	-0.5
Mof_O 	O 	0.03719	0.99022	0.18954	-0.487
Mof_O 	O 	0.03891	0.96759	0.11061	-0.502
Mof_O 	O 	0.41049	0.26789	0.80593	-0.492
Mof_O 	O 	0.29963	0.36093	0.80401	-0.5
Mof_O 	O 	0.99022	0.78305	0.18954	-0.489
Mof_O 	O 	0.96759	0.88289	0.11061	-0.506
Mof_O 	O 	0.26789	0.51569	0.80593	-0.492
Mof_O 	O 	0.36093	0.53543	0.80401	-0.5
Mof_O 	O 	0.42159	0.42159	0.73523	-0.97
Mof_O 	O 	0.92159	0.92159	0.23523	-0.974
_end
