# CIF file generated by openbabel 3.1.0, see https://openbabel.org
data_I
_chemical_name_common 'image0'
_cell_length_a 8.814
_cell_length_b 8.814
_cell_length_c 20.567
_cell_angle_alpha 90
_cell_angle_beta 90
_cell_angle_gamma 120
_space_group_name_H-M_alt 'P 1'
_space_group_name_Hall 'P 1'
loop_
    _symmetry_equiv_pos_as_xyz
    x,y,z
loop_
    _atom_site_label
    _atom_site_type_symbol
    _atom_site_fract_x
    _atom_site_fract_y
    _atom_site_fract_z
    _atom_site_occupancy
    Cd1      Cd       0.00000    0.00000    0.00000    1.000
    Cd2      Cd       0.00000    0.00000    0.50000    1.000
    Cd3      Cd       0.33333    0.66667    0.11370    1.000
    C1       C        0.33333    0.66667    0.22200    1.000
    Cd4      Cd       0.66667    0.33333    0.61370    1.000
    C2       C        0.66667    0.33333    0.72200    1.000
    Cd5      Cd       0.66667    0.33333    0.88630    1.000
    C3       C        0.66667    0.33333    0.77800    1.000
    Cd6      Cd       0.33333    0.66667    0.38630    1.000
    C4       C        0.33333    0.66667    0.27800    1.000
    N1       N        0.12600    0.25200    0.06150    1.000
    C5       C        0.19400    0.38800    0.07980    1.000
    N2       N        0.74800    0.87400    0.06150    1.000
    C6       C        0.61200    0.80600    0.07980    1.000
    N3       N        0.12600    0.87400    0.06150    1.000
    C7       C        0.19400    0.80600    0.07980    1.000
    N4       N        0.87400    0.74800    0.56150    1.000
    C8       C        0.80600    0.61200    0.57980    1.000
    N5       N        0.25200    0.12600    0.56150    1.000
    C9       C        0.38800    0.19400    0.57980    1.000
    N6       N        0.87400    0.12600    0.56150    1.000
    C10      C        0.80600    0.19400    0.57980    1.000
    N7       N        0.25200    0.12600    0.93850    1.000
    C11      C        0.38800    0.19400    0.92020    1.000
    N8       N        0.87400    0.74800    0.93850    1.000
    C12      C        0.80600    0.61200    0.92020    1.000
    N9       N        0.87400    0.12600    0.93850    1.000
    C13      C        0.80600    0.19400    0.92020    1.000
    N10      N        0.74800    0.87400    0.43850    1.000
    C14      C        0.61200    0.80600    0.42020    1.000
    N11      N        0.12600    0.25200    0.43850    1.000
    C15      C        0.19400    0.38800    0.42020    1.000
    N12      N        0.12600    0.87400    0.43850    1.000
    C16      C        0.19400    0.80600    0.42020    1.000
