# CIF file generated by openbabel 3.1.0, see https://openbabel.org
data_I
_chemical_name_common 'IKOSOQ_clean'
_cell_length_a 15.778
_cell_length_b 19.446
_cell_length_c 25.677
_cell_angle_alpha 90
_cell_angle_beta 90
_cell_angle_gamma 90
_space_group_name_H-M_alt 'P 1'
_space_group_name_Hall 'P 1'
loop_
    _symmetry_equiv_pos_as_xyz
    x,y,z
loop_
    _atom_site_label
    _atom_site_type_symbol
    _atom_site_fract_x
    _atom_site_fract_y
    _atom_site_fract_z
    _atom_site_occupancy
    Cu1      Cu       0.49064    0.75597    0.99637    1.000
    Cu2      Cu       0.99064    0.74403    0.50363    1.000
    Cu3      Cu       0.00936    0.24403    0.99637    1.000
    Cu4      Cu       0.50936    0.25597    0.50363    1.000
    H1       H        0.81740    0.90450    0.24760    1.000
    H2       H        0.84230    0.96700    0.20100    1.000
    H3       H        0.75490    0.89440    0.03600    1.000
    H4       H        0.65570    0.82800    0.98270    1.000
    H5       H        0.49750    0.79630    0.11090    1.000
    H6       H        0.59640    0.85630    0.16800    1.000
    H7       H        0.79290    0.07780    0.31130    1.000
    H8       H        0.87070    0.05050    0.26710    1.000
    H9       H        0.81200    0.90070    0.39290    1.000
    H10      H        0.84220    0.81060    0.45600    1.000
    H11      H        0.10110    0.84600    0.44500    1.000
    H12      H        0.07810    0.93920    0.38470    1.000
    H13      H        0.64180    0.06810    0.77340    1.000
    H14      H        0.71720    0.07320    0.82340    1.000
    H15      H        0.47660    0.00800    0.94170    1.000
    H16      H        0.43800    0.90800    0.99540    1.000
    H17      H        0.55270    0.77450    0.88970    1.000
    H18      H        0.59780    0.87090    0.83600    1.000
    H19      H        0.65050    0.97160    0.70990    1.000
    H20      H        0.67780    0.90730    0.75480    1.000
    H21      H        0.89860    0.90830    0.64830    1.000
    H22      H        0.99430    0.86460    0.58240    1.000
    H23      H        0.81500    0.72310    0.53480    1.000
    H24      H        0.71680    0.75950    0.60220    1.000
    H25      H        0.31740    0.59550    0.25240    1.000
    H26      H        0.34230    0.53300    0.29900    1.000
    H27      H        0.25490    0.60560    0.46400    1.000
    H28      H        0.15570    0.67200    0.51730    1.000
    H29      H        0.99750    0.70370    0.38910    1.000
    H30      H        0.09640    0.64370    0.33200    1.000
    H31      H        0.29290    0.42220    0.18870    1.000
    H32      H        0.37070    0.44950    0.23290    1.000
    H33      H        0.31200    0.59930    0.10710    1.000
    H34      H        0.34220    0.68940    0.04400    1.000
    H35      H        0.60110    0.65400    0.05500    1.000
    H36      H        0.57810    0.56080    0.11530    1.000
    H37      H        0.14180    0.43190    0.72660    1.000
    H38      H        0.21720    0.42680    0.67660    1.000
    H39      H        0.97660    0.49200    0.55830    1.000
    H40      H        0.93800    0.59200    0.50460    1.000
    H41      H        0.05270    0.72550    0.61030    1.000
    H42      H        0.09780    0.62910    0.66400    1.000
    H43      H        0.15050    0.52840    0.79010    1.000
    H44      H        0.17780    0.59270    0.74520    1.000
    H45      H        0.39860    0.59170    0.85170    1.000
    H46      H        0.49430    0.63540    0.91760    1.000
    H47      H        0.31500    0.77690    0.96520    1.000
    H48      H        0.21680    0.74050    0.89780    1.000
    H49      H        0.68260    0.09550    0.24760    1.000
    H50      H        0.65770    0.03300    0.20100    1.000
    H51      H        0.74510    0.10560    0.03600    1.000
    H52      H        0.84430    0.17200    0.98270    1.000
    H53      H        0.00250    0.20370    0.11090    1.000
    H54      H        0.90360    0.14370    0.16800    1.000
    H55      H        0.70710    0.92220    0.31130    1.000
    H56      H        0.62930    0.94950    0.26710    1.000
    H57      H        0.68800    0.09930    0.39290    1.000
    H58      H        0.65780    0.18940    0.45600    1.000
    H59      H        0.39890    0.15400    0.44500    1.000
    H60      H        0.42190    0.06080    0.38470    1.000
    H61      H        0.85820    0.93190    0.77340    1.000
    H62      H        0.78280    0.92680    0.82340    1.000
    H63      H        0.02340    0.99200    0.94170    1.000
    H64      H        0.06200    0.09200    0.99540    1.000
    H65      H        0.94730    0.22550    0.88970    1.000
    H66      H        0.90220    0.12910    0.83600    1.000
    H67      H        0.84950    0.02840    0.70990    1.000
    H68      H        0.82220    0.09270    0.75480    1.000
    H69      H        0.60140    0.09170    0.64830    1.000
    H70      H        0.50570    0.13540    0.58240    1.000
    H71      H        0.68500    0.27690    0.53480    1.000
    H72      H        0.78320    0.24050    0.60220    1.000
    H73      H        0.18260    0.40450    0.25240    1.000
    H74      H        0.15770    0.46700    0.29900    1.000
    H75      H        0.24510    0.39440    0.46400    1.000
    H76      H        0.34430    0.32800    0.51730    1.000
    H77      H        0.50250    0.29630    0.38910    1.000
    H78      H        0.40360    0.35630    0.33200    1.000
    H79      H        0.20710    0.57780    0.18870    1.000
    H80      H        0.12930    0.55050    0.23290    1.000
    H81      H        0.18800    0.40070    0.10710    1.000
    H82      H        0.15780    0.31060    0.04400    1.000
    H83      H        0.89890    0.34600    0.05500    1.000
    H84      H        0.92190    0.43920    0.11530    1.000
    H85      H        0.35820    0.56810    0.72660    1.000
    H86      H        0.28280    0.57320    0.67660    1.000
    H87      H        0.52340    0.50800    0.55830    1.000
    H88      H        0.56200    0.40800    0.50460    1.000
    H89      H        0.44730    0.27450    0.61030    1.000
    H90      H        0.40220    0.37090    0.66400    1.000
    H91      H        0.34950    0.47160    0.79010    1.000
    H92      H        0.32220    0.40730    0.74520    1.000
    H93      H        0.10140    0.40830    0.85170    1.000
    H94      H        0.00570    0.36460    0.91760    1.000
    H95      H        0.18500    0.22310    0.96520    1.000
    H96      H        0.28320    0.25950    0.89780    1.000
    C1       C        0.79130    0.94470    0.22330    1.000
    C2       C        0.75030    0.91190    0.13820    1.000
    C3       C        0.68360    0.87800    0.10700    1.000
    C4       C        0.69950    0.87130    0.05340    1.000
    C5       C        0.64310    0.83480    0.02370    1.000
    C6       C        0.55560    0.81640    0.09480    1.000
    C7       C        0.61070    0.85080    0.12710    1.000
    C8       C        0.81850    0.03370    0.29110    1.000
    C9       C        0.92750    0.98230    0.34310    1.000
    C10      C        0.94320    0.92610    0.38210    1.000
    C11      C        0.87670    0.88940    0.40380    1.000
    C12      C        0.89410    0.83900    0.43890    1.000
    C13      C        0.03710    0.85840    0.43350    1.000
    C14      C        0.02460    0.91020    0.39910    1.000
    C15      C        0.68500    0.03860    0.79710    1.000
    C16      C        0.58040    0.00620    0.85700    1.000
    C17      C        0.54620    0.94690    0.88690    1.000
    C18      C        0.49710    0.95700    0.93080    1.000
    C19      C        0.47480    0.90070    0.96030    1.000
    C20      C        0.53900    0.82640    0.90200    1.000
    C21      C        0.56390    0.88030    0.87190    1.000
    C22      C        0.70270    0.94750    0.73010    1.000
    C23      C        0.73400    0.86590    0.66640    1.000
    C24      C        0.79870    0.83910    0.62900    1.000
    C25      C        0.87850    0.86670    0.62340    1.000
    C26      C        0.93230    0.84160    0.58640    1.000
    C27      C        0.83380    0.76370    0.56100    1.000
    C28      C        0.77720    0.78500    0.59780    1.000
    C29      C        0.29130    0.55530    0.27670    1.000
    C30      C        0.25030    0.58810    0.36180    1.000
    C31      C        0.18360    0.62200    0.39300    1.000
    C32      C        0.19950    0.62870    0.44660    1.000
    C33      C        0.14310    0.66520    0.47630    1.000
    C34      C        0.05560    0.68360    0.40520    1.000
    C35      C        0.11070    0.64920    0.37290    1.000
    C36      C        0.31850    0.46630    0.20890    1.000
    C37      C        0.42750    0.51770    0.15690    1.000
    C38      C        0.44320    0.57390    0.11790    1.000
    C39      C        0.37670    0.61060    0.09620    1.000
    C40      C        0.39410    0.66100    0.06110    1.000
    C41      C        0.53710    0.64160    0.06650    1.000
    C42      C        0.52460    0.58980    0.10090    1.000
    C43      C        0.18500    0.46140    0.70290    1.000
    C44      C        0.08040    0.49380    0.64300    1.000
    C45      C        0.04620    0.55310    0.61310    1.000
    C46      C        0.99710    0.54300    0.56920    1.000
    C47      C        0.97480    0.59930    0.53970    1.000
    C48      C        0.03900    0.67360    0.59800    1.000
    C49      C        0.06390    0.61970    0.62810    1.000
    C50      C        0.20270    0.55250    0.76990    1.000
    C51      C        0.23400    0.63410    0.83360    1.000
    C52      C        0.29870    0.66090    0.87100    1.000
    C53      C        0.37850    0.63330    0.87660    1.000
    C54      C        0.43230    0.65840    0.91360    1.000
    C55      C        0.33380    0.73630    0.93900    1.000
    C56      C        0.27720    0.71500    0.90220    1.000
    C57      C        0.70870    0.05530    0.22330    1.000
    C58      C        0.74970    0.08810    0.13820    1.000
    C59      C        0.81640    0.12200    0.10700    1.000
    C60      C        0.80050    0.12870    0.05340    1.000
    C61      C        0.85690    0.16520    0.02370    1.000
    C62      C        0.94440    0.18360    0.09480    1.000
    C63      C        0.88930    0.14920    0.12710    1.000
    C64      C        0.68150    0.96630    0.29110    1.000
    C65      C        0.57250    0.01770    0.34310    1.000
    C66      C        0.55680    0.07390    0.38210    1.000
    C67      C        0.62330    0.11060    0.40380    1.000
    C68      C        0.60590    0.16100    0.43890    1.000
    C69      C        0.46290    0.14160    0.43350    1.000
    C70      C        0.47540    0.08980    0.39910    1.000
    C71      C        0.81500    0.96140    0.79710    1.000
    C72      C        0.91960    0.99380    0.85700    1.000
    C73      C        0.95380    0.05310    0.88690    1.000
    C74      C        0.00290    0.04300    0.93080    1.000
    C75      C        0.02520    0.09930    0.96030    1.000
    C76      C        0.96100    0.17360    0.90200    1.000
    C77      C        0.93610    0.11970    0.87190    1.000
    C78      C        0.79730    0.05250    0.73010    1.000
    C79      C        0.76600    0.13410    0.66640    1.000
    C80      C        0.70130    0.16090    0.62900    1.000
    C81      C        0.62150    0.13330    0.62340    1.000
    C82      C        0.56770    0.15840    0.58640    1.000
    C83      C        0.66620    0.23630    0.56100    1.000
    C84      C        0.72280    0.21500    0.59780    1.000
    C85      C        0.20870    0.44470    0.27670    1.000
    C86      C        0.24970    0.41190    0.36180    1.000
    C87      C        0.31640    0.37800    0.39300    1.000
    C88      C        0.30050    0.37130    0.44660    1.000
    C89      C        0.35690    0.33480    0.47630    1.000
    C90      C        0.44440    0.31640    0.40520    1.000
    C91      C        0.38930    0.35080    0.37290    1.000
    C92      C        0.18150    0.53370    0.20890    1.000
    C93      C        0.07250    0.48230    0.15690    1.000
    C94      C        0.05680    0.42610    0.11790    1.000
    C95      C        0.12330    0.38940    0.09620    1.000
    C96      C        0.10590    0.33900    0.06110    1.000
    C97      C        0.96290    0.35840    0.06650    1.000
    C98      C        0.97540    0.41020    0.10090    1.000
    C99      C        0.31500    0.53860    0.70290    1.000
    C100     C        0.41960    0.50620    0.64300    1.000
    C101     C        0.45380    0.44690    0.61310    1.000
    C102     C        0.50290    0.45700    0.56920    1.000
    C103     C        0.52520    0.40070    0.53970    1.000
    C104     C        0.46100    0.32640    0.59800    1.000
    C105     C        0.43610    0.38030    0.62810    1.000
    C106     C        0.29730    0.44750    0.76990    1.000
    C107     C        0.26600    0.36590    0.83360    1.000
    C108     C        0.20130    0.33910    0.87100    1.000
    C109     C        0.12150    0.36670    0.87660    1.000
    C110     C        0.06770    0.34160    0.91360    1.000
    C111     C        0.16620    0.26370    0.93900    1.000
    C112     C        0.22280    0.28500    0.90220    1.000
    C113     C        0.75000    0.00000    0.25760    1.000
    C114     C        0.75000    0.00000    0.76240    1.000
    C115     C        0.25000    0.50000    0.24240    1.000
    C116     C        0.25000    0.50000    0.73760    1.000
    N1       N        0.57120    0.80690    0.04460    1.000
    N2       N        0.97500    0.82320    0.45320    1.000
    N3       N        0.49810    0.83710    0.94640    1.000
    N4       N        0.91150    0.79060    0.55570    1.000
    N5       N        0.07120    0.69310    0.45540    1.000
    N6       N        0.47500    0.67680    0.04680    1.000
    N7       N        0.99810    0.66290    0.55360    1.000
    N8       N        0.41150    0.70940    0.94430    1.000
    N9       N        0.92880    0.19310    0.04460    1.000
    N10      N        0.52500    0.17680    0.45320    1.000
    N11      N        0.00190    0.16290    0.94640    1.000
    N12      N        0.58850    0.20940    0.55570    1.000
    N13      N        0.42880    0.30690    0.45540    1.000
    N14      N        0.02500    0.32320    0.04680    1.000
    N15      N        0.50190    0.33710    0.55360    1.000
    N16      N        0.08850    0.29060    0.94430    1.000
    O1       O        0.72860    0.91620    0.18880    1.000
    O2       O        0.81550    0.93270    0.12220    1.000
    O3       O        0.84700    0.98270    0.32810    1.000
    O4       O        0.98140    0.01890    0.32660    1.000
    O5       O        0.64000    0.98700    0.82570    1.000
    O6       O        0.55890    0.06390    0.86330    1.000
    O7       O        0.76240    0.91920    0.69310    1.000
    O8       O        0.66540    0.83970    0.67060    1.000
    O9       O        0.22860    0.58380    0.31120    1.000
    O10      O        0.31550    0.56730    0.37780    1.000
    O11      O        0.34700    0.51730    0.17190    1.000
    O12      O        0.48140    0.48110    0.17340    1.000
    O13      O        0.14000    0.51300    0.67430    1.000
    O14      O        0.05890    0.43610    0.63670    1.000
    O15      O        0.26240    0.58080    0.80690    1.000
    O16      O        0.16540    0.66030    0.82940    1.000
    O17      O        0.77140    0.08380    0.18880    1.000
    O18      O        0.68450    0.06730    0.12220    1.000
    O19      O        0.65300    0.01730    0.32810    1.000
    O20      O        0.51860    0.98110    0.32660    1.000
    O21      O        0.86000    0.01300    0.82570    1.000
    O22      O        0.94110    0.93610    0.86330    1.000
    O23      O        0.73760    0.08080    0.69310    1.000
    O24      O        0.83460    0.16030    0.67060    1.000
    O25      O        0.27140    0.41620    0.31120    1.000
    O26      O        0.18450    0.43270    0.37780    1.000
    O27      O        0.15300    0.48270    0.17190    1.000
    O28      O        0.01860    0.51890    0.17340    1.000
    O29      O        0.36000    0.48700    0.67430    1.000
    O30      O        0.44110    0.56390    0.63670    1.000
    O31      O        0.23760    0.41920    0.80690    1.000
    O32      O        0.33460    0.33970    0.82940    1.000
    Cu5      Cu       0.50936    0.24403    0.00363    1.000
    Cu6      Cu       0.00936    0.25597    0.49637    1.000
    Cu7      Cu       0.99064    0.75597    0.00363    1.000
    Cu8      Cu       0.49064    0.74403    0.49637    1.000
    H97      H        0.18260    0.09550    0.75240    1.000
    H98      H        0.15770    0.03300    0.79900    1.000
    H99      H        0.24510    0.10560    0.96400    1.000
    H100     H        0.34430    0.17200    0.01730    1.000
    H101     H        0.50250    0.20370    0.88910    1.000
    H102     H        0.40360    0.14370    0.83200    1.000
    H103     H        0.20710    0.92220    0.68870    1.000
    H104     H        0.12930    0.94950    0.73290    1.000
    H105     H        0.18800    0.09930    0.60710    1.000
    H106     H        0.15780    0.18940    0.54400    1.000
    H107     H        0.89890    0.15400    0.55500    1.000
    H108     H        0.92190    0.06080    0.61530    1.000
    H109     H        0.35820    0.93190    0.22660    1.000
    H110     H        0.28280    0.92680    0.17660    1.000
    H111     H        0.52340    0.99200    0.05830    1.000
    H112     H        0.56200    0.09200    0.00460    1.000
    H113     H        0.44730    0.22550    0.11030    1.000
    H114     H        0.40220    0.12910    0.16400    1.000
    H115     H        0.34950    0.02840    0.29010    1.000
    H116     H        0.32220    0.09270    0.24520    1.000
    H117     H        0.10140    0.09170    0.35170    1.000
    H118     H        0.00570    0.13540    0.41760    1.000
    H119     H        0.18500    0.27690    0.46520    1.000
    H120     H        0.28320    0.24050    0.39780    1.000
    H121     H        0.68260    0.40450    0.74760    1.000
    H122     H        0.65770    0.46700    0.70100    1.000
    H123     H        0.74510    0.39440    0.53600    1.000
    H124     H        0.84430    0.32800    0.48270    1.000
    H125     H        0.00250    0.29630    0.61090    1.000
    H126     H        0.90360    0.35630    0.66800    1.000
    H127     H        0.70710    0.57780    0.81130    1.000
    H128     H        0.62930    0.55050    0.76710    1.000
    H129     H        0.68800    0.40070    0.89290    1.000
    H130     H        0.65780    0.31060    0.95600    1.000
    H131     H        0.39890    0.34600    0.94500    1.000
    H132     H        0.42190    0.43920    0.88470    1.000
    H133     H        0.85820    0.56810    0.27340    1.000
    H134     H        0.78280    0.57320    0.32340    1.000
    H135     H        0.02340    0.50800    0.44170    1.000
    H136     H        0.06200    0.40800    0.49540    1.000
    H137     H        0.94730    0.27450    0.38970    1.000
    H138     H        0.90220    0.37090    0.33600    1.000
    H139     H        0.84950    0.47160    0.20990    1.000
    H140     H        0.82220    0.40730    0.25480    1.000
    H141     H        0.60140    0.40830    0.14830    1.000
    H142     H        0.50570    0.36460    0.08240    1.000
    H143     H        0.68500    0.22310    0.03480    1.000
    H144     H        0.78320    0.25950    0.10220    1.000
    H145     H        0.31740    0.90450    0.75240    1.000
    H146     H        0.34230    0.96700    0.79900    1.000
    H147     H        0.25490    0.89440    0.96400    1.000
    H148     H        0.15570    0.82800    0.01730    1.000
    H149     H        0.99750    0.79630    0.88910    1.000
    H150     H        0.09640    0.85630    0.83200    1.000
    H151     H        0.29290    0.07780    0.68870    1.000
    H152     H        0.37070    0.05050    0.73290    1.000
    H153     H        0.31200    0.90070    0.60710    1.000
    H154     H        0.34220    0.81060    0.54400    1.000
    H155     H        0.60110    0.84600    0.55500    1.000
    H156     H        0.57810    0.93920    0.61530    1.000
    H157     H        0.14180    0.06810    0.22660    1.000
    H158     H        0.21720    0.07320    0.17660    1.000
    H159     H        0.97660    0.00800    0.05830    1.000
    H160     H        0.93800    0.90800    0.00460    1.000
    H161     H        0.05270    0.77450    0.11030    1.000
    H162     H        0.09780    0.87090    0.16400    1.000
    H163     H        0.15050    0.97160    0.29010    1.000
    H164     H        0.17780    0.90730    0.24520    1.000
    H165     H        0.39860    0.90830    0.35170    1.000
    H166     H        0.49430    0.86460    0.41760    1.000
    H167     H        0.31500    0.72310    0.46520    1.000
    H168     H        0.21680    0.75950    0.39780    1.000
    H169     H        0.81740    0.59550    0.74760    1.000
    H170     H        0.84230    0.53300    0.70100    1.000
    H171     H        0.75490    0.60560    0.53600    1.000
    H172     H        0.65570    0.67200    0.48270    1.000
    H173     H        0.49750    0.70370    0.61090    1.000
    H174     H        0.59640    0.64370    0.66800    1.000
    H175     H        0.79290    0.42220    0.81130    1.000
    H176     H        0.87070    0.44950    0.76710    1.000
    H177     H        0.81200    0.59930    0.89290    1.000
    H178     H        0.84220    0.68940    0.95600    1.000
    H179     H        0.10110    0.65400    0.94500    1.000
    H180     H        0.07810    0.56080    0.88470    1.000
    H181     H        0.64180    0.43190    0.27340    1.000
    H182     H        0.71720    0.42680    0.32340    1.000
    H183     H        0.47660    0.49200    0.44170    1.000
    H184     H        0.43800    0.59200    0.49540    1.000
    H185     H        0.55270    0.72550    0.38970    1.000
    H186     H        0.59780    0.62910    0.33600    1.000
    H187     H        0.65050    0.52840    0.20990    1.000
    H188     H        0.67780    0.59270    0.25480    1.000
    H189     H        0.89860    0.59170    0.14830    1.000
    H190     H        0.99430    0.63540    0.08240    1.000
    H191     H        0.81500    0.77690    0.03480    1.000
    H192     H        0.71680    0.74050    0.10220    1.000
    C117     C        0.20870    0.05530    0.77670    1.000
    C118     C        0.24970    0.08810    0.86180    1.000
    C119     C        0.31640    0.12200    0.89300    1.000
    C120     C        0.30050    0.12870    0.94660    1.000
    C121     C        0.35690    0.16520    0.97630    1.000
    C122     C        0.44440    0.18360    0.90520    1.000
    C123     C        0.38930    0.14920    0.87290    1.000
    C124     C        0.18150    0.96630    0.70890    1.000
    C125     C        0.07250    0.01770    0.65690    1.000
    C126     C        0.05680    0.07390    0.61790    1.000
    C127     C        0.12330    0.11060    0.59620    1.000
    C128     C        0.10590    0.16100    0.56110    1.000
    C129     C        0.96290    0.14160    0.56650    1.000
    C130     C        0.97540    0.08980    0.60090    1.000
    C131     C        0.31500    0.96140    0.20290    1.000
    C132     C        0.41960    0.99380    0.14300    1.000
    C133     C        0.45380    0.05310    0.11310    1.000
    C134     C        0.50290    0.04300    0.06920    1.000
    C135     C        0.52520    0.09930    0.03970    1.000
    C136     C        0.46100    0.17360    0.09800    1.000
    C137     C        0.43610    0.11970    0.12810    1.000
    C138     C        0.29730    0.05250    0.26990    1.000
    C139     C        0.26600    0.13410    0.33360    1.000
    C140     C        0.20130    0.16090    0.37100    1.000
    C141     C        0.12150    0.13330    0.37660    1.000
    C142     C        0.06770    0.15840    0.41360    1.000
    C143     C        0.16620    0.23630    0.43900    1.000
    C144     C        0.22280    0.21500    0.40220    1.000
    C145     C        0.70870    0.44470    0.72330    1.000
    C146     C        0.74970    0.41190    0.63820    1.000
    C147     C        0.81640    0.37800    0.60700    1.000
    C148     C        0.80050    0.37130    0.55340    1.000
    C149     C        0.85690    0.33480    0.52370    1.000
    C150     C        0.94440    0.31640    0.59480    1.000
    C151     C        0.88930    0.35080    0.62710    1.000
    C152     C        0.68150    0.53370    0.79110    1.000
    C153     C        0.57250    0.48230    0.84310    1.000
    C154     C        0.55680    0.42610    0.88210    1.000
    C155     C        0.62330    0.38940    0.90380    1.000
    C156     C        0.60590    0.33900    0.93890    1.000
    C157     C        0.46290    0.35840    0.93350    1.000
    C158     C        0.47540    0.41020    0.89910    1.000
    C159     C        0.81500    0.53860    0.29710    1.000
    C160     C        0.91960    0.50620    0.35700    1.000
    C161     C        0.95380    0.44690    0.38690    1.000
    C162     C        0.00290    0.45700    0.43080    1.000
    C163     C        0.02520    0.40070    0.46030    1.000
    C164     C        0.96100    0.32640    0.40200    1.000
    C165     C        0.93610    0.38030    0.37190    1.000
    C166     C        0.79730    0.44750    0.23010    1.000
    C167     C        0.76600    0.36590    0.16640    1.000
    C168     C        0.70130    0.33910    0.12900    1.000
    C169     C        0.62150    0.36670    0.12340    1.000
    C170     C        0.56770    0.34160    0.08640    1.000
    C171     C        0.66620    0.26370    0.06100    1.000
    C172     C        0.72280    0.28500    0.09780    1.000
    C173     C        0.29130    0.94470    0.77670    1.000
    C174     C        0.25030    0.91190    0.86180    1.000
    C175     C        0.18360    0.87800    0.89300    1.000
    C176     C        0.19950    0.87130    0.94660    1.000
    C177     C        0.14310    0.83480    0.97630    1.000
    C178     C        0.05560    0.81640    0.90520    1.000
    C179     C        0.11070    0.85080    0.87290    1.000
    C180     C        0.31850    0.03370    0.70890    1.000
    C181     C        0.42750    0.98230    0.65690    1.000
    C182     C        0.44320    0.92610    0.61790    1.000
    C183     C        0.37670    0.88940    0.59620    1.000
    C184     C        0.39410    0.83900    0.56110    1.000
    C185     C        0.53710    0.85840    0.56650    1.000
    C186     C        0.52460    0.91020    0.60090    1.000
    C187     C        0.18500    0.03860    0.20290    1.000
    C188     C        0.08040    0.00620    0.14300    1.000
    C189     C        0.04620    0.94690    0.11310    1.000
    C190     C        0.99710    0.95700    0.06920    1.000
    C191     C        0.97480    0.90070    0.03970    1.000
    C192     C        0.03900    0.82640    0.09800    1.000
    C193     C        0.06390    0.88030    0.12810    1.000
    C194     C        0.20270    0.94750    0.26990    1.000
    C195     C        0.23400    0.86590    0.33360    1.000
    C196     C        0.29870    0.83910    0.37100    1.000
    C197     C        0.37850    0.86670    0.37660    1.000
    C198     C        0.43230    0.84160    0.41360    1.000
    C199     C        0.33380    0.76370    0.43900    1.000
    C200     C        0.27720    0.78500    0.40220    1.000
    C201     C        0.79130    0.55530    0.72330    1.000
    C202     C        0.75030    0.58810    0.63820    1.000
    C203     C        0.68360    0.62200    0.60700    1.000
    C204     C        0.69950    0.62870    0.55340    1.000
    C205     C        0.64310    0.66520    0.52370    1.000
    C206     C        0.55560    0.68360    0.59480    1.000
    C207     C        0.61070    0.64920    0.62710    1.000
    C208     C        0.81850    0.46630    0.79110    1.000
    C209     C        0.92750    0.51770    0.84310    1.000
    C210     C        0.94320    0.57390    0.88210    1.000
    C211     C        0.87670    0.61060    0.90380    1.000
    C212     C        0.89410    0.66100    0.93890    1.000
    C213     C        0.03710    0.64160    0.93350    1.000
    C214     C        0.02460    0.58980    0.89910    1.000
    C215     C        0.68500    0.46140    0.29710    1.000
    C216     C        0.58040    0.49380    0.35700    1.000
    C217     C        0.54620    0.55310    0.38690    1.000
    C218     C        0.49710    0.54300    0.43080    1.000
    C219     C        0.47480    0.59930    0.46030    1.000
    C220     C        0.53900    0.67360    0.40200    1.000
    C221     C        0.56390    0.61970    0.37190    1.000
    C222     C        0.70270    0.55250    0.23010    1.000
    C223     C        0.73400    0.63410    0.16640    1.000
    C224     C        0.79870    0.66090    0.12900    1.000
    C225     C        0.87850    0.63330    0.12340    1.000
    C226     C        0.93230    0.65840    0.08640    1.000
    C227     C        0.83380    0.73630    0.06100    1.000
    C228     C        0.77720    0.71500    0.09780    1.000
    C229     C        0.25000    0.00000    0.74240    1.000
    C230     C        0.25000    0.00000    0.23760    1.000
    C231     C        0.75000    0.50000    0.75760    1.000
    C232     C        0.75000    0.50000    0.26240    1.000
    N17      N        0.42880    0.19310    0.95540    1.000
    N18      N        0.02500    0.17680    0.54680    1.000
    N19      N        0.50190    0.16290    0.05360    1.000
    N20      N        0.08850    0.20940    0.44430    1.000
    N21      N        0.92880    0.30690    0.54460    1.000
    N22      N        0.52500    0.32320    0.95320    1.000
    N23      N        0.00190    0.33710    0.44640    1.000
    N24      N        0.58850    0.29060    0.05570    1.000
    N25      N        0.07120    0.80690    0.95540    1.000
    N26      N        0.47500    0.82320    0.54680    1.000
    N27      N        0.99810    0.83710    0.05360    1.000
    N28      N        0.41150    0.79060    0.44430    1.000
    N29      N        0.57120    0.69310    0.54460    1.000
    N30      N        0.97500    0.67680    0.95320    1.000
    N31      N        0.49810    0.66290    0.44640    1.000
    N32      N        0.91150    0.70940    0.05570    1.000
    O33      O        0.27140    0.08380    0.81120    1.000
    O34      O        0.18450    0.06730    0.87780    1.000
    O35      O        0.15300    0.01730    0.67190    1.000
    O36      O        0.01860    0.98110    0.67340    1.000
    O37      O        0.36000    0.01300    0.17430    1.000
    O38      O        0.44110    0.93610    0.13670    1.000
    O39      O        0.23760    0.08080    0.30690    1.000
    O40      O        0.33460    0.16030    0.32940    1.000
    O41      O        0.77140    0.41620    0.68880    1.000
    O42      O        0.68450    0.43270    0.62220    1.000
    O43      O        0.65300    0.48270    0.82810    1.000
    O44      O        0.51860    0.51890    0.82660    1.000
    O45      O        0.86000    0.48700    0.32570    1.000
    O46      O        0.94110    0.56390    0.36330    1.000
    O47      O        0.73760    0.41920    0.19310    1.000
    O48      O        0.83460    0.33970    0.17060    1.000
    O49      O        0.22860    0.91620    0.81120    1.000
    O50      O        0.31550    0.93270    0.87780    1.000
    O51      O        0.34700    0.98270    0.67190    1.000
    O52      O        0.48140    0.01890    0.67340    1.000
    O53      O        0.14000    0.98700    0.17430    1.000
    O54      O        0.05890    0.06390    0.13670    1.000
    O55      O        0.26240    0.91920    0.30690    1.000
    O56      O        0.16540    0.83970    0.32940    1.000
    O57      O        0.72860    0.58380    0.68880    1.000
    O58      O        0.81550    0.56730    0.62220    1.000
    O59      O        0.84700    0.51730    0.82810    1.000
    O60      O        0.98140    0.48110    0.82660    1.000
    O61      O        0.64000    0.51300    0.32570    1.000
    O62      O        0.55890    0.43610    0.36330    1.000
    O63      O        0.76240    0.58080    0.19310    1.000
    O64      O        0.66540    0.66030    0.17060    1.000
