data_functionalizedCrystal
_audit_creation_method	'EQeq! by Chris Wilmer'
_symmetry_space_group_name_H-M	'P1'
_symmetry_Int_Tables_number	1
_symmetry_cell_setting	triclinic
loop_
_symmetry_equiv_pos_as_xyz
  x,y,z
_cell_length_a	15.169
_cell_length_b	19.067
_cell_length_c	24.303
_cell_angle_alpha	90
_cell_angle_beta	92.657
_cell_angle_gamma	90
loop_
_atom_site_label
_atom_site_type_symbol
_atom_site_fract_x
_atom_site_fract_y
_atom_site_fract_z
_atom_site_charge
Mof_Yb	Yb	0.78518	0.52518	0.06471	1.877
Mof_Yb	Yb	0.28518	0.97482	0.56471	1.86
Mof_Ni	Ni	0.76757	0.48739	0.56339	1.065
Mof_Ni	Ni	0.26757	0.01261	0.06339	1.067
Mof_H 	H 	0.8196	0.3948	0.6647	-0.023
Mof_H 	H 	0.8408	0.4	0.7581	0.12
Mof_H 	H 	0.7731	0.6041	0.7502	0.123
Mof_H 	H 	0.7491	0.5915	0.6573	-0.016
Mof_H 	H 	0.9474	0.4738	0.8288	-0.014
Mof_H 	H 	0.9697	0.4861	0.9212	0.171
Mof_H 	H 	0.7236	0.5625	0.929	0.155
Mof_H 	H 	0.7023	0.5472	0.8373	-0.029
Mof_H 	H 	0.4478	0.9591	0.1034	-0.026
Mof_H 	H 	0.5401	0.865	0.0964	0.129
Mof_H 	H 	0.3543	0.7698	0.0003	0.137
Mof_H 	H 	0.2645	0.8667	0.0114	-0.022
Mof_H 	H 	0.5493	0.7373	0.1189	-0.014
Mof_H 	H 	0.6346	0.6419	0.1103	0.154
Mof_H 	H 	0.5666	0.6376	0.9481	0.171
Mof_H 	H 	0.4759	0.7304	0.9597	-0.021
Mof_H 	H 	0.8816	0.4856	0.4654	-0.024
Mof_H 	H 	0.8748	0.4979	0.3712	0.116
Mof_H 	H 	0.61	0.4969	0.3751	0.113
Mof_H 	H 	0.6242	0.4832	0.4693	-0.023
Mof_H 	H 	0.6319	0.5809	0.3007	-0.027
Mof_H 	H 	0.6134	0.5869	0.208	0.159
Mof_H 	H 	0.8052	0.4444	0.1942	0.156
Mof_H 	H 	0.8136	0.4331	0.2869	-0.012
Mof_H 	H 	0.2496	0.1608	0.0162	-0.021
Mof_H 	H 	0.1633	0.2596	0.0212	0.134
Mof_H 	H 	0.0249	0.1618	0.1358	0.117
Mof_H 	H 	0.108	0.0626	0.1217	-0.021
Mof_H 	H 	0.027	0.311	0.0089	-0.011
Mof_H 	H 	0.9452	0.4084	0.0186	0.157
Mof_H 	H 	0.9676	0.3838	0.1833	0.186
Mof_H 	H 	0.0499	0.2863	0.1709	-0.018
Mof_H 	H 	0.3196	0.1052	0.1647	-0.019
Mof_H 	H 	0.3408	0.1	0.2581	0.116
Mof_H 	H 	0.2731	0.8959	0.2502	0.12
Mof_H 	H 	0.2491	0.9085	0.1573	-0.011
Mof_H 	H 	0.4474	0.0262	0.3288	-0.012
Mof_H 	H 	0.4697	0.0139	0.4212	0.171
Mof_H 	H 	0.2236	0.9375	0.429	0.154
Mof_H 	H 	0.2023	0.9528	0.3373	-0.027
Mof_H 	H 	0.9478	0.5409	0.6034	-0.024
Mof_H 	H 	0.0401	0.635	0.5964	0.129
Mof_H 	H 	0.8543	0.7302	0.5003	0.137
Mof_H 	H 	0.7645	0.6333	0.5114	-0.021
Mof_H 	H 	0.0493	0.7627	0.6189	-0.014
Mof_H 	H 	0.1346	0.8581	0.6103	0.154
Mof_H 	H 	0.0666	0.8624	0.4481	0.169
Mof_H 	H 	0.9759	0.7696	0.4597	-0.02
Mof_H 	H 	0.3816	0.0144	0.9654	-0.017
Mof_H 	H 	0.3748	0.0021	0.8712	0.109
Mof_H 	H 	0.11	0.0031	0.8751	0.106
Mof_H 	H 	0.1242	0.0168	0.9693	-0.015
Mof_H 	H 	0.1319	0.9191	0.8007	-0.026
Mof_H 	H 	0.1134	0.9131	0.708	0.156
Mof_H 	H 	0.3052	0.0556	0.6942	0.153
Mof_H 	H 	0.3136	0.0669	0.7869	-0.011
Mof_H 	H 	0.7496	0.3392	0.5162	-0.021
Mof_H 	H 	0.6633	0.2404	0.5212	0.134
Mof_H 	H 	0.5249	0.3382	0.6358	0.117
Mof_H 	H 	0.608	0.4374	0.6217	-0.023
Mof_H 	H 	0.527	0.189	0.5089	-0.011
Mof_H 	H 	0.4452	0.0916	0.5186	0.158
Mof_H 	H 	0.4676	0.1162	0.6833	0.186
Mof_H 	H 	0.5499	0.2137	0.6709	-0.018
Mof_C 	C 	0.8095	0.4377	0.6824	0.134
Mof_C 	C 	0.8225	0.4399	0.738	-0.223
Mof_C 	C 	0.8081	0.5032	0.7641	0.202
Mof_C 	C 	0.7819	0.5604	0.7334	-0.219
Mof_C 	C 	0.7691	0.5525	0.678	0.135
Mof_C 	C 	0.9016	0.4916	0.8495	0.198
Mof_C 	C 	0.9153	0.5	0.9046	-0.336
Mof_C 	C 	0.8511	0.5288	0.9381	0.421
Mof_C 	C 	0.7703	0.5446	0.9091	-0.339
Mof_C 	C 	0.7571	0.5352	0.8544	0.197
Mof_C 	C 	0.4285	0.9201	0.0825	0.147
Mof_C 	C 	0.484	0.8645	0.0783	-0.234
Mof_C 	C 	0.457	0.808	0.0473	0.215
Mof_C 	C 	0.3744	0.8082	0.0218	-0.23
Mof_C 	C 	0.3214	0.8662	0.0284	0.137
Mof_C 	C 	0.5542	0.7168	0.084	0.206
Mof_C 	C 	0.6048	0.6606	0.0788	-0.338
Mof_C 	C 	0.615	0.628	0.0268	0.431
Mof_C 	C 	0.5639	0.6577	0.9833	-0.35
Mof_C 	C 	0.5112	0.7134	0.9897	0.214
Mof_C 	C 	0.8262	0.4891	0.4467	0.127
Mof_C 	C 	0.8229	0.4969	0.3909	-0.219
Mof_C 	C 	0.7407	0.5032	0.3642	0.194
Mof_C 	C 	0.6662	0.4961	0.3932	-0.219
Mof_C 	C 	0.6752	0.4878	0.449	0.13
Mof_C 	C 	0.6669	0.5525	0.2788	0.19
Mof_C 	C 	0.6566	0.5565	0.2234	-0.329
Mof_C 	C 	0.7079	0.5171	0.1875	0.404
Mof_C 	C 	0.768	0.472	0.2152	-0.329
Mof_C 	C 	0.7749	0.4665	0.2708	0.189
Mof_C 	C 	0.2024	0.1607	0.04	0.138
Mof_C 	C 	0.1525	0.2202	0.0432	-0.226
Mof_C 	C 	0.0857	0.2205	0.0799	0.2
Mof_C 	C 	0.0695	0.1621	0.1103	-0.225
Mof_C 	C 	0.1207	0.1038	0.1024	0.126
Mof_C 	C 	0.0147	0.3266	0.0444	0.201
Mof_C 	C 	0.9653	0.3838	0.0503	-0.347
Mof_C 	C 	0.942	0.4087	0.1026	0.435
Mof_C 	C 	0.9785	0.3694	0.1472	-0.359
Mof_C 	C 	0.0285	0.3117	0.1399	0.214
Mof_C 	C 	0.5994	0.5855	0.5584	0.1
Mof_C 	C 	0.9395	0.3952	0.5792	0.099
Mof_C 	C 	0.3095	0.0623	0.1824	0.127
Mof_C 	C 	0.3225	0.0601	0.238	-0.206
Mof_C 	C 	0.3081	0.9968	0.2641	0.188
Mof_C 	C 	0.2819	0.9396	0.2334	-0.208
Mof_C 	C 	0.2691	0.9475	0.178	0.121
Mof_C 	C 	0.4016	0.0084	0.3495	0.201
Mof_C 	C 	0.4153	0	0.4046	-0.323
Mof_C 	C 	0.3511	0.9712	0.4381	0.409
Mof_C 	C 	0.2703	0.9554	0.4091	-0.335
Mof_C 	C 	0.2571	0.9648	0.3544	0.193
Mof_C 	C 	0.9285	0.5799	0.5825	0.147
Mof_C 	C 	0.984	0.6355	0.5783	-0.234
Mof_C 	C 	0.957	0.692	0.5473	0.215
Mof_C 	C 	0.8744	0.6918	0.5218	-0.23
Mof_C 	C 	0.8214	0.6338	0.5284	0.137
Mof_C 	C 	0.0542	0.7832	0.584	0.205
Mof_C 	C 	0.1048	0.8394	0.5788	-0.337
Mof_C 	C 	0.115	0.872	0.5268	0.428
Mof_C 	C 	0.0639	0.8423	0.4833	-0.348
Mof_C 	C 	0.0112	0.7866	0.4897	0.213
Mof_C 	C 	0.3262	0.0109	0.9467	0.113
Mof_C 	C 	0.3229	0.0031	0.8909	-0.188
Mof_C 	C 	0.2407	0.9968	0.8642	0.159
Mof_C 	C 	0.1662	0.0039	0.8932	-0.187
Mof_C 	C 	0.1752	0.0122	0.949	0.116
Mof_C 	C 	0.1669	0.9475	0.7788	0.182
Mof_C 	C 	0.1566	0.9435	0.7234	-0.323
Mof_C 	C 	0.2079	0.9829	0.6875	0.389
Mof_C 	C 	0.268	0.028	0.7152	-0.314
Mof_C 	C 	0.2749	0.0335	0.7708	0.192
Mof_C 	C 	0.7024	0.3393	0.54	0.139
Mof_C 	C 	0.6525	0.2798	0.5432	-0.227
Mof_C 	C 	0.5857	0.2795	0.5799	0.201
Mof_C 	C 	0.5695	0.3379	0.6103	-0.226
Mof_C 	C 	0.6207	0.3962	0.6024	0.126
Mof_C 	C 	0.5147	0.1734	0.5444	0.201
Mof_C 	C 	0.4653	0.1162	0.5503	-0.346
Mof_C 	C 	0.442	0.0913	0.6026	0.434
Mof_C 	C 	0.4785	0.1306	0.6472	-0.358
Mof_C 	C 	0.5285	0.1883	0.6399	0.214
Mof_C 	C 	0.0994	0.9145	0.0584	0.099
Mof_C 	C 	0.4395	0.1048	0.0792	0.101
Mof_S 	S 	0.5131	0.6379	0.5501	-0.025
Mof_S 	S 	0.0258	0.3561	0.608	-0.039
Mof_S 	S 	0.0131	0.8621	0.0501	-0.027
Mof_S 	S 	0.5258	0.1439	0.108	-0.039
Mof_N 	N 	0.7832	0.4924	0.651	-0.253
Mof_N 	N 	0.8223	0.5085	0.8233	-0.2
Mof_N 	N 	0.3482	0.9216	0.0582	-0.259
Mof_N 	N 	0.5093	0.7454	0.0399	-0.205
Mof_N 	N 	0.7539	0.4861	0.4758	-0.254
Mof_N 	N 	0.7273	0.5078	0.3039	-0.197
Mof_N 	N 	0.188	0.103	0.0685	-0.258
Mof_N 	N 	0.0481	0.2901	0.0897	-0.206
Mof_N 	N 	0.6596	0.5499	0.5655	-0.256
Mof_N 	N 	0.8786	0.4235	0.5617	-0.25
Mof_N 	N 	0.6879	0.4027	0.0453	0.058
Mof_N 	N 	0.8875	0.6495	0.0826	0.064
Mof_N 	N 	0.2832	0.0076	0.151	-0.246
Mof_N 	N 	0.3223	0.9915	0.3233	-0.201
Mof_N 	N 	0.8482	0.5784	0.5582	-0.257
Mof_N 	N 	0.0093	0.7546	0.5399	-0.205
Mof_N 	N 	0.2539	0.0139	0.9758	-0.246
Mof_N 	N 	0.2273	0.9922	0.8039	-0.196
Mof_N 	N 	0.688	0.397	0.5685	-0.258
Mof_N 	N 	0.5481	0.2099	0.5897	-0.206
Mof_N 	N 	0.1596	0.9501	0.0655	-0.258
Mof_N 	N 	0.3786	0.0765	0.0617	-0.25
Mof_N 	N 	0.1879	0.0973	0.5453	0.057
Mof_N 	N 	0.3875	0.8505	0.5826	0.064
Mof_O 	O 	0.8633	0.5363	0.9901	-0.492
Mof_O 	O 	0.6634	0.5741	0.0222	-0.465
Mof_O 	O 	0.6985	0.5216	0.1344	-0.469
Mof_O 	O 	0.8939	0.4619	0.1082	-0.491
Mof_O 	O 	0.6757	0.4379	0.0874	-0.219
Mof_O 	O 	0.7345	0.4281	0.0086	-0.272
Mof_O 	O 	0.6482	0.3467	0.0374	-0.121
Mof_O 	O 	0.9101	0.5911	0.1031	-0.265
Mof_O 	O 	0.8126	0.6519	0.058	-0.27
Mof_O 	O 	0.9331	0.7019	0.0882	-0.117
Mof_O 	O 	0.3633	0.9637	0.4901	-0.489
Mof_O 	O 	0.1634	0.9259	0.5222	-0.465
Mof_O 	O 	0.1985	0.9784	0.6344	-0.467
Mof_O 	O 	0.3939	0.0381	0.6082	-0.484
Mof_O 	O 	0.1757	0.0621	0.5874	-0.213
Mof_O 	O 	0.2345	0.0719	0.5086	-0.266
Mof_O 	O 	0.1482	0.1533	0.5374	-0.12
Mof_O 	O 	0.4101	0.9089	0.6031	-0.266
Mof_O 	O 	0.3126	0.8481	0.558	-0.269
Mof_O 	O 	0.4331	0.7981	0.5882	-0.118
Mof_Yb	Yb	0.71482	0.02518	0.43529	1.89
Mof_Yb	Yb	0.21482	0.47482	0.93529	1.877
Mof_Ni	Ni	0.73243	0.98739	0.93661	1.063
Mof_Ni	Ni	0.23243	0.51261	0.43661	1.066
Mof_H 	H 	0.6804	0.8948	0.8353	-0.025
Mof_H 	H 	0.6592	0.9	0.7419	0.126
Mof_H 	H 	0.7269	0.1041	0.7498	0.128
Mof_H 	H 	0.7509	0.0915	0.8427	-0.02
Mof_H 	H 	0.5526	0.9738	0.6712	-0.003
Mof_H 	H 	0.5303	0.9861	0.5788	0.151
Mof_H 	H 	0.7764	0.0625	0.571	0.152
Mof_H 	H 	0.7977	0.0472	0.6627	-0.025
Mof_H 	H 	0.0522	0.4591	0.3966	-0.024
Mof_H 	H 	0.9599	0.365	0.4036	0.129
Mof_H 	H 	0.1457	0.2698	0.4997	0.137
Mof_H 	H 	0.2355	0.3667	0.4886	-0.021
Mof_H 	H 	0.9507	0.2373	0.3811	-0.013
Mof_H 	H 	0.8654	0.1419	0.3897	0.154
Mof_H 	H 	0.9334	0.1376	0.5519	0.171
Mof_H 	H 	0.0241	0.2304	0.5403	-0.02
Mof_H 	H 	0.6184	0.9856	0.0346	-0.027
Mof_H 	H 	0.6252	0.9979	0.1288	0.12
Mof_H 	H 	0.89	0.9969	0.1249	0.117
Mof_H 	H 	0.8758	0.9832	0.0307	-0.026
Mof_H 	H 	0.8681	0.0809	0.1993	-0.028
Mof_H 	H 	0.8866	0.0869	0.292	0.161
Mof_H 	H 	0.6948	0.9444	0.3058	0.159
Mof_H 	H 	0.6864	0.9331	0.2131	-0.013
Mof_H 	H 	0.2504	0.6608	0.4838	-0.021
Mof_H 	H 	0.3367	0.7596	0.4788	0.134
Mof_H 	H 	0.4751	0.6618	0.3642	0.117
Mof_H 	H 	0.392	0.5626	0.3783	-0.023
Mof_H 	H 	0.473	0.811	0.4911	-0.011
Mof_H 	H 	0.5548	0.9084	0.4814	0.156
Mof_H 	H 	0.5324	0.8838	0.3167	0.186
Mof_H 	H 	0.4501	0.7863	0.3291	-0.019
Mof_H 	H 	0.1804	0.6052	0.3353	-0.022
Mof_H 	H 	0.1592	0.6	0.2419	0.121
Mof_H 	H 	0.2269	0.3959	0.2498	0.124
Mof_H 	H 	0.2509	0.4085	0.3427	-0.015
Mof_H 	H 	0.0526	0.5262	0.1712	-0.013
Mof_H 	H 	0.0303	0.5139	0.0788	0.172
Mof_H 	H 	0.2764	0.4375	0.071	0.156
Mof_H 	H 	0.2977	0.4528	0.1627	-0.028
Mof_H 	H 	0.5522	0.0409	0.8966	-0.022
Mof_H 	H 	0.4599	0.135	0.9036	0.129
Mof_H 	H 	0.6457	0.2302	0.9997	0.137
Mof_H 	H 	0.7355	0.1333	0.9886	-0.02
Mof_H 	H 	0.4507	0.2627	0.8811	-0.014
Mof_H 	H 	0.3654	0.3581	0.8897	0.154
Mof_H 	H 	0.4334	0.3624	0.0519	0.171
Mof_H 	H 	0.5241	0.2696	0.0403	-0.021
Mof_H 	H 	0.1184	0.5144	0.5346	-0.024
Mof_H 	H 	0.1252	0.5021	0.6288	0.116
Mof_H 	H 	0.39	0.5031	0.6249	0.113
Mof_H 	H 	0.3758	0.5168	0.5307	-0.023
Mof_H 	H 	0.3681	0.4191	0.6993	-0.027
Mof_H 	H 	0.3866	0.4131	0.792	0.159
Mof_H 	H 	0.1948	0.5556	0.8058	0.156
Mof_H 	H 	0.1864	0.5669	0.7131	-0.012
Mof_H 	H 	0.7504	0.8392	0.9838	-0.021
Mof_H 	H 	0.8367	0.7404	0.9788	0.134
Mof_H 	H 	0.9751	0.8382	0.8642	0.116
Mof_H 	H 	0.892	0.9374	0.8783	-0.026
Mof_H 	H 	0.973	0.689	0.9911	-0.011
Mof_H 	H 	0.0548	0.5916	0.9814	0.157
Mof_H 	H 	0.0324	0.6162	0.8167	0.186
Mof_H 	H 	0.9501	0.7137	0.8291	-0.018
Mof_C 	C 	0.6905	0.9377	0.8176	0.141
Mof_C 	C 	0.6775	0.9399	0.762	-0.243
Mof_C 	C 	0.6919	0.0032	0.7359	0.219
Mof_C 	C 	0.7181	0.0604	0.7666	-0.232
Mof_C 	C 	0.7309	0.0525	0.822	0.152
Mof_C 	C 	0.5984	0.9916	0.6505	0.161
Mof_C 	C 	0.5847	0	0.5954	-0.29
Mof_C 	C 	0.6489	0.0288	0.5619	0.403
Mof_C 	C 	0.7297	0.0446	0.5909	-0.326
Mof_C 	C 	0.7429	0.0352	0.6456	0.191
Mof_C 	C 	0.0715	0.4201	0.4175	0.147
Mof_C 	C 	0.016	0.3645	0.4217	-0.233
Mof_C 	C 	0.043	0.308	0.4527	0.215
Mof_C 	C 	0.1256	0.3082	0.4782	-0.23
Mof_C 	C 	0.1786	0.3662	0.4716	0.137
Mof_C 	C 	0.9458	0.2168	0.416	0.205
Mof_C 	C 	0.8952	0.1606	0.4212	-0.337
Mof_C 	C 	0.885	0.128	0.4732	0.43
Mof_C 	C 	0.9361	0.1577	0.5167	-0.348
Mof_C 	C 	0.9888	0.2134	0.5103	0.213
Mof_C 	C 	0.6738	0.9891	0.0533	0.135
Mof_C 	C 	0.6771	0.9969	0.1091	-0.236
Mof_C 	C 	0.7593	0.0032	0.1358	0.212
Mof_C 	C 	0.8338	0.9961	0.1068	-0.236
Mof_C 	C 	0.8248	0.9878	0.051	0.138
Mof_C 	C 	0.8331	0.0525	0.2212	0.194
Mof_C 	C 	0.8434	0.0565	0.2766	-0.334
Mof_C 	C 	0.7921	0.0171	0.3125	0.414
Mof_C 	C 	0.732	0.972	0.2848	-0.34
Mof_C 	C 	0.7251	0.9665	0.2292	0.189
Mof_C 	C 	0.2976	0.6607	0.46	0.139
Mof_C 	C 	0.3475	0.7202	0.4568	-0.227
Mof_C 	C 	0.4143	0.7205	0.4201	0.201
Mof_C 	C 	0.4305	0.6621	0.3897	-0.226
Mof_C 	C 	0.3793	0.6038	0.3976	0.126
Mof_C 	C 	0.4853	0.8266	0.4556	0.202
Mof_C 	C 	0.5347	0.8838	0.4497	-0.348
Mof_C 	C 	0.558	0.9087	0.3974	0.435
Mof_C 	C 	0.5215	0.8694	0.3528	-0.361
Mof_C 	C 	0.4715	0.8117	0.3601	0.215
Mof_C 	C 	0.9006	0.0855	0.9416	0.102
Mof_C 	C 	0.5605	0.8952	0.9208	0.098
Mof_C 	C 	0.1905	0.5623	0.3176	0.134
Mof_C 	C 	0.1775	0.5601	0.262	-0.223
Mof_C 	C 	0.1919	0.4968	0.2359	0.202
Mof_C 	C 	0.2181	0.4396	0.2666	-0.219
Mof_C 	C 	0.2309	0.4475	0.322	0.135
Mof_C 	C 	0.0984	0.5084	0.1505	0.198
Mof_C 	C 	0.0847	0.5	0.0954	-0.336
Mof_C 	C 	0.1489	0.4712	0.0619	0.421
Mof_C 	C 	0.2297	0.4554	0.0909	-0.339
Mof_C 	C 	0.2429	0.4648	0.1456	0.197
Mof_C 	C 	0.5715	0.0799	0.9175	0.147
Mof_C 	C 	0.516	0.1355	0.9217	-0.233
Mof_C 	C 	0.543	0.192	0.9527	0.215
Mof_C 	C 	0.6256	0.1918	0.9782	-0.229
Mof_C 	C 	0.6786	0.1338	0.9716	0.138
Mof_C 	C 	0.4458	0.2832	0.916	0.206
Mof_C 	C 	0.3952	0.3394	0.9212	-0.337
Mof_C 	C 	0.385	0.372	0.9732	0.43
Mof_C 	C 	0.4361	0.3423	0.0167	-0.349
Mof_C 	C 	0.4888	0.2866	0.0103	0.214
Mof_C 	C 	0.1738	0.5109	0.5533	0.127
Mof_C 	C 	0.1771	0.5031	0.6091	-0.219
Mof_C 	C 	0.2593	0.4968	0.6358	0.194
Mof_C 	C 	0.3338	0.5039	0.6068	-0.219
Mof_C 	C 	0.3248	0.5122	0.551	0.13
Mof_C 	C 	0.3331	0.4475	0.7212	0.19
Mof_C 	C 	0.3434	0.4435	0.7766	-0.329
Mof_C 	C 	0.2921	0.4829	0.8125	0.404
Mof_C 	C 	0.232	0.528	0.7848	-0.329
Mof_C 	C 	0.2251	0.5335	0.7292	0.189
Mof_C 	C 	0.7976	0.8393	0.96	0.138
Mof_C 	C 	0.8475	0.7798	0.9568	-0.227
Mof_C 	C 	0.9143	0.7795	0.9201	0.2
Mof_C 	C 	0.9305	0.8379	0.8897	-0.227
Mof_C 	C 	0.8793	0.8962	0.8976	0.126
Mof_C 	C 	0.9853	0.6734	0.9556	0.201
Mof_C 	C 	0.0347	0.6162	0.9497	-0.347
Mof_C 	C 	0.058	0.5913	0.8974	0.435
Mof_C 	C 	0.0215	0.6306	0.8528	-0.359
Mof_C 	C 	0.9715	0.6883	0.8601	0.214
Mof_C 	C 	0.4006	0.4145	0.4416	0.1
Mof_C 	C 	0.0605	0.6048	0.4208	0.1
Mof_S 	S 	0.9869	0.1379	0.9499	-0.024
Mof_S 	S 	0.4742	0.8561	0.892	-0.044
Mof_S 	S 	0.4869	0.3621	0.4499	-0.025
Mof_S 	S 	0.9742	0.6439	0.392	-0.04
Mof_N 	N 	0.7168	0.9924	0.849	-0.262
Mof_N 	N 	0.6777	0.0085	0.6767	-0.192
Mof_N 	N 	0.1518	0.4216	0.4418	-0.257
Mof_N 	N 	0.9907	0.2454	0.4601	-0.205
Mof_N 	N 	0.7461	0.9861	0.0242	-0.257
Mof_N 	N 	0.7727	0.0078	0.1961	-0.197
Mof_N 	N 	0.312	0.603	0.4315	-0.258
Mof_N 	N 	0.4519	0.7901	0.4103	-0.206
Mof_N 	N 	0.8404	0.0499	0.9345	-0.253
Mof_N 	N 	0.6214	0.9235	0.9383	-0.252
Mof_N 	N 	0.8121	0.9027	0.4547	0.058
Mof_N 	N 	0.6125	0.1495	0.4174	0.064
Mof_N 	N 	0.2168	0.5076	0.349	-0.253
Mof_N 	N 	0.1777	0.4915	0.1767	-0.2
Mof_N 	N 	0.6518	0.0784	0.9418	-0.255
Mof_N 	N 	0.4907	0.2546	0.9601	-0.205
Mof_N 	N 	0.2461	0.5139	0.5242	-0.254
Mof_N 	N 	0.2727	0.4922	0.6961	-0.197
Mof_N 	N 	0.812	0.897	0.9315	-0.259
Mof_N 	N 	0.9519	0.7099	0.9103	-0.206
Mof_N 	N 	0.3404	0.4501	0.4345	-0.256
Mof_N 	N 	0.1214	0.5765	0.4383	-0.25
Mof_N 	N 	0.3121	0.5973	0.9547	0.058
Mof_N 	N 	0.1125	0.3505	0.9174	0.064
Mof_O 	O 	0.6367	0.0363	0.5099	-0.485
Mof_O 	O 	0.8366	0.0741	0.4778	-0.465
Mof_O 	O 	0.8015	0.0216	0.3656	-0.47
Mof_O 	O 	0.6061	0.9619	0.3918	-0.497
Mof_O 	O 	0.8243	0.9379	0.4126	-0.223
Mof_O 	O 	0.7655	0.9281	0.4914	-0.276
Mof_O 	O 	0.8518	0.8467	0.4626	-0.121
Mof_O 	O 	0.5899	0.0911	0.3969	-0.265
Mof_O 	O 	0.6874	0.1519	0.442	-0.271
Mof_O 	O 	0.5669	0.2019	0.4118	-0.118
Mof_O 	O 	0.1367	0.4637	0.0099	-0.492
Mof_O 	O 	0.3366	0.4259	0.9778	-0.465
Mof_O 	O 	0.3015	0.4784	0.8656	-0.469
Mof_O 	O 	0.1061	0.5381	0.8918	-0.491
Mof_O 	O 	0.3243	0.5621	0.9126	-0.219
Mof_O 	O 	0.2655	0.5719	0.9914	-0.272
Mof_O 	O 	0.3518	0.6533	0.9626	-0.121
Mof_O 	O 	0.0899	0.4089	0.8969	-0.265
Mof_O 	O 	0.1874	0.3481	0.942	-0.27
Mof_O 	O 	0.0669	0.2981	0.9118	-0.117
Mof_N 	N 	0.4998	0.1737	0.7814	0.047
Mof_O 	O 	0.4856	0.1093	0.7831	-0.132
Mof_O 	O 	0.4346	0.2153	0.7789	-0.122
Mof_O 	O 	0.5759	0.1974	0.7815	-0.12
Mof_N 	N 	0.0002	0.6737	0.7186	0.047
Mof_O 	O 	0.0144	0.6093	0.7169	-0.134
Mof_O 	O 	0.0654	0.7153	0.7211	-0.122
Mof_O 	O 	0.9241	0.6974	0.7185	-0.12
Mof_N 	N 	0.5002	0.8263	0.2186	0.047
Mof_O 	O 	0.5144	0.8907	0.2169	-0.135
Mof_O 	O 	0.5654	0.7847	0.2211	-0.122
Mof_O 	O 	0.4241	0.8026	0.2185	-0.12
Mof_N 	N 	0.9998	0.3263	0.2814	0.046
Mof_O 	O 	0.9856	0.3907	0.2831	-0.134
Mof_O 	O 	0.9346	0.2847	0.2789	-0.122
Mof_O 	O 	0.0759	0.3026	0.2815	-0.119
_end
