data_functionalizedCrystal
_audit_creation_method	'EQeq! by Chris Wilmer'
_symmetry_space_group_name_H-M	'P1'
_symmetry_Int_Tables_number	1
_symmetry_cell_setting	triclinic
loop_
_symmetry_equiv_pos_as_xyz
  x,y,z
_cell_length_a	7.2309
_cell_length_b	26.9842
_cell_length_c	31.2626
_cell_angle_alpha	90
_cell_angle_beta	90
_cell_angle_gamma	90
loop_
_atom_site_label
_atom_site_type_symbol
_atom_site_fract_x
_atom_site_fract_y
_atom_site_fract_z
_atom_site_charge
Mof_Zn	Zn	0.0002	0.032	0.76214	1.235
Mof_Zn	Zn	0.6927	0.45326	0.73094	1.163
Mof_Zn	Zn	0.0002	0.968	0.23786	1.236
Mof_Zn	Zn	0.6927	0.54674	0.26906	1.163
Mof_Zn	Zn	0.9998	0.468	0.26214	1.236
Mof_Zn	Zn	0.3073	0.04674	0.23094	1.163
Mof_Zn	Zn	0.9998	0.532	0.73786	1.236
Mof_Zn	Zn	0.3073	0.95326	0.76906	1.163
Mof_C 	C 	0.347	0.0489	0.3444	0.028
Mof_C 	C 	0.165	0.064	0.3385	-0.184
Mof_C 	C 	0.0955	0.1035	0.362	0.04
Mof_C 	C 	0.208	0.128	0.3913	-0.081
Mof_C 	C 	0.39	0.1128	0.3972	0.033
Mof_C 	C 	0.4594	0.0733	0.3738	-0.078
Mof_C 	C 	0.055	0.0394	0.3068	0.398
Mof_C 	C 	0.0223	0.2016	0.5359	0.021
Mof_C 	C 	0.159	0.1725	0.5171	-0.047
Mof_C 	C 	0.2794	0.1455	0.5427	-0.029
Mof_C 	C 	0.2639	0.1476	0.587	-0.01
Mof_C 	C 	0.128	0.1767	0.6057	-0.029
Mof_C 	C 	0.0068	0.2037	0.5802	-0.054
Mof_C 	C 	0.402	0.1229	0.6173	0.036
Mof_C 	C 	0.59	0.1206	0.6085	-0.072
Mof_C 	C 	0.7124	0.1025	0.639	0.036
Mof_C 	C 	0.646	0.0866	0.6784	-0.13
Mof_C 	C 	0.458	0.0888	0.6873	0.042
Mof_C 	C 	0.336	0.107	0.6568	-0.079
Mof_C 	C 	0.785	0.0714	0.7093	0.377
Mof_C 	C 	0.0267	0.261	0.4721	0.018
Mof_C 	C 	0.9951	0.2646	0.4284	-0.05
Mof_C 	C 	0.11	0.2937	0.4031	-0.031
Mof_C 	C 	0.2572	0.3191	0.4216	-0.011
Mof_C 	C 	0.2888	0.3155	0.4654	-0.029
Mof_C 	C 	0.174	0.2864	0.4906	-0.045
Mof_C 	C 	0.901	0.2298	0.5048	-0.037
Mof_C 	C 	0.7622	0.1971	0.4769	0.02
Mof_C 	C 	0.7831	0.146	0.4732	-0.049
Mof_C 	C 	0.661	0.1189	0.448	-0.029
Mof_C 	C 	0.519	0.1429	0.4264	-0.011
Mof_C 	C 	0.4981	0.1939	0.4301	-0.03
Mof_C 	C 	0.62	0.221	0.4554	-0.047
Mof_C 	C 	0.723	0.4371	0.311	0.52
Mof_C 	C 	0.7667	0.2667	0.5298	0.019
Mof_C 	C 	0.7915	0.3178	0.5293	-0.049
Mof_C 	C 	0.672	0.3482	0.5523	-0.03
Mof_C 	C 	0.5282	0.3275	0.5757	-0.009
Mof_C 	C 	0.5034	0.2764	0.5762	-0.032
Mof_C 	C 	0.623	0.246	0.5532	-0.045
Mof_C 	C 	0.0876	0.3752	0.6303	0.021
Mof_C 	C 	0.204	0.3454	0.606	-0.069
Mof_C 	C 	0.387	0.3595	0.5993	0.026
Mof_C 	C 	0.4529	0.4033	0.617	-0.074
Mof_C 	C 	0.336	0.4331	0.6413	0.002
Mof_C 	C 	0.154	0.419	0.648	-0.098
Mof_C 	C 	0.021	0.4566	0.6768	0.45
Mof_C 	C 	0.412	0.414	0.3383	0.07
Mof_C 	C 	0.3049	0.3861	0.3663	-0.086
Mof_C 	C 	0.389	0.353	0.3942	0.042
Mof_C 	C 	0.58	0.3477	0.3942	-0.085
Mof_C 	C 	0.6874	0.3757	0.3663	0.062
Mof_C 	C 	0.603	0.4088	0.3383	-0.189
Mof_C 	C 	0.347	0.9511	0.6556	0.028
Mof_C 	C 	0.165	0.936	0.6615	-0.184
Mof_C 	C 	0.0955	0.8965	0.638	0.041
Mof_C 	C 	0.208	0.872	0.6087	-0.081
Mof_C 	C 	0.39	0.8872	0.6028	0.033
Mof_C 	C 	0.4594	0.9267	0.6262	-0.078
Mof_C 	C 	0.055	0.9606	0.6932	0.398
Mof_C 	C 	0.0223	0.7984	0.4641	0.021
Mof_C 	C 	0.159	0.8275	0.4829	-0.047
Mof_C 	C 	0.2794	0.8545	0.4573	-0.029
Mof_C 	C 	0.2639	0.8524	0.413	-0.01
Mof_C 	C 	0.128	0.8233	0.3943	-0.029
Mof_C 	C 	0.0068	0.7963	0.4198	-0.054
Mof_C 	C 	0.402	0.8771	0.3827	0.036
Mof_C 	C 	0.59	0.8794	0.3915	-0.072
Mof_C 	C 	0.7124	0.8975	0.361	0.036
Mof_C 	C 	0.646	0.9134	0.3216	-0.13
Mof_C 	C 	0.458	0.9112	0.3127	0.042
Mof_C 	C 	0.336	0.893	0.3432	-0.079
Mof_C 	C 	0.785	0.9286	0.2907	0.377
Mof_C 	C 	0.0267	0.739	0.5279	0.018
Mof_C 	C 	0.9951	0.7354	0.5716	-0.05
Mof_C 	C 	0.11	0.7063	0.5969	-0.03
Mof_C 	C 	0.2572	0.6809	0.5784	-0.011
Mof_C 	C 	0.2888	0.6845	0.5346	-0.029
Mof_C 	C 	0.174	0.7136	0.5094	-0.045
Mof_C 	C 	0.901	0.7702	0.4952	-0.037
Mof_C 	C 	0.7622	0.8029	0.5231	0.02
Mof_C 	C 	0.7831	0.854	0.5268	-0.049
Mof_C 	C 	0.661	0.8811	0.552	-0.029
Mof_C 	C 	0.519	0.8571	0.5736	-0.011
Mof_C 	C 	0.4981	0.8061	0.5699	-0.03
Mof_C 	C 	0.62	0.779	0.5446	-0.046
Mof_C 	C 	0.723	0.5629	0.689	0.52
Mof_C 	C 	0.7667	0.7333	0.4702	0.019
Mof_C 	C 	0.7915	0.6822	0.4707	-0.049
Mof_C 	C 	0.672	0.6518	0.4477	-0.03
Mof_C 	C 	0.5282	0.6725	0.4243	-0.009
Mof_C 	C 	0.5034	0.7236	0.4238	-0.032
Mof_C 	C 	0.623	0.754	0.4468	-0.045
Mof_C 	C 	0.0876	0.6248	0.3697	0.021
Mof_C 	C 	0.204	0.6546	0.394	-0.069
Mof_C 	C 	0.387	0.6405	0.4007	0.026
Mof_C 	C 	0.4529	0.5967	0.383	-0.074
Mof_C 	C 	0.336	0.5669	0.3587	0.002
Mof_C 	C 	0.154	0.581	0.352	-0.098
Mof_C 	C 	0.021	0.5434	0.3232	0.45
Mof_C 	C 	0.412	0.586	0.6617	0.07
Mof_C 	C 	0.3049	0.6139	0.6337	-0.086
Mof_C 	C 	0.389	0.647	0.6058	0.042
Mof_C 	C 	0.58	0.6523	0.6058	-0.085
Mof_C 	C 	0.6874	0.6243	0.6337	0.062
Mof_C 	C 	0.603	0.5912	0.6617	-0.189
Mof_C 	C 	0.653	0.4511	0.8444	0.027
Mof_C 	C 	0.835	0.436	0.8385	-0.183
Mof_C 	C 	0.9045	0.3965	0.862	0.04
Mof_C 	C 	0.792	0.372	0.8913	-0.081
Mof_C 	C 	0.61	0.3872	0.8972	0.033
Mof_C 	C 	0.5406	0.4267	0.8738	-0.078
Mof_C 	C 	0.945	0.4606	0.8068	0.397
Mof_C 	C 	0.9777	0.2984	0.0359	0.02
Mof_C 	C 	0.841	0.3275	0.0171	-0.047
Mof_C 	C 	0.7206	0.3545	0.0427	-0.029
Mof_C 	C 	0.7361	0.3524	0.087	-0.01
Mof_C 	C 	0.872	0.3233	0.1057	-0.03
Mof_C 	C 	0.9932	0.2963	0.0802	-0.054
Mof_C 	C 	0.598	0.3771	0.1173	0.036
Mof_C 	C 	0.41	0.3794	0.1085	-0.072
Mof_C 	C 	0.2876	0.3975	0.139	0.036
Mof_C 	C 	0.354	0.4134	0.1784	-0.13
Mof_C 	C 	0.542	0.4112	0.1873	0.042
Mof_C 	C 	0.664	0.393	0.1568	-0.079
Mof_C 	C 	0.215	0.4286	0.2093	0.377
Mof_C 	C 	0.9733	0.239	0.9721	0.016
Mof_C 	C 	0.0049	0.2354	0.9284	-0.048
Mof_C 	C 	0.89	0.2063	0.9031	-0.032
Mof_C 	C 	0.7428	0.1809	0.9216	-0.011
Mof_C 	C 	0.7112	0.1845	0.9654	-0.03
Mof_C 	C 	0.826	0.2136	0.9906	-0.045
Mof_C 	C 	0.099	0.2702	0.0048	-0.036
Mof_C 	C 	0.2378	0.3029	0.9769	0.02
Mof_C 	C 	0.2169	0.354	0.9732	-0.048
Mof_C 	C 	0.339	0.3811	0.948	-0.029
Mof_C 	C 	0.481	0.3571	0.9264	-0.01
Mof_C 	C 	0.5019	0.3061	0.9301	-0.031
Mof_C 	C 	0.38	0.279	0.9554	-0.046
Mof_C 	C 	0.277	0.0629	0.811	0.519
Mof_C 	C 	0.2333	0.2333	0.0298	0.019
Mof_C 	C 	0.2085	0.1822	0.0293	-0.049
Mof_C 	C 	0.328	0.1518	0.0523	-0.03
Mof_C 	C 	0.4718	0.1725	0.0757	-0.009
Mof_C 	C 	0.4966	0.2236	0.0762	-0.032
Mof_C 	C 	0.377	0.254	0.0532	-0.045
Mof_C 	C 	0.9124	0.1248	0.1303	0.02
Mof_C 	C 	0.796	0.1546	0.106	-0.069
Mof_C 	C 	0.613	0.1405	0.0993	0.026
Mof_C 	C 	0.5471	0.0967	0.117	-0.073
Mof_C 	C 	0.664	0.0669	0.1413	0.002
Mof_C 	C 	0.846	0.081	0.148	-0.098
Mof_C 	C 	0.979	0.0434	0.1768	0.45
Mof_C 	C 	0.588	0.086	0.8383	0.07
Mof_C 	C 	0.6951	0.1139	0.8663	-0.086
Mof_C 	C 	0.611	0.147	0.8942	0.042
Mof_C 	C 	0.42	0.1523	0.8942	-0.085
Mof_C 	C 	0.3126	0.1243	0.8663	0.062
Mof_C 	C 	0.397	0.0912	0.8383	-0.189
Mof_C 	C 	0.653	0.5489	0.1556	0.028
Mof_C 	C 	0.835	0.564	0.1615	-0.183
Mof_C 	C 	0.9045	0.6035	0.138	0.04
Mof_C 	C 	0.792	0.628	0.1087	-0.08
Mof_C 	C 	0.61	0.6128	0.1028	0.035
Mof_C 	C 	0.5406	0.5733	0.1262	-0.078
Mof_C 	C 	0.945	0.5394	0.1932	0.398
Mof_C 	C 	0.9777	0.7016	0.9641	0.001
Mof_C 	C 	0.841	0.6725	0.9829	-0.018
Mof_C 	C 	0.7206	0.6455	0.9573	-0.004
Mof_C 	C 	0.7361	0.6476	0.913	-0.024
Mof_C 	C 	0.872	0.6767	0.8943	-0.007
Mof_C 	C 	0.9932	0.7037	0.9198	-0.021
Mof_C 	C 	0.598	0.6229	0.8827	0.046
Mof_C 	C 	0.41	0.6206	0.8915	-0.074
Mof_C 	C 	0.2876	0.6025	0.861	0.039
Mof_C 	C 	0.354	0.5866	0.8216	-0.13
Mof_C 	C 	0.542	0.5888	0.8127	0.045
Mof_C 	C 	0.664	0.607	0.8432	-0.081
Mof_C 	C 	0.215	0.5714	0.7907	0.378
Mof_C 	C 	0.9733	0.761	0.0279	0.017
Mof_C 	C 	0.0049	0.7646	0.0716	-0.047
Mof_C 	C 	0.89	0.7937	0.0969	-0.032
Mof_C 	C 	0.7428	0.8191	0.0784	-0.01
Mof_C 	C 	0.7112	0.8155	0.0346	-0.03
Mof_C 	C 	0.826	0.7864	0.0094	-0.042
Mof_C 	C 	0.099	0.7298	0.9952	-0.027
Mof_C 	C 	0.2378	0.6971	0.0231	0.02
Mof_C 	C 	0.2169	0.646	0.0268	-0.045
Mof_C 	C 	0.339	0.6189	0.052	-0.027
Mof_C 	C 	0.481	0.6429	0.0736	-0.008
Mof_C 	C 	0.5019	0.6939	0.0699	-0.029
Mof_C 	C 	0.38	0.721	0.0446	-0.045
Mof_C 	C 	0.277	0.9371	0.189	0.519
Mof_C 	C 	0.2333	0.7667	0.9702	0.019
Mof_C 	C 	0.2085	0.8178	0.9707	-0.047
Mof_C 	C 	0.328	0.8482	0.9477	-0.03
Mof_C 	C 	0.4718	0.8275	0.9243	-0.008
Mof_C 	C 	0.4966	0.7764	0.9238	-0.032
Mof_C 	C 	0.377	0.746	0.9468	-0.041
Mof_C 	C 	0.9124	0.8752	0.8697	0.021
Mof_C 	C 	0.796	0.8454	0.894	-0.068
Mof_C 	C 	0.613	0.8595	0.9007	0.026
Mof_C 	C 	0.5471	0.9033	0.883	-0.073
Mof_C 	C 	0.664	0.9331	0.8587	0.002
Mof_C 	C 	0.846	0.919	0.852	-0.098
Mof_C 	C 	0.979	0.9566	0.8232	0.449
Mof_C 	C 	0.588	0.914	0.1617	0.07
Mof_C 	C 	0.6951	0.8861	0.1337	-0.086
Mof_C 	C 	0.611	0.853	0.1058	0.042
Mof_C 	C 	0.42	0.8477	0.1058	-0.085
Mof_C 	C 	0.3126	0.8757	0.1337	0.062
Mof_C 	C 	0.397	0.9088	0.1617	-0.189
Mof_O 	O 	0.86	0.4349	0.6796	-0.501
Mof_O 	O 	0.887	0.0468	0.3065	-0.321
Mof_O 	O 	0.733	0.0491	0.7412	-0.427
Mof_O 	O 	0.949	0.0789	0.7033	-0.391
Mof_O 	O 	0.862	0.4253	0.2982	-0.574
Mof_O 	O 	0.644	0.479	0.3009	-0.507
Mof_O 	O 	0.1275	0.0169	0.2751	-0.64
Mof_O 	O 	0.096	0.4865	0.6941	-0.548
Mof_O 	O 	0.86	0.5651	0.3204	-0.501
Mof_O 	O 	0.887	0.9532	0.6935	-0.321
Mof_O 	O 	0.733	0.9509	0.2588	-0.427
Mof_O 	O 	0.949	0.9211	0.2967	-0.391
Mof_O 	O 	0.862	0.5747	0.7018	-0.573
Mof_O 	O 	0.644	0.521	0.6991	-0.507
Mof_O 	O 	0.1275	0.9831	0.7249	-0.64
Mof_O 	O 	0.096	0.5135	0.3059	-0.548
Mof_O 	O 	0.14	0.0651	0.1796	-0.501
Mof_O 	O 	0.113	0.4532	0.8065	-0.32
Mof_O 	O 	0.267	0.4509	0.2412	-0.427
Mof_O 	O 	0.051	0.4211	0.2033	-0.39
Mof_O 	O 	0.138	0.0747	0.7982	-0.573
Mof_O 	O 	0.356	0.021	0.8009	-0.507
Mof_O 	O 	0.8725	0.4831	0.7751	-0.64
Mof_O 	O 	0.904	0.0135	0.1941	-0.548
Mof_O 	O 	0.14	0.9349	0.8204	-0.5
Mof_O 	O 	0.113	0.5468	0.1935	-0.32
Mof_O 	O 	0.267	0.5491	0.7588	-0.427
Mof_O 	O 	0.051	0.5789	0.7967	-0.389
Mof_O 	O 	0.138	0.9253	0.2018	-0.573
Mof_O 	O 	0.356	0.979	0.1991	-0.507
Mof_O 	O 	0.8725	0.5169	0.2249	-0.64
Mof_O 	O 	0.904	0.9865	0.8059	-0.548
Mof_H 	H 	0.40447	0.01649	0.32515	0.003
Mof_H 	H 	0.94616	0.1159	0.35731	0.026
Mof_H 	H 	0.15095	0.16053	0.41046	0.042
Mof_H 	H 	0.60853	0.06079	0.37863	0.053
Mof_H 	H 	0.17189	0.17088	0.48078	0.04
Mof_H 	H 	0.3912	0.12156	0.5274	0.036
Mof_H 	H 	0.11554	0.17851	0.64202	0.034
Mof_H 	H 	0.89486	0.22753	0.59557	0.042
Mof_H 	H 	0.64443	0.13359	0.57616	0.044
Mof_H 	H 	0.86669	0.10073	0.63166	0.036
Mof_H 	H 	0.40393	0.07567	0.71962	0.017
Mof_H 	H 	0.18171	0.10892	0.66411	0.063
Mof_H 	H 	0.87484	0.24368	0.41324	0.039
Mof_H 	H 	0.0836	0.29674	0.36725	0.033
Mof_H 	H 	0.40896	0.33645	0.48058	0.038
Mof_H 	H 	0.20033	0.2833	0.52645	0.041
Mof_H 	H 	0.90019	0.1264	0.49081	0.043
Mof_H 	H 	0.6775	0.07702	0.44508	0.035
Mof_H 	H 	0.38121	0.21351	0.41243	0.035
Mof_H 	H 	0.60296	0.26285	0.45845	0.04
Mof_H 	H 	0.9096	0.33473	0.51007	0.042
Mof_H 	H 	0.69216	0.3901	0.55193	0.035
Mof_H 	H 	0.38527	0.25947	0.59542	0.034
Mof_H 	H 	0.60294	0.2041	0.55358	0.041
Mof_H 	H 	0.93768	0.36373	0.63572	0.026
Mof_H 	H 	0.14965	0.30944	0.59157	0.041
Mof_H 	H 	0.60276	0.41485	0.61163	0.044
Mof_H 	H 	0.38998	0.46912	0.6557	0.025
Mof_H 	H 	0.34297	0.44113	0.31536	0.029
Mof_H 	H 	0.14806	0.3904	0.36635	0.053
Mof_H 	H 	0.64871	0.32041	0.41706	0.045
Mof_H 	H 	0.84428	0.37151	0.3664	0.019
Mof_H 	H 	0.40447	0.98351	0.67485	0.003
Mof_H 	H 	0.94616	0.8841	0.64269	0.026
Mof_H 	H 	0.15095	0.83947	0.58954	0.043
Mof_H 	H 	0.60854	0.93919	0.62136	0.053
Mof_H 	H 	0.17189	0.82912	0.51922	0.04
Mof_H 	H 	0.3912	0.87844	0.4726	0.036
Mof_H 	H 	0.11554	0.82149	0.35798	0.034
Mof_H 	H 	0.89493	0.77249	0.40438	0.042
Mof_H 	H 	0.64443	0.86641	0.42384	0.044
Mof_H 	H 	0.86669	0.89927	0.36834	0.036
Mof_H 	H 	0.40393	0.92433	0.28038	0.017
Mof_H 	H 	0.18171	0.89108	0.33589	0.063
Mof_H 	H 	0.87484	0.75632	0.58676	0.039
Mof_H 	H 	0.0836	0.70326	0.63275	0.034
Mof_H 	H 	0.40896	0.66355	0.51942	0.038
Mof_H 	H 	0.20033	0.7167	0.47355	0.041
Mof_H 	H 	0.90019	0.8736	0.50919	0.043
Mof_H 	H 	0.6775	0.92298	0.55492	0.035
Mof_H 	H 	0.38121	0.78649	0.58757	0.035
Mof_H 	H 	0.60302	0.73715	0.54154	0.04
Mof_H 	H 	0.9096	0.66527	0.48993	0.042
Mof_H 	H 	0.69216	0.6099	0.44807	0.035
Mof_H 	H 	0.38527	0.74053	0.40458	0.034
Mof_H 	H 	0.60292	0.7959	0.44642	0.041
Mof_H 	H 	0.93768	0.63627	0.36428	0.026
Mof_H 	H 	0.14965	0.69056	0.40843	0.041
Mof_H 	H 	0.60276	0.58515	0.38837	0.044
Mof_H 	H 	0.38998	0.53088	0.3443	0.025
Mof_H 	H 	0.34297	0.55887	0.68464	0.029
Mof_H 	H 	0.14806	0.6096	0.63365	0.053
Mof_H 	H 	0.64871	0.67959	0.58294	0.045
Mof_H 	H 	0.84428	0.62849	0.6336	0.019
Mof_H 	H 	0.59553	0.48351	0.82515	0.003
Mof_H 	H 	0.05384	0.3841	0.85731	0.027
Mof_H 	H 	0.84905	0.33947	0.91046	0.042
Mof_H 	H 	0.39146	0.43919	0.87864	0.053
Mof_H 	H 	0.82811	0.32912	0.98078	0.039
Mof_H 	H 	0.6088	0.37844	0.0274	0.036
Mof_H 	H 	0.88446	0.32149	0.14202	0.034
Mof_H 	H 	0.10514	0.27247	0.09557	0.042
Mof_H 	H 	0.35557	0.36641	0.07616	0.044
Mof_H 	H 	0.13331	0.39927	0.13166	0.037
Mof_H 	H 	0.59607	0.42433	0.21962	0.017
Mof_H 	H 	0.81827	0.39109	0.16413	0.063
Mof_H 	H 	0.12516	0.25632	0.91324	0.039
Mof_H 	H 	0.9164	0.20326	0.86725	0.033
Mof_H 	H 	0.59104	0.16355	0.98058	0.038
Mof_H 	H 	0.79967	0.2167	0.02645	0.041
Mof_H 	H 	0.09981	0.3736	0.99081	0.043
Mof_H 	H 	0.3225	0.42298	0.94508	0.036
Mof_H 	H 	0.61879	0.28649	0.91243	0.035
Mof_H 	H 	0.39704	0.23715	0.95845	0.04
Mof_H 	H 	0.0904	0.16527	0.01007	0.042
Mof_H 	H 	0.30784	0.1099	0.05193	0.035
Mof_H 	H 	0.61473	0.24053	0.09542	0.034
Mof_H 	H 	0.39708	0.2959	0.05358	0.041
Mof_H 	H 	0.06232	0.13627	0.13572	0.026
Mof_H 	H 	0.85035	0.19056	0.09157	0.041
Mof_H 	H 	0.39724	0.08515	0.11163	0.044
Mof_H 	H 	0.61002	0.03088	0.1557	0.025
Mof_H 	H 	0.65703	0.05887	0.81536	0.029
Mof_H 	H 	0.85194	0.1096	0.86635	0.053
Mof_H 	H 	0.35129	0.17959	0.91706	0.045
Mof_H 	H 	0.15572	0.12849	0.8664	0.019
Mof_H 	H 	0.59553	0.51649	0.17485	0.003
Mof_H 	H 	0.05384	0.6159	0.14269	0.027
Mof_H 	H 	0.84905	0.66053	0.08954	0.046
Mof_H 	H 	0.39146	0.56081	0.12136	0.053
Mof_H 	H 	0.35557	0.63359	0.92384	0.048
Mof_H 	H 	0.13331	0.60073	0.86834	0.038
Mof_H 	H 	0.59607	0.57567	0.78038	0.017
Mof_H 	H 	0.81829	0.60892	0.83589	0.067
Mof_H 	H 	0.12516	0.74368	0.08676	0.039
Mof_H 	H 	0.9164	0.79674	0.13275	0.034
Mof_H 	H 	0.59104	0.83645	0.01942	0.038
Mof_H 	H 	0.79967	0.7833	0.97355	0.041
Mof_H 	H 	0.09981	0.6264	0.00919	0.045
Mof_H 	H 	0.3225	0.57702	0.05492	0.037
Mof_H 	H 	0.61879	0.71351	0.08757	0.036
Mof_H 	H 	0.39704	0.76285	0.04155	0.039
Mof_H 	H 	0.0904	0.83473	0.98993	0.042
Mof_H 	H 	0.30784	0.8901	0.94807	0.035
Mof_H 	H 	0.61473	0.75947	0.90458	0.036
Mof_H 	H 	0.39708	0.7041	0.94642	0.042
Mof_H 	H 	0.06232	0.86373	0.86428	0.028
Mof_H 	H 	0.85035	0.80944	0.90843	0.043
Mof_H 	H 	0.39724	0.91485	0.88837	0.044
Mof_H 	H 	0.61002	0.96912	0.8443	0.025
Mof_H 	H 	0.65703	0.94113	0.18464	0.029
Mof_H 	H 	0.85194	0.8904	0.13365	0.053
Mof_H 	H 	0.35129	0.82041	0.08294	0.045
Mof_H 	H 	0.15572	0.87151	0.1336	0.019
_end
