# CIF file generated by openbabel 3.1.0, see https://openbabel.org
data_I
_chemical_name_common 'OGURAK_charged'
_cell_length_a 13.178
_cell_length_b 13.179
_cell_length_c 13.8779
_cell_angle_alpha 118.348
_cell_angle_beta 118.345
_cell_angle_gamma 89.9999
_space_group_name_H-M_alt 'P 1'
_space_group_name_Hall 'P 1'
loop_
    _symmetry_equiv_pos_as_xyz
    x,y,z
loop_
    _atom_site_label
    _atom_site_type_symbol
    _atom_site_fract_x
    _atom_site_fract_y
    _atom_site_fract_z
    _atom_site_occupancy
    Cu1      Cu       0.91059    0.71542    0.82118    1.000
    Cu2      Cu       0.91059    0.10576    0.82118    1.000
    Cu3      Cu       0.10571    0.91055    0.82110    1.000
    Cu4      Cu       0.71539    0.91055    0.82110    1.000
    H1       H        0.76430    0.29250    0.26720    1.000
    H2       H        0.97610    0.50240    0.26820    1.000
    H3       H        0.83540    0.42830    0.47640    1.000
    H4       H        0.05330    0.64030    0.47820    1.000
    H5       H        0.50290    0.97470    0.26720    1.000
    H6       H        0.29210    0.76580    0.26820    1.000
    H7       H        0.64100    0.04810    0.47640    1.000
    H8       H        0.42490    0.83790    0.47820    1.000
    H9       H        0.50290    0.29250    0.26720    1.000
    H10      H        0.29210    0.50240    0.26820    1.000
    H11      H        0.64100    0.42830    0.47640    1.000
    H12      H        0.42490    0.64030    0.47820    1.000
    H13      H        0.76430    0.97470    0.26720    1.000
    H14      H        0.97610    0.76580    0.26820    1.000
    H15      H        0.83540    0.04810    0.47640    1.000
    H16      H        0.05330    0.83790    0.47820    1.000
    C1       C        0.87040    0.26630    0.13720    1.000
    C2       C        0.98830    0.64550    0.63340    1.000
    C3       C        0.88940    0.36100    0.25120    1.000
    C4       C        0.83340    0.35830    0.31440    1.000
    C5       C        0.95750    0.48110    0.31560    1.000
    C6       C        0.87160    0.44340    0.43760    1.000
    C7       C        0.99730    0.56630    0.43860    1.000
    C8       C        0.96060    0.55240    0.51300    1.000
    C9       C        0.26680    0.87090    0.13720    1.000
    C10      C        0.64510    0.98790    0.63340    1.000
    C11      C        0.36180    0.89020    0.25120    1.000
    C12      C        0.48100    0.95610    0.31440    1.000
    C13      C        0.35810    0.83450    0.31560    1.000
    C14      C        0.56600    0.99420    0.43760    1.000
    C15      C        0.44130    0.87230    0.43860    1.000
    C16      C        0.55240    0.96060    0.51300    1.000
    C17      C        0.26680    0.26630    0.13720    1.000
    C18      C        0.64510    0.64550    0.63340    1.000
    C19      C        0.36180    0.36100    0.25120    1.000
    C20      C        0.48100    0.35830    0.31440    1.000
    C21      C        0.35810    0.48110    0.31560    1.000
    C22      C        0.56600    0.44340    0.43760    1.000
    C23      C        0.44130    0.56630    0.43860    1.000
    C24      C        0.55240    0.55240    0.51300    1.000
    C25      C        0.87040    0.87090    0.13720    1.000
    C26      C        0.98830    0.98790    0.63340    1.000
    C27      C        0.88940    0.89020    0.25120    1.000
    C28      C        0.83340    0.95610    0.31440    1.000
    C29      C        0.95750    0.83450    0.31560    1.000
    C30      C        0.87160    0.99420    0.43760    1.000
    C31      C        0.99730    0.87230    0.43860    1.000
    C32      C        0.96060    0.96060    0.51300    1.000
    N1       N        0.79290    0.09270    0.96040    1.000
    N2       N        0.86800    0.16530    0.95980    1.000
    N3       N        0.79023    0.15263    0.06106    1.000
    N4       N        0.90941    0.26991    0.06102    1.000
    N5       N        0.16750    0.86770    0.96040    1.000
    N6       N        0.09180    0.79450    0.95980    1.000
    N7       N        0.27083    0.90843    0.06106    1.000
    N8       N        0.15161    0.79111    0.06102    1.000
    N9       N        0.16750    0.09270    0.96040    1.000
    N10      N        0.09180    0.16530    0.95980    1.000
    N11      N        0.27083    0.15263    0.06106    1.000
    N12      N        0.15161    0.26991    0.06102    1.000
    N13      N        0.79290    0.86770    0.96040    1.000
    N14      N        0.86800    0.79450    0.95980    1.000
    N15      N        0.79023    0.90843    0.06106    1.000
    N16      N        0.90941    0.79111    0.06102    1.000
    Cl1      Cl       0.90222    0.90222    0.80444    1.000
    O1       O        0.93870    0.63020    0.68320    1.000
    O2       O        0.05270    0.74580    0.68420    1.000
    O3       O        0.74450    0.05300    0.68320    1.000
    O4       O        0.63150    0.93840    0.68420    1.000
    O5       O        0.74450    0.63020    0.68320    1.000
    O6       O        0.63150    0.74580    0.68420    1.000
    O7       O        0.93870    0.05300    0.68320    1.000
    O8       O        0.05270    0.93840    0.68420    1.000
