# CIF file generated by openbabel 3.1.0, see https://openbabel.org
data_I
_chemical_name_common 'image0'
_cell_length_a 14.301
_cell_length_b 14.658
_cell_length_c 20.059
_cell_angle_alpha 108.348
_cell_angle_beta 90.323
_cell_angle_gamma 107.607
_space_group_name_H-M_alt 'P 1'
_space_group_name_Hall 'P 1'
loop_
    _symmetry_equiv_pos_as_xyz
    x,y,z
loop_
    _atom_site_label
    _atom_site_type_symbol
    _atom_site_fract_x
    _atom_site_fract_y
    _atom_site_fract_z
    _atom_site_occupancy
    Ag1      Ag       0.67250    0.53680    0.92018    1.000
    Ag2      Ag       0.36460    0.82340    0.83297    1.000
    Ag3      Ag       0.49417    0.29050    0.04740    1.000
    N1       N        0.36670    0.28650    0.11290    1.000
    O1       O        0.52990    0.13480    0.01640    1.000
    N2       N        0.33470    0.36280    0.13990    1.000
    N3       N        0.35380    0.23020    0.15570    1.000
    N4       N        0.30040    0.36000    0.20140    1.000
    C1       C        0.31360    0.27720    0.20960    1.000
    Ag4      Ag       0.39956    0.09487    0.14541    1.000
    Ag5      Ag       0.23583    0.47871    0.25917    1.000
    C2       C        0.28350    0.23720    0.26710    1.000
    C3       C        0.20790    0.60810    0.36350    1.000
    C4       C        0.16820    0.51480    0.37530    1.000
    N5       N        0.13830    0.48310    0.16920    1.000
    C5       C        0.32010    0.29350    0.33780    1.000
    C6       C        0.21710    0.14040    0.25060    1.000
    C7       C        0.30350    0.67380    0.39580    1.000
    H1       H        0.17150    0.62670    0.33450    1.000
    C8       C        0.22270    0.48710    0.41930    1.000
    H2       H        0.10570    0.47160    0.35390    1.000
    N6       N        0.13290    0.56640    0.15710    1.000
    C9       C        0.08440    0.40490    0.11430    1.000
    C10      C        0.28660    0.24630    0.39120    1.000
    H3       H        0.36450    0.35890    0.35030    1.000
    C11      C        0.18390    0.09870    0.30510    1.000
    H4       H        0.19380    0.10210    0.20360    1.000
    C12      C        0.34290    0.76920    0.38580    1.000
    C13      C        0.35560    0.64320    0.43930    1.000
    H5       H        0.19660    0.42520    0.42670    1.000
    C14      C        0.31410    0.55060    0.45140    1.000
    Ag6      Ag       0.21630    0.72013    0.23098    1.000
    N7       N        0.07650    0.53990    0.09760    1.000
    C15      C        0.07310    0.29830    0.10420    1.000
    N8       N        0.04500    0.43810    0.06970    1.000
    C16      C        0.21980    0.15350    0.37190    1.000
    H6       H        0.31140    0.28060    0.43840    1.000
    Ag7      Ag       0.31128    0.99323    0.29492    1.000
    H7       H        0.13780    0.03430    0.29400    1.000
    N9       N        0.40970    0.85300    0.43230    1.000
    N10      N        0.31730    0.79370    0.32960    1.000
    H8       H        0.41870    0.68480    0.46040    1.000
    H9       H        0.34920    0.53240    0.48140    1.000
    N11      N        0.20070    0.81190    0.15420    1.000
    Ag8      Ag       0.05668    0.64016    0.02895    1.000
    C17      C        0.04810    0.25800    0.15710    1.000
    C18      C        0.09630    0.23930    0.04050    1.000
    H10      H        0.19750    0.12580    0.40700    1.000
    N12      N        0.42390    0.92790    0.40360    1.000
    Ag9      Ag       0.48125    0.90297    0.54165    1.000
    N13      N        0.36940    0.89300    0.34380    1.000
    N14      N        0.25570    0.90820    0.17660    1.000
    C19      C        0.04160    0.15630    0.14560    1.000
    H11      H        0.03540    0.29730    0.20020    1.000
    H12      H        0.11470    0.26640    0.00460    1.000
    C20      C        0.09150    0.14230    0.03190    1.000
    N15      N        0.82080    0.21740    0.91600    1.000
    C21      C        0.06250    0.09960    0.08390    1.000
    H13      H        0.02280    0.12800    0.18090    1.000
    H14      H        0.10820    0.10370    0.99010    1.000
    C22      C        0.77520    0.13650    0.93490    1.000
    N16      N        0.53370    0.15770    0.36750    1.000
    N17      N        0.45970    0.12390    0.31450    1.000
    H15      H        0.05730    0.03230    0.07640    1.000
    N18      N        0.72760    0.05750    0.87690    1.000
    C23      C        0.77840    0.13410    0.00870    1.000
    C24      C        0.61400    0.20520    0.34310    1.000
    N19      N        0.49050    0.14750    0.26190    1.000
    C25      C        0.75830    0.04030    0.01990    1.000
    C26      C        0.79810    0.22050    0.06580    1.000
    N20      N        0.58700    0.19780    0.27550    1.000
    C27      C        0.71390    0.25350    0.38180    1.000
    H16      H        0.74180    0.97940    0.98240    1.000
    C28      C        0.76460    0.04310    0.09210    1.000
    C29      C        0.80340    0.21640    0.13340    1.000
    H17      H        0.80810    0.28250    0.05910    1.000
    C30      C        0.77560    0.34640    0.37610    1.000
    C31      C        0.74600    0.20790    0.42390    1.000
    C32      C        0.78380    0.12780    0.14650    1.000
    H18      H        0.75480    0.98240    0.10100    1.000
    H19      H        0.82110    0.27680    0.17140    1.000
    H20      H        0.75420    0.37690    0.34740    1.000
    C33      C        0.86630    0.38970    0.41330    1.000
    H21      H        0.70570    0.14700    0.42760    1.000
    C34      C        0.84130    0.25580    0.46110    1.000
    H22      H        0.78390    0.12650    0.19260    1.000
    H23      H        0.90700    0.45080    0.41030    1.000
    C35      C        0.89970    0.34540    0.45580    1.000
    H24      H        0.86440    0.22610    0.48960    1.000
    H25      H        0.96230    0.37670    0.48070    1.000
    O2       O        0.42200    0.79300    0.98380    1.000
    Ag10     Ag       0.32750    0.46320    0.07982    1.000
    Ag11     Ag       0.63540    0.17660    0.16703    1.000
    Ag12     Ag       0.50583    0.70950    0.95260    1.000
    N21      N        0.63330    0.71350    0.88710    1.000
    O3       O        0.47010    0.86520    0.98360    1.000
    N22      N        0.66530    0.63720    0.86010    1.000
    N23      N        0.64620    0.76980    0.84430    1.000
    N24      N        0.69960    0.64000    0.79860    1.000
    C36      C        0.68640    0.72280    0.79040    1.000
    Ag13     Ag       0.60044    0.90513    0.85459    1.000
    Ag14     Ag       0.76417    0.52129    0.74083    1.000
    C37      C        0.71650    0.76280    0.73290    1.000
    C38      C        0.79210    0.39190    0.63650    1.000
    C39      C        0.83180    0.48520    0.62470    1.000
    N25      N        0.86170    0.51690    0.83080    1.000
    C40      C        0.67990    0.70650    0.66220    1.000
    C41      C        0.78290    0.85960    0.74940    1.000
    C42      C        0.69650    0.32620    0.60420    1.000
    H26      H        0.82850    0.37330    0.66550    1.000
    C43      C        0.77730    0.51290    0.58070    1.000
    H27      H        0.89430    0.52840    0.64610    1.000
    N26      N        0.86710    0.43360    0.84290    1.000
    C44      C        0.91560    0.59510    0.88570    1.000
    C45      C        0.71340    0.75370    0.60880    1.000
    H28      H        0.63550    0.64110    0.64970    1.000
    C46      C        0.81610    0.90130    0.69490    1.000
    H29      H        0.80620    0.89790    0.79640    1.000
    C47      C        0.65710    0.23080    0.61420    1.000
    C48      C        0.64440    0.35680    0.56070    1.000
    H30      H        0.80340    0.57480    0.57330    1.000
    C49      C        0.68590    0.44940    0.54860    1.000
    Ag15     Ag       0.78370    0.27987    0.76902    1.000
    N27      N        0.92350    0.46010    0.90240    1.000
    C50      C        0.92690    0.70170    0.89580    1.000
    N28      N        0.95500    0.56190    0.93030    1.000
    C51      C        0.78020    0.84650    0.62810    1.000
    H31      H        0.68860    0.71940    0.56160    1.000
    Ag16     Ag       0.68872    0.00677    0.70508    1.000
    H32      H        0.86220    0.96570    0.70600    1.000
    N29      N        0.59030    0.14700    0.56770    1.000
    N30      N        0.68270    0.20630    0.67040    1.000
    H33      H        0.58130    0.31520    0.53960    1.000
    H34      H        0.65080    0.46760    0.51860    1.000
    N31      N        0.79930    0.18810    0.84580    1.000
    Ag17     Ag       0.94332    0.35984    0.97105    1.000
    C52      C        0.95190    0.74200    0.84290    1.000
    C53      C        0.90370    0.76070    0.95950    1.000
    H35      H        0.80250    0.87420    0.59300    1.000
    N32      N        0.57610    0.07210    0.59640    1.000
    Ag18     Ag       0.51875    0.09703    0.45835    1.000
    N33      N        0.63060    0.10700    0.65620    1.000
    N34      N        0.74430    0.09180    0.82340    1.000
    C54      C        0.95840    0.84370    0.85440    1.000
    H36      H        0.96460    0.70270    0.79980    1.000
    H37      H        0.88530    0.73360    0.99540    1.000
    C55      C        0.90850    0.85770    0.96810    1.000
    N35      N        0.17920    0.78260    0.08400    1.000
    C56      C        0.93750    0.90040    0.91610    1.000
    H38      H        0.97720    0.87200    0.81910    1.000
    H39      H        0.89180    0.89630    0.00990    1.000
    C57      C        0.22480    0.86350    0.06510    1.000
    N36      N        0.46630    0.84230    0.63250    1.000
    N37      N        0.54030    0.87610    0.68550    1.000
    H40      H        0.94270    0.96770    0.92360    1.000
    N38      N        0.27240    0.94250    0.12310    1.000
    C58      C        0.22160    0.86590    0.99130    1.000
    C59      C        0.38600    0.79480    0.65690    1.000
    N39      N        0.50950    0.85250    0.73810    1.000
    C60      C        0.24170    0.95970    0.98010    1.000
    C61      C        0.20190    0.77950    0.93420    1.000
    N40      N        0.41300    0.80220    0.72450    1.000
    C62      C        0.28610    0.74650    0.61820    1.000
    H41      H        0.25820    0.02060    0.01760    1.000
    C63      C        0.23540    0.95690    0.90790    1.000
    C64      C        0.19660    0.78360    0.86660    1.000
    H42      H        0.19190    0.71750    0.94090    1.000
    C65      C        0.22440    0.65360    0.62390    1.000
    C66      C        0.25400    0.79210    0.57610    1.000
    C67      C        0.21620    0.87220    0.85350    1.000
    H43      H        0.24520    0.01760    0.89900    1.000
    H44      H        0.17890    0.72320    0.82860    1.000
    H45      H        0.24580    0.62310    0.65260    1.000
    C68      C        0.13370    0.61030    0.58670    1.000
    H46      H        0.29430    0.85300    0.57240    1.000
    C69      C        0.15870    0.74420    0.53890    1.000
    H47      H        0.21610    0.87350    0.80740    1.000
    H48      H        0.09300    0.54920    0.58970    1.000
    C70      C        0.10030    0.65460    0.54420    1.000
    H49      H        0.13560    0.77390    0.51040    1.000
    H50      H        0.03770    0.62330    0.51930    1.000
    O4       O        0.57800    0.20700    0.01620    1.000
