data_functionalizedCrystal
_audit_creation_method	'EQeq! by Chris Wilmer'
_symmetry_space_group_name_H-M	'P1'
_symmetry_Int_Tables_number	1
_symmetry_cell_setting	triclinic
loop_
_symmetry_equiv_pos_as_xyz
  x,y,z
_cell_length_a	19.2266
_cell_length_b	19.2266
_cell_length_c	19.2266
_cell_angle_alpha	63.0463
_cell_angle_beta	74.1354
_cell_angle_gamma	105.865
loop_
_atom_site_label
_atom_site_type_symbol
_atom_site_fract_x
_atom_site_fract_y
_atom_site_fract_z
_atom_site_charge
Mof_Cu	Cu	-3.68405e-17	0.84021	0.15979	0.869
Mof_Cu	Cu	-2.10517e-17	0.15979	0.84021	0.869
Mof_Cu	Cu	0.26066	0.74203	0.48137	0.855
Mof_Cu	Cu	0.73934	0.25797	0.51863	0.857
Mof_Cu	Cu	0.7766	0.51863	0.74203	0.856
Mof_Cu	Cu	0.2234	0.48137	0.25797	0.856
Mof_H 	H 	0.1127	0.7737	0.5508	-0.015
Mof_H 	H 	0.3291	0.9523	0.3584	-0.027
Mof_H 	H 	0.3083	0.0942	0.2995	0.009
Mof_H 	H 	0.2883	0.0922	0.3857	0.012
Mof_H 	H 	0.252	0.112	0.1758	0.29
Mof_H 	H 	0.2467	0.0314	0.2561	0.29
Mof_H 	H 	0.1771	0.0187	0.2286	0.303
Mof_H 	H 	0.1328	0.1366	0.159	0.04
Mof_H 	H 	0.0465	0.1242	0.2107	0.032
Mof_H 	H 	0.93	0.8197	0.3463	-0.007
Mof_H 	H 	0.0897	0.0308	0.1147	0.012
Mof_H 	H 	0.9485	0.0797	0.3444	0.222
Mof_H 	H 	0.9646	0.135	0.3834	0.231
Mof_H 	H 	0.0092	0.1807	0.2815	0.203
Mof_H 	H 	0.0324	0.0885	0.5305	0.042
Mof_H 	H 	0.9771	0.1012	0.4837	0.056
Mof_H 	H 	0.1581	0.2815	0.3162	-0.01
Mof_H 	H 	0.0684	0.3628	0.4532	-0.007
Mof_H 	H 	0.129	0.0737	0.5349	0.266
Mof_H 	H 	0.2092	0.0716	0.4902	0.265
Mof_H 	H 	0.2074	0.1617	0.4569	0.26
Mof_H 	H 	0.8873	0.3365	0.339	-0.009
Mof_H 	H 	0.6709	0.3125	0.3768	-0.026
Mof_H 	H 	0.6917	0.3922	0.2141	0.006
Mof_H 	H 	0.7117	0.326	0.1961	0.008
Mof_H 	H 	0.748	0.5722	0.14	0.298
Mof_H 	H 	0.7533	0.4972	0.2153	0.298
Mof_H 	H 	0.8229	0.5943	0.1584	0.312
Mof_H 	H 	0.8672	0.7082	0.9962	0.036
Mof_H 	H 	0.9535	0.7428	0.9223	0.033
Mof_H 	H 	0.07	0.7237	0.1103	-0.001
Mof_H 	H 	0.9103	0.7956	0.0589	0.009
Mof_H 	H 	0.0515	0.7071	0.8688	0.271
Mof_H 	H 	0.0354	0.652	0.8296	0.282
Mof_H 	H 	0.9908	0.7093	0.8285	0.273
Mof_H 	H 	0.9676	0.4371	0.9439	0.021
Mof_H 	H 	0.0229	0.5392	0.8759	0.012
Mof_H 	H 	0.8419	0.5257	0.8766	-0.013
Mof_H 	H 	0.9316	0.4784	0.7056	-0.003
Mof_H 	H 	0.871	0.3361	0.0553	0.287
Mof_H 	H 	0.7908	0.3006	0.1376	0.281
Mof_H 	H 	0.7926	0.3357	0.0457	0.277
Mof_H 	H 	0.6755	0.4492	0.6635	-0.012
Mof_H 	H 	0.6893	0.6416	0.6875	-0.026
Mof_H 	H 	0.6063	0.7005	0.6078	0.006
Mof_H 	H 	0.5221	0.6143	0.674	0.009
Mof_H 	H 	0.7122	0.8242	0.4278	0.293
Mof_H 	H 	0.7125	0.7439	0.5028	0.294
Mof_H 	H 	0.7527	0.7714	0.4057	0.307
Mof_H 	H 	0.7044	0.841	0.2918	0.035
Mof_H 	H 	0.6651	0.7893	0.2572	0.029
Mof_H 	H 	0.834	0.6537	0.2763	-0.003
Mof_H 	H 	0.8545	0.8853	0.2044	0.007
Mof_H 	H 	0.5759	0.6556	0.2929	0.254
Mof_H 	H 	0.4816	0.6166	0.348	0.265
Mof_H 	H 	0.5378	0.7185	0.2907	0.249
Mof_H 	H 	0.381	0.4695	0.5629	0.03
Mof_H 	H 	0.4151	0.5163	0.4608	0.029
Mof_H 	H 	0.4023	0.6838	0.4743	-0.012
Mof_H 	H 	0.184	0.5468	0.5216	-0.006
Mof_H 	H 	0.3914	0.4651	0.6639	0.274
Mof_H 	H 	0.4382	0.5098	0.6994	0.271
Mof_H 	H 	0.3814	0.5431	0.6643	0.266
Mof_H 	H 	0.3245	0.661	0.2263	-0.013
Mof_H 	H 	0.3107	0.6232	0.0477	-0.025
Mof_H 	H 	0.3937	0.7859	0.9058	0.007
Mof_H 	H 	0.4779	0.8039	0.9078	0.01
Mof_H 	H 	0.2878	0.86	0.888	0.293
Mof_H 	H 	0.2875	0.7847	0.9686	0.293
Mof_H 	H 	0.2473	0.8416	0.9813	0.306
Mof_H 	H 	0.2956	0.0038	0.8634	0.034
Mof_H 	H 	0.3349	0.0777	0.8758	0.027
Mof_H 	H 	0.166	0.8897	0.1803	-0.006
Mof_H 	H 	0.1455	0.9411	0.9692	0.002
Mof_H 	H 	0.4241	0.1312	0.9203	0.255
Mof_H 	H 	0.5184	0.1704	0.865	0.265
Mof_H 	H 	0.4622	0.1715	0.8193	0.25
Mof_H 	H 	0.619	0.0561	0.9115	0.032
Mof_H 	H 	0.5849	0.1241	0.8988	0.029
Mof_H 	H 	0.5977	0.1234	0.7185	-0.011
Mof_H 	H 	0.816	0.2944	0.6372	-0.003
Mof_H 	H 	0.6086	0.9447	0.9263	0.266
Mof_H 	H 	0.5618	0.8624	0.9284	0.266
Mof_H 	H 	0.6186	0.9543	0.8383	0.26
Mof_H 	H 	0.8873	0.2263	0.4492	-0.009
Mof_H 	H 	0.6709	0.0477	0.6416	-0.024
Mof_H 	H 	0.6917	0.9058	0.7005	0.006
Mof_H 	H 	0.7117	0.9078	0.6143	0.009
Mof_H 	H 	0.748	0.888	0.8242	0.295
Mof_H 	H 	0.7533	0.9686	0.7439	0.294
Mof_H 	H 	0.8229	0.9813	0.7714	0.307
Mof_H 	H 	0.8672	0.8634	0.841	0.032
Mof_H 	H 	0.9535	0.8758	0.7893	0.027
Mof_H 	H 	0.07	0.1803	0.6537	-0.001
Mof_H 	H 	0.9103	0.9692	0.8853	-0.007
Mof_H 	H 	0.0515	0.9203	0.6556	0.273
Mof_H 	H 	0.0354	0.865	0.6166	0.284
Mof_H 	H 	0.9908	0.8193	0.7185	0.275
Mof_H 	H 	0.9676	0.9115	0.4695	0.023
Mof_H 	H 	0.0229	0.8988	0.5163	0.012
Mof_H 	H 	0.8419	0.7185	0.6838	-0.013
Mof_H 	H 	0.9316	0.6372	0.5468	-0.003
Mof_H 	H 	0.871	0.9263	0.4651	0.277
Mof_H 	H 	0.7908	0.9284	0.5098	0.274
Mof_H 	H 	0.7926	0.8383	0.5431	0.269
Mof_H 	H 	0.1127	0.6635	0.661	-0.015
Mof_H 	H 	0.3291	0.6875	0.6232	-0.026
Mof_H 	H 	0.3083	0.6078	0.7859	0.009
Mof_H 	H 	0.2883	0.674	0.8039	0.012
Mof_H 	H 	0.252	0.4278	0.86	0.287
Mof_H 	H 	0.2467	0.5028	0.7847	0.288
Mof_H 	H 	0.1771	0.4057	0.8416	0.3
Mof_H 	H 	0.1328	0.2918	0.0038	0.039
Mof_H 	H 	0.0465	0.2572	0.0777	0.03
Mof_H 	H 	0.93	0.2763	0.8897	-0.007
Mof_H 	H 	0.0897	0.2044	0.9411	0.007
Mof_H 	H 	0.9485	0.2929	0.1312	0.221
Mof_H 	H 	0.9646	0.348	0.1704	0.23
Mof_H 	H 	0.0092	0.2907	0.1715	0.204
Mof_H 	H 	0.0324	0.5629	0.0561	0.042
Mof_H 	H 	0.9771	0.4608	0.1241	0.054
Mof_H 	H 	0.1581	0.4743	0.1234	-0.01
Mof_H 	H 	0.0684	0.5216	0.2944	-0.007
Mof_H 	H 	0.129	0.6639	0.9447	0.263
Mof_H 	H 	0.2092	0.6994	0.8624	0.262
Mof_H 	H 	0.2074	0.6643	0.9543	0.257
Mof_H 	H 	0.3245	0.5508	0.3365	-0.013
Mof_H 	H 	0.3107	0.3584	0.3125	-0.026
Mof_H 	H 	0.3937	0.2995	0.3922	0.007
Mof_H 	H 	0.4779	0.3857	0.326	0.01
Mof_H 	H 	0.2878	0.1758	0.5722	0.295
Mof_H 	H 	0.2875	0.2561	0.4972	0.295
Mof_H 	H 	0.2473	0.2286	0.5943	0.308
Mof_H 	H 	0.2956	0.159	0.7082	0.036
Mof_H 	H 	0.3349	0.2107	0.7428	0.03
Mof_H 	H 	0.166	0.3463	0.7237	-0.005
Mof_H 	H 	0.1455	0.1147	0.7956	0.007
Mof_H 	H 	0.4241	0.3444	0.7071	0.254
Mof_H 	H 	0.5184	0.3834	0.652	0.264
Mof_H 	H 	0.4622	0.2815	0.7093	0.249
Mof_H 	H 	0.619	0.5305	0.4371	0.03
Mof_H 	H 	0.5849	0.4837	0.5392	0.029
Mof_H 	H 	0.5977	0.3162	0.5257	-0.012
Mof_H 	H 	0.816	0.4532	0.4784	-0.003
Mof_H 	H 	0.6086	0.5349	0.3361	0.274
Mof_H 	H 	0.5618	0.4902	0.3006	0.272
Mof_H 	H 	0.6186	0.4569	0.3357	0.267
Mof_H 	H 	0.6755	0.339	0.7737	-0.012
Mof_H 	H 	0.6893	0.3768	0.9523	-0.028
Mof_H 	H 	0.6063	0.2141	0.0942	0.006
Mof_H 	H 	0.5221	0.1961	0.0922	0.009
Mof_H 	H 	0.7122	0.14	0.112	0.297
Mof_H 	H 	0.7125	0.2153	0.0314	0.297
Mof_H 	H 	0.7527	0.1584	0.0187	0.311
Mof_H 	H 	0.7044	0.9962	0.1366	0.039
Mof_H 	H 	0.6651	0.9223	0.1242	0.035
Mof_H 	H 	0.834	0.1103	0.8197	-0.002
Mof_H 	H 	0.8545	0.0589	0.0308	0.021
Mof_H 	H 	0.5759	0.8688	0.0797	0.253
Mof_H 	H 	0.4816	0.8296	0.135	0.263
Mof_H 	H 	0.5378	0.8285	0.1807	0.247
Mof_H 	H 	0.381	0.9439	0.0885	0.029
Mof_H 	H 	0.4151	0.8759	0.1012	0.029
Mof_H 	H 	0.4023	0.8766	0.2815	-0.012
Mof_H 	H 	0.184	0.7056	0.3628	-0.006
Mof_H 	H 	0.3914	0.0553	0.0737	0.279
Mof_H 	H 	0.4382	0.1376	0.0716	0.276
Mof_H 	H 	0.3814	0.0457	0.1617	0.271
Mof_C 	C 	0.15852	0.82785	0.50729	0.081
Mof_C 	C 	0.27648	0.92453	0.40336	0.096
Mof_C 	C 	0.2662	0.06654	0.3585	0.029
Mof_C 	C 	0.19192	0.07865	0.3559	-0.242
Mof_C 	C 	0.17115	0.07775	0.29362	0.348
Mof_C 	C 	0.21577	0.05818	0.23303	-0.876
Mof_C 	C 	0.10501	0.0937	0.28866	-0.212
Mof_C 	C 	0.08351	0.0987	0.21504	0.007
Mof_C 	C 	0.9682	0.87796	0.30158	0.106
Mof_C 	C 	0.05495	0.99114	0.17483	0.072
Mof_C 	C 	0.06064	0.1074	0.34629	0.247
Mof_C 	C 	0.98885	0.12768	0.33809	-0.64
Mof_C 	C 	0.08182	0.10579	0.41003	-0.205
Mof_C 	C 	0.03303	0.12173	0.4742	-0.02
Mof_C 	C 	0.12847	0.28387	0.3615	0.084
Mof_C 	C 	0.07861	0.32618	0.43737	0.081
Mof_C 	C 	0.14943	0.09448	0.41498	0.306
Mof_C 	C 	0.17621	0.10096	0.48031	-0.802
Mof_C 	C 	0.84148	0.33419	0.33067	0.083
Mof_C 	C 	0.72352	0.32015	0.35196	0.098
Mof_C 	C 	0.7338	0.3753	0.19966	0.039
Mof_C 	C 	0.80808	0.45218	0.11328	-0.267
Mof_C 	C 	0.82885	0.53523	0.0934	0.374
Mof_C 	C 	0.78423	0.5512	0.15759	-0.903
Mof_C 	C 	0.89499	0.60633	0.01131	-0.236
Mof_C 	C 	0.91649	0.70145	0.98481	0.01
Mof_C 	C 	0.0318	0.73023	0.09024	0.08
Mof_C 	C 	0.94505	0.77022	0.06381	0.085
Mof_C 	C 	0.93936	0.59307	0.95324	0.325
Mof_C 	C 	0.01115	0.67306	0.86117	-0.834
Mof_C 	C 	0.91818	0.50816	0.97602	-0.265
Mof_C 	C 	0.96697	0.49277	0.9113	0.06
Mof_C 	C 	0.87153	0.51003	0.8446	0.09
Mof_C 	C 	0.92139	0.48402	0.75243	0.083
Mof_C 	C 	0.85057	0.43559	0.05496	0.35
Mof_C 	C 	0.82379	0.34348	0.07525	-0.854
Mof_C 	C 	0.66486	0.49271	0.66581	0.081
Mof_C 	C 	0.67211	0.59663	0.67984	0.097
Mof_C 	C 	0.57496	0.6415	0.6247	0.034
Mof_C 	C 	0.56545	0.64409	0.54782	-0.257
Mof_C 	C 	0.62863	0.70638	0.46477	0.365
Mof_C 	C 	0.70879	0.76697	0.4488	-0.893
Mof_C 	C 	0.61764	0.71134	0.39367	-0.239
Mof_C 	C 	0.68626	0.78496	0.29855	0.022
Mof_C 	C 	0.82047	0.69843	0.26977	0.094
Mof_C 	C 	0.83403	0.82517	0.22978	0.084
Mof_C 	C 	0.54631	0.65371	0.40693	0.303
Mof_C 	C 	0.53423	0.66191	0.32694	-0.768
Mof_C 	C 	0.48418	0.58998	0.49185	-0.239
Mof_C 	C 	0.40407	0.5258	0.50723	0.028
Mof_C 	C 	0.35463	0.6385	0.48997	0.088
Mof_C 	C 	0.23645	0.56263	0.51598	0.082
Mof_C 	C 	0.49055	0.58502	0.5644	0.326
Mof_C 	C 	0.41873	0.51969	0.65652	-0.825
Mof_C 	C 	0.33514	0.66933	0.17215	0.082
Mof_C 	C 	0.32789	0.64805	0.07548	0.097
Mof_C 	C 	0.42504	0.80034	0.93346	0.029
Mof_C 	C 	0.43455	0.88673	0.92135	-0.255
Mof_C 	C 	0.37137	0.9066	0.92225	0.366
Mof_C 	C 	0.29121	0.84241	0.94182	-0.893
Mof_C 	C 	0.38236	0.98869	0.9063	-0.249
Mof_C 	C 	0.31374	0.01519	0.9013	0.033
Mof_C 	C 	0.17953	0.90975	0.12204	0.094
Mof_C 	C 	0.16597	0.93619	0.00886	0.09
Mof_C 	C 	0.45369	0.04676	0.8926	0.307
Mof_C 	C 	0.46577	0.13883	0.87232	-0.771
Mof_C 	C 	0.51582	0.02397	0.8942	-0.233
Mof_C 	C 	0.59593	0.0887	0.87827	0.026
Mof_C 	C 	0.64537	0.1554	0.71613	0.088
Mof_C 	C 	0.76355	0.24757	0.67382	0.083
Mof_C 	C 	0.50945	0.94504	0.90553	0.315
Mof_C 	C 	0.58127	0.92475	0.89904	-0.81
Mof_C 	C 	0.84148	0.17215	0.49271	0.083
Mof_C 	C 	0.72352	0.07547	0.59664	0.098
Mof_C 	C 	0.7338	0.93346	0.6415	0.032
Mof_C 	C 	0.80808	0.92135	0.6441	-0.264
Mof_C 	C 	0.82885	0.92225	0.70638	0.373
Mof_C 	C 	0.78423	0.94182	0.76697	-0.898
Mof_C 	C 	0.89499	0.9063	0.71134	-0.253
Mof_C 	C 	0.91649	0.9013	0.78496	0.032
Mof_C 	C 	0.0318	0.12204	0.69842	0.079
Mof_C 	C 	0.94505	0.00886	0.82517	0.111
Mof_C 	C 	0.93936	0.8926	0.65371	0.334
Mof_C 	C 	0.01115	0.87232	0.66191	-0.84
Mof_C 	C 	0.91818	0.89421	0.58997	-0.258
Mof_C 	C 	0.96697	0.87827	0.5258	0.057
Mof_C 	C 	0.87153	0.71613	0.6385	0.09
Mof_C 	C 	0.92139	0.67382	0.56263	0.083
Mof_C 	C 	0.85057	0.90552	0.58502	0.336
Mof_C 	C 	0.82379	0.89904	0.51969	-0.836
Mof_C 	C 	0.15852	0.66581	0.66933	0.081
Mof_C 	C 	0.27648	0.67985	0.64804	0.096
Mof_C 	C 	0.2662	0.6247	0.80034	0.026
Mof_C 	C 	0.19192	0.54782	0.88672	-0.241
Mof_C 	C 	0.17115	0.46477	0.9066	0.347
Mof_C 	C 	0.21577	0.4488	0.84241	-0.873
Mof_C 	C 	0.10501	0.39367	0.98869	-0.217
Mof_C 	C 	0.08351	0.29855	0.01519	0.013
Mof_C 	C 	0.9682	0.26977	0.90976	0.106
Mof_C 	C 	0.05495	0.22978	0.93619	0.08
Mof_C 	C 	0.06064	0.40693	0.04676	0.249
Mof_C 	C 	0.98885	0.32694	0.13883	-0.64
Mof_C 	C 	0.08182	0.49184	0.02398	-0.203
Mof_C 	C 	0.03303	0.50723	0.0887	-0.02
Mof_C 	C 	0.12847	0.48997	0.1554	0.085
Mof_C 	C 	0.07861	0.51598	0.24757	0.081
Mof_C 	C 	0.14943	0.56441	0.94504	0.301
Mof_C 	C 	0.17621	0.65652	0.92475	-0.795
Mof_C 	C 	0.33514	0.50729	0.33419	0.081
Mof_C 	C 	0.32789	0.40337	0.32016	0.097
Mof_C 	C 	0.42504	0.3585	0.3753	0.034
Mof_C 	C 	0.43455	0.35591	0.45218	-0.257
Mof_C 	C 	0.37137	0.29362	0.53523	0.366
Mof_C 	C 	0.29121	0.23303	0.5512	-0.895
Mof_C 	C 	0.38236	0.28866	0.60633	-0.239
Mof_C 	C 	0.31374	0.21504	0.70145	0.021
Mof_C 	C 	0.17953	0.30157	0.73023	0.094
Mof_C 	C 	0.16597	0.17483	0.77022	0.083
Mof_C 	C 	0.45369	0.34629	0.59307	0.303
Mof_C 	C 	0.46577	0.33809	0.67306	-0.767
Mof_C 	C 	0.51582	0.41002	0.50815	-0.239
Mof_C 	C 	0.59593	0.4742	0.49277	0.028
Mof_C 	C 	0.64537	0.3615	0.51003	0.088
Mof_C 	C 	0.76355	0.43737	0.48402	0.082
Mof_C 	C 	0.50945	0.41498	0.4356	0.326
Mof_C 	C 	0.58127	0.48031	0.34348	-0.826
Mof_C 	C 	0.66486	0.33067	0.82785	0.081
Mof_C 	C 	0.67211	0.35195	0.92452	0.097
Mof_C 	C 	0.57496	0.19966	0.06654	0.039
Mof_C 	C 	0.56545	0.11327	0.07865	-0.259
Mof_C 	C 	0.62863	0.0934	0.07775	0.365
Mof_C 	C 	0.70879	0.15759	0.05818	-0.897
Mof_C 	C 	0.61764	0.01131	0.0937	-0.223
Mof_C 	C 	0.68626	0.98481	0.0987	0.003
Mof_C 	C 	0.82047	0.09025	0.87796	0.095
Mof_C 	C 	0.83403	0.06381	0.99114	0.065
Mof_C 	C 	0.54631	0.95324	0.1074	0.294
Mof_C 	C 	0.53423	0.86117	0.12768	-0.761
Mof_C 	C 	0.48418	0.97603	0.1058	-0.243
Mof_C 	C 	0.40407	0.9113	0.12173	0.029
Mof_C 	C 	0.35463	0.8446	0.28387	0.088
Mof_C 	C 	0.23645	0.75243	0.32618	0.082
Mof_C 	C 	0.49055	0.05496	0.09447	0.335
Mof_C 	C 	0.41873	0.07525	0.10096	-0.836
Mof_I 	I 	-0	0.67624	0.32376	-0.219
Mof_I 	I 	2.10517e-17	0.32376	0.67624	-0.219
Mof_I 	I 	-0	0	-0	-0.265
Mof_N 	N 	0.23406	0.83908	0.46441	-0.247
Mof_N 	N 	0.15994	0.90471	0.47821	-0.101
Mof_N 	N 	0.23472	0.96422	0.41472	-0.11
Mof_N 	N 	0.0076	0.90627	0.21519	-0.238
Mof_N 	N 	0.98807	0.93787	0.3159	-0.101
Mof_N 	N 	0.0452	0.01077	0.23332	-0.101
Mof_N 	N 	0.06875	0.2141	0.43957	-0.098
Mof_N 	N 	0.03706	0.24106	0.48818	-0.098
Mof_N 	N 	0.13999	0.35707	0.35692	-0.241
Mof_N 	N 	0.76594	0.30153	0.39497	-0.246
Mof_N 	N 	0.84006	0.36185	0.25523	-0.098
Mof_N 	N 	0.76528	0.35056	0.27051	-0.11
Mof_N 	N 	0.9924	0.7772	0.10133	-0.222
Mof_N 	N 	0.01193	0.69603	0.0502	-0.106
Mof_N 	N 	0.9548	0.72148	0.03443	-0.093
Mof_N 	N 	0.93125	0.49167	0.85466	-0.107
Mof_N 	N 	0.96294	0.47476	0.796	-0.092
Mof_N 	N 	0.86001	0.50309	0.78291	-0.241
Mof_N 	N 	0.69651	0.5356	0.69847	-0.247
Mof_N 	N 	0.61708	0.52179	0.63815	-0.099
Mof_N 	N 	0.62107	0.58528	0.64943	-0.109
Mof_N 	N 	0.87854	0.78481	0.22279	-0.23
Mof_N 	N 	0.74623	0.6841	0.30397	-0.102
Mof_N 	N 	0.75591	0.76668	0.27852	-0.102
Mof_N 	N 	0.34633	0.56042	0.50832	-0.103
Mof_N 	N 	0.27076	0.51182	0.52524	-0.095
Mof_N 	N 	0.286	0.64308	0.49692	-0.241
Mof_N 	N 	0.3035	0.60503	0.16091	-0.247
Mof_N 	N 	0.38292	0.74477	0.09529	-0.099
Mof_N 	N 	0.37893	0.72949	0.03579	-0.107
Mof_N 	N 	0.12146	0.89867	0.09373	-0.235
Mof_N 	N 	0.25377	0.9498	0.06213	-0.102
Mof_N 	N 	0.24409	0.96557	0.98923	-0.108
Mof_N 	N 	0.65367	0.14535	0.78591	-0.103
Mof_N 	N 	0.72924	0.204	0.75894	-0.094
Mof_N 	N 	0.714	0.21709	0.64292	-0.241
Mof_N 	N 	0.76594	0.16092	0.53559	-0.246
Mof_N 	N 	0.84006	0.09529	0.52179	-0.097
Mof_N 	N 	0.76528	0.03578	0.58528	-0.106
Mof_N 	N 	0.9924	0.09373	0.78481	-0.226
Mof_N 	N 	0.01193	0.06213	0.6841	-0.103
Mof_N 	N 	0.9548	0.98923	0.76668	-0.108
Mof_N 	N 	0.93125	0.7859	0.56043	-0.107
Mof_N 	N 	0.96294	0.75894	0.51182	-0.092
Mof_N 	N 	0.86001	0.64293	0.64308	-0.241
Mof_N 	N 	0.23406	0.69847	0.60503	-0.247
Mof_N 	N 	0.15994	0.63815	0.74477	-0.101
Mof_N 	N 	0.23472	0.64944	0.72949	-0.109
Mof_N 	N 	0.0076	0.22279	0.89867	-0.24
Mof_N 	N 	0.98807	0.30397	0.9498	-0.1
Mof_N 	N 	0.0452	0.27852	0.96557	-0.106
Mof_N 	N 	0.06875	0.50832	0.14534	-0.097
Mof_N 	N 	0.03706	0.52524	0.204	-0.098
Mof_N 	N 	0.13999	0.49691	0.21709	-0.241
Mof_N 	N 	0.30349	0.4644	0.30153	-0.247
Mof_N 	N 	0.38292	0.47821	0.36185	-0.099
Mof_N 	N 	0.37893	0.41472	0.35057	-0.109
Mof_N 	N 	0.12146	0.21519	0.77721	-0.233
Mof_N 	N 	0.25377	0.3159	0.69603	-0.103
Mof_N 	N 	0.24409	0.23332	0.72148	-0.102
Mof_N 	N 	0.65367	0.43958	0.49168	-0.103
Mof_N 	N 	0.72924	0.48818	0.47476	-0.094
Mof_N 	N 	0.714	0.35692	0.50308	-0.241
Mof_N 	N 	0.69651	0.39498	0.83908	-0.247
Mof_N 	N 	0.61708	0.25523	0.90471	-0.1
Mof_N 	N 	0.62107	0.27051	0.96421	-0.112
Mof_N 	N 	0.87854	0.10133	0.90627	-0.226
Mof_N 	N 	0.74623	0.0502	0.93787	-0.104
Mof_N 	N 	0.75591	0.03443	0.01077	-0.09
Mof_N 	N 	0.34633	0.85465	0.2141	-0.104
Mof_N 	N 	0.27076	0.796	0.24106	-0.095
Mof_N 	N 	0.286	0.78291	0.35708	-0.241
Mof_I 	I 	0.86482	0.0569	0.19208	-0.149
Mof_I 	I 	0.13518	0.9431	0.80792	-0.178
Mof_I 	I 	0.75102	0.80792	0.0569	-0.163
Mof_I 	I 	0.24898	0.19208	0.9431	-0.17
Mof_I 	I 	0.5899	0.91374	0.32384	-0.185
Mof_I 	I 	0.4101	0.08625	0.67616	-0.177
Mof_I 	I 	0.76241	0.67615	0.91375	-0.185
Mof_I 	I 	0.23759	0.32385	0.08625	-0.177
_end
