# CIF file generated by openbabel 3.1.0, see https://openbabel.org
data_I
_chemical_name_common 'image0'
_cell_length_a 25.7675
_cell_length_b 16.8891
_cell_length_c 13.2819
_cell_angle_alpha 90
_cell_angle_beta 104.73
_cell_angle_gamma 90
_space_group_name_H-M_alt 'P 1'
_space_group_name_Hall 'P 1'
loop_
    _symmetry_equiv_pos_as_xyz
    x,y,z
loop_
    _atom_site_label
    _atom_site_type_symbol
    _atom_site_fract_x
    _atom_site_fract_y
    _atom_site_fract_z
    _atom_site_occupancy
    Mn1      Mn       0.63443    0.07291    0.85667    1.000
    Mn2      Mn       0.67287    0.99562    0.61595    1.000
    O1       O        0.07020    0.50800    0.89020    1.000
    O2       O        0.09920    0.44310    0.03980    1.000
    O3       O        0.86330    0.47220    0.75530    1.000
    O4       O        0.86210    0.36320    0.65980    1.000
    O5       O        0.88440    0.29290    0.07170    1.000
    O6       O        0.84750    0.38700    0.97460    1.000
    O7       O        0.70880    0.12010    0.84900    1.000
    O8       O        0.71100    0.09970    0.68460    1.000
    O9       O        0.87920    0.16070    0.59560    1.000
    O10      O        0.94370    0.20130    0.70280    1.000
    O11      O        0.95670    0.14090    0.92950    1.000
    O12      O        0.01780    0.18570    0.06100    1.000
    O13      O        0.69570    0.02640    0.46870    1.000
    N1       N        0.98420    0.19560    0.97260    1.000
    N2       N        0.90000    0.17840    0.68520    1.000
    C1       C        0.06670    0.45430    0.95390    1.000
    C2       C        0.01830    0.40020    0.92150    1.000
    C3       C        0.97320    0.42500    0.85120    1.000
    H1       H        0.97170    0.47610    0.82460    1.000
    C4       C        0.92920    0.37480    0.81840    1.000
    C5       C        0.93110    0.29740    0.85840    1.000
    C6       C        0.97840    0.27380    0.93050    1.000
    C7       C        0.02130    0.32450    0.96300    1.000
    H2       H        0.05190    0.30820    0.01230    1.000
    C8       C        0.88030    0.40410    0.73750    1.000
    C9       C        0.88060    0.24810    0.83350    1.000
    C10      C        0.86520    0.19630    0.75080    1.000
    C11      C        0.81770    0.15730    0.73160    1.000
    H3       H        0.80780    0.12310    0.67500    1.000
    C12      C        0.78360    0.16860    0.79720    1.000
    C13      C        0.79750    0.21850    0.87760    1.000
    H4       H        0.77470    0.22560    0.92110    1.000
    C14      C        0.84530    0.25970    0.89680    1.000
    C15      C        0.86020    0.31610    0.98820    1.000
    C16      C        0.73010    0.12540    0.77530    1.000
    H5       H        0.67730    0.06100    0.42890    1.000
    H6       H        0.69910    0.98490    0.43530    1.000
    Mn3      Mn       0.13443    0.57291    0.85667    1.000
    Mn4      Mn       0.17287    0.49562    0.61595    1.000
    O14      O        0.57020    0.00800    0.89020    1.000
    O15      O        0.59920    0.94310    0.03980    1.000
    O16      O        0.36330    0.97220    0.75530    1.000
    O17      O        0.36210    0.86320    0.65980    1.000
    O18      O        0.38440    0.79290    0.07170    1.000
    O19      O        0.34750    0.88700    0.97460    1.000
    O20      O        0.20880    0.62010    0.84900    1.000
    O21      O        0.21100    0.59970    0.68460    1.000
    O22      O        0.37920    0.66070    0.59560    1.000
    O23      O        0.44370    0.70130    0.70280    1.000
    O24      O        0.45670    0.64090    0.92950    1.000
    O25      O        0.51780    0.68570    0.06100    1.000
    O26      O        0.19570    0.52640    0.46870    1.000
    N3       N        0.48420    0.69560    0.97260    1.000
    N4       N        0.40000    0.67840    0.68520    1.000
    C17      C        0.56670    0.95430    0.95390    1.000
    C18      C        0.51830    0.90020    0.92150    1.000
    C19      C        0.47320    0.92500    0.85120    1.000
    H7       H        0.47170    0.97610    0.82460    1.000
    C20      C        0.42920    0.87480    0.81840    1.000
    C21      C        0.43110    0.79740    0.85840    1.000
    C22      C        0.47840    0.77380    0.93050    1.000
    C23      C        0.52130    0.82450    0.96300    1.000
    H8       H        0.55190    0.80820    0.01230    1.000
    C24      C        0.38030    0.90410    0.73750    1.000
    C25      C        0.38060    0.74810    0.83350    1.000
    C26      C        0.36520    0.69630    0.75080    1.000
    C27      C        0.31770    0.65730    0.73160    1.000
    H9       H        0.30780    0.62310    0.67500    1.000
    C28      C        0.28360    0.66860    0.79720    1.000
    C29      C        0.29750    0.71850    0.87760    1.000
    H10      H        0.27470    0.72560    0.92110    1.000
    C30      C        0.34530    0.75970    0.89680    1.000
    C31      C        0.36020    0.81610    0.98820    1.000
    C32      C        0.23010    0.62540    0.77530    1.000
    H11      H        0.17730    0.56100    0.42890    1.000
    H12      H        0.19910    0.48490    0.43530    1.000
    Mn5      Mn       0.36557    0.07291    0.64333    1.000
    Mn6      Mn       0.32713    0.99562    0.88405    1.000
    O27      O        0.92980    0.50800    0.60980    1.000
    O28      O        0.90080    0.44310    0.46020    1.000
    O29      O        0.13670    0.47220    0.74470    1.000
    O30      O        0.13790    0.36320    0.84020    1.000
    O31      O        0.11560    0.29290    0.42830    1.000
    O32      O        0.15250    0.38700    0.52540    1.000
    O33      O        0.29120    0.12010    0.65100    1.000
    O34      O        0.28900    0.09970    0.81540    1.000
    O35      O        0.12080    0.16070    0.90440    1.000
    O36      O        0.05630    0.20130    0.79720    1.000
    O37      O        0.04330    0.14090    0.57050    1.000
    O38      O        0.98220    0.18570    0.43900    1.000
    O39      O        0.30430    0.02640    0.03130    1.000
    N5       N        0.01580    0.19560    0.52740    1.000
    N6       N        0.10000    0.17840    0.81480    1.000
    C33      C        0.93330    0.45430    0.54610    1.000
    C34      C        0.98170    0.40020    0.57850    1.000
    C35      C        0.02680    0.42500    0.64880    1.000
    H13      H        0.02830    0.47610    0.67540    1.000
    C36      C        0.07080    0.37480    0.68160    1.000
    C37      C        0.06890    0.29740    0.64160    1.000
    C38      C        0.02160    0.27380    0.56950    1.000
    C39      C        0.97870    0.32450    0.53700    1.000
    H14      H        0.94810    0.30820    0.48770    1.000
    C40      C        0.11970    0.40410    0.76250    1.000
    C41      C        0.11940    0.24810    0.66650    1.000
    C42      C        0.13480    0.19630    0.74920    1.000
    C43      C        0.18230    0.15730    0.76840    1.000
    H15      H        0.19220    0.12310    0.82500    1.000
    C44      C        0.21640    0.16860    0.70280    1.000
    C45      C        0.20250    0.21850    0.62240    1.000
    H16      H        0.22530    0.22560    0.57890    1.000
    C46      C        0.15470    0.25970    0.60320    1.000
    C47      C        0.13980    0.31610    0.51180    1.000
    C48      C        0.26990    0.12540    0.72470    1.000
    H17      H        0.32270    0.06100    0.07110    1.000
    H18      H        0.30090    0.98490    0.06470    1.000
    Mn7      Mn       0.86557    0.57291    0.64333    1.000
    Mn8      Mn       0.82713    0.49562    0.88405    1.000
    O40      O        0.42980    0.00800    0.60980    1.000
    O41      O        0.40080    0.94310    0.46020    1.000
    O42      O        0.63670    0.97220    0.74470    1.000
    O43      O        0.63790    0.86320    0.84020    1.000
    O44      O        0.61560    0.79290    0.42830    1.000
    O45      O        0.65250    0.88700    0.52540    1.000
    O46      O        0.79120    0.62010    0.65100    1.000
    O47      O        0.78900    0.59970    0.81540    1.000
    O48      O        0.62080    0.66070    0.90440    1.000
    O49      O        0.55630    0.70130    0.79720    1.000
    O50      O        0.54330    0.64090    0.57050    1.000
    O51      O        0.48220    0.68570    0.43900    1.000
    O52      O        0.80430    0.52640    0.03130    1.000
    N7       N        0.51580    0.69560    0.52740    1.000
    N8       N        0.60000    0.67840    0.81480    1.000
    C49      C        0.43330    0.95430    0.54610    1.000
    C50      C        0.48170    0.90020    0.57850    1.000
    C51      C        0.52680    0.92500    0.64880    1.000
    H19      H        0.52830    0.97610    0.67540    1.000
    C52      C        0.57080    0.87480    0.68160    1.000
    C53      C        0.56890    0.79740    0.64160    1.000
    C54      C        0.52160    0.77380    0.56950    1.000
    C55      C        0.47870    0.82450    0.53700    1.000
    H20      H        0.44810    0.80820    0.48770    1.000
    C56      C        0.61970    0.90410    0.76250    1.000
    C57      C        0.61940    0.74810    0.66650    1.000
    C58      C        0.63480    0.69630    0.74920    1.000
    C59      C        0.68230    0.65730    0.76840    1.000
    H21      H        0.69220    0.62310    0.82500    1.000
    C60      C        0.71640    0.66860    0.70280    1.000
    C61      C        0.70250    0.71850    0.62240    1.000
    H22      H        0.72530    0.72560    0.57890    1.000
    C62      C        0.65470    0.75970    0.60320    1.000
    C63      C        0.63980    0.81610    0.51180    1.000
    C64      C        0.76990    0.62540    0.72470    1.000
    H23      H        0.82270    0.56100    0.07110    1.000
    H24      H        0.80090    0.48490    0.06470    1.000
    Mn9      Mn       0.36557    0.92709    0.14333    1.000
    Mn10     Mn       0.32713    0.00438    0.38405    1.000
    O53      O        0.92980    0.49200    0.10980    1.000
    O54      O        0.90080    0.55690    0.96020    1.000
    O55      O        0.13670    0.52780    0.24470    1.000
    O56      O        0.13790    0.63680    0.34020    1.000
    O57      O        0.11560    0.70710    0.92830    1.000
    O58      O        0.15250    0.61300    0.02540    1.000
    O59      O        0.29120    0.87990    0.15100    1.000
    O60      O        0.28900    0.90030    0.31540    1.000
    O61      O        0.12080    0.83930    0.40440    1.000
    O62      O        0.05630    0.79870    0.29720    1.000
    O63      O        0.04330    0.85910    0.07050    1.000
    O64      O        0.98220    0.81430    0.93900    1.000
    O65      O        0.30430    0.97360    0.53130    1.000
    N9       N        0.01580    0.80440    0.02740    1.000
    N10      N        0.10000    0.82160    0.31480    1.000
    C65      C        0.93330    0.54570    0.04610    1.000
    C66      C        0.98170    0.59980    0.07850    1.000
    C67      C        0.02680    0.57500    0.14880    1.000
    H25      H        0.02830    0.52390    0.17540    1.000
    C68      C        0.07080    0.62520    0.18160    1.000
    C69      C        0.06890    0.70260    0.14160    1.000
    C70      C        0.02160    0.72620    0.06950    1.000
    C71      C        0.97870    0.67550    0.03700    1.000
    H26      H        0.94810    0.69180    0.98770    1.000
    C72      C        0.11970    0.59590    0.26250    1.000
    C73      C        0.11940    0.75190    0.16650    1.000
    C74      C        0.13480    0.80370    0.24920    1.000
    C75      C        0.18230    0.84270    0.26840    1.000
    H27      H        0.19220    0.87690    0.32500    1.000
    C76      C        0.21640    0.83140    0.20280    1.000
    C77      C        0.20250    0.78150    0.12240    1.000
    H28      H        0.22530    0.77440    0.07890    1.000
    C78      C        0.15470    0.74030    0.10320    1.000
    C79      C        0.13980    0.68390    0.01180    1.000
    C80      C        0.26990    0.87460    0.22470    1.000
    H29      H        0.32270    0.93900    0.57110    1.000
    H30      H        0.30090    0.01510    0.56470    1.000
    Mn11     Mn       0.86557    0.42709    0.14333    1.000
    Mn12     Mn       0.82713    0.50438    0.38405    1.000
    O66      O        0.42980    0.99200    0.10980    1.000
    O67      O        0.40080    0.05690    0.96020    1.000
    O68      O        0.63670    0.02780    0.24470    1.000
    O69      O        0.63790    0.13680    0.34020    1.000
    O70      O        0.61560    0.20710    0.92830    1.000
    O71      O        0.65250    0.11300    0.02540    1.000
    O72      O        0.79120    0.37990    0.15100    1.000
    O73      O        0.78900    0.40030    0.31540    1.000
    O74      O        0.62080    0.33930    0.40440    1.000
    O75      O        0.55630    0.29870    0.29720    1.000
    O76      O        0.54330    0.35910    0.07050    1.000
    O77      O        0.48220    0.31430    0.93900    1.000
    O78      O        0.80430    0.47360    0.53130    1.000
    N11      N        0.51580    0.30440    0.02740    1.000
    N12      N        0.60000    0.32160    0.31480    1.000
    C81      C        0.43330    0.04570    0.04610    1.000
    C82      C        0.48170    0.09980    0.07850    1.000
    C83      C        0.52680    0.07500    0.14880    1.000
    H31      H        0.52830    0.02390    0.17540    1.000
    C84      C        0.57080    0.12520    0.18160    1.000
    C85      C        0.56890    0.20260    0.14160    1.000
    C86      C        0.52160    0.22620    0.06950    1.000
    C87      C        0.47870    0.17550    0.03700    1.000
    H32      H        0.44810    0.19180    0.98770    1.000
    C88      C        0.61970    0.09590    0.26250    1.000
    C89      C        0.61940    0.25190    0.16650    1.000
    C90      C        0.63480    0.30370    0.24920    1.000
    C91      C        0.68230    0.34270    0.26840    1.000
    H33      H        0.69220    0.37690    0.32500    1.000
    C92      C        0.71640    0.33140    0.20280    1.000
    C93      C        0.70250    0.28150    0.12240    1.000
    H34      H        0.72530    0.27440    0.07890    1.000
    C94      C        0.65470    0.24030    0.10320    1.000
    C95      C        0.63980    0.18390    0.01180    1.000
    C96      C        0.76990    0.37460    0.22470    1.000
    H35      H        0.82270    0.43900    0.57110    1.000
    H36      H        0.80090    0.51510    0.56470    1.000
    Mn13     Mn       0.63443    0.92709    0.35667    1.000
    Mn14     Mn       0.67287    0.00438    0.11595    1.000
    O79      O        0.07020    0.49200    0.39020    1.000
    O80      O        0.09920    0.55690    0.53980    1.000
    O81      O        0.86330    0.52780    0.25530    1.000
    O82      O        0.86210    0.63680    0.15980    1.000
    O83      O        0.88440    0.70710    0.57170    1.000
    O84      O        0.84750    0.61300    0.47460    1.000
    O85      O        0.70880    0.87990    0.34900    1.000
    O86      O        0.71100    0.90030    0.18460    1.000
    O87      O        0.87920    0.83930    0.09560    1.000
    O88      O        0.94370    0.79870    0.20280    1.000
    O89      O        0.95670    0.85910    0.42950    1.000
    O90      O        0.01780    0.81430    0.56100    1.000
    O91      O        0.69570    0.97360    0.96870    1.000
    N13      N        0.98420    0.80440    0.47260    1.000
    N14      N        0.90000    0.82160    0.18520    1.000
    C97      C        0.06670    0.54570    0.45390    1.000
    C98      C        0.01830    0.59980    0.42150    1.000
    C99      C        0.97320    0.57500    0.35120    1.000
    H37      H        0.97170    0.52390    0.32460    1.000
    C100     C        0.92920    0.62520    0.31840    1.000
    C101     C        0.93110    0.70260    0.35840    1.000
    C102     C        0.97840    0.72620    0.43050    1.000
    C103     C        0.02130    0.67550    0.46300    1.000
    H38      H        0.05190    0.69180    0.51230    1.000
    C104     C        0.88030    0.59590    0.23750    1.000
    C105     C        0.88060    0.75190    0.33350    1.000
    C106     C        0.86520    0.80370    0.25080    1.000
    C107     C        0.81770    0.84270    0.23160    1.000
    H39      H        0.80780    0.87690    0.17500    1.000
    C108     C        0.78360    0.83140    0.29720    1.000
    C109     C        0.79750    0.78150    0.37760    1.000
    H40      H        0.77470    0.77440    0.42110    1.000
    C110     C        0.84530    0.74030    0.39680    1.000
    C111     C        0.86020    0.68390    0.48820    1.000
    C112     C        0.73010    0.87460    0.27530    1.000
    H41      H        0.67730    0.93900    0.92890    1.000
    H42      H        0.69910    0.01510    0.93530    1.000
    Mn15     Mn       0.13443    0.42709    0.35667    1.000
    Mn16     Mn       0.17287    0.50438    0.11595    1.000
    O92      O        0.57020    0.99200    0.39020    1.000
    O93      O        0.59920    0.05690    0.53980    1.000
    O94      O        0.36330    0.02780    0.25530    1.000
    O95      O        0.36210    0.13680    0.15980    1.000
    O96      O        0.38440    0.20710    0.57170    1.000
    O97      O        0.34750    0.11300    0.47460    1.000
    O98      O        0.20880    0.37990    0.34900    1.000
    O99      O        0.21100    0.40030    0.18460    1.000
    O100     O        0.37920    0.33930    0.09560    1.000
    O101     O        0.44370    0.29870    0.20280    1.000
    O102     O        0.45670    0.35910    0.42950    1.000
    O103     O        0.51780    0.31430    0.56100    1.000
    O104     O        0.19570    0.47360    0.96870    1.000
    N15      N        0.48420    0.30440    0.47260    1.000
    N16      N        0.40000    0.32160    0.18520    1.000
    C113     C        0.56670    0.04570    0.45390    1.000
    C114     C        0.51830    0.09980    0.42150    1.000
    C115     C        0.47320    0.07500    0.35120    1.000
    H43      H        0.47170    0.02390    0.32460    1.000
    C116     C        0.42920    0.12520    0.31840    1.000
    C117     C        0.43110    0.20260    0.35840    1.000
    C118     C        0.47840    0.22620    0.43050    1.000
    C119     C        0.52130    0.17550    0.46300    1.000
    H44      H        0.55190    0.19180    0.51230    1.000
    C120     C        0.38030    0.09590    0.23750    1.000
    C121     C        0.38060    0.25190    0.33350    1.000
    C122     C        0.36520    0.30370    0.25080    1.000
    C123     C        0.31770    0.34270    0.23160    1.000
    H45      H        0.30780    0.37690    0.17500    1.000
    C124     C        0.28360    0.33140    0.29720    1.000
    C125     C        0.29750    0.28150    0.37760    1.000
    H46      H        0.27470    0.27440    0.42110    1.000
    C126     C        0.34530    0.24030    0.39680    1.000
    C127     C        0.36020    0.18390    0.48820    1.000
    C128     C        0.23010    0.37460    0.27530    1.000
    H47      H        0.17730    0.43900    0.92890    1.000
    H48      H        0.19910    0.51510    0.93530    1.000
