data_functionalizedCrystal
_audit_creation_method	'EQeq! by Chris Wilmer'
_symmetry_space_group_name_H-M	'P1'
_symmetry_Int_Tables_number	1
_symmetry_cell_setting	triclinic
loop_
_symmetry_equiv_pos_as_xyz
  x,y,z
_cell_length_a	5.4733
_cell_length_b	11.7304
_cell_length_c	13.458
_cell_angle_alpha	90
_cell_angle_beta	90
_cell_angle_gamma	101.166
loop_
_atom_site_label
_atom_site_type_symbol
_atom_site_fract_x
_atom_site_fract_y
_atom_site_fract_z
_atom_site_charge
Mof_Li	Li	0.9225	0.7397	0.0162	2.6
Mof_Li	Li	0.5579	0.7604	0.1556	4.293
Mof_Li	Li	0.0775	0.2603	0.5162	3.63
Mof_Li	Li	0.4421	0.2396	0.6556	4.276
Mof_H 	H 	0.3917	0.9485	0.3422	-0.151
Mof_H 	H 	0.3804	0.0979	0.4518	-0.194
Mof_H 	H 	0.7944	0.1712	0.322	-0.093
Mof_H 	H 	0.7839	0.0227	0.209	-0.209
Mof_H 	H 	0.9043	0.4526	0.3279	-0.124
Mof_H 	H 	0.8766	0.5965	0.2162	-0.193
Mof_H 	H 	0.2971	0.5213	0.4652	-0.154
Mof_H 	H 	0.2973	0.6694	0.3521	-0.089
Mof_H 	H 	0.6083	0.0515	0.8422	-0.123
Mof_H 	H 	0.6196	0.9021	0.9518	-0.104
Mof_H 	H 	0.2056	0.8288	0.822	-0.023
Mof_H 	H 	0.2161	0.9773	0.709	-0.169
Mof_H 	H 	0.0957	0.5474	0.8279	-0.099
Mof_H 	H 	0.1234	0.4035	0.7162	-0.227
Mof_H 	H 	0.7029	0.4787	0.9652	-0.052
Mof_H 	H 	0.7027	0.3306	0.8521	-0.069
Mof_C 	C 	0.0989	0.8702	0.1892	1.157
Mof_C 	C 	0.0871	0.9672	0.2632	-0.602
Mof_C 	C 	0.2672	0.992	0.3369	0.213
Mof_C 	C 	0.2593	0.0825	0.4025	-0.105
Mof_C 	C 	0.9147	0.1252	0.3263	-0.064
Mof_C 	C 	0.9069	0.0361	0.2576	0.217
Mof_C 	C 	0.6237	0.3752	0.4847	1.151
Mof_C 	C 	0.6024	0.4691	0.4096	-0.505
Mof_C 	C 	0.7771	0.4945	0.3338	0.156
Mof_C 	C 	0.7604	0.5821	0.2674	-0.06
Mof_C 	C 	0.4181	0.5356	0.4159	0.159
Mof_C 	C 	0.4188	0.6242	0.3466	-0.084
Mof_C 	C 	0.9011	0.1298	0.6892	1.296
Mof_C 	C 	0.9129	0.0328	0.7632	-0.529
Mof_C 	C 	0.7328	0.008	0.8369	0.184
Mof_C 	C 	0.7407	0.9175	0.9025	-0.037
Mof_C 	C 	0.0853	0.8748	0.8263	-0.135
Mof_C 	C 	0.0931	0.9639	0.7576	0.181
Mof_C 	C 	0.3763	0.6248	0.9847	1.246
Mof_C 	C 	0.3976	0.5309	0.9096	-0.443
Mof_C 	C 	0.2229	0.5055	0.8338	0.117
Mof_C 	C 	0.2396	0.4179	0.7674	-0.009
Mof_C 	C 	0.5819	0.4644	0.9159	0.15
Mof_C 	C 	0.5812	0.3758	0.8466	-0.04
Mof_N 	N 	0.0858	0.1486	0.39835	-0.619
Mof_N 	N 	0.5851	0.6478	0.27255	-0.659
Mof_N 	N 	0.9142	0.8514	0.89835	-0.389
Mof_N 	N 	0.4149	0.3522	0.77255	-0.667
Mof_O 	O 	0.9094	0.83526	0.13615	-1.87
Mof_O 	O 	0.2966	0.83392	0.18627	-1.661
Mof_O 	O 	0.4322	0.33501	0.53543	-2.013
Mof_O 	O 	0.8283	0.3461	0.49073	-1.471
Mof_O 	O 	0.0906	0.16474	0.63615	-2.098
Mof_O 	O 	0.7034	0.16608	0.68627	-1.677
Mof_O 	O 	0.5678	0.66499	0.03543	-2.025
Mof_O 	O 	0.1717	0.6539	0.99073	-1.191
_end
