data_functionalizedCrystal
_audit_creation_method	'EQeq! by Chris Wilmer'
_symmetry_space_group_name_H-M	'P1'
_symmetry_Int_Tables_number	1
_symmetry_cell_setting	triclinic
loop_
_symmetry_equiv_pos_as_xyz
  x,y,z
_cell_length_a	10.0681
_cell_length_b	10.7454
_cell_length_c	13.7073
_cell_angle_alpha	79.161
_cell_angle_beta	78.812
_cell_angle_gamma	86.568
loop_
_atom_site_label
_atom_site_type_symbol
_atom_site_fract_x
_atom_site_fract_y
_atom_site_fract_z
_atom_site_charge
Mof_Yb	Yb	0.31943	0.92217	0.79567	1.704
Mof_Yb	Yb	0.68057	0.07783	0.20433	1.649
Mof_Co	Co	4.97447e-18	0.5	-0	1.062
Mof_H 	H 	0.2809	0.3596	0.8687	0.042
Mof_H 	H 	0.3473	0.3268	0.5754	0.104
Mof_H 	H 	0.3288	0.6705	0.6515	0.076
Mof_H 	H 	0.3561	0.4504	0.2404	0.079
Mof_H 	H 	0.3652	0.5683	0.0826	-0.004
Mof_H 	H 	0.3543	0.8803	0.1852	0.013
Mof_H 	H 	0.3466	0.7732	0.3482	0.067
Mof_H 	H 	0.8224	0.9141	0.7842	0.101
Mof_H 	H 	0.6934	0.857	0.5373	0.138
Mof_H 	H 	0.0909	0.8407	0.5431	0.154
Mof_H 	H 	0.0072	0.4763	0.3707	0.103
Mof_H 	H 	0.0151	0.4072	0.2217	-0.031
Mof_H 	H 	0.0337	0.7518	0.0706	-0.052
Mof_H 	H 	0.0175	0.8322	0.2152	0.06
Mof_H 	H 	0.3808	0.646	0.4803	0.14
Mof_H 	H 	0.8807	0.8462	0.3818	0.165
Mof_H 	H 	0.7191	0.6404	0.1313	0.018
Mof_H 	H 	0.6527	0.6732	0.4246	0.1
Mof_H 	H 	0.6712	0.3295	0.3485	0.075
Mof_H 	H 	0.6439	0.5496	0.7596	0.084
Mof_H 	H 	0.6348	0.4317	0.9174	0.045
Mof_H 	H 	0.6457	0.1197	0.8148	0.028
Mof_H 	H 	0.6534	0.2268	0.6518	0.066
Mof_H 	H 	0.1776	0.0859	0.2158	0.018
Mof_H 	H 	0.3066	0.143	0.4627	0.092
Mof_H 	H 	0.9091	0.1593	0.4569	0.062
Mof_H 	H 	0.9928	0.5237	0.6293	0.116
Mof_H 	H 	0.9849	0.5928	0.7783	-0.005
Mof_H 	H 	0.9663	0.2482	0.9294	0.005
Mof_H 	H 	0.9825	0.1678	0.7848	0.076
Mof_H 	H 	0.6192	0.354	0.5197	0.142
Mof_H 	H 	0.1193	0.1538	0.6182	0.152
Mof_C 	C 	0.3003	0.5277	0.7721	-0.094
Mof_C 	C 	0.2964	0.3972	0.8008	-0.003
Mof_C 	C 	0.3164	0.3231	0.7253	-0.037
Mof_C 	C 	0.3352	0.3778	0.6244	-0.112
Mof_C 	C 	0.3361	0.5087	0.5959	0.139
Mof_C 	C 	0.3227	0.5829	0.6701	-0.081
Mof_C 	C 	0.3121	0.1822	0.7523	0.303
Mof_C 	C 	0.269	0.6091	0.852	0.432
Mof_C 	C 	0.3318	0.516	0.4168	0.221
Mof_C 	C 	0.3485	0.5988	0.3145	0.012
Mof_C 	C 	0.3555	0.5384	0.2314	-0.099
Mof_C 	C 	0.3613	0.6101	0.1367	0.066
Mof_C 	C 	0.3552	0.7922	0.1969	0.061
Mof_C 	C 	0.3496	0.7286	0.2959	-0.092
Mof_C 	C 	0.0937	0.8915	0.7191	0.224
Mof_C 	C 	0.9737	0.8809	0.6706	0.117
Mof_C 	C 	0.8406	0.8969	0.7188	-0.135
Mof_C 	C 	0.7369	0.8875	0.6702	0.052
Mof_C 	C 	0.7641	0.8605	0.5713	-0.194
Mof_C 	C 	0.8948	0.8394	0.5257	0.261
Mof_C 	C 	0.0017	0.8519	0.5748	-0.278
Mof_C 	C 	0.5908	0.9031	0.7167	0.276
Mof_C 	C 	0.0057	0.7068	0.4089	0.182
Mof_C 	C 	0.0086	0.6645	0.3102	0.029
Mof_C 	C 	0.0099	0.5343	0.3108	-0.127
Mof_C 	C 	0.0153	0.494	0.2207	0.084
Mof_C 	C 	0.025	0.6962	0.1321	0.072
Mof_C 	C 	0.0171	0.745	0.2185	-0.126
Mof_C 	C 	0.6997	0.4723	0.2279	-0.107
Mof_C 	C 	0.7036	0.6028	0.1992	0.02
Mof_C 	C 	0.6836	0.6769	0.2747	-0.047
Mof_C 	C 	0.6648	0.6222	0.3756	-0.097
Mof_C 	C 	0.6639	0.4913	0.4041	0.138
Mof_C 	C 	0.6773	0.4171	0.3299	-0.067
Mof_C 	C 	0.6879	0.8178	0.2477	0.317
Mof_C 	C 	0.731	0.3909	0.148	0.443
Mof_C 	C 	0.6682	0.484	0.5832	0.225
Mof_C 	C 	0.6515	0.4012	0.6855	0.008
Mof_C 	C 	0.6445	0.4616	0.7686	-0.085
Mof_C 	C 	0.6387	0.3899	0.8633	0.06
Mof_C 	C 	0.6448	0.2078	0.8031	0.061
Mof_C 	C 	0.6504	0.2714	0.7041	-0.086
Mof_C 	C 	0.9063	0.1085	0.2809	0.354
Mof_C 	C 	0.0263	0.1191	0.3294	-0.144
Mof_C 	C 	0.1594	0.1031	0.2812	0.033
Mof_C 	C 	0.2631	0.1125	0.3298	-0.072
Mof_C 	C 	0.2359	0.1395	0.4287	-0.063
Mof_C 	C 	0.1052	0.1606	0.4743	0.079
Mof_C 	C 	0.9983	0.1481	0.4252	0.022
Mof_C 	C 	0.4092	0.0969	0.2833	0.322
Mof_C 	C 	0.9943	0.2932	0.5911	0.229
Mof_C 	C 	0.9914	0.3355	0.6898	0.028
Mof_C 	C 	0.9901	0.4657	0.6892	-0.112
Mof_C 	C 	0.9847	0.506	0.7793	0.09
Mof_C 	C 	0.975	0.3038	0.8679	0.076
Mof_C 	C 	0.9829	0.255	0.7815	-0.103
Mof_N 	N 	0.3538	0.5691	0.4945	-0.238
Mof_N 	N 	0.3617	0.7355	0.1183	-0.149
Mof_N 	N 	0.9203	0.8045	0.4286	-0.245
Mof_N 	N 	0.0207	0.5708	0.1327	-0.262
Mof_N 	N 	0.6462	0.4309	0.5055	-0.237
Mof_N 	N 	0.6383	0.2645	0.8817	-0.117
Mof_N 	N 	0.0797	0.1955	0.5714	-0.247
Mof_N 	N 	0.9793	0.4292	0.8673	-0.222
Mof_O 	O 	0.1936	0.5684	0.9332	-0.437
Mof_O 	O 	0.3245	0.7166	0.8304	-0.492
Mof_O 	O 	0.2935	0.1179	0.6894	-0.402
Mof_O 	O 	0.3292	0.1254	0.8384	-0.403
Mof_O 	O 	0.3057	0.4057	0.4252	-0.231
Mof_O 	O 	0.2096	0.8837	0.6694	-0.375
Mof_O 	O 	0.0764	0.908	0.8107	-0.389
Mof_O 	O 	0.5562	0.9033	0.811	-0.367
Mof_O 	O 	0.5011	0.9167	0.6647	-0.386
Mof_O 	O 	0.0773	0.6515	0.4672	-0.226
Mof_O 	O 	0.8064	0.4316	0.0668	-0.496
Mof_O 	O 	0.6755	0.2834	0.1696	-0.513
Mof_O 	O 	0.7065	0.8821	0.3106	-0.397
Mof_O 	O 	0.6708	0.8746	0.1616	-0.425
Mof_O 	O 	0.6943	0.5943	0.5748	-0.227
Mof_O 	O 	0.7904	0.1163	0.3306	-0.4
Mof_O 	O 	0.9236	0.092	0.1893	-0.42
Mof_O 	O 	0.4438	0.0967	0.189	-0.405
Mof_O 	O 	0.4989	0.0833	0.3353	-0.395
Mof_O 	O 	0.9227	0.3485	0.5328	-0.216
_end
