data_functionalizedCrystal
_audit_creation_method	'EQeq! by Chris Wilmer'
_symmetry_space_group_name_H-M	'P1'
_symmetry_Int_Tables_number	1
_symmetry_cell_setting	triclinic
loop_
_symmetry_equiv_pos_as_xyz
  x,y,z
_cell_length_a	18.5661
_cell_length_b	18.5661
_cell_length_c	18.5661
_cell_angle_alpha	60
_cell_angle_beta	60
_cell_angle_gamma	60
loop_
_atom_site_label
_atom_site_type_symbol
_atom_site_fract_x
_atom_site_fract_y
_atom_site_fract_z
_atom_site_charge
Mof_Cu	Cu	-0	0.4301	0.5699	0.799
Mof_Cu	Cu	0.4301	0	-0	0.683
Mof_Cu	Cu	0.5699	0	-0	0.695
Mof_Cu	Cu	1.25613e-17	0.5699	0.4301	0.798
Mof_Cu	Cu	5.0245e-17	0.5699	-0	0.694
Mof_Cu	Cu	0.4301	-5.0245e-17	0.5699	0.798
Mof_Cu	Cu	0.5699	-2.51225e-17	0.4301	0.798
Mof_Cu	Cu	2.51225e-17	0.4301	-0	0.682
Mof_Cu	Cu	1.25613e-17	-2.51225e-17	0.4301	0.682
Mof_Cu	Cu	0.4301	0.5699	-0	0.798
Mof_Cu	Cu	0.5699	0.4301	-0	0.798
Mof_Cu	Cu	5.0245e-17	-5.0245e-17	0.5699	0.694
Mof_H 	H 	0.9722	0.2704	0.487	0.069
Mof_H 	H 	0.2704	0.9722	0.2704	0.045
Mof_H 	H 	0.487	0.2704	0.9722	0.069
Mof_H 	H 	0.2704	0.487	0.2704	0
Mof_H 	H 	0.9722	0.487	0.2704	0.069
Mof_H 	H 	0.2704	0.2704	0.487	0
Mof_H 	H 	0.487	0.9722	0.2704	0.069
Mof_H 	H 	0.2704	0.2704	0.9722	0.045
Mof_H 	H 	0.9722	0.2704	0.2704	0.045
Mof_H 	H 	0.2704	0.487	0.9722	0.069
Mof_H 	H 	0.487	0.2704	0.2704	0
Mof_H 	H 	0.2704	0.9722	0.487	0.069
Mof_H 	H 	0.7296	0.0278	0.513	0.023
Mof_H 	H 	0.0278	0.7296	0.7296	0.049
Mof_H 	H 	0.7296	0.513	0.0278	0.023
Mof_H 	H 	0.513	0.7296	0.7296	0.086
Mof_H 	H 	0.513	0.0278	0.7296	0.023
Mof_H 	H 	0.7296	0.7296	0.513	0.086
Mof_H 	H 	0.0278	0.513	0.7296	0.023
Mof_H 	H 	0.7296	0.7296	0.0278	0.049
Mof_H 	H 	0.7296	0.0278	0.7296	0.049
Mof_H 	H 	0.513	0.7296	0.0278	0.023
Mof_H 	H 	0.7296	0.513	0.7296	0.086
Mof_H 	H 	0.0278	0.7296	0.513	0.023
Mof_C 	C 	0.9704	0.3004	0.4288	0.06
Mof_C 	C 	0.3004	0.9704	0.3004	0.062
Mof_C 	C 	0.4288	0.3004	0.9704	0.06
Mof_C 	C 	0.3004	0.4288	0.3004	0.098
Mof_C 	C 	0.9704	0.4288	0.3004	0.06
Mof_C 	C 	0.3004	0.3004	0.4288	0.098
Mof_C 	C 	0.4288	0.9704	0.3004	0.06
Mof_C 	C 	0.3004	0.3004	0.9704	0.062
Mof_C 	C 	0.9704	0.3004	0.3004	0.062
Mof_C 	C 	0.3004	0.4288	0.9704	0.06
Mof_C 	C 	0.4288	0.3004	0.3004	0.098
Mof_C 	C 	0.3004	0.9704	0.4288	0.06
Mof_C 	C 	0.6996	0.0296	0.5712	0.078
Mof_C 	C 	0.0296	0.6996	0.6996	0.072
Mof_C 	C 	0.6996	0.5712	0.0296	0.078
Mof_C 	C 	0.5712	0.6996	0.6996	0.051
Mof_C 	C 	0.5712	0.0296	0.6996	0.078
Mof_C 	C 	0.6996	0.6996	0.5712	0.051
Mof_C 	C 	0.0296	0.5712	0.6996	0.078
Mof_C 	C 	0.6996	0.6996	0.0296	0.072
Mof_C 	C 	0.6996	0.0296	0.6996	0.072
Mof_C 	C 	0.5712	0.6996	0.0296	0.078
Mof_C 	C 	0.6996	0.5712	0.6996	0.051
Mof_C 	C 	0.0296	0.6996	0.5712	0.078
Mof_C 	C 	0.96852	0.387	0.387	-0.088
Mof_C 	C 	0.9786	0.4296	0.4296	0.367
Mof_C 	C 	0.387	0.96852	0.25748	-0.104
Mof_C 	C 	0.4296	0.9786	0.1622	0.365
Mof_C 	C 	0.387	0.25748	0.96852	-0.104
Mof_C 	C 	0.4296	0.1622	0.9786	0.365
Mof_C 	C 	0.25748	0.387	0.387	-0.189
Mof_C 	C 	0.1622	0.4296	0.4296	0.391
Mof_C 	C 	0.96852	0.387	0.25748	-0.104
Mof_C 	C 	0.9786	0.4296	0.1622	0.365
Mof_C 	C 	0.387	0.25748	0.387	-0.189
Mof_C 	C 	0.4296	0.1622	0.4296	0.391
Mof_C 	C 	0.387	0.96852	0.387	-0.088
Mof_C 	C 	0.4296	0.9786	0.4296	0.367
Mof_C 	C 	0.25748	0.387	0.96852	-0.104
Mof_C 	C 	0.1622	0.4296	0.9786	0.365
Mof_C 	C 	0.96852	0.25748	0.387	-0.104
Mof_C 	C 	0.9786	0.1622	0.4296	0.365
Mof_C 	C 	0.387	0.387	0.96852	-0.088
Mof_C 	C 	0.4296	0.4296	0.9786	0.367
Mof_C 	C 	0.387	0.387	0.25748	-0.189
Mof_C 	C 	0.4296	0.4296	0.1622	0.391
Mof_C 	C 	0.25748	0.96852	0.387	-0.104
Mof_C 	C 	0.1622	0.9786	0.4296	0.365
Mof_C 	C 	0.613	0.03148	0.613	-0.157
Mof_C 	C 	0.5704	0.0214	0.5704	0.387
Mof_C 	C 	0.03148	0.613	0.74252	-0.133
Mof_C 	C 	0.0214	0.5704	0.8378	0.367
Mof_C 	C 	0.74252	0.613	0.03148	-0.133
Mof_C 	C 	0.8378	0.5704	0.0214	0.367
Mof_C 	C 	0.613	0.74252	0.613	-0.066
Mof_C 	C 	0.5704	0.8378	0.5704	0.365
Mof_C 	C 	0.613	0.03148	0.74252	-0.133
Mof_C 	C 	0.5704	0.0214	0.8378	0.367
Mof_C 	C 	0.74252	0.613	0.613	-0.066
Mof_C 	C 	0.8378	0.5704	0.5704	0.365
Mof_C 	C 	0.03148	0.613	0.613	-0.157
Mof_C 	C 	0.0214	0.5704	0.5704	0.387
Mof_C 	C 	0.613	0.74252	0.03148	-0.133
Mof_C 	C 	0.5704	0.8378	0.0214	0.367
Mof_C 	C 	0.74252	0.03148	0.613	-0.133
Mof_C 	C 	0.8378	0.0214	0.5704	0.367
Mof_C 	C 	0.613	0.613	0.03148	-0.157
Mof_C 	C 	0.5704	0.5704	0.0214	0.387
Mof_C 	C 	0.613	0.613	0.74252	-0.066
Mof_C 	C 	0.5704	0.5704	0.8378	0.365
Mof_C 	C 	0.03148	0.74252	0.613	-0.133
Mof_C 	C 	0.0214	0.8378	0.5704	0.367
Mof_O 	O 	0.97998	0.38714	0.50664	-0.297
Mof_O 	O 	0.38714	0.97998	0.12624	-0.358
Mof_O 	O 	0.50664	0.12624	0.97998	-0.339
Mof_O 	O 	0.12624	0.50664	0.38714	-0.478
Mof_O 	O 	0.97998	0.50664	0.12624	-0.339
Mof_O 	O 	0.38714	0.12624	0.50664	-0.478
Mof_O 	O 	0.50664	0.97998	0.38714	-0.297
Mof_O 	O 	0.12624	0.38714	0.97998	-0.358
Mof_O 	O 	0.97998	0.12624	0.38714	-0.358
Mof_O 	O 	0.38714	0.50664	0.97998	-0.297
Mof_O 	O 	0.50664	0.38714	0.12624	-0.478
Mof_O 	O 	0.12624	0.97998	0.50664	-0.339
Mof_O 	O 	0.61286	0.02002	0.49336	-0.467
Mof_O 	O 	0.02002	0.61286	0.87376	-0.35
Mof_O 	O 	0.87376	0.49336	0.02002	-0.37
Mof_O 	O 	0.49336	0.87376	0.61286	-0.289
Mof_O 	O 	0.49336	0.02002	0.87376	-0.37
Mof_O 	O 	0.87376	0.61286	0.49336	-0.289
Mof_O 	O 	0.02002	0.49336	0.61286	-0.467
Mof_O 	O 	0.61286	0.87376	0.02002	-0.35
Mof_O 	O 	0.87376	0.02002	0.61286	-0.35
Mof_O 	O 	0.49336	0.61286	0.02002	-0.467
Mof_O 	O 	0.61286	0.49336	0.87376	-0.289
Mof_O 	O 	0.02002	0.87376	0.49336	-0.37
Mof_O 	O 	0.02002	0.61286	0.49336	-0.467
Mof_O 	O 	0.61286	0.02002	0.87376	-0.35
Mof_O 	O 	0.49336	0.87376	0.02002	-0.37
Mof_O 	O 	0.87376	0.49336	0.61286	-0.289
Mof_O 	O 	0.02002	0.49336	0.87376	-0.37
Mof_O 	O 	0.61286	0.87376	0.49336	-0.289
Mof_O 	O 	0.49336	0.02002	0.61286	-0.467
Mof_O 	O 	0.87376	0.61286	0.02002	-0.35
Mof_O 	O 	0.02002	0.87376	0.61286	-0.35
Mof_O 	O 	0.61286	0.49336	0.02002	-0.467
Mof_O 	O 	0.49336	0.61286	0.87376	-0.289
Mof_O 	O 	0.87376	0.02002	0.49336	-0.37
Mof_O 	O 	0.38714	0.97998	0.50664	-0.297
Mof_O 	O 	0.97998	0.38714	0.12624	-0.358
Mof_O 	O 	0.12624	0.50664	0.97998	-0.339
Mof_O 	O 	0.50664	0.12624	0.38714	-0.478
Mof_O 	O 	0.50664	0.97998	0.12624	-0.339
Mof_O 	O 	0.12624	0.38714	0.50664	-0.478
Mof_O 	O 	0.97998	0.50664	0.38714	-0.297
Mof_O 	O 	0.38714	0.12624	0.97998	-0.358
Mof_O 	O 	0.12624	0.97998	0.38714	-0.358
Mof_O 	O 	0.50664	0.38714	0.97998	-0.297
Mof_O 	O 	0.38714	0.50664	0.12624	-0.478
Mof_O 	O 	0.97998	0.12624	0.50664	-0.339
_end
