# CIF file generated by openbabel 3.1.0, see https://openbabel.org
data_I
_chemical_name_common 'XEJTIR_clean'
_cell_length_a 12.4486
_cell_length_b 15.036
_cell_length_c 16.5961
_cell_angle_alpha 90
_cell_angle_beta 92.074
_cell_angle_gamma 90
_space_group_name_H-M_alt 'P 1'
_space_group_name_Hall 'P 1'
loop_
    _symmetry_equiv_pos_as_xyz
    x,y,z
loop_
    _atom_site_label
    _atom_site_type_symbol
    _atom_site_fract_x
    _atom_site_fract_y
    _atom_site_fract_z
    _atom_site_occupancy
    Al1      Al       0.51823    0.51679    0.25377    1.000
    Al2      Al       0.51823    0.98321    0.75377    1.000
    Cu1      Cu       0.97741    0.47863    0.76851    1.000
    Cu2      Cu       0.97741    0.02137    0.26851    1.000
    H1       H        0.56270    0.47890    0.44120    1.000
    H2       H        0.65870    0.46040    0.56180    1.000
    H3       H        0.92010    0.57160    0.46510    1.000
    H4       H        0.82340    0.59060    0.34420    1.000
    H5       H        0.30190    0.43040    0.19530    1.000
    H6       H        0.16430    0.32660    0.18320    1.000
    H7       H        0.25750    0.22320    0.40040    1.000
    H8       H        0.39240    0.32940    0.41310    1.000
    H9       H        0.28000    0.59050    0.29270    1.000
    H10      H        0.14770    0.69580    0.31240    1.000
    H11      H        0.31070    0.87190    0.18050    1.000
    H12      H        0.44450    0.76770    0.16230    1.000
    H13      H        0.85940    0.54190    0.07000    1.000
    H14      H        0.74000    0.53250    0.17370    1.000
    H15      H        0.64550    0.41410    0.92110    1.000
    H16      H        0.52720    0.40350    0.02510    1.000
    H17      H        0.56270    0.02110    0.94120    1.000
    H18      H        0.65870    0.03960    0.06180    1.000
    H19      H        0.92010    0.92840    0.96510    1.000
    H20      H        0.82340    0.90940    0.84420    1.000
    H21      H        0.30190    0.06960    0.69530    1.000
    H22      H        0.16430    0.17340    0.68320    1.000
    H23      H        0.25750    0.27680    0.90040    1.000
    H24      H        0.39240    0.17060    0.91310    1.000
    H25      H        0.28000    0.90950    0.79270    1.000
    H26      H        0.14770    0.80420    0.81240    1.000
    H27      H        0.31070    0.62810    0.68050    1.000
    H28      H        0.44450    0.73230    0.66230    1.000
    H29      H        0.85940    0.95810    0.57000    1.000
    H30      H        0.74000    0.96750    0.67370    1.000
    H31      H        0.64550    0.08590    0.42110    1.000
    H32      H        0.52720    0.09650    0.52510    1.000
    C1       C        0.68317    0.53733    0.38059    1.000
    C2       C        0.63530    0.49811    0.44600    1.000
    C3       C        0.69240    0.48705    0.51740    1.000
    C4       C        0.79870    0.51413    0.52574    1.000
    C5       C        0.84720    0.55290    0.46038    1.000
    C6       C        0.78970    0.56414    0.38875    1.000
    C7       C        0.85730    0.50102    0.60050    1.000
    C8       C        0.36168    0.38979    0.30468    1.000
    C9       C        0.29270    0.38818    0.23704    1.000
    C10      C        0.21150    0.32651    0.22949    1.000
    C11      C        0.19857    0.26361    0.29045    1.000
    C12      C        0.26650    0.26544    0.35863    1.000
    C13      C        0.34680    0.32813    0.36592    1.000
    C14      C        0.11920    0.19476    0.28202    1.000
    C15      C        0.37730    0.66937    0.22774    1.000
    C16      C        0.28720    0.64844    0.27072    1.000
    C17      C        0.20830    0.71053    0.28188    1.000
    C18      C        0.21690    0.79477    0.24869    1.000
    C19      C        0.30490    0.81460    0.20416    1.000
    C20      C        0.38450    0.75299    0.19339    1.000
    C21      C        0.13640    0.86128    0.26007    1.000
    C22      C        0.62140    0.46610    0.11074    1.000
    C23      C        0.79180    0.51363    0.06097    1.000
    C24      C        0.72090    0.50778    0.12249    1.000
    C25      C        0.76440    0.47817    0.98563    1.000
    C26      C        0.66500    0.43766    0.97274    1.000
    C27      C        0.59480    0.43158    0.03445    1.000
    C28      C        0.83670    0.48256    0.92009    1.000
    C29      C        0.68317    0.96267    0.88059    1.000
    C30      C        0.63530    0.00189    0.94600    1.000
    C31      C        0.69240    0.01295    0.01740    1.000
    C32      C        0.79870    0.98587    0.02574    1.000
    C33      C        0.84720    0.94710    0.96038    1.000
    C34      C        0.78970    0.93586    0.88875    1.000
    C35      C        0.85730    0.99898    0.10050    1.000
    C36      C        0.36168    0.11021    0.80468    1.000
    C37      C        0.29270    0.11182    0.73704    1.000
    C38      C        0.21150    0.17349    0.72949    1.000
    C39      C        0.19857    0.23639    0.79045    1.000
    C40      C        0.26650    0.23456    0.85863    1.000
    C41      C        0.34680    0.17187    0.86592    1.000
    C42      C        0.11920    0.30524    0.78202    1.000
    C43      C        0.37730    0.83063    0.72774    1.000
    C44      C        0.28720    0.85156    0.77072    1.000
    C45      C        0.20830    0.78947    0.78188    1.000
    C46      C        0.21690    0.70523    0.74869    1.000
    C47      C        0.30490    0.68540    0.70416    1.000
    C48      C        0.38450    0.74701    0.69339    1.000
    C49      C        0.13640    0.63872    0.76007    1.000
    C50      C        0.62140    0.03390    0.61074    1.000
    C51      C        0.79180    0.98637    0.56097    1.000
    C52      C        0.72090    0.99222    0.62249    1.000
    C53      C        0.76440    0.02183    0.48563    1.000
    C54      C        0.66500    0.06234    0.47274    1.000
    C55      C        0.59480    0.06842    0.53445    1.000
    C56      C        0.83670    0.01744    0.42009    1.000
    N1       N        0.89007    0.48242    0.86547    1.000
    N2       N        0.05957    0.13692    0.27700    1.000
    N3       N        0.07577    0.91690    0.26718    1.000
    N4       N        0.90158    0.48886    0.66084    1.000
    N5       N        0.89007    0.01758    0.36547    1.000
    N6       N        0.05957    0.36308    0.77700    1.000
    N7       N        0.07577    0.58310    0.76718    1.000
    N8       N        0.90158    0.01114    0.16084    1.000
    O1       O        0.63096    0.55062    0.31018    1.000
    O2       O        0.44082    0.44976    0.31385    1.000
    O3       O        0.45565    0.61111    0.21652    1.000
    O4       O        0.55234    0.45609    0.16921    1.000
    O5       O        0.63096    0.94938    0.81018    1.000
    O6       O        0.44082    0.05024    0.81385    1.000
    O7       O        0.45565    0.88889    0.71652    1.000
    O8       O        0.55234    0.04391    0.66921    1.000
    Al3      Al       0.48177    0.01679    0.24623    1.000
    Al4      Al       0.48177    0.48321    0.74623    1.000
    Cu3      Cu       0.02259    0.97863    0.73149    1.000
    Cu4      Cu       0.02259    0.52137    0.23149    1.000
    H33      H        0.43730    0.97890    0.05880    1.000
    H34      H        0.34130    0.96040    0.93820    1.000
    H35      H        0.07990    0.07160    0.03490    1.000
    H36      H        0.17660    0.09060    0.15580    1.000
    H37      H        0.69810    0.93040    0.30470    1.000
    H38      H        0.83570    0.82660    0.31680    1.000
    H39      H        0.74250    0.72320    0.09960    1.000
    H40      H        0.60760    0.82940    0.08690    1.000
    H41      H        0.72000    0.09050    0.20730    1.000
    H42      H        0.85230    0.19580    0.18760    1.000
    H43      H        0.68930    0.37190    0.31950    1.000
    H44      H        0.55550    0.26770    0.33770    1.000
    H45      H        0.14060    0.04190    0.43000    1.000
    H46      H        0.26000    0.03250    0.32630    1.000
    H47      H        0.35450    0.91410    0.57890    1.000
    H48      H        0.47280    0.90350    0.47490    1.000
    H49      H        0.43730    0.52110    0.55880    1.000
    H50      H        0.34130    0.53960    0.43820    1.000
    H51      H        0.07990    0.42840    0.53490    1.000
    H52      H        0.17660    0.40940    0.65580    1.000
    H53      H        0.69810    0.56960    0.80470    1.000
    H54      H        0.83570    0.67340    0.81680    1.000
    H55      H        0.74250    0.77680    0.59960    1.000
    H56      H        0.60760    0.67060    0.58690    1.000
    H57      H        0.72000    0.40950    0.70730    1.000
    H58      H        0.85230    0.30420    0.68760    1.000
    H59      H        0.68930    0.12810    0.81950    1.000
    H60      H        0.55550    0.23230    0.83770    1.000
    H61      H        0.14060    0.45810    0.93000    1.000
    H62      H        0.26000    0.46750    0.82630    1.000
    H63      H        0.35450    0.58590    0.07890    1.000
    H64      H        0.47280    0.59650    0.97490    1.000
    C57      C        0.31683    0.03733    0.11941    1.000
    C58      C        0.36470    0.99811    0.05400    1.000
    C59      C        0.30760    0.98705    0.98260    1.000
    C60      C        0.20130    0.01413    0.97426    1.000
    C61      C        0.15280    0.05290    0.03962    1.000
    C62      C        0.21030    0.06414    0.11125    1.000
    C63      C        0.14270    0.00102    0.89950    1.000
    C64      C        0.63832    0.88979    0.19532    1.000
    C65      C        0.70730    0.88818    0.26296    1.000
    C66      C        0.78850    0.82651    0.27051    1.000
    C67      C        0.80143    0.76361    0.20955    1.000
    C68      C        0.73350    0.76544    0.14137    1.000
    C69      C        0.65320    0.82813    0.13408    1.000
    C70      C        0.88080    0.69476    0.21798    1.000
    C71      C        0.62270    0.16937    0.27226    1.000
    C72      C        0.71280    0.14844    0.22928    1.000
    C73      C        0.79170    0.21053    0.21812    1.000
    C74      C        0.78310    0.29477    0.25131    1.000
    C75      C        0.69510    0.31460    0.29584    1.000
    C76      C        0.61550    0.25299    0.30661    1.000
    C77      C        0.86360    0.36128    0.23993    1.000
    C78      C        0.37860    0.96610    0.38926    1.000
    C79      C        0.20820    0.01363    0.43903    1.000
    C80      C        0.27910    0.00778    0.37751    1.000
    C81      C        0.23560    0.97817    0.51437    1.000
    C82      C        0.33500    0.93766    0.52726    1.000
    C83      C        0.40520    0.93158    0.46555    1.000
    C84      C        0.16330    0.98256    0.57991    1.000
    C85      C        0.31683    0.46267    0.61941    1.000
    C86      C        0.36470    0.50189    0.55400    1.000
    C87      C        0.30760    0.51295    0.48260    1.000
    C88      C        0.20130    0.48587    0.47426    1.000
    C89      C        0.15280    0.44710    0.53962    1.000
    C90      C        0.21030    0.43586    0.61125    1.000
    C91      C        0.14270    0.49898    0.39950    1.000
    C92      C        0.63832    0.61021    0.69532    1.000
    C93      C        0.70730    0.61182    0.76296    1.000
    C94      C        0.78850    0.67349    0.77051    1.000
    C95      C        0.80143    0.73639    0.70955    1.000
    C96      C        0.73350    0.73456    0.64137    1.000
    C97      C        0.65320    0.67187    0.63408    1.000
    C98      C        0.88080    0.80524    0.71798    1.000
    C99      C        0.62270    0.33063    0.77226    1.000
    C100     C        0.71280    0.35156    0.72928    1.000
    C101     C        0.79170    0.28947    0.71812    1.000
    C102     C        0.78310    0.20523    0.75131    1.000
    C103     C        0.69510    0.18540    0.79584    1.000
    C104     C        0.61550    0.24701    0.80661    1.000
    C105     C        0.86360    0.13872    0.73993    1.000
    C106     C        0.37860    0.53390    0.88926    1.000
    C107     C        0.20820    0.48637    0.93903    1.000
    C108     C        0.27910    0.49222    0.87751    1.000
    C109     C        0.23560    0.52183    0.01437    1.000
    C110     C        0.33500    0.56234    0.02726    1.000
    C111     C        0.40520    0.56842    0.96555    1.000
    C112     C        0.16330    0.51744    0.07991    1.000
    N9       N        0.10993    0.98242    0.63453    1.000
    N10      N        0.94043    0.63692    0.22300    1.000
    N11      N        0.92423    0.41690    0.23282    1.000
    N12      N        0.09842    0.98886    0.83916    1.000
    N13      N        0.10993    0.51758    0.13453    1.000
    N14      N        0.94043    0.86308    0.72300    1.000
    N15      N        0.92423    0.08310    0.73282    1.000
    N16      N        0.09842    0.51114    0.33916    1.000
    O9       O        0.36904    0.05062    0.18982    1.000
    O10      O        0.55918    0.94976    0.18615    1.000
    O11      O        0.54435    0.11111    0.28348    1.000
    O12      O        0.44766    0.95609    0.33079    1.000
    O13      O        0.36904    0.44938    0.68982    1.000
    O14      O        0.55918    0.55024    0.68615    1.000
    O15      O        0.54435    0.38889    0.78348    1.000
    O16      O        0.44766    0.54391    0.83079    1.000
