data_functionalizedCrystal
_audit_creation_method	'EQeq! by Chris Wilmer'
_symmetry_space_group_name_H-M	'P1'
_symmetry_Int_Tables_number	1
_symmetry_cell_setting	triclinic
loop_
_symmetry_equiv_pos_as_xyz
  x,y,z
_cell_length_a	13.0455
_cell_length_b	13.0455
_cell_length_c	16.685
_cell_angle_alpha	109.471
_cell_angle_beta	109.471
_cell_angle_gamma	93.7056
loop_
_atom_site_label
_atom_site_type_symbol
_atom_site_fract_x
_atom_site_fract_y
_atom_site_fract_z
_atom_site_charge
Mof_Cd	Cd	0.12249	0.87751	0.75	0.336
Mof_Cd	Cd	0.87751	0.12249	0.25	0.333
Mof_C 	C 	0.30405	0.78595	0.6635	0.047
Mof_C 	C 	0.1179	0.7111	0.554	0.047
Mof_C 	C 	0.3428	0.7262	0.592	-0.071
Mof_C 	C 	0.1541	0.6499	0.483	-0.066
Mof_C 	C 	0.27085	0.66015	0.504	0.086
Mof_C 	C 	0.3075	0.5965	0.427	-0.049
Mof_C 	C 	0.40715	0.54685	0.465	-0.138
Mof_C 	C 	0.51465	0.60175	0.496	0.227
Mof_C 	C 	0.6059	0.5571	0.5315	0.236
Mof_C 	C 	0.1577	0.1283	0.901	0.064
Mof_C 	C 	0.00025	0.01075	0.8825	0.047
Mof_C 	C 	0.13685	0.22215	0.9625	-0.068
Mof_C 	C 	0.97485	0.10315	0.946	-0.057
Mof_C 	C 	0.04105	0.20695	0.985	0.06
Mof_C 	C 	0.01705	0.30395	0.056	-0.026
Mof_C 	C 	0.0095	0.4035	0.026	-0.134
Mof_C 	C 	0.09355	0.49945	0.068	0.244
Mof_C 	C 	0.0828	0.5892	0.044	0.24
Mof_C 	C 	0.21405	0.69595	0.8365	0.05
Mof_C 	C 	0.2889	0.8821	0.946	0.042
Mof_C 	C 	0.2738	0.6572	0.908	-0.064
Mof_C 	C 	0.3501	0.8459	0.017	-0.052
Mof_C 	C 	0.33985	0.72915	0.996	0.077
Mof_C 	C 	0.4035	0.6925	0.073	-0.041
Mof_C 	C 	0.45315	0.59285	0.035	-0.14
Mof_C 	C 	0.39825	0.48535	0.004	0.231
Mof_C 	C 	0.4429	0.3941	0.9685	0.231
Mof_C 	C 	0.8717	0.8423	0.599	0.065
Mof_C 	C 	0.98925	0.99975	0.6175	0.051
Mof_C 	C 	0.77785	0.86315	0.5375	-0.07
Mof_C 	C 	0.89685	0.02515	0.554	-0.064
Mof_C 	C 	0.79305	0.95895	0.515	0.069
Mof_C 	C 	0.69605	0.98295	0.444	-0.033
Mof_C 	C 	0.5965	0.9905	0.474	-0.141
Mof_C 	C 	0.50055	0.90645	0.432	0.242
Mof_C 	C 	0.4108	0.9172	0.456	0.235
Mof_C 	C 	0.69595	0.21405	0.3365	0.048
Mof_C 	C 	0.8821	0.2889	0.446	0.048
Mof_C 	C 	0.6572	0.2738	0.408	-0.07
Mof_C 	C 	0.8459	0.3501	0.517	-0.066
Mof_C 	C 	0.72915	0.33985	0.496	0.088
Mof_C 	C 	0.6925	0.4035	0.573	-0.048
Mof_C 	C 	0.59285	0.45315	0.535	-0.137
Mof_C 	C 	0.48535	0.39825	0.504	0.227
Mof_C 	C 	0.3941	0.4429	0.4685	0.236
Mof_C 	C 	0.8423	0.8717	0.099	0.059
Mof_C 	C 	0.99975	0.98925	0.1175	0.041
Mof_C 	C 	0.86315	0.77785	0.0375	-0.049
Mof_C 	C 	0.02515	0.89685	0.054	-0.041
Mof_C 	C 	0.95895	0.79305	0.015	0.047
Mof_C 	C 	0.98295	0.69605	0.944	0.079
Mof_C 	C 	0.9905	0.5965	0.974	-0.101
Mof_C 	C 	0.90645	0.50055	0.932	0.247
Mof_C 	C 	0.9172	0.4108	0.956	0.233
Mof_C 	C 	0.78595	0.30405	0.1635	0.048
Mof_C 	C 	0.7111	0.1179	0.054	0.048
Mof_C 	C 	0.7262	0.3428	0.092	-0.07
Mof_C 	C 	0.6499	0.1541	0.983	-0.066
Mof_C 	C 	0.66015	0.27085	0.004	0.088
Mof_C 	C 	0.5965	0.3075	0.927	-0.049
Mof_C 	C 	0.54685	0.40715	0.965	-0.136
Mof_C 	C 	0.60175	0.51465	0.996	0.223
Mof_C 	C 	0.5571	0.6059	0.0315	0.24
Mof_C 	C 	0.1283	0.1577	0.401	0.065
Mof_C 	C 	0.01075	0.00025	0.3825	0.051
Mof_C 	C 	0.22215	0.13685	0.4625	-0.07
Mof_C 	C 	0.10315	0.97485	0.446	-0.062
Mof_C 	C 	0.20695	0.04105	0.485	0.067
Mof_C 	C 	0.30395	0.01705	0.556	-0.033
Mof_C 	C 	0.4035	0.0095	0.526	-0.142
Mof_C 	C 	0.49945	0.09355	0.568	0.243
Mof_C 	C 	0.5892	0.0828	0.544	0.233
Mof_N 	N 	0.1914	0.7744	0.6395	-0.144
Mof_N 	N 	0.09175	0.02825	0.863	-0.143
Mof_N 	N 	0.2256	0.8086	0.8605	-0.141
Mof_N 	N 	0.97175	0.90825	0.637	-0.145
Mof_N 	N 	0.8086	0.2256	0.3605	-0.144
Mof_N 	N 	0.90825	0.97175	0.137	-0.141
Mof_N 	N 	0.7744	0.1914	0.1395	-0.144
Mof_N 	N 	0.02825	0.09175	0.363	-0.144
Mof_F 	F 	0.53495	0.70475	0.4936	-0.399
Mof_F 	F 	0.70945	0.61685	0.5599	-0.423
Mof_F 	F 	0.18595	0.50415	0.13845	-0.38
Mof_F 	F 	0.16665	0.68025	0.0899	-0.395
Mof_F 	F 	0.29525	0.46505	0.0064	-0.399
Mof_F 	F 	0.38315	0.29055	0.9401	-0.424
Mof_F 	F 	0.49585	0.81405	0.36155	-0.381
Mof_F 	F 	0.31975	0.83335	0.4101	-0.399
Mof_F 	F 	0.46505	0.29525	0.5064	-0.399
Mof_F 	F 	0.29055	0.38315	0.4401	-0.424
Mof_F 	F 	0.81405	0.49585	0.86155	-0.375
Mof_F 	F 	0.83335	0.31975	0.9101	-0.399
Mof_F 	F 	0.70475	0.53495	0.9936	-0.396
Mof_F 	F 	0.61685	0.70945	0.0599	-0.424
Mof_F 	F 	0.50415	0.18595	0.63845	-0.381
Mof_F 	F 	0.68025	0.16665	0.5899	-0.399
Mof_H 	H 	0.36642	0.83904	0.73524	0.029
Mof_H 	H 	0.02555	0.70714	0.53911	0.029
Mof_H 	H 	0.43552	0.73293	0.60763	0.083
Mof_H 	H 	0.0905	0.5951	0.4123	0.067
Mof_H 	H 	0.3318	0.65527	0.39595	0.151
Mof_H 	H 	0.23631	0.52688	0.37171	0.097
Mof_H 	H 	0.40636	0.58566	0.5369	0.074
Mof_H 	H 	0.23336	0.13656	0.88219	0.063
Mof_H 	H 	0.94394	0.9254	0.84996	0.031
Mof_H 	H 	0.19511	0.306	0.99228	0.13
Mof_H 	H 	0.8993	0.08988	0.96391	0.061
Mof_H 	H 	0.08683	0.32915	0.12609	0.081
Mof_H 	H 	0.93515	0.27634	0.06056	0.063
Mof_H 	H 	0.04852	0.36428	0.97421	0.087
Mof_H 	H 	0.16096	0.63358	0.76476	0.03
Mof_H 	H 	0.29286	0.97445	0.96089	0.029
Mof_H 	H 	0.26707	0.56448	0.89237	0.082
Mof_H 	H 	0.4049	0.9095	0.0877	0.065
Mof_H 	H 	0.34473	0.6682	0.10405	0.151
Mof_H 	H 	0.47312	0.76369	0.12829	0.096
Mof_H 	H 	0.41434	0.59364	0.9631	0.073
Mof_H 	H 	0.86344	0.76664	0.61781	0.064
Mof_H 	H 	0.0746	0.05606	0.65004	0.027
Mof_H 	H 	0.694	0.80489	0.50772	0.132
Mof_H 	H 	0.91012	0.1007	0.53609	0.061
Mof_H 	H 	0.67085	0.91317	0.37391	0.082
Mof_H 	H 	0.72366	0.06485	0.43944	0.066
Mof_H 	H 	0.63572	0.95148	0.52579	0.091
Mof_H 	H 	0.63358	0.16096	0.26476	0.029
Mof_H 	H 	0.97445	0.29286	0.46089	0.028
Mof_H 	H 	0.56448	0.26707	0.39237	0.083
Mof_H 	H 	0.9095	0.4049	0.5877	0.067
Mof_H 	H 	0.76664	0.86344	0.11781	0.065
Mof_H 	H 	0.05606	0.0746	0.15004	0.03
Mof_H 	H 	0.80489	0.694	0.00772	0.137
Mof_H 	H 	0.1007	0.91012	0.03609	0.063
Mof_H 	H 	0.83904	0.36642	0.23524	0.029
Mof_H 	H 	0.70714	0.02555	0.03911	0.028
Mof_H 	H 	0.73293	0.43552	0.10763	0.084
Mof_H 	H 	0.5951	0.0905	0.9123	0.066
Mof_H 	H 	0.52699	0.23622	0.87169	0.097
Mof_H 	H 	0.65524	0.33195	0.89598	0.152
Mof_H 	H 	0.58566	0.40636	0.0369	0.075
Mof_H 	H 	0.13656	0.23336	0.38219	0.063
Mof_H 	H 	0.9254	0.94394	0.34996	0.027
Mof_H 	H 	0.306	0.19511	0.49228	0.132
Mof_H 	H 	0.08988	0.8993	0.46391	0.062
Mof_H 	H 	0.27628	0.93519	0.56058	0.067
Mof_H 	H 	0.32923	0.08684	0.62609	0.082
Mof_H 	H 	0.36428	0.04852	0.47421	0.092
Mof_H 	H 	0.76378	0.47301	0.62831	0.099
Mof_H 	H 	0.66805	0.34476	0.60402	0.152
Mof_H 	H 	0.59364	0.41434	0.4631	0.074
_end
