data_functionalizedCrystal
_audit_creation_method	'EQeq! by Chris Wilmer'
_symmetry_space_group_name_H-M	'P1'
_symmetry_Int_Tables_number	1
_symmetry_cell_setting	triclinic
loop_
_symmetry_equiv_pos_as_xyz
  x,y,z
_cell_length_a	7.2158
_cell_length_b	9.8974
_cell_length_c	10.8116
_cell_angle_alpha	112.95
_cell_angle_beta	103.929
_cell_angle_gamma	101.721
loop_
_atom_site_label
_atom_site_type_symbol
_atom_site_fract_x
_atom_site_fract_y
_atom_site_fract_z
_atom_site_charge
Mof_Cu	Cu	0.22831	0.97831	0.95662	0.834
Mof_Cu	Cu	0.77169	0.02169	0.04338	0.834
Mof_H 	H 	0.9687	0.6647	0.6654	0.019
Mof_H 	H 	0.51	0.6726	0.7998	-0.003
Mof_H 	H 	0.4727	0.4064	0.5702	0.081
Mof_H 	H 	0.6459	0.4232	0.505	0.079
Mof_H 	H 	0.1967	0.0007	0.6654	0.021
Mof_H 	H 	0.7898	0.1272	0.7998	-0.001
Mof_H 	H 	0.5975	0.1638	0.5702	0.08
Mof_H 	H 	0.3591	0.0818	0.505	0.079
Mof_H 	H 	0.0313	0.3353	0.3346	0.019
Mof_H 	H 	0.49	0.3274	0.2002	-0.003
Mof_H 	H 	0.5273	0.5936	0.4298	0.081
Mof_H 	H 	0.3541	0.5768	0.495	0.079
Mof_H 	H 	0.8033	0.9993	0.3346	0.021
Mof_H 	H 	0.2102	0.8728	0.2002	-0.001
Mof_H 	H 	0.4025	0.8362	0.4298	0.08
Mof_H 	H 	0.6409	0.9182	0.495	0.079
Mof_C 	C 	0.88902	0.69472	0.72144	0.102
Mof_C 	C 	0.63964	0.69944	0.79488	0.099
Mof_C 	C 	0.56231	0.47741	0.55022	-0.06
Mof_C 	C 	0.33242	0.02672	0.72144	0.103
Mof_C 	C 	0.65524	0.09544	0.79488	0.1
Mof_C 	C 	0.48791	0.07281	0.55022	-0.06
Mof_C 	C 	0.11098	0.30528	0.27856	0.102
Mof_C 	C 	0.36036	0.30056	0.20512	0.099
Mof_C 	C 	0.43769	0.52259	0.44978	-0.06
Mof_C 	C 	0.66758	0.97328	0.27856	0.103
Mof_C 	C 	0.34476	0.90456	0.20512	0.1
Mof_C 	C 	0.51209	0.92719	0.44978	-0.06
Mof_N 	N 	0.95296	0.81856	0.8454	-0.215
Mof_N 	N 	0.79153	0.82173	0.89274	-0.207
Mof_N 	N 	0.69292	0.61612	0.68524	-0.121
Mof_N 	N 	0.39244	0.02684	0.8454	-0.212
Mof_N 	N 	0.60121	0.07101	0.89274	-0.204
Mof_N 	N 	0.49232	0.06912	0.68524	-0.121
Mof_N 	N 	0.04704	0.18144	0.1546	-0.215
Mof_N 	N 	0.20847	0.17827	0.10726	-0.207
Mof_N 	N 	0.30708	0.38388	0.31476	-0.121
Mof_N 	N 	0.60756	0.97316	0.1546	-0.212
Mof_N 	N 	0.39879	0.92899	0.10726	-0.204
Mof_N 	N 	0.50768	0.93088	0.31476	-0.121
Mof_Cl	Cl	0.06968	0.31968	0.63936	-0.232
Mof_O 	O 	0.8911	0.3186	0.531	-0.063
Mof_O 	O 	0.0069	0.2769	0.7214	-0.019
Mof_O 	O 	0.1399	0.2124	0.531	-0.059
Mof_O 	O 	0.2145	0.4445	0.7214	-0.02
Mof_Cl	Cl	0.93032	0.68032	0.36064	-0.232
Mof_O 	O 	0.1089	0.6814	0.469	-0.063
Mof_O 	O 	0.9931	0.7231	0.2786	-0.019
Mof_O 	O 	0.8601	0.7876	0.469	-0.059
Mof_O 	O 	0.7855	0.5555	0.2786	-0.02
_end
