# CIF file generated by openbabel 3.1.0, see https://openbabel.org
data_I
_chemical_name_common 'image0'
_cell_length_a 17.872
_cell_length_b 28.462
_cell_length_c 14.1464
_cell_angle_alpha 90
_cell_angle_beta 91.662
_cell_angle_gamma 90
_space_group_name_H-M_alt 'P 1'
_space_group_name_Hall 'P 1'
loop_
    _symmetry_equiv_pos_as_xyz
    x,y,z
loop_
    _atom_site_label
    _atom_site_type_symbol
    _atom_site_fract_x
    _atom_site_fract_y
    _atom_site_fract_z
    _atom_site_occupancy
    Mn1      Mn       0.00218    0.17519    0.60456    1.000
    O1       O        0.03466    0.11471    0.68520    1.000
    N1       N        0.95190    0.23137    0.50780    1.000
    N2       N        0.10684    0.17359    0.51460    1.000
    O2       O        0.90020    0.18700    0.67547    1.000
    O3       O        0.06967    0.22247    0.68703    1.000
    N3       N        0.94980    0.11692    0.51030    1.000
    C1       C        0.88620    0.21244    0.74600    1.000
    C2       C        0.80860    0.23188    0.74870    1.000
    C3       C        0.97710    0.01820    0.82890    1.000
    C4       C        0.78530    0.25480    0.82950    1.000
    C5       C        0.75950    0.22737    0.67020    1.000
    H1       H        0.96250    0.03450    0.88230    1.000
    C6       C        0.97640    0.96951    0.82730    1.000
    H2       H        0.81770    0.25770    0.88170    1.000
    C7       C        0.71470    0.27307    0.83210    1.000
    H3       H        0.77470    0.21210    0.61590    1.000
    C8       C        0.68880    0.24569    0.67430    1.000
    N4       N        0.95305    0.94333    0.90920    1.000
    N5       N        0.68918    0.29800    0.91400    1.000
    C9       C        0.66490    0.26969    0.75430    1.000
    N6       N        0.63770    0.24308    0.59450    1.000
    C10      C        0.98380    0.90182    0.93920    1.000
    C11      C        0.89310    0.95195    0.96670    1.000
    C12      C        0.72870    0.32958    0.97050    1.000
    C13      C        0.61720    0.29859    0.94370    1.000
    H4       H        0.61740    0.28300    0.75570    1.000
    C14      C        0.59330    0.27901    0.56340    1.000
    C15      C        0.61800    0.20524    0.53890    1.000
    H5       H        0.02510    0.88820    0.91160    1.000
    C16      C        0.89170    0.91386    0.02990    1.000
    C17      C        0.84010    0.98801    0.96770    1.000
    C18      C        0.67700    0.34701    0.03410    1.000
    C19      C        0.80270    0.34510    0.97140    1.000
    H6       H        0.57910    0.28070    0.91570    1.000
    H7       H        0.59490    0.30870    0.59080    1.000
    C20      C        0.56290    0.22163    0.47480    1.000
    C21      C        0.63900    0.15900    0.54200    1.000
    C22      C        0.83770    0.91120    0.09900    1.000
    C23      C        0.78560    0.98410    0.03490    1.000
    H8       H        0.84130    0.01310    0.92570    1.000
    C24      C        0.69780    0.38053    0.10150    1.000
    C25      C        0.82180    0.37920    0.03740    1.000
    H9       H        0.83730    0.33330    0.92980    1.000
    C26      C        0.52910    0.19120    0.41040    1.000
    H10      H        0.67550    0.14830    0.58510    1.000
    C27      C        0.60380    0.12910    0.47850    1.000
    H11      H        0.83670    0.88650    0.14200    1.000
    C28      C        0.78580    0.94710    0.10020    1.000
    H12      H        0.74800    0.00670    0.03680    1.000
    C29      C        0.77070    0.39600    0.10280    1.000
    H13      H        0.66370    0.39200    0.14410    1.000
    H14      H        0.87010    0.39130    0.03850    1.000
    C30      C        0.55090    0.14540    0.41220    1.000
    H15      H        0.49260    0.20170    0.36720    1.000
    H16      H        0.61570    0.09730    0.47990    1.000
    H17      H        0.74950    0.94670    0.14610    1.000
    H18      H        0.78640    0.41800    0.14780    1.000
    H19      H        0.53000    0.12450    0.36820    1.000
    Mn2      Mn       0.50218    0.67519    0.60456    1.000
    O4       O        0.53466    0.61471    0.68520    1.000
    N7       N        0.45190    0.73137    0.50780    1.000
    N8       N        0.60684    0.67359    0.51460    1.000
    O5       O        0.40020    0.68700    0.67547    1.000
    O6       O        0.56967    0.72247    0.68703    1.000
    N9       N        0.44980    0.61692    0.51030    1.000
    C31      C        0.38620    0.71244    0.74600    1.000
    C32      C        0.30860    0.73188    0.74870    1.000
    C33      C        0.47710    0.51820    0.82890    1.000
    C34      C        0.28530    0.75480    0.82950    1.000
    C35      C        0.25950    0.72737    0.67020    1.000
    H20      H        0.46250    0.53450    0.88230    1.000
    C36      C        0.47640    0.46951    0.82730    1.000
    H21      H        0.31770    0.75770    0.88170    1.000
    C37      C        0.21470    0.77307    0.83210    1.000
    H22      H        0.27470    0.71210    0.61590    1.000
    C38      C        0.18880    0.74569    0.67430    1.000
    N10      N        0.45305    0.44333    0.90920    1.000
    N11      N        0.18918    0.79800    0.91400    1.000
    C39      C        0.16490    0.76969    0.75430    1.000
    N12      N        0.13770    0.74308    0.59450    1.000
    C40      C        0.48380    0.40182    0.93920    1.000
    C41      C        0.39310    0.45195    0.96670    1.000
    C42      C        0.22870    0.82958    0.97050    1.000
    C43      C        0.11720    0.79859    0.94370    1.000
    H23      H        0.11740    0.78300    0.75570    1.000
    C44      C        0.09330    0.77901    0.56340    1.000
    C45      C        0.11800    0.70524    0.53890    1.000
    H24      H        0.52510    0.38820    0.91160    1.000
    C46      C        0.39170    0.41386    0.02990    1.000
    C47      C        0.34010    0.48801    0.96770    1.000
    C48      C        0.17700    0.84701    0.03410    1.000
    C49      C        0.30270    0.84510    0.97140    1.000
    H25      H        0.07910    0.78070    0.91570    1.000
    H26      H        0.09490    0.80870    0.59080    1.000
    C50      C        0.06290    0.72163    0.47480    1.000
    C51      C        0.13900    0.65900    0.54200    1.000
    C52      C        0.33770    0.41120    0.09900    1.000
    C53      C        0.28560    0.48410    0.03490    1.000
    H27      H        0.34130    0.51310    0.92570    1.000
    C54      C        0.19780    0.88053    0.10150    1.000
    C55      C        0.32180    0.87920    0.03740    1.000
    H28      H        0.33730    0.83330    0.92980    1.000
    C56      C        0.02910    0.69120    0.41040    1.000
    H29      H        0.17550    0.64830    0.58510    1.000
    C57      C        0.10380    0.62910    0.47850    1.000
    H30      H        0.33670    0.38650    0.14200    1.000
    C58      C        0.28580    0.44710    0.10020    1.000
    H31      H        0.24800    0.50670    0.03680    1.000
    C59      C        0.27070    0.89600    0.10280    1.000
    H32      H        0.16370    0.89200    0.14410    1.000
    H33      H        0.37010    0.89130    0.03850    1.000
    C60      C        0.05090    0.64540    0.41220    1.000
    H34      H        0.99260    0.70170    0.36720    1.000
    H35      H        0.11570    0.59730    0.47990    1.000
    H36      H        0.24950    0.44670    0.14610    1.000
    H37      H        0.28640    0.91800    0.14780    1.000
    H38      H        0.03000    0.62450    0.36820    1.000
    Mn3      Mn       0.99782    0.17519    0.89544    1.000
    O7       O        0.96534    0.11471    0.81480    1.000
    N13      N        0.04810    0.23137    0.99220    1.000
    N14      N        0.89316    0.17359    0.98540    1.000
    O8       O        0.09980    0.18700    0.82453    1.000
    O9       O        0.93033    0.22247    0.81297    1.000
    N15      N        0.05020    0.11692    0.98970    1.000
    C61      C        0.11380    0.21244    0.75400    1.000
    C62      C        0.19140    0.23188    0.75130    1.000
    C63      C        0.02290    0.01820    0.67110    1.000
    C64      C        0.21470    0.25480    0.67050    1.000
    C65      C        0.24050    0.22737    0.82980    1.000
    H39      H        0.03750    0.03450    0.61770    1.000
    C66      C        0.02360    0.96951    0.67270    1.000
    H40      H        0.18230    0.25770    0.61830    1.000
    C67      C        0.28530    0.27307    0.66790    1.000
    H41      H        0.22530    0.21210    0.88410    1.000
    C68      C        0.31120    0.24569    0.82570    1.000
    N16      N        0.04695    0.94333    0.59080    1.000
    N17      N        0.31082    0.29800    0.58600    1.000
    C69      C        0.33510    0.26969    0.74570    1.000
    N18      N        0.36230    0.24308    0.90550    1.000
    C70      C        0.01620    0.90182    0.56080    1.000
    C71      C        0.10690    0.95195    0.53330    1.000
    C72      C        0.27130    0.32958    0.52950    1.000
    C73      C        0.38280    0.29859    0.55630    1.000
    H42      H        0.38260    0.28300    0.74430    1.000
    C74      C        0.40670    0.27901    0.93660    1.000
    C75      C        0.38200    0.20524    0.96110    1.000
    H43      H        0.97490    0.88820    0.58840    1.000
    C76      C        0.10830    0.91386    0.47010    1.000
    C77      C        0.15990    0.98801    0.53230    1.000
    C78      C        0.32300    0.34701    0.46590    1.000
    C79      C        0.19730    0.34510    0.52860    1.000
    H44      H        0.42090    0.28070    0.58430    1.000
    H45      H        0.40510    0.30870    0.90920    1.000
    C80      C        0.43710    0.22163    0.02520    1.000
    C81      C        0.36100    0.15900    0.95800    1.000
    C82      C        0.16230    0.91120    0.40100    1.000
    C83      C        0.21440    0.98410    0.46510    1.000
    H46      H        0.15870    0.01310    0.57430    1.000
    C84      C        0.30220    0.38053    0.39850    1.000
    C85      C        0.17820    0.37920    0.46260    1.000
    H47      H        0.16270    0.33330    0.57020    1.000
    C86      C        0.47090    0.19120    0.08960    1.000
    H48      H        0.32450    0.14830    0.91490    1.000
    C87      C        0.39620    0.12910    0.02150    1.000
    H49      H        0.16330    0.88650    0.35800    1.000
    C88      C        0.21420    0.94710    0.39980    1.000
    H50      H        0.25200    0.00670    0.46320    1.000
    C89      C        0.22930    0.39600    0.39720    1.000
    H51      H        0.33630    0.39200    0.35590    1.000
    H52      H        0.12990    0.39130    0.46150    1.000
    C90      C        0.44910    0.14540    0.08780    1.000
    H53      H        0.50740    0.20170    0.13280    1.000
    H54      H        0.38430    0.09730    0.02010    1.000
    H55      H        0.25050    0.94670    0.35390    1.000
    H56      H        0.21360    0.41800    0.35220    1.000
    H57      H        0.47000    0.12450    0.13180    1.000
    Mn4      Mn       0.49782    0.67519    0.89544    1.000
    O10      O        0.46534    0.61471    0.81480    1.000
    N19      N        0.54810    0.73137    0.99220    1.000
    N20      N        0.39316    0.67359    0.98540    1.000
    O11      O        0.59980    0.68700    0.82453    1.000
    O12      O        0.43033    0.72247    0.81297    1.000
    N21      N        0.55020    0.61692    0.98970    1.000
    C91      C        0.61380    0.71244    0.75400    1.000
    C92      C        0.69140    0.73188    0.75130    1.000
    C93      C        0.52290    0.51820    0.67110    1.000
    C94      C        0.71470    0.75480    0.67050    1.000
    C95      C        0.74050    0.72737    0.82980    1.000
    H58      H        0.53750    0.53450    0.61770    1.000
    C96      C        0.52360    0.46951    0.67270    1.000
    H59      H        0.68230    0.75770    0.61830    1.000
    C97      C        0.78530    0.77307    0.66790    1.000
    H60      H        0.72530    0.71210    0.88410    1.000
    C98      C        0.81120    0.74569    0.82570    1.000
    N22      N        0.54695    0.44333    0.59080    1.000
    N23      N        0.81082    0.79800    0.58600    1.000
    C99      C        0.83510    0.76969    0.74570    1.000
    N24      N        0.86230    0.74308    0.90550    1.000
    C100     C        0.51620    0.40182    0.56080    1.000
    C101     C        0.60690    0.45195    0.53330    1.000
    C102     C        0.77130    0.82958    0.52950    1.000
    C103     C        0.88280    0.79859    0.55630    1.000
    H61      H        0.88260    0.78300    0.74430    1.000
    C104     C        0.90670    0.77901    0.93660    1.000
    C105     C        0.88200    0.70524    0.96110    1.000
    H62      H        0.47490    0.38820    0.58840    1.000
    C106     C        0.60830    0.41386    0.47010    1.000
    C107     C        0.65990    0.48801    0.53230    1.000
    C108     C        0.82300    0.84701    0.46590    1.000
    C109     C        0.69730    0.84510    0.52860    1.000
    H63      H        0.92090    0.78070    0.58430    1.000
    H64      H        0.90510    0.80870    0.90920    1.000
    C110     C        0.93710    0.72163    0.02520    1.000
    C111     C        0.86100    0.65900    0.95800    1.000
    C112     C        0.66230    0.41120    0.40100    1.000
    C113     C        0.71440    0.48410    0.46510    1.000
    H65      H        0.65870    0.51310    0.57430    1.000
    C114     C        0.80220    0.88053    0.39850    1.000
    C115     C        0.67820    0.87920    0.46260    1.000
    H66      H        0.66270    0.83330    0.57020    1.000
    C116     C        0.97090    0.69120    0.08960    1.000
    H67      H        0.82450    0.64830    0.91490    1.000
    C117     C        0.89620    0.62910    0.02150    1.000
    H68      H        0.66330    0.38650    0.35800    1.000
    C118     C        0.71420    0.44710    0.39980    1.000
    H69      H        0.75200    0.50670    0.46320    1.000
    C119     C        0.72930    0.89600    0.39720    1.000
    H70      H        0.83630    0.89200    0.35590    1.000
    H71      H        0.62990    0.89130    0.46150    1.000
    C120     C        0.94910    0.64540    0.08780    1.000
    H72      H        0.00740    0.70170    0.13280    1.000
    H73      H        0.88430    0.59730    0.02010    1.000
    H74      H        0.75050    0.44670    0.35390    1.000
    H75      H        0.71360    0.91800    0.35220    1.000
    H76      H        0.97000    0.62450    0.13180    1.000
    Mn5      Mn       0.99782    0.82481    0.39544    1.000
    O13      O        0.96534    0.88529    0.31480    1.000
    N25      N        0.04810    0.76863    0.49220    1.000
    N26      N        0.89316    0.82641    0.48540    1.000
    O14      O        0.09980    0.81300    0.32453    1.000
    O15      O        0.93033    0.77753    0.31297    1.000
    N27      N        0.05020    0.88308    0.48970    1.000
    C121     C        0.11380    0.78756    0.25400    1.000
    C122     C        0.19140    0.76812    0.25130    1.000
    C123     C        0.02290    0.98180    0.17110    1.000
    C124     C        0.21470    0.74520    0.17050    1.000
    C125     C        0.24050    0.77263    0.32980    1.000
    H77      H        0.03750    0.96550    0.11770    1.000
    C126     C        0.02360    0.03049    0.17270    1.000
    H78      H        0.18230    0.74230    0.11830    1.000
    C127     C        0.28530    0.72693    0.16790    1.000
    H79      H        0.22530    0.78790    0.38410    1.000
    C128     C        0.31120    0.75431    0.32570    1.000
    N28      N        0.04695    0.05667    0.09080    1.000
    N29      N        0.31082    0.70200    0.08600    1.000
    C129     C        0.33510    0.73031    0.24570    1.000
    N30      N        0.36230    0.75692    0.40550    1.000
    C130     C        0.01620    0.09818    0.06080    1.000
    C131     C        0.10690    0.04805    0.03330    1.000
    C132     C        0.27130    0.67042    0.02950    1.000
    C133     C        0.38280    0.70141    0.05630    1.000
    H80      H        0.38260    0.71700    0.24430    1.000
    C134     C        0.40670    0.72099    0.43660    1.000
    C135     C        0.38200    0.79476    0.46110    1.000
    H81      H        0.97490    0.11180    0.08840    1.000
    C136     C        0.10830    0.08614    0.97010    1.000
    C137     C        0.15990    0.01199    0.03230    1.000
    C138     C        0.32300    0.65299    0.96590    1.000
    C139     C        0.19730    0.65490    0.02860    1.000
    H82      H        0.42090    0.71930    0.08430    1.000
    H83      H        0.40510    0.69130    0.40920    1.000
    C140     C        0.43710    0.77837    0.52520    1.000
    C141     C        0.36100    0.84100    0.45800    1.000
    C142     C        0.16230    0.08880    0.90100    1.000
    C143     C        0.21440    0.01590    0.96510    1.000
    H84      H        0.15870    0.98690    0.07430    1.000
    C144     C        0.30220    0.61947    0.89850    1.000
    C145     C        0.17820    0.62080    0.96260    1.000
    H85      H        0.16270    0.66670    0.07020    1.000
    C146     C        0.47090    0.80880    0.58960    1.000
    H86      H        0.32450    0.85170    0.41490    1.000
    C147     C        0.39620    0.87090    0.52150    1.000
    H87      H        0.16330    0.11350    0.85800    1.000
    C148     C        0.21420    0.05290    0.89980    1.000
    H88      H        0.25200    0.99330    0.96320    1.000
    C149     C        0.22930    0.60400    0.89720    1.000
    H89      H        0.33630    0.60800    0.85590    1.000
    H90      H        0.12990    0.60870    0.96150    1.000
    C150     C        0.44910    0.85460    0.58780    1.000
    H91      H        0.50740    0.79830    0.63280    1.000
    H92      H        0.38430    0.90270    0.52010    1.000
    H93      H        0.25050    0.05330    0.85390    1.000
    H94      H        0.21360    0.58200    0.85220    1.000
    H95      H        0.47000    0.87550    0.63180    1.000
    Mn6      Mn       0.49782    0.32481    0.39544    1.000
    O16      O        0.46534    0.38529    0.31480    1.000
    N31      N        0.54810    0.26863    0.49220    1.000
    N32      N        0.39316    0.32641    0.48540    1.000
    O17      O        0.59980    0.31300    0.32453    1.000
    O18      O        0.43033    0.27753    0.31297    1.000
    N33      N        0.55020    0.38308    0.48970    1.000
    C151     C        0.61380    0.28756    0.25400    1.000
    C152     C        0.69140    0.26812    0.25130    1.000
    C153     C        0.52290    0.48180    0.17110    1.000
    C154     C        0.71470    0.24520    0.17050    1.000
    C155     C        0.74050    0.27263    0.32980    1.000
    H96      H        0.53750    0.46550    0.11770    1.000
    C156     C        0.52360    0.53049    0.17270    1.000
    H97      H        0.68230    0.24230    0.11830    1.000
    C157     C        0.78530    0.22693    0.16790    1.000
    H98      H        0.72530    0.28790    0.38410    1.000
    C158     C        0.81120    0.25431    0.32570    1.000
    N34      N        0.54695    0.55667    0.09080    1.000
    N35      N        0.81082    0.20200    0.08600    1.000
    C159     C        0.83510    0.23031    0.24570    1.000
    N36      N        0.86230    0.25692    0.40550    1.000
    C160     C        0.51620    0.59818    0.06080    1.000
    C161     C        0.60690    0.54805    0.03330    1.000
    C162     C        0.77130    0.17042    0.02950    1.000
    C163     C        0.88280    0.20141    0.05630    1.000
    H99      H        0.88260    0.21700    0.24430    1.000
    C164     C        0.90670    0.22099    0.43660    1.000
    C165     C        0.88200    0.29476    0.46110    1.000
    H100     H        0.47490    0.61180    0.08840    1.000
    C166     C        0.60830    0.58614    0.97010    1.000
    C167     C        0.65990    0.51199    0.03230    1.000
    C168     C        0.82300    0.15299    0.96590    1.000
    C169     C        0.69730    0.15490    0.02860    1.000
    H101     H        0.92090    0.21930    0.08430    1.000
    H102     H        0.90510    0.19130    0.40920    1.000
    C170     C        0.93710    0.27837    0.52520    1.000
    C171     C        0.86100    0.34100    0.45800    1.000
    C172     C        0.66230    0.58880    0.90100    1.000
    C173     C        0.71440    0.51590    0.96510    1.000
    H103     H        0.65870    0.48690    0.07430    1.000
    C174     C        0.80220    0.11947    0.89850    1.000
    C175     C        0.67820    0.12080    0.96260    1.000
    H104     H        0.66270    0.16670    0.07020    1.000
    C176     C        0.97090    0.30880    0.58960    1.000
    H105     H        0.82450    0.35170    0.41490    1.000
    C177     C        0.89620    0.37090    0.52150    1.000
    H106     H        0.66330    0.61350    0.85800    1.000
    C178     C        0.71420    0.55290    0.89980    1.000
    H107     H        0.75200    0.49330    0.96320    1.000
    C179     C        0.72930    0.10400    0.89720    1.000
    H108     H        0.83630    0.10800    0.85590    1.000
    H109     H        0.62990    0.10870    0.96150    1.000
    C180     C        0.94910    0.35460    0.58780    1.000
    H110     H        0.00740    0.29830    0.63280    1.000
    H111     H        0.88430    0.40270    0.52010    1.000
    H112     H        0.75050    0.55330    0.85390    1.000
    H113     H        0.71360    0.08200    0.85220    1.000
    H114     H        0.97000    0.37550    0.63180    1.000
    Mn7      Mn       0.00218    0.82481    0.10456    1.000
    O19      O        0.03466    0.88529    0.18520    1.000
    N37      N        0.95190    0.76863    0.00780    1.000
    N38      N        0.10684    0.82641    0.01460    1.000
    O20      O        0.90020    0.81300    0.17547    1.000
    O21      O        0.06967    0.77753    0.18703    1.000
    N39      N        0.94980    0.88308    0.01030    1.000
    C181     C        0.88620    0.78756    0.24600    1.000
    C182     C        0.80860    0.76812    0.24870    1.000
    C183     C        0.97710    0.98180    0.32890    1.000
    C184     C        0.78530    0.74520    0.32950    1.000
    C185     C        0.75950    0.77263    0.17020    1.000
    H115     H        0.96250    0.96550    0.38230    1.000
    C186     C        0.97640    0.03049    0.32730    1.000
    H116     H        0.81770    0.74230    0.38170    1.000
    C187     C        0.71470    0.72693    0.33210    1.000
    H117     H        0.77470    0.78790    0.11590    1.000
    C188     C        0.68880    0.75431    0.17430    1.000
    N40      N        0.95305    0.05667    0.40920    1.000
    N41      N        0.68918    0.70200    0.41400    1.000
    C189     C        0.66490    0.73031    0.25430    1.000
    N42      N        0.63770    0.75692    0.09450    1.000
    C190     C        0.98380    0.09818    0.43920    1.000
    C191     C        0.89310    0.04805    0.46670    1.000
    C192     C        0.72870    0.67042    0.47050    1.000
    C193     C        0.61720    0.70141    0.44370    1.000
    H118     H        0.61740    0.71700    0.25570    1.000
    C194     C        0.59330    0.72099    0.06340    1.000
    C195     C        0.61800    0.79476    0.03890    1.000
    H119     H        0.02510    0.11180    0.41160    1.000
    C196     C        0.89170    0.08614    0.52990    1.000
    C197     C        0.84010    0.01199    0.46770    1.000
    C198     C        0.67700    0.65299    0.53410    1.000
    C199     C        0.80270    0.65490    0.47140    1.000
    H120     H        0.57910    0.71930    0.41570    1.000
    H121     H        0.59490    0.69130    0.09080    1.000
    C200     C        0.56290    0.77837    0.97480    1.000
    C201     C        0.63900    0.84100    0.04200    1.000
    C202     C        0.83770    0.08880    0.59900    1.000
    C203     C        0.78560    0.01590    0.53490    1.000
    H122     H        0.84130    0.98690    0.42570    1.000
    C204     C        0.69780    0.61947    0.60150    1.000
    C205     C        0.82180    0.62080    0.53740    1.000
    H123     H        0.83730    0.66670    0.42980    1.000
    C206     C        0.52910    0.80880    0.91040    1.000
    H124     H        0.67550    0.85170    0.08510    1.000
    C207     C        0.60380    0.87090    0.97850    1.000
    H125     H        0.83670    0.11350    0.64200    1.000
    C208     C        0.78580    0.05290    0.60020    1.000
    H126     H        0.74800    0.99330    0.53680    1.000
    C209     C        0.77070    0.60400    0.60280    1.000
    H127     H        0.66370    0.60800    0.64410    1.000
    H128     H        0.87010    0.60870    0.53850    1.000
    C210     C        0.55090    0.85460    0.91220    1.000
    H129     H        0.49260    0.79830    0.86720    1.000
    H130     H        0.61570    0.90270    0.97990    1.000
    H131     H        0.74950    0.05330    0.64610    1.000
    H132     H        0.78640    0.58200    0.64780    1.000
    H133     H        0.53000    0.87550    0.86820    1.000
    Mn8      Mn       0.50218    0.32481    0.10456    1.000
    O22      O        0.53466    0.38529    0.18520    1.000
    N43      N        0.45190    0.26863    0.00780    1.000
    N44      N        0.60684    0.32641    0.01460    1.000
    O23      O        0.40020    0.31300    0.17547    1.000
    O24      O        0.56967    0.27753    0.18703    1.000
    N45      N        0.44980    0.38308    0.01030    1.000
    C211     C        0.38620    0.28756    0.24600    1.000
    C212     C        0.30860    0.26812    0.24870    1.000
    C213     C        0.47710    0.48180    0.32890    1.000
    C214     C        0.28530    0.24520    0.32950    1.000
    C215     C        0.25950    0.27263    0.17020    1.000
    H134     H        0.46250    0.46550    0.38230    1.000
    C216     C        0.47640    0.53049    0.32730    1.000
    H135     H        0.31770    0.24230    0.38170    1.000
    C217     C        0.21470    0.22693    0.33210    1.000
    H136     H        0.27470    0.28790    0.11590    1.000
    C218     C        0.18880    0.25431    0.17430    1.000
    N46      N        0.45305    0.55667    0.40920    1.000
    N47      N        0.18918    0.20200    0.41400    1.000
    C219     C        0.16490    0.23031    0.25430    1.000
    N48      N        0.13770    0.25692    0.09450    1.000
    C220     C        0.48380    0.59818    0.43920    1.000
    C221     C        0.39310    0.54805    0.46670    1.000
    C222     C        0.22870    0.17042    0.47050    1.000
    C223     C        0.11720    0.20141    0.44370    1.000
    H137     H        0.11740    0.21700    0.25570    1.000
    C224     C        0.09330    0.22099    0.06340    1.000
    C225     C        0.11800    0.29476    0.03890    1.000
    H138     H        0.52510    0.61180    0.41160    1.000
    C226     C        0.39170    0.58614    0.52990    1.000
    C227     C        0.34010    0.51199    0.46770    1.000
    C228     C        0.17700    0.15299    0.53410    1.000
    C229     C        0.30270    0.15490    0.47140    1.000
    H139     H        0.07910    0.21930    0.41570    1.000
    H140     H        0.09490    0.19130    0.09080    1.000
    C230     C        0.06290    0.27837    0.97480    1.000
    C231     C        0.13900    0.34100    0.04200    1.000
    C232     C        0.33770    0.58880    0.59900    1.000
    C233     C        0.28560    0.51590    0.53490    1.000
    H141     H        0.34130    0.48690    0.42570    1.000
    C234     C        0.19780    0.11947    0.60150    1.000
    C235     C        0.32180    0.12080    0.53740    1.000
    H142     H        0.33730    0.16670    0.42980    1.000
    C236     C        0.02910    0.30880    0.91040    1.000
    H143     H        0.17550    0.35170    0.08510    1.000
    C237     C        0.10380    0.37090    0.97850    1.000
    H144     H        0.33670    0.61350    0.64200    1.000
    C238     C        0.28580    0.55290    0.60020    1.000
    H145     H        0.24800    0.49330    0.53680    1.000
    C239     C        0.27070    0.10400    0.60280    1.000
    H146     H        0.16370    0.10800    0.64410    1.000
    H147     H        0.37010    0.10870    0.53850    1.000
    C240     C        0.05090    0.35460    0.91220    1.000
    H148     H        0.99260    0.29830    0.86720    1.000
    H149     H        0.11570    0.40270    0.97990    1.000
    H150     H        0.24950    0.55330    0.64610    1.000
    H151     H        0.28640    0.08200    0.64780    1.000
    H152     H        0.03000    0.37550    0.86820    1.000
    C241     C        0.00000    0.09460    0.75000    1.000
    C242     C        0.00000    0.04220    0.75000    1.000
    C243     C        0.00000    0.94450    0.75000    1.000
    H153     H        0.00000    0.91180    0.75000    1.000
    C244     C        0.50000    0.59460    0.75000    1.000
    C245     C        0.50000    0.54220    0.75000    1.000
    C246     C        0.50000    0.44450    0.75000    1.000
    H154     H        0.50000    0.41180    0.75000    1.000
    C247     C        0.00000    0.90540    0.25000    1.000
    C248     C        0.00000    0.95780    0.25000    1.000
    C249     C        0.00000    0.05550    0.25000    1.000
    H155     H        0.00000    0.08820    0.25000    1.000
    C250     C        0.50000    0.40540    0.25000    1.000
    C251     C        0.50000    0.45780    0.25000    1.000
    C252     C        0.50000    0.55550    0.25000    1.000
    H156     H        0.50000    0.58820    0.25000    1.000
