data_functionalizedCrystal
_audit_creation_method	'EQeq! by Chris Wilmer'
_symmetry_space_group_name_H-M	'P1'
_symmetry_Int_Tables_number	1
_symmetry_cell_setting	triclinic
loop_
_symmetry_equiv_pos_as_xyz
  x,y,z
_cell_length_a	7.2272
_cell_length_b	13.3075
_cell_length_c	14.6157
_cell_angle_alpha	90
_cell_angle_beta	90.944
_cell_angle_gamma	90
loop_
_atom_site_label
_atom_site_type_symbol
_atom_site_fract_x
_atom_site_fract_y
_atom_site_fract_z
_atom_site_charge
Mof_Fe	Fe	0.5	0.5	-0	0.559
Mof_Fe	Fe	-0	0	-0	0.438
Mof_Fe	Fe	3.8537e-33	-4.49017e-33	0.5	0.459
Mof_Fe	Fe	0.5	0.5	0.5	0.569
Mof_H 	H 	0.397	0.289	0.019	-0.029
Mof_H 	H 	0.405	0.148	0.128	0.077
Mof_H 	H 	0.498	0.184	0.275	-0.013
Mof_H 	H 	0.524	0.465	0.202	-0.013
Mof_H 	H 	0.103	0.789	0.981	0.03
Mof_H 	H 	0.095	0.648	0.872	0.086
Mof_H 	H 	0.002	0.684	0.725	0.002
Mof_H 	H 	0.976	0.965	0.798	0.017
Mof_H 	H 	0.603	0.711	0.981	0.026
Mof_H 	H 	0.595	0.852	0.872	0.117
Mof_H 	H 	0.502	0.816	0.725	0.011
Mof_H 	H 	0.476	0.535	0.798	-0.013
Mof_H 	H 	0.897	0.211	0.019	-0.023
Mof_H 	H 	0.905	0.352	0.128	0.103
Mof_H 	H 	0.998	0.316	0.275	-0.005
Mof_H 	H 	0.024	0.035	0.202	-0.029
Mof_Au	Au	0.73177	0.24511	0.75096	0.057
Mof_Au	Au	0.97768	0.45569	0.76825	0.115
Mof_Au	Au	0.76823	0.74511	0.24904	0.061
Mof_Au	Au	0.52232	0.95569	0.23175	0.092
Mof_Au	Au	0.26823	0.75489	0.24904	0.025
Mof_Au	Au	0.02232	0.54431	0.23175	-0.022
Mof_Au	Au	0.23177	0.25489	0.75096	0.021
Mof_Au	Au	0.47768	0.04431	0.76825	0.022
Mof_C 	C 	0.6584	0.3331	0.8542	0.051
Mof_C 	C 	0.1357	0.4517	0.8811	0.017
Mof_C 	C 	0.4299	0.2898	0.0815	0.097
Mof_C 	C 	0.436	0.2123	0.1443	-0.181
Mof_C 	C 	0.4815	0.236	0.233	0.101
Mof_C 	C 	0.5054	0.4003	0.1945	0.115
Mof_C 	C 	0.8073	0.1573	0.6475	0.037
Mof_C 	C 	0.8215	0.4802	0.6592	0.037
Mof_C 	C 	0.8416	0.8331	0.1458	0.038
Mof_C 	C 	0.3643	0.9517	0.1189	0.042
Mof_C 	C 	0.0701	0.7898	0.9185	0.084
Mof_C 	C 	0.064	0.7123	0.8557	-0.148
Mof_C 	C 	0.0185	0.736	0.767	0.059
Mof_C 	C 	0.9946	0.9003	0.8055	0.153
Mof_C 	C 	0.6927	0.6573	0.3525	0.047
Mof_C 	C 	0.6785	0.9802	0.3408	0.06
Mof_C 	C 	0.3416	0.6669	0.1458	0.027
Mof_C 	C 	0.8643	0.5483	0.1189	0.066
Mof_C 	C 	0.5701	0.7102	0.9185	0.11
Mof_C 	C 	0.564	0.7877	0.8557	-0.168
Mof_C 	C 	0.5185	0.764	0.767	0.106
Mof_C 	C 	0.4946	0.5997	0.8055	0.119
Mof_C 	C 	0.1927	0.8427	0.3525	0.037
Mof_C 	C 	0.1785	0.5198	0.3408	0.042
Mof_C 	C 	0.1584	0.1669	0.8542	0.036
Mof_C 	C 	0.6357	0.0483	0.8811	0.038
Mof_C 	C 	0.9299	0.2102	0.0815	0.116
Mof_C 	C 	0.936	0.2877	0.1443	-0.194
Mof_C 	C 	0.9815	0.264	0.233	0.149
Mof_C 	C 	0.0054	0.0997	0.1945	0.068
Mof_C 	C 	0.3073	0.3427	0.6475	0.029
Mof_C 	C 	0.3215	0.0198	0.6592	0.017
Mof_N 	N 	0.6157	0.3861	0.9121	-0.146
Mof_N 	N 	0.2363	0.4586	0.9412	-0.141
Mof_N 	N 	0.4669	0.385	0.1066	-0.197
Mof_N 	N 	0.515	0.3304	0.2593	-0.153
Mof_N 	N 	0.8541	0.1051	0.5911	-0.166
Mof_N 	N 	0.7229	0.4974	0.5978	-0.175
Mof_N 	N 	0.8843	0.8861	0.0879	-0.148
Mof_N 	N 	0.2637	0.9586	0.0588	-0.162
Mof_N 	N 	0.0331	0.885	0.8934	-0.17
Mof_N 	N 	0.985	0.8304	0.7407	-0.119
Mof_N 	N 	0.6459	0.6051	0.4089	-0.174
Mof_N 	N 	0.7771	0.9974	0.4022	-0.139
Mof_N 	N 	0.3843	0.6139	0.0879	-0.187
Mof_N 	N 	0.7637	0.5414	0.0588	-0.193
Mof_N 	N 	0.5331	0.615	0.8934	-0.174
Mof_N 	N 	0.485	0.6696	0.7407	-0.15
Mof_N 	N 	0.1459	0.8949	0.4089	-0.157
Mof_N 	N 	0.2771	0.5026	0.4022	-0.185
Mof_N 	N 	0.1157	0.1139	0.9121	-0.153
Mof_N 	N 	0.7363	0.0414	0.9412	-0.14
Mof_N 	N 	0.9669	0.115	0.1066	-0.169
Mof_N 	N 	0.015	0.1696	0.2593	-0.179
Mof_N 	N 	0.3541	0.3949	0.5911	-0.181
Mof_N 	N 	0.2229	0.0026	0.5978	-0.189
_end
