# CIF file generated by openbabel 3.1.0, see https://openbabel.org
data_I
_chemical_name_common 'BEPVAV_clean'
_cell_length_a 11.37
_cell_length_b 11.4274
_cell_length_c 12.1912
_cell_angle_alpha 67.952
_cell_angle_beta 87.743
_cell_angle_gamma 69.803
_space_group_name_H-M_alt 'P 1'
_space_group_name_Hall 'P 1'
loop_
    _symmetry_equiv_pos_as_xyz
    x,y,z
loop_
    _atom_site_label
    _atom_site_type_symbol
    _atom_site_fract_x
    _atom_site_fract_y
    _atom_site_fract_z
    _atom_site_occupancy
    Cu1      Cu       0.31511    0.63247    0.27502    1.000
    Cu2      Cu       0.37101    0.18390    0.58052    1.000
    Cu3      Cu       0.54820    0.87651    0.98994    1.000
    Cu4      Cu       0.68489    0.36753    0.72498    1.000
    Cu5      Cu       0.62899    0.81610    0.41948    1.000
    Cu6      Cu       0.45180    0.12349    0.01006    1.000
    H1       H        0.91420    0.41450    0.33170    1.000
    H2       H        0.96620    0.49300    0.39100    1.000
    H3       H        0.82310    0.50040    0.39960    1.000
    H4       H        0.68300    0.62190    0.19530    1.000
    H5       H        0.39080    0.89060    0.71610    1.000
    H6       H        0.76900    0.96050    0.91180    1.000
    H7       H        0.85140    0.98000    0.00250    1.000
    H8       H        0.91840    0.88350    0.93390    1.000
    H9       H        0.09060    0.60600    0.25250    1.000
    H10      H        0.08110    0.72680    0.12850    1.000
    H11      H        0.85350    0.88810    0.26070    1.000
    H12      H        0.87910    0.02210    0.35620    1.000
    H13      H        0.07910    0.99600    0.41900    1.000
    H14      H        0.34880    0.85680    0.32310    1.000
    H15      H        0.35370    0.72310    0.43330    1.000
    H16      H        0.29080    0.67930    0.71580    1.000
    H17      H        0.39510    0.61820    0.64050    1.000
    H18      H        0.43620    0.65040    0.74690    1.000
    H19      H        0.30650    0.20500    0.34200    1.000
    H20      H        0.33770    0.10040    0.27760    1.000
    H21      H        0.19810    0.15920    0.31130    1.000
    H22      H        0.08580    0.58550    0.66830    1.000
    H23      H        0.03380    0.50700    0.60900    1.000
    H24      H        0.17690    0.49960    0.60040    1.000
    H25      H        0.31700    0.37810    0.80470    1.000
    H26      H        0.60920    0.10940    0.28390    1.000
    H27      H        0.23100    0.03950    0.08820    1.000
    H28      H        0.14860    0.02000    0.99750    1.000
    H29      H        0.08160    0.11650    0.06610    1.000
    H30      H        0.90940    0.39400    0.74750    1.000
    H31      H        0.91890    0.27320    0.87150    1.000
    H32      H        0.14650    0.11190    0.73930    1.000
    H33      H        0.12090    0.97790    0.64380    1.000
    H34      H        0.92090    0.00400    0.58100    1.000
    H35      H        0.65120    0.14320    0.67690    1.000
    H36      H        0.64630    0.27690    0.56670    1.000
    H37      H        0.70920    0.32070    0.28420    1.000
    H38      H        0.60490    0.38180    0.35950    1.000
    H39      H        0.56380    0.34960    0.25310    1.000
    H40      H        0.69350    0.79500    0.65800    1.000
    H41      H        0.66230    0.89960    0.72240    1.000
    H42      H        0.80190    0.84080    0.68870    1.000
    C1       C        0.89260    0.49600    0.34930    1.000
    C2       C        0.85320    0.61840    0.23530    1.000
    C3       C        0.91340    0.70570    0.16930    1.000
    C4       C        0.82650    0.80060    0.06880    1.000
    C5       C        0.84270    0.91570    0.97110    1.000
    C6       C        0.03970    0.70080    0.20220    1.000
    C7       C        0.04270    0.78780    0.26650    1.000
    C8       C        0.93510    0.87960    0.28590    1.000
    C9       C        0.95070    0.95740    0.34260    1.000
    C10      C        0.06830    0.94230    0.37940    1.000
    C11      C        0.17210    0.84840    0.35880    1.000
    C12      C        0.30860    0.82200    0.39570    1.000
    C13      C        0.37060    0.67990    0.68250    1.000
    C14      C        0.35460    0.82130    0.59640    1.000
    C15      C        0.32570    0.88360    0.47930    1.000
    C16      C        0.32060    0.01640    0.45310    1.000
    C17      C        0.28800    0.12970    0.33620    1.000
    C18      C        0.47730    0.01440    0.84150    1.000
    C19      C        0.41100    0.69480    0.15440    1.000
    C20      C        0.34040    0.35840    0.46710    1.000
    C21      C        0.10740    0.50400    0.65070    1.000
    C22      C        0.14680    0.38160    0.76470    1.000
    C23      C        0.08660    0.29430    0.83070    1.000
    C24      C        0.17350    0.19940    0.93120    1.000
    C25      C        0.15730    0.08430    0.02890    1.000
    C26      C        0.96030    0.29920    0.79780    1.000
    C27      C        0.95730    0.21220    0.73350    1.000
    C28      C        0.06490    0.12040    0.71410    1.000
    C29      C        0.04930    0.04260    0.65740    1.000
    C30      C        0.93170    0.05770    0.62060    1.000
    C31      C        0.82790    0.15160    0.64120    1.000
    C32      C        0.69140    0.17800    0.60430    1.000
    C33      C        0.62940    0.32010    0.31750    1.000
    C34      C        0.64540    0.17870    0.40360    1.000
    C35      C        0.67430    0.11640    0.52070    1.000
    C36      C        0.67940    0.98360    0.54690    1.000
    C37      C        0.71200    0.87030    0.66380    1.000
    C38      C        0.52270    0.98560    0.15850    1.000
    C39      C        0.58900    0.30520    0.84560    1.000
    C40      C        0.65960    0.64160    0.53290    1.000
    N1       N        0.72220    0.77350    0.07250    1.000
    N2       N        0.73880    0.66150    0.17310    1.000
    N3       N        0.15920    0.77270    0.30360    1.000
    N4       N        0.36960    0.90990    0.64100    1.000
    N5       N        0.34630    0.03180    0.55060    1.000
    N6       N        0.43500    0.08700    0.74720    1.000
    N7       N        0.46870    0.74530    0.08430    1.000
    N8       N        0.32650    0.46200    0.39370    1.000
    N9       N        0.27780    0.22650    0.92750    1.000
    N10      N        0.26120    0.33850    0.82690    1.000
    N11      N        0.84080    0.22730    0.69640    1.000
    N12      N        0.63040    0.09010    0.35900    1.000
    N13      N        0.65370    0.96820    0.44940    1.000
    N14      N        0.56500    0.91300    0.25280    1.000
    N15      N        0.53130    0.25470    0.91570    1.000
    N16      N        0.67350    0.53800    0.60630    1.000
