data_functionalizedCrystal
_audit_creation_method	'EQeq! by Chris Wilmer'
_symmetry_space_group_name_H-M	'P1'
_symmetry_Int_Tables_number	1
_symmetry_cell_setting	triclinic
loop_
_symmetry_equiv_pos_as_xyz
  x,y,z
_cell_length_a	14.8998
_cell_length_b	10.2903
_cell_length_c	18.515
_cell_angle_alpha	90
_cell_angle_beta	101.079
_cell_angle_gamma	90
loop_
_atom_site_label
_atom_site_type_symbol
_atom_site_fract_x
_atom_site_fract_y
_atom_site_fract_z
_atom_site_charge
Mof_V 	V 	0.8326	0.3824	0.9071	1.745
Mof_V 	V 	0.7577	0.4462	0.7167	1.234
Mof_V 	V 	0.1923	0.4181	0.7805	1.23
Mof_P 	P 	0.2158	0.6208	0.9253	0.57
Mof_P 	P 	0.8377	0.6659	0.8333	0.563
Mof_O 	O 	0.2096	0.5751	0.0029	-0.514
Mof_O 	O 	0.3029	0.7	0.9266	-0.533
Mof_O 	O 	0.8338	0.5928	0.7614	-0.613
Mof_O 	O 	0.8285	0.5742	0.8971	-0.511
Mof_O 	O 	0.2148	0.4989	0.8789	-0.563
Mof_O 	O 	0.7651	0.771	0.8285	-0.559
Mof_O 	O 	0.6568	0.5022	0.712	-0.52
Mof_O 	O 	0.7777	0.37	0.8147	-0.829
Mof_C 	C 	0.1188	0.7208	0.8897	-0.54
Mof_C 	C 	0.9478	0.7422	0.8556	-0.508
Mof_C 	C 	0.0283	0.6482	0.8758	0.328
Mof_O 	O 	0.9063	0.353	0.7264	-0.516
Mof_H 	H 	0.1156	0.7907	0.9243	0.17
Mof_H 	H 	0.1278	0.7598	0.8439	0.188
Mof_H 	H 	0.9569	0.7938	0.8137	0.187
Mof_H 	H 	0.948	0.801	0.8965	0.181
Mof_H 	H 	0.0222	0.6	0.9196	-0.119
Mof_H 	H 	0.0274	0.5865	0.8361	-0.079
Mof_V 	V 	0.3326	0.8824	0.9071	1.744
Mof_V 	V 	0.2577	0.9462	0.7167	1.234
Mof_V 	V 	0.6923	0.9181	0.7805	1.23
Mof_P 	P 	0.7158	0.1208	0.9253	0.58
Mof_P 	P 	0.3377	0.1659	0.8333	0.564
Mof_O 	O 	0.7096	0.0751	0.0029	-0.521
Mof_O 	O 	0.8029	0.2	0.9266	-0.531
Mof_O 	O 	0.3338	0.0928	0.7614	-0.611
Mof_O 	O 	0.3285	0.0742	0.8971	-0.507
Mof_O 	O 	0.7148	0.9989	0.8789	-0.57
Mof_O 	O 	0.2651	0.271	0.8285	-0.558
Mof_O 	O 	0.1568	0.0022	0.712	-0.517
Mof_O 	O 	0.2777	0.87	0.8147	-0.83
Mof_C 	C 	0.6188	0.2208	0.8897	-0.542
Mof_C 	C 	0.4478	0.2422	0.8556	-0.509
Mof_C 	C 	0.5283	0.1482	0.8758	0.329
Mof_O 	O 	0.4063	0.853	0.7264	-0.517
Mof_H 	H 	0.6156	0.2907	0.9243	0.172
Mof_H 	H 	0.6278	0.2598	0.8439	0.189
Mof_H 	H 	0.4569	0.2938	0.8137	0.188
Mof_H 	H 	0.448	0.301	0.8965	0.183
Mof_H 	H 	0.5222	0.1	0.9196	-0.117
Mof_H 	H 	0.5274	0.0865	0.8361	-0.078
Mof_V 	V 	0.1674	0.3824	0.5929	1.746
Mof_V 	V 	0.2423	0.4462	0.7833	1.235
Mof_V 	V 	0.8077	0.4181	0.7195	1.23
Mof_P 	P 	0.7842	0.6208	0.5747	0.572
Mof_P 	P 	0.1623	0.6659	0.6667	0.564
Mof_O 	O 	0.7904	0.5751	0.4971	-0.514
Mof_O 	O 	0.6971	0.7	0.5734	-0.532
Mof_O 	O 	0.1662	0.5928	0.7386	-0.613
Mof_O 	O 	0.1715	0.5742	0.6029	-0.511
Mof_O 	O 	0.7852	0.4989	0.6211	-0.564
Mof_O 	O 	0.2349	0.771	0.6715	-0.559
Mof_O 	O 	0.3432	0.5022	0.788	-0.52
Mof_O 	O 	0.2223	0.37	0.6853	-0.829
Mof_C 	C 	0.8812	0.7208	0.6103	-0.541
Mof_C 	C 	0.0522	0.7422	0.6444	-0.51
Mof_C 	C 	0.9717	0.6482	0.6242	0.329
Mof_O 	O 	0.0937	0.353	0.7736	-0.516
Mof_H 	H 	0.8844	0.7907	0.5757	0.171
Mof_H 	H 	0.8722	0.7598	0.6561	0.189
Mof_H 	H 	0.0431	0.7938	0.6863	0.187
Mof_H 	H 	0.052	0.801	0.6035	0.182
Mof_H 	H 	0.9778	0.6	0.5804	-0.119
Mof_H 	H 	0.9726	0.5865	0.6639	-0.079
Mof_V 	V 	0.6674	0.8824	0.5929	1.745
Mof_V 	V 	0.7423	0.9462	0.7833	1.234
Mof_V 	V 	0.3077	0.9181	0.7195	1.23
Mof_P 	P 	0.2842	0.1208	0.5747	0.573
Mof_P 	P 	0.6623	0.1659	0.6667	0.564
Mof_O 	O 	0.2904	0.0751	0.4971	-0.515
Mof_O 	O 	0.1971	0.2	0.5734	-0.532
Mof_O 	O 	0.6662	0.0928	0.7386	-0.611
Mof_O 	O 	0.6715	0.0742	0.6029	-0.51
Mof_O 	O 	0.2852	0.9989	0.6211	-0.566
Mof_O 	O 	0.7349	0.271	0.6715	-0.558
Mof_O 	O 	0.8432	0.0022	0.788	-0.516
Mof_O 	O 	0.7223	0.87	0.6853	-0.83
Mof_C 	C 	0.3812	0.2208	0.6103	-0.541
Mof_C 	C 	0.5522	0.2422	0.6444	-0.509
Mof_C 	C 	0.4717	0.1482	0.6242	0.329
Mof_O 	O 	0.5937	0.853	0.7736	-0.517
Mof_H 	H 	0.3844	0.2907	0.5757	0.171
Mof_H 	H 	0.3722	0.2598	0.6561	0.189
Mof_H 	H 	0.5431	0.2938	0.6863	0.188
Mof_H 	H 	0.552	0.301	0.6035	0.183
Mof_H 	H 	0.4778	0.1	0.5804	-0.119
Mof_H 	H 	0.4726	0.0865	0.6639	-0.078
Mof_V 	V 	0.1674	0.6176	0.0929	1.746
Mof_V 	V 	0.2423	0.5538	0.2833	1.235
Mof_V 	V 	0.8077	0.5819	0.2195	1.23
Mof_P 	P 	0.7842	0.3792	0.0747	0.57
Mof_P 	P 	0.1623	0.3341	0.1667	0.563
Mof_O 	O 	0.7904	0.4249	0.9971	-0.514
Mof_O 	O 	0.6971	0.3	0.0734	-0.533
Mof_O 	O 	0.1662	0.4072	0.2386	-0.613
Mof_O 	O 	0.1715	0.4258	0.1029	-0.511
Mof_O 	O 	0.7852	0.5011	0.1211	-0.563
Mof_O 	O 	0.2349	0.229	0.1715	-0.559
Mof_O 	O 	0.3432	0.4978	0.288	-0.52
Mof_O 	O 	0.2223	0.63	0.1853	-0.829
Mof_C 	C 	0.8812	0.2792	0.1103	-0.54
Mof_C 	C 	0.0522	0.2578	0.1444	-0.508
Mof_C 	C 	0.9717	0.3518	0.1242	0.328
Mof_O 	O 	0.0937	0.647	0.2736	-0.516
Mof_H 	H 	0.8844	0.2093	0.0757	0.17
Mof_H 	H 	0.8722	0.2402	0.1561	0.188
Mof_H 	H 	0.0431	0.2062	0.1863	0.187
Mof_H 	H 	0.052	0.199	0.1035	0.181
Mof_H 	H 	0.9778	0.4	0.0804	-0.119
Mof_H 	H 	0.9726	0.4135	0.1639	-0.079
Mof_V 	V 	0.6674	0.1176	0.0929	1.744
Mof_V 	V 	0.7423	0.0538	0.2833	1.234
Mof_V 	V 	0.3077	0.0819	0.2195	1.23
Mof_P 	P 	0.2842	0.8792	0.0747	0.58
Mof_P 	P 	0.6623	0.8341	0.1667	0.564
Mof_O 	O 	0.2904	0.9249	0.9971	-0.521
Mof_O 	O 	0.1971	0.8	0.0734	-0.531
Mof_O 	O 	0.6662	0.9072	0.2386	-0.611
Mof_O 	O 	0.6715	0.9258	0.1029	-0.507
Mof_O 	O 	0.2852	0.0011	0.1211	-0.57
Mof_O 	O 	0.7349	0.729	0.1715	-0.558
Mof_O 	O 	0.8432	0.9978	0.288	-0.517
Mof_O 	O 	0.7223	0.13	0.1853	-0.83
Mof_C 	C 	0.3812	0.7792	0.1103	-0.542
Mof_C 	C 	0.5522	0.7578	0.1444	-0.509
Mof_C 	C 	0.4717	0.8518	0.1242	0.329
Mof_O 	O 	0.5937	0.147	0.2736	-0.517
Mof_H 	H 	0.3844	0.7093	0.0757	0.172
Mof_H 	H 	0.3722	0.7402	0.1561	0.189
Mof_H 	H 	0.5431	0.7062	0.1863	0.188
Mof_H 	H 	0.552	0.699	0.1035	0.183
Mof_H 	H 	0.4778	0.9	0.0804	-0.117
Mof_H 	H 	0.4726	0.9135	0.1639	-0.078
Mof_V 	V 	0.8326	0.6176	0.4071	1.746
Mof_V 	V 	0.7577	0.5538	0.2167	1.235
Mof_V 	V 	0.1923	0.5819	0.2805	1.23
Mof_P 	P 	0.2158	0.3792	0.4253	0.572
Mof_P 	P 	0.8377	0.3341	0.3333	0.564
Mof_O 	O 	0.2096	0.4249	0.5029	-0.514
Mof_O 	O 	0.3029	0.3	0.4266	-0.532
Mof_O 	O 	0.8338	0.4072	0.2614	-0.613
Mof_O 	O 	0.8285	0.4258	0.3971	-0.511
Mof_O 	O 	0.2148	0.5011	0.3789	-0.564
Mof_O 	O 	0.7651	0.229	0.3285	-0.559
Mof_O 	O 	0.6568	0.4978	0.212	-0.52
Mof_O 	O 	0.7777	0.63	0.3147	-0.829
Mof_C 	C 	0.1188	0.2792	0.3897	-0.541
Mof_C 	C 	0.9478	0.2578	0.3556	-0.51
Mof_C 	C 	0.0283	0.3518	0.3758	0.329
Mof_O 	O 	0.9063	0.647	0.2264	-0.516
Mof_H 	H 	0.1156	0.2093	0.4243	0.171
Mof_H 	H 	0.1278	0.2402	0.3439	0.189
Mof_H 	H 	0.9569	0.2062	0.3137	0.187
Mof_H 	H 	0.948	0.199	0.3965	0.182
Mof_H 	H 	0.0222	0.4	0.4196	-0.119
Mof_H 	H 	0.0274	0.4135	0.3361	-0.079
Mof_V 	V 	0.3326	0.1176	0.4071	1.745
Mof_V 	V 	0.2577	0.0538	0.2167	1.234
Mof_V 	V 	0.6923	0.0819	0.2805	1.23
Mof_P 	P 	0.7158	0.8792	0.4253	0.573
Mof_P 	P 	0.3377	0.8341	0.3333	0.564
Mof_O 	O 	0.7096	0.9249	0.5029	-0.515
Mof_O 	O 	0.8029	0.8	0.4266	-0.532
Mof_O 	O 	0.3338	0.9072	0.2614	-0.611
Mof_O 	O 	0.3285	0.9258	0.3971	-0.51
Mof_O 	O 	0.7148	0.0011	0.3789	-0.566
Mof_O 	O 	0.2651	0.729	0.3285	-0.558
Mof_O 	O 	0.1568	0.9978	0.212	-0.516
Mof_O 	O 	0.2777	0.13	0.3147	-0.83
Mof_C 	C 	0.6188	0.7792	0.3897	-0.541
Mof_C 	C 	0.4478	0.7578	0.3556	-0.509
Mof_C 	C 	0.5283	0.8518	0.3758	0.329
Mof_O 	O 	0.4063	0.147	0.2264	-0.517
Mof_H 	H 	0.6156	0.7093	0.4243	0.171
Mof_H 	H 	0.6278	0.7402	0.3439	0.189
Mof_H 	H 	0.4569	0.7062	0.3137	0.188
Mof_H 	H 	0.448	0.699	0.3965	0.183
Mof_H 	H 	0.5222	0.9	0.4196	-0.119
Mof_H 	H 	0.5274	0.9135	0.3361	-0.078
_end
