# CIF file generated by openbabel 3.1.0, see https://openbabel.org
data_I
_chemical_name_common 'image0'
_cell_length_a 22.4105
_cell_length_b 22.5156
_cell_length_c 22.274
_cell_angle_alpha 100.141
_cell_angle_beta 64.2652
_cell_angle_gamma 66.7532
_space_group_name_H-M_alt 'P 1'
_space_group_name_Hall 'P 1'
loop_
    _symmetry_equiv_pos_as_xyz
    x,y,z
loop_
    _atom_site_label
    _atom_site_type_symbol
    _atom_site_fract_x
    _atom_site_fract_y
    _atom_site_fract_z
    _atom_site_occupancy
    O1       O        0.40923    0.59722    0.60587    1.000
    O2       O        0.49774    0.50147    0.60770    1.000
    C1       C        0.43637    0.56613    0.64069    1.000
    O3       O        0.39241    0.50198    0.52952    1.000
    O4       O        0.48981    0.40533    0.52150    1.000
    C2       C        0.41985    0.44082    0.53392    1.000
    Cu1      Cu       0.45058    0.54897    0.50247    1.000
    Cu2      Cu       0.55887    0.44196    0.50259    1.000
    O5       O        0.51044    0.48818    0.39788    1.000
    O6       O        0.60208    0.39408    0.39860    1.000
    O7       O        0.52037    0.58486    0.48129    1.000
    O8       O        0.61572    0.49044    0.47784    1.000
    C3       C        0.57312    0.42398    0.36449    1.000
    C4       C        0.58915    0.55065    0.47096    1.000
    H1       H        0.48533    0.84522    0.91844    1.000
    C5       C        0.55116    0.89320    0.87726    1.000
    C6       C        0.56455    0.93121    0.83590    1.000
    H2       H        0.60705    0.94579    0.82798    1.000
    C7       C        0.52148    0.95293    0.80616    1.000
    H3       H        0.53157    0.98328    0.77452    1.000
    C8       C        0.46471    0.93715    0.81841    1.000
    C9       C        0.45346    0.89743    0.85798    1.000
    H4       H        0.41253    0.88098    0.86498    1.000
    C10      C        0.49604    0.87592    0.88746    1.000
    C11      C        0.34497    0.97313    0.82283    1.000
    H5       H        0.31526    0.99006    0.88152    1.000
    C12      C        0.31160    0.95958    0.78703    1.000
    C13      C        0.35134    0.94062    0.71100    1.000
    H6       H        0.32711    0.92886    0.68125    1.000
    C14      C        0.42541    0.93244    0.67322    1.000
    C15      C        0.46004    0.93710    0.71092    1.000
    H7       H        0.52035    0.92200    0.68284    1.000
    C16      C        0.42104    0.95480    0.78450    1.000
    H8       H        0.04455    0.77663    0.94405    1.000
    C17      C        0.99766    0.87226    0.03296    1.000
    C18      C        0.94131    0.91493    0.11217    1.000
    H9       H        0.93716    0.96265    0.13907    1.000
    C19      C        0.88701    0.89876    0.15155    1.000
    H10      H        0.83958    0.93528    0.20787    1.000
    C20      C        0.88901    0.83996    0.11698    1.000
    C21      C        0.94905    0.79475    0.04379    1.000
    H11      H        0.95093    0.74857    0.01670    1.000
    C22      C        0.00174    0.81113    0.00185    1.000
    C23      C        0.77574    0.84084    0.21837    1.000
    H12      H        0.79710    0.84394    0.25325    1.000
    C24      C        0.70609    0.84150    0.24337    1.000
    C25      C        0.67882    0.84052    0.19801    1.000
    H13      H        0.62386    0.84376    0.21715    1.000
    C26      C        0.71999    0.83921    0.12951    1.000
    C27      C        0.78925    0.83584    0.10518    1.000
    H14      H        0.82026    0.83638    0.05252    1.000
    C28      C        0.81809    0.83649    0.14809    1.000
    H15      H        0.38618    0.06445    0.17029    1.000
    C29      C        0.48902    0.07003    0.12255    1.000
    C30      C        0.51764    0.11404    0.11351    1.000
    H16      H        0.57970    0.09311    0.08282    1.000
    C31      C        0.46728    0.18594    0.14356    1.000
    H17      H        0.49142    0.21929    0.13735    1.000
    C32      C        0.38767    0.21479    0.18222    1.000
    C33      C        0.35850    0.17116    0.19365    1.000
    H18      H        0.29617    0.19327    0.22455    1.000
    C34      C        0.40933    0.09853    0.16356    1.000
    C35      C        0.27963    0.32709    0.28854    1.000
    H19      H        0.26607    0.29538    0.31679    1.000
    C36      C        0.24601    0.39935    0.32563    1.000
    C37      C        0.27593    0.43515    0.28778    1.000
    H20      H        0.25676    0.48947    0.31717    1.000
    C38      C        0.33452    0.39813    0.21219    1.000
    C39      C        0.35806    0.32870    0.17676    1.000
    H21      H        0.40086    0.29907    0.11826    1.000
    C40      C        0.33676    0.29195    0.21538    1.000
    H22      H        0.67038    0.43040    0.86280    1.000
    C41      C        0.66096    0.47206    0.96292    1.000
    C42      C        0.69179    0.49817    0.99399    1.000
    H23      H        0.66913    0.51226    0.05159    1.000
    C43      C        0.75059    0.50821    0.95219    1.000
    H24      H        0.77060    0.53277    0.97880    1.000
    C44      C        0.77743    0.49506    0.87946    1.000
    C45      C        0.75035    0.46435    0.84695    1.000
    H25      H        0.76852    0.45584    0.79102    1.000
    C46      C        0.69334    0.45166    0.88828    1.000
    C47      C        0.76837    0.60628    0.89072    1.000
    H26      H        0.71455    0.62777    0.94285    1.000
    C48      C        0.78975    0.65086    0.86671    1.000
    C49      C        0.85755    0.62340    0.79863    1.000
    H27      H        0.87380    0.65892    0.77963    1.000
    C50      C        0.90232    0.55095    0.75362    1.000
    C51      C        0.87804    0.50653    0.77843    1.000
    H28      H        0.91038    0.45032    0.74395    1.000
    C52      C        0.81142    0.53471    0.84816    1.000
    O9       O        0.52116    0.95017    0.09813    1.000
    O10      O        0.61391    0.97262    0.02698    1.000
    C53      C        0.54422    0.99371    0.08186    1.000
    O11      O        0.62862    0.84240    0.09970    1.000
    O12      O        0.72407    0.86127    0.02788    1.000
    C54      C        0.69068    0.84559    0.08230    1.000
    Cu3      Cu       0.58658    0.84735    0.03889    1.000
    Cu4      Cu       0.69420    0.87335    0.95857    1.000
    O13      O        0.66871    0.74797    0.97212    1.000
    O14      O        0.75798    0.77107    0.89707    1.000
    O15      O        0.55509    0.86124    0.97098    1.000
    O16      O        0.64552    0.88733    0.90357    1.000
    C55      C        0.73658    0.72703    0.91400    1.000
    C56      C        0.58871    0.87633    0.91644    1.000
    H29      H        0.90678    0.07688    0.96872    1.000
    C57      C        0.95660    0.11071    0.02084    1.000
    C58      C        0.93931    0.16337    0.07961    1.000
    H30      H        0.98443    0.15964    0.08801    1.000
    C59      C        0.86369    0.22205    0.12826    1.000
    H31      H        0.85197    0.26355    0.17240    1.000
    C60      C        0.80442    0.22819    0.11923    1.000
    C61      C        0.82195    0.17446    0.06156    1.000
    H32      H        0.77691    0.17566    0.05435    1.000
    C62      C        0.89700    0.11715    0.01246    1.000
    C63      C        0.68286    0.31610    0.13660    1.000
    H33      H        0.71083    0.29191    0.07796    1.000
    C64      C        0.60677    0.37310    0.17969    1.000
    C65      C        0.57198    0.40773    0.25379    1.000
    H34      H        0.51230    0.45242    0.28752    1.000
    C66      C        0.61230    0.38471    0.28548    1.000
    C67      C        0.68843    0.32598    0.24240    1.000
    H35      H        0.71972    0.30707    0.26732    1.000
    C68      C        0.72413    0.29137    0.16736    1.000
    H36      H        0.35168    0.11224    0.57810    1.000
    C69      C        0.46662    0.08768    0.50269    1.000
    C70      C        0.51254    0.11440    0.47336    1.000
    H37      H        0.57488    0.07882    0.43383    1.000
    C71      C        0.47882    0.18613    0.49112    1.000
    H38      H        0.51576    0.20453    0.46278    1.000
    C72      C        0.39904    0.23230    0.54158    1.000
    C73      C        0.35397    0.20515    0.57385    1.000
    H39      H        0.29209    0.23966    0.61555    1.000
    C74      C        0.38741    0.13294    0.55302    1.000
    C75      C        0.28970    0.34234    0.56552    1.000
    H40      H        0.26069    0.31390    0.56583    1.000
    C76      C        0.25732    0.41014    0.56882    1.000
    C77      C        0.29849    0.44384    0.56095    1.000
    H41      H        0.27528    0.49532    0.55953    1.000
    C78      C        0.37154    0.40941    0.55023    1.000
    C79      C        0.40175    0.34248    0.54957    1.000
    H42      H        0.45787    0.31628    0.54246    1.000
    C80      C        0.36186    0.30791    0.55531    1.000
    H43      H        0.85608    0.49366    0.56504    1.000
    C81      C        0.91729    0.53086    0.49440    1.000
    C82      C        0.92245    0.55895    0.44364    1.000
    H44      H        0.96901    0.56855    0.41764    1.000
    C83      C        0.87003    0.57215    0.42366    1.000
    H45      H        0.87715    0.59174    0.38166    1.000
    C84      C        0.80963    0.56069    0.45719    1.000
    C85      C        0.80524    0.53227    0.50815    1.000
    H46      H        0.75770    0.52488    0.53760    1.000
    C86      C        0.86014    0.51572    0.52507    1.000
    C87      C        0.70520    0.55163    0.45180    1.000
    H47      H        0.72434    0.50291    0.45900    1.000
    C88      C        0.63747    0.58208    0.45316    1.000
    C89      C        0.61370    0.64410    0.44233    1.000
    H48      H        0.55983    0.66933    0.44506    1.000
    C90      C        0.65701    0.67593    0.43204    1.000
    C91      C        0.72279    0.64605    0.43375    1.000
    H49      H        0.75294    0.67363    0.43171    1.000
    C92      C        0.74675    0.58465    0.44441    1.000
    H50      H        0.51112    0.43081    0.88184    1.000
    C93      C        0.40065    0.51315    0.97868    1.000
    C94      C        0.33231    0.57624    0.00694    1.000
    H51      H        0.28883    0.60372    0.06546    1.000
    C95      C        0.31941    0.60512    0.96091    1.000
    H52      H        0.26382    0.65332    0.98511    1.000
    C96      C        0.37719    0.57382    0.88634    1.000
    C97      C        0.44525    0.50955    0.85837    1.000
    H53      H        0.49306    0.48398    0.80143    1.000
    C98      C        0.45596    0.47889    0.90409    1.000
    C99      C        0.40598    0.57132    0.76362    1.000
    H54      H        0.44106    0.51392    0.73898    1.000
    C100     C        0.39662    0.60580    0.71977    1.000
    C101     C        0.34737    0.67841    0.75089    1.000
    H55      H        0.33977    0.70470    0.71639    1.000
    C102     C        0.30901    0.71736    0.82502    1.000
    C103     C        0.32077    0.68360    0.86834    1.000
    H56      H        0.29246    0.71565    0.92560    1.000
    C104     C        0.36780    0.60992    0.83860    1.000
    O17      O        0.08974    0.03644    0.98541    1.000
    O18      O        0.04050    0.00201    0.91955    1.000
    C105     C        0.03064    0.04922    0.97299    1.000
    O19      O        0.24704    0.93421    0.88911    1.000
    O20      O        0.19558    0.95132    0.81570    1.000
    C106     C        0.24721    0.94937    0.83100    1.000
    Cu5      Cu       0.15668    0.93730    0.96396    1.000
    Cu6      Cu       0.13657    0.90806    0.85797    1.000
    O21      O        0.21931    0.83370    0.92667    1.000
    O22      O        0.23491    0.81839    0.81358    1.000
    O23      O        0.06320    0.93527    0.02227    1.000
    O24      O        0.08165    0.86909    0.91613    1.000
    C107     C        0.25230    0.79364    0.85686    1.000
    C108     C        0.04991    0.89308    0.98812    1.000
    O25      O        0.54457    0.50774    0.08352    1.000
    O26      O        0.59248    0.41183    0.97644    1.000
    C109     C        0.59661    0.46354    0.00829    1.000
    O27      O        0.49506    0.45868    0.18805    1.000
    O28      O        0.59407    0.35829    0.07773    1.000
    C110     C        0.56331    0.39783    0.14683    1.000
    Cu7      Cu       0.44954    0.50725    0.14069    1.000
    Cu8      Cu       0.53068    0.37904    0.03685    1.000
    O29      O        0.36688    0.48679    0.18265    1.000
    O30      O        0.45716    0.36578    0.11263    1.000
    O31      O        0.41722    0.53565    0.07675    1.000
    O32      O        0.45518    0.42017    0.01151    1.000
    C111     C        0.38724    0.41950    0.16805    1.000
    C112     C        0.42160    0.48902    0.02714    1.000
    O33      O        0.45006    0.90441    0.55018    1.000
    O34      O        0.54396    0.90343    0.56824    1.000
    C113     C        0.47466    0.91227    0.59330    1.000
    O35      O        0.56733    0.77751    0.42852    1.000
    O36      O        0.66167    0.78025    0.44339    1.000
    C114     C        0.62831    0.74712    0.43235    1.000
    Cu9      Cu       0.51401    0.87721    0.44458    1.000
    Cu10     Cu       0.61969    0.88142    0.46737    1.000
    O37      O        0.58898    0.85685    0.34373    1.000
    O38      O        0.68359    0.85358    0.36186    1.000
    O39      O        0.47043    0.97896    0.47038    1.000
    O40      O        0.56692    0.98071    0.48274    1.000
    C115     C        0.65783    0.84968    0.31945    1.000
    C116     C        0.50305    0.01200    0.48405    1.000
    O41      O        0.98856    0.56690    0.65391    1.000
    O42      O        0.00912    0.45490    0.63594    1.000
    C117     C        0.97082    0.52284    0.67807    1.000
    O43      O        0.99489    0.55826    0.52633    1.000
    O44      O        0.00434    0.45035    0.51418    1.000
    C118     C        0.97501    0.51253    0.51254    1.000
    Cu11     Cu       0.07033    0.54030    0.55338    1.000
    Cu12     Cu       0.08780    0.41279    0.53064    1.000
    O45      O        0.14992    0.49809    0.44803    1.000
    O46      O        0.16784    0.38700    0.43003    1.000
    O47      O        0.15333    0.50294    0.57078    1.000
    O48      O        0.16461    0.39450    0.55574    1.000
    C119     C        0.18499    0.43061    0.40510    1.000
    C120     C        0.18679    0.43855    0.56750    1.000
