data_functionalizedCrystal
_audit_creation_method	'EQeq! by Chris Wilmer'
_symmetry_space_group_name_H-M	'P1'
_symmetry_Int_Tables_number	1
_symmetry_cell_setting	triclinic
loop_
_symmetry_equiv_pos_as_xyz
  x,y,z
_cell_length_a	11.7749
_cell_length_b	13.7869
_cell_length_c	16.259
_cell_angle_alpha	90
_cell_angle_beta	90
_cell_angle_gamma	112.611
loop_
_atom_site_label
_atom_site_type_symbol
_atom_site_fract_x
_atom_site_fract_y
_atom_site_fract_z
_atom_site_charge
Mof_Co	Co	0.26231	0.71993	0.54818	1.093
Mof_Co	Co	0.60077	0.59897	0.45411	1.15
Mof_Co	Co	0.55175	0.62692	0.13014	1.137
Mof_Co	Co	0.23769	0.78007	0.04818	1.094
Mof_Co	Co	0.89923	0.90103	0.95411	1.141
Mof_Co	Co	0.94825	0.87308	0.63014	1.132
Mof_Co	Co	0.73769	0.28007	0.45182	1.092
Mof_Co	Co	0.39923	0.40103	0.54589	1.149
Mof_Co	Co	0.44825	0.37308	0.86986	1.136
Mof_Co	Co	0.76231	0.21993	0.95182	1.093
Mof_Co	Co	0.10077	0.09897	0.04589	1.141
Mof_Co	Co	0.05175	0.12692	0.36986	1.132
Mof_H 	H 	0.5242	0.585	0.6034	0.422
Mof_H 	H 	0.4217	0.5813	0.5517	0.386
Mof_H 	H 	0.1016	0.5405	0.4209	0.078
Mof_H 	H 	0.1642	0.6065	0.2947	0.033
Mof_H 	H 	0.3328	0.6301	0.224	0.051
Mof_H 	H 	0.1742	0.4805	0.2008	0.037
Mof_H 	H 	0.1157	0.3212	0.2553	0.067
Mof_H 	H 	0.0473	0.4395	0.3076	0.054
Mof_H 	H 	0.9758	0.915	0.1034	0.409
Mof_H 	H 	0.0783	0.9187	0.0517	0.381
Mof_H 	H 	0.3984	0.9595	0.9209	0.076
Mof_H 	H 	0.3358	0.8935	0.7947	0.032
Mof_H 	H 	0.1672	0.8699	0.724	0.053
Mof_H 	H 	0.3258	0.0195	0.7008	0.036
Mof_H 	H 	0.3843	0.1788	0.7553	0.07
Mof_H 	H 	0.4527	0.0605	0.8076	0.054
Mof_H 	H 	0.4758	0.415	0.3966	0.422
Mof_H 	H 	0.5783	0.4187	0.4483	0.386
Mof_H 	H 	0.8984	0.4595	0.5791	0.078
Mof_H 	H 	0.8358	0.3935	0.7053	0.033
Mof_H 	H 	0.6672	0.3699	0.776	0.051
Mof_H 	H 	0.8258	0.5195	0.7992	0.037
Mof_H 	H 	0.8843	0.6788	0.7447	0.067
Mof_H 	H 	0.9527	0.5605	0.6924	0.054
Mof_H 	H 	0.0242	0.085	0.8966	0.409
Mof_H 	H 	0.9217	0.0813	0.9483	0.381
Mof_H 	H 	0.6016	0.0405	0.0791	0.076
Mof_H 	H 	0.6642	0.1065	0.2053	0.032
Mof_H 	H 	0.8328	0.1301	0.276	0.053
Mof_H 	H 	0.6742	0.9805	0.2992	0.036
Mof_H 	H 	0.6157	0.8212	0.2447	0.07
Mof_H 	H 	0.5473	0.9395	0.1924	0.054
Mof_C 	C 	0.245	0.5078	0.46663	0.403
Mof_C 	C 	0.1661	0.5195	0.39549	-0.131
Mof_C 	C 	0.233	0.6055	0.33029	-0.064
Mof_C 	C 	0.3161	0.5779	0.26975	-0.127
Mof_C 	C 	0.2429	0.4691	0.22989	-0.076
Mof_C 	C 	0.1751	0.3785	0.2895	-0.117
Mof_C 	C 	0.0964	0.4165	0.3476	-0.083
Mof_C 	C 	0.2943	0.7197	0.3596	0.317
Mof_C 	C 	0.4413	0.5954	0.30611	0.389
Mof_C 	C 	0.3071	0.4351	0.16087	0.336
Mof_C 	C 	0.2634	0.3332	0.32692	0.377
Mof_C 	C 	0.9957	0.3319	0.3962	0.353
Mof_C 	C 	0.255	0.9922	0.96663	0.396
Mof_C 	C 	0.3339	0.9805	0.89549	-0.131
Mof_C 	C 	0.267	0.8945	0.83029	-0.063
Mof_C 	C 	0.1839	0.9221	0.76975	-0.13
Mof_C 	C 	0.2571	0.0309	0.72989	-0.074
Mof_C 	C 	0.3249	0.1215	0.7895	-0.12
Mof_C 	C 	0.4036	0.0835	0.8476	-0.078
Mof_C 	C 	0.2057	0.7803	0.8596	0.316
Mof_C 	C 	0.0587	0.9046	0.80611	0.402
Mof_C 	C 	0.1929	0.0649	0.66087	0.326
Mof_C 	C 	0.2366	0.1668	0.82692	0.378
Mof_C 	C 	0.5043	0.1681	0.8962	0.349
Mof_C 	C 	0.755	0.4922	0.53337	0.403
Mof_C 	C 	0.8339	0.4805	0.60451	-0.131
Mof_C 	C 	0.767	0.3945	0.66971	-0.064
Mof_C 	C 	0.6839	0.4221	0.73025	-0.127
Mof_C 	C 	0.7571	0.5309	0.77011	-0.076
Mof_C 	C 	0.8249	0.6215	0.7105	-0.117
Mof_C 	C 	0.9036	0.5835	0.6524	-0.083
Mof_C 	C 	0.7057	0.2803	0.6404	0.317
Mof_C 	C 	0.5587	0.4046	0.69389	0.389
Mof_C 	C 	0.6929	0.5649	0.83913	0.336
Mof_C 	C 	0.7366	0.6668	0.67308	0.377
Mof_C 	C 	0.0043	0.6681	0.6038	0.353
Mof_C 	C 	0.745	0.0078	0.03337	0.396
Mof_C 	C 	0.6661	0.0195	0.10451	-0.131
Mof_C 	C 	0.733	0.1055	0.16971	-0.063
Mof_C 	C 	0.8161	0.0779	0.23025	-0.13
Mof_C 	C 	0.7429	0.9691	0.27011	-0.074
Mof_C 	C 	0.6751	0.8785	0.2105	-0.12
Mof_C 	C 	0.5964	0.9165	0.1524	-0.078
Mof_C 	C 	0.7943	0.2197	0.1404	0.316
Mof_C 	C 	0.9413	0.0954	0.19389	0.402
Mof_C 	C 	0.8071	0.9351	0.33913	0.326
Mof_C 	C 	0.7634	0.8332	0.17308	0.378
Mof_C 	C 	0.4957	0.8319	0.1038	0.349
Mof_O 	O 	0.26711	0.42592	0.47167	-0.441
Mof_O 	O 	0.28033	0.57941	0.52166	-0.513
Mof_O 	O 	0.25745	0.74665	0.42621	-0.448
Mof_O 	O 	0.37059	0.78389	0.3123	-0.295
Mof_O 	O 	0.45659	0.60577	0.38273	-0.433
Mof_O 	O 	0.5289	0.6054	0.2565	-0.454
Mof_O 	O 	0.38257	0.50377	0.11432	-0.458
Mof_O 	O 	0.27255	0.33895	0.14736	-0.322
Mof_O 	O 	0.37698	0.38602	0.31697	-0.337
Mof_O 	O 	0.22298	0.24467	0.36151	-0.471
Mof_O 	O 	0.97325	0.23615	0.38567	-0.465
Mof_O 	O 	0.92747	0.36467	0.43876	-0.429
Mof_O 	O 	0.48295	0.56421	0.55934	-1.02
Mof_O 	O 	0.23289	0.07408	0.97167	-0.438
Mof_O 	O 	0.21967	0.92059	0.02166	-0.504
Mof_O 	O 	0.24255	0.75335	0.92621	-0.449
Mof_O 	O 	0.12941	0.71611	0.8123	-0.294
Mof_O 	O 	0.04341	0.89423	0.88273	-0.433
Mof_O 	O 	0.9711	0.8946	0.7565	-0.466
Mof_O 	O 	0.11743	0.99623	0.61432	-0.448
Mof_O 	O 	0.22745	0.16105	0.64736	-0.319
Mof_O 	O 	0.12302	0.11398	0.81697	-0.337
Mof_O 	O 	0.27702	0.25533	0.86151	-0.469
Mof_O 	O 	0.52675	0.26385	0.88567	-0.467
Mof_O 	O 	0.57253	0.13533	0.93876	-0.426
Mof_O 	O 	0.01705	0.93579	0.05934	-0.996
Mof_O 	O 	0.73289	0.57408	0.52833	-0.441
Mof_O 	O 	0.71967	0.42059	0.47834	-0.513
Mof_O 	O 	0.74255	0.25335	0.57379	-0.448
Mof_O 	O 	0.62941	0.21611	0.6877	-0.295
Mof_O 	O 	0.54341	0.39423	0.61727	-0.433
Mof_O 	O 	0.4711	0.3946	0.7435	-0.454
Mof_O 	O 	0.61743	0.49623	0.88568	-0.458
Mof_O 	O 	0.72745	0.66105	0.85264	-0.322
Mof_O 	O 	0.62302	0.61398	0.68303	-0.337
Mof_O 	O 	0.77702	0.75533	0.63849	-0.471
Mof_O 	O 	0.02675	0.76385	0.61433	-0.465
Mof_O 	O 	0.07253	0.63533	0.56124	-0.429
Mof_O 	O 	0.51705	0.43579	0.44066	-1.02
Mof_O 	O 	0.76711	0.92592	0.02833	-0.438
Mof_O 	O 	0.78033	0.07941	0.97834	-0.504
Mof_O 	O 	0.75745	0.24665	0.07379	-0.449
Mof_O 	O 	0.87059	0.28389	0.1877	-0.294
Mof_O 	O 	0.95659	0.10577	0.11727	-0.433
Mof_O 	O 	0.0289	0.1054	0.2435	-0.466
Mof_O 	O 	0.88257	0.00377	0.38568	-0.448
Mof_O 	O 	0.77255	0.83895	0.35264	-0.319
Mof_O 	O 	0.87698	0.88602	0.18303	-0.337
Mof_O 	O 	0.72298	0.74467	0.13849	-0.469
Mof_O 	O 	0.47325	0.73615	0.11433	-0.467
Mof_O 	O 	0.42747	0.86467	0.06124	-0.426
Mof_O 	O 	0.98295	0.06421	0.94066	-0.996
_end
