# CIF file generated by openbabel 3.1.0, see https://openbabel.org
data_I
_chemical_name_common 'image0'
_cell_length_a 19.4254
_cell_length_b 21.878
_cell_length_c 15.578
_cell_angle_alpha 90
_cell_angle_beta 90
_cell_angle_gamma 90
_space_group_name_H-M_alt 'P 1'
_space_group_name_Hall 'P 1'
loop_
    _symmetry_equiv_pos_as_xyz
    x,y,z
loop_
    _atom_site_label
    _atom_site_type_symbol
    _atom_site_fract_x
    _atom_site_fract_y
    _atom_site_fract_z
    _atom_site_occupancy
    N1       N        0.44043    0.59959    0.59947    1.000
    C1       C        0.44370    0.72660    0.59600    1.000
    C2       C        0.44650    0.79420    0.59910    1.000
    C3       C        0.39490    0.62990    0.55480    1.000
    H1       H        0.36100    0.60840    0.52540    1.000
    N2       N        0.39990    0.82994    0.56250    1.000
    H2       H        0.36170    0.81870    0.53950    1.000
    N3       N        0.49630    0.82601    0.63200    1.000
    C4       C        0.48730    0.63130    0.64190    1.000
    H3       H        0.52110    0.61000    0.67200    1.000
    C5       C        0.39550    0.69490    0.54960    1.000
    H4       H        0.36380    0.71540    0.51540    1.000
    C6       C        0.48870    0.69230    0.64380    1.000
    H5       H        0.52090    0.71200    0.67830    1.000
    N4       N        0.48510    0.88530    0.62700    1.000
    C7       C        0.42450    0.88830    0.56870    1.000
    C8       C        0.39580    0.94680    0.55970    1.000
    C9       C        0.32890    0.94780    0.52330    1.000
    H6       H        0.30440    0.91140    0.51890    1.000
    N5       N        0.55957    0.59959    0.40053    1.000
    C10      C        0.55630    0.72660    0.40400    1.000
    C11      C        0.55350    0.79420    0.40090    1.000
    C12      C        0.60510    0.62990    0.44520    1.000
    H7       H        0.63900    0.60840    0.47460    1.000
    N6       N        0.60010    0.82994    0.43750    1.000
    H8       H        0.63830    0.81870    0.46050    1.000
    N7       N        0.50370    0.82601    0.36800    1.000
    C13      C        0.51270    0.63130    0.35810    1.000
    H9       H        0.47890    0.61000    0.32800    1.000
    C14      C        0.60450    0.69490    0.45040    1.000
    H10      H        0.63620    0.71540    0.48460    1.000
    C15      C        0.51130    0.69230    0.35620    1.000
    H11      H        0.47910    0.71200    0.32170    1.000
    N8       N        0.51490    0.88530    0.37300    1.000
    C16      C        0.57550    0.88830    0.43130    1.000
    C17      C        0.60420    0.94680    0.44030    1.000
    C18      C        0.67110    0.94780    0.47670    1.000
    H12      H        0.69560    0.91140    0.48110    1.000
    N9       N        0.05957    0.40041    0.09947    1.000
    C19      C        0.05630    0.27340    0.09600    1.000
    C20      C        0.05350    0.20580    0.09910    1.000
    C21      C        0.10510    0.37010    0.05480    1.000
    H13      H        0.13900    0.39160    0.02540    1.000
    N10      N        0.10010    0.17006    0.06250    1.000
    H14      H        0.13830    0.18130    0.03950    1.000
    N11      N        0.00370    0.17399    0.13200    1.000
    C22      C        0.01270    0.36870    0.14190    1.000
    H15      H        0.97890    0.39000    0.17200    1.000
    C23      C        0.10450    0.30510    0.04960    1.000
    H16      H        0.13620    0.28460    0.01540    1.000
    C24      C        0.01130    0.30770    0.14380    1.000
    H17      H        0.97910    0.28800    0.17830    1.000
    N12      N        0.01490    0.11470    0.12700    1.000
    C25      C        0.07550    0.11170    0.06870    1.000
    C26      C        0.10420    0.05320    0.05970    1.000
    C27      C        0.17110    0.05220    0.02330    1.000
    H18      H        0.19560    0.08860    0.01890    1.000
    N13      N        0.94043    0.40041    0.90053    1.000
    C28      C        0.94370    0.27340    0.90400    1.000
    C29      C        0.94650    0.20580    0.90090    1.000
    C30      C        0.89490    0.37010    0.94520    1.000
    H19      H        0.86100    0.39160    0.97460    1.000
    N14      N        0.89990    0.17006    0.93750    1.000
    H20      H        0.86170    0.18130    0.96050    1.000
    N15      N        0.99630    0.17399    0.86800    1.000
    C31      C        0.98730    0.36870    0.85810    1.000
    H21      H        0.02110    0.39000    0.82800    1.000
    C32      C        0.89550    0.30510    0.95040    1.000
    H22      H        0.86380    0.28460    0.98460    1.000
    C33      C        0.98870    0.30770    0.85620    1.000
    H23      H        0.02090    0.28800    0.82170    1.000
    N16      N        0.98510    0.11470    0.87300    1.000
    C34      C        0.92450    0.11170    0.93130    1.000
    C35      C        0.89580    0.05320    0.94030    1.000
    C36      C        0.82890    0.05220    0.97670    1.000
    H24      H        0.80440    0.08860    0.98110    1.000
    N17      N        0.55957    0.40041    0.40053    1.000
    C37      C        0.55630    0.27340    0.40400    1.000
    C38      C        0.55350    0.20580    0.40090    1.000
    C39      C        0.60510    0.37010    0.44520    1.000
    H25      H        0.63900    0.39160    0.47460    1.000
    N18      N        0.60010    0.17006    0.43750    1.000
    H26      H        0.63830    0.18130    0.46050    1.000
    N19      N        0.50370    0.17399    0.36800    1.000
    C40      C        0.51270    0.36870    0.35810    1.000
    H27      H        0.47890    0.39000    0.32800    1.000
    C41      C        0.60450    0.30510    0.45040    1.000
    H28      H        0.63620    0.28460    0.48460    1.000
    C42      C        0.51130    0.30770    0.35620    1.000
    H29      H        0.47910    0.28800    0.32170    1.000
    N20      N        0.51490    0.11470    0.37300    1.000
    C43      C        0.57550    0.11170    0.43130    1.000
    C44      C        0.60420    0.05320    0.44030    1.000
    C45      C        0.67110    0.05220    0.47670    1.000
    H30      H        0.69560    0.08860    0.48110    1.000
    N21      N        0.44043    0.40041    0.59947    1.000
    C46      C        0.44370    0.27340    0.59600    1.000
    C47      C        0.44650    0.20580    0.59910    1.000
    C48      C        0.39490    0.37010    0.55480    1.000
    H31      H        0.36100    0.39160    0.52540    1.000
    N22      N        0.39990    0.17006    0.56250    1.000
    H32      H        0.36170    0.18130    0.53950    1.000
    N23      N        0.49630    0.17399    0.63200    1.000
    C49      C        0.48730    0.36870    0.64190    1.000
    H33      H        0.52110    0.39000    0.67200    1.000
    C50      C        0.39550    0.30510    0.54960    1.000
    H34      H        0.36380    0.28460    0.51540    1.000
    C51      C        0.48870    0.30770    0.64380    1.000
    H35      H        0.52090    0.28800    0.67830    1.000
    N24      N        0.48510    0.11470    0.62700    1.000
    C52      C        0.42450    0.11170    0.56870    1.000
    C53      C        0.39580    0.05320    0.55970    1.000
    C54      C        0.32890    0.05220    0.52330    1.000
    H36      H        0.30440    0.08860    0.51890    1.000
    N25      N        0.94043    0.59959    0.90053    1.000
    C55      C        0.94370    0.72660    0.90400    1.000
    C56      C        0.94650    0.79420    0.90090    1.000
    C57      C        0.89490    0.62990    0.94520    1.000
    H37      H        0.86100    0.60840    0.97460    1.000
    N26      N        0.89990    0.82994    0.93750    1.000
    H38      H        0.86170    0.81870    0.96050    1.000
    N27      N        0.99630    0.82601    0.86800    1.000
    C58      C        0.98730    0.63130    0.85810    1.000
    H39      H        0.02110    0.61000    0.82800    1.000
    C59      C        0.89550    0.69490    0.95040    1.000
    H40      H        0.86380    0.71540    0.98460    1.000
    C60      C        0.98870    0.69230    0.85620    1.000
    H41      H        0.02090    0.71200    0.82170    1.000
    N28      N        0.98510    0.88530    0.87300    1.000
    C61      C        0.92450    0.88830    0.93130    1.000
    C62      C        0.89580    0.94680    0.94030    1.000
    C63      C        0.82890    0.94780    0.97670    1.000
    H42      H        0.80440    0.91140    0.98110    1.000
    N29      N        0.05957    0.59959    0.09947    1.000
    C64      C        0.05630    0.72660    0.09600    1.000
    C65      C        0.05350    0.79420    0.09910    1.000
    C66      C        0.10510    0.62990    0.05480    1.000
    H43      H        0.13900    0.60840    0.02540    1.000
    N30      N        0.10010    0.82994    0.06250    1.000
    H44      H        0.13830    0.81870    0.03950    1.000
    N31      N        0.00370    0.82601    0.13200    1.000
    C67      C        0.01270    0.63130    0.14190    1.000
    H45      H        0.97890    0.61000    0.17200    1.000
    C68      C        0.10450    0.69490    0.04960    1.000
    H46      H        0.13620    0.71540    0.01540    1.000
    C69      C        0.01130    0.69230    0.14380    1.000
    H47      H        0.97910    0.71200    0.17830    1.000
    N32      N        0.01490    0.88530    0.12700    1.000
    C70      C        0.07550    0.88830    0.06870    1.000
    C71      C        0.10420    0.94680    0.05970    1.000
    C72      C        0.17110    0.94780    0.02330    1.000
    H48      H        0.19560    0.91140    0.01890    1.000
    Co1      Co       0.43996    0.50000    0.59942    1.000
    O1       O        0.03646    0.50000    0.84720    1.000
    C73      C        0.08780    0.50000    0.89820    1.000
    O2       O        0.08440    0.50000    0.97910    1.000
    O3       O        0.39690    0.50000    0.74100    1.000
    C74      C        0.27930    0.50000    0.85590    1.000
    H49      H        0.32090    0.50000    0.88550    1.000
    C75      C        0.28000    0.50000    0.76590    1.000
    C76      C        0.21890    0.50000    0.72820    1.000
    H50      H        0.21810    0.50000    0.66850    1.000
    C77      C        0.21650    0.50000    0.90350    1.000
    H51      H        0.21670    0.50000    0.96320    1.000
    C78      C        0.15490    0.50000    0.85750    1.000
    C79      C        0.15880    0.50000    0.76860    1.000
    H52      H        0.11840    0.50000    0.73660    1.000
    O4       O        0.33110    0.50000    0.62360    1.000
    C80      C        0.34620    0.50000    0.71340    1.000
    Co2      Co       0.56004    0.50000    0.40058    1.000
    O5       O        0.96354    0.50000    0.15280    1.000
    C81      C        0.91220    0.50000    0.10180    1.000
    O6       O        0.91560    0.50000    0.02090    1.000
    O7       O        0.60310    0.50000    0.25900    1.000
    C82      C        0.72070    0.50000    0.14410    1.000
    H53      H        0.67910    0.50000    0.11450    1.000
    C83      C        0.72000    0.50000    0.23410    1.000
    C84      C        0.78110    0.50000    0.27180    1.000
    H54      H        0.78190    0.50000    0.33150    1.000
    C85      C        0.78350    0.50000    0.09650    1.000
    H55      H        0.78330    0.50000    0.03680    1.000
    C86      C        0.84510    0.50000    0.14250    1.000
    C87      C        0.84120    0.50000    0.23140    1.000
    H56      H        0.88160    0.50000    0.26340    1.000
    O8       O        0.66890    0.50000    0.37640    1.000
    C88      C        0.65380    0.50000    0.28660    1.000
    Co3      Co       0.06004    0.50000    0.09942    1.000
    O9       O        0.46354    0.50000    0.34720    1.000
    C89      C        0.41220    0.50000    0.39820    1.000
    O10      O        0.41560    0.50000    0.47910    1.000
    O11      O        0.10310    0.50000    0.24100    1.000
    C90      C        0.22070    0.50000    0.35590    1.000
    H57      H        0.17910    0.50000    0.38550    1.000
    C91      C        0.22000    0.50000    0.26590    1.000
    C92      C        0.28110    0.50000    0.22820    1.000
    H58      H        0.28190    0.50000    0.16850    1.000
    C93      C        0.28350    0.50000    0.40350    1.000
    H59      H        0.28330    0.50000    0.46320    1.000
    C94      C        0.34510    0.50000    0.35750    1.000
    C95      C        0.34120    0.50000    0.26860    1.000
    H60      H        0.38160    0.50000    0.23660    1.000
    O12      O        0.16890    0.50000    0.12360    1.000
    C96      C        0.15380    0.50000    0.21340    1.000
    Co4      Co       0.93996    0.50000    0.90058    1.000
    O13      O        0.53646    0.50000    0.65280    1.000
    C97      C        0.58780    0.50000    0.60180    1.000
    O14      O        0.58440    0.50000    0.52090    1.000
    O15      O        0.89690    0.50000    0.75900    1.000
    C98      C        0.77930    0.50000    0.64410    1.000
    H61      H        0.82090    0.50000    0.61450    1.000
    C99      C        0.78000    0.50000    0.73410    1.000
    C100     C        0.71890    0.50000    0.77180    1.000
    H62      H        0.71810    0.50000    0.83150    1.000
    C101     C        0.71650    0.50000    0.59650    1.000
    H63      H        0.71670    0.50000    0.53680    1.000
    C102     C        0.65490    0.50000    0.64250    1.000
    C103     C        0.65880    0.50000    0.73140    1.000
    H64      H        0.61840    0.50000    0.76340    1.000
    O16      O        0.83110    0.50000    0.87640    1.000
    C104     C        0.84620    0.50000    0.78660    1.000
    C105     C        0.42240    0.00000    0.57560    1.000
    H65      H        0.46560    0.00000    0.60140    1.000
    N33      N        0.29990    0.00000    0.49480    1.000
    C106     C        0.57760    0.00000    0.42440    1.000
    H66      H        0.53440    0.00000    0.39860    1.000
    N34      N        0.70010    0.00000    0.50520    1.000
    C107     C        0.07760    0.00000    0.07560    1.000
    H67      H        0.03440    0.00000    0.10140    1.000
    N35      N        0.20010    0.00000    0.99480    1.000
    C108     C        0.92240    0.00000    0.92440    1.000
    H68      H        0.96560    0.00000    0.89860    1.000
    N36      N        0.79990    0.00000    0.00520    1.000
