# CIF file generated by openbabel 3.1.0, see https://openbabel.org
data_I
_chemical_name_common 'ACOLEL_clean'
_cell_length_a 17.656
_cell_length_b 19.4084
_cell_length_c 20.504
_cell_angle_alpha 106.261
_cell_angle_beta 90
_cell_angle_gamma 117.055
_space_group_name_H-M_alt 'P 1'
_space_group_name_Hall 'P 1'
loop_
    _symmetry_equiv_pos_as_xyz
    x,y,z
loop_
    _atom_site_label
    _atom_site_type_symbol
    _atom_site_fract_x
    _atom_site_fract_y
    _atom_site_fract_z
    _atom_site_occupancy
    Mn1      Mn       0.54667    0.88530    0.97626    1.000
    Mn2      Mn       0.33863    0.88530    0.47626    1.000
    H1       H        0.51640    0.00220    0.80960    1.000
    H2       H        0.36960    0.75580    0.74940    1.000
    H3       H        0.34700    0.75800    0.63960    1.000
    H4       H        0.46420    0.68800    0.88280    1.000
    H5       H        0.70720    0.86780    0.90230    1.000
    H6       H        0.71140    0.73940    0.85430    1.000
    H7       H        0.66390    0.60160    0.81340    1.000
    H8       H        0.60930    0.46640    0.74660    1.000
    H9       H        0.36860    0.43680    0.75300    1.000
    H10      H        0.42360    0.57260    0.81790    1.000
    H11      H        0.54710    0.32600    0.72220    1.000
    H12      H        0.48130    0.19220    0.64790    1.000
    H13      H        0.26630    0.20720    0.61020    1.000
    H14      H        0.33920    0.34200    0.66760    1.000
    H15      H        0.43430    0.08620    0.54920    1.000
    H16      H        0.20020    0.06280    0.57210    1.000
    H17      H        0.18040    0.93080    0.50890    1.000
    H18      H        0.53400    0.07040    0.73540    1.000
    H19      H        0.49940    0.03240    0.66070    1.000
    H20      H        0.48580    0.00220    0.30960    1.000
    H21      H        0.38620    0.75580    0.24940    1.000
    H22      H        0.41100    0.75800    0.13960    1.000
    H23      H        0.22380    0.68800    0.38280    1.000
    H24      H        0.16060    0.86780    0.40230    1.000
    H25      H        0.02800    0.73940    0.35430    1.000
    H26      H        0.93770    0.60160    0.31340    1.000
    H27      H        0.85710    0.46640    0.24660    1.000
    H28      H        0.06820    0.43680    0.25300    1.000
    H29      H        0.14900    0.57260    0.31790    1.000
    H30      H        0.77890    0.32600    0.22220    1.000
    H31      H        0.71090    0.19220    0.14790    1.000
    H32      H        0.94090    0.20720    0.11020    1.000
    H33      H        0.00280    0.34200    0.16760    1.000
    H34      H        0.65190    0.08620    0.04920    1.000
    H35      H        0.86260    0.06280    0.07210    1.000
    H36      H        0.75040    0.93080    0.00890    1.000
    H37      H        0.53640    0.07040    0.23540    1.000
    H38      H        0.53300    0.03240    0.16070    1.000
    C1       C        0.41670    0.87720    0.65768    1.000
    C2       C        0.46895    0.95210    0.70880    1.000
    C3       C        0.48312    0.95284    0.77540    1.000
    C4       C        0.44767    0.87954    0.79210    1.000
    C5       C        0.39467    0.80474    0.73960    1.000
    C6       C        0.38150    0.80680    0.67410    1.000
    C7       C        0.39108    0.87636    0.58700    1.000
    C8       C        0.47194    0.88028    0.86162    1.000
    C9       C        0.52305    0.71610    0.88250    1.000
    C10      C        0.66012    0.81624    0.89330    1.000
    C11      C        0.66323    0.74526    0.86560    1.000
    C12      C        0.54944    0.60048    0.82300    1.000
    C13      C        0.60474    0.56848    0.80120    1.000
    C14      C        0.57215    0.48750    0.76140    1.000
    C15      C        0.48356    0.43792    0.74380    1.000
    C16      C        0.42775    0.46990    0.76500    1.000
    C17      C        0.46065    0.55110    0.80420    1.000
    C18      C        0.44975    0.35070    0.70510    1.000
    C19      C        0.49239    0.30358    0.69790    1.000
    C20      C        0.45270    0.22320    0.65410    1.000
    C21      C        0.37011    0.19002    0.62000    1.000
    C22      C        0.32386    0.23192    0.62900    1.000
    C23      C        0.36670    0.31080    0.66670    1.000
    C24      C        0.37484    0.06468    0.54580    1.000
    C25      C        0.24436    0.05072    0.55930    1.000
    C26      C        0.23310    0.97800    0.52310    1.000
    C27      C        0.46050    0.87720    0.15768    1.000
    C28      C        0.48315    0.95210    0.20880    1.000
    C29      C        0.46972    0.95284    0.27540    1.000
    C30      C        0.43187    0.87954    0.29210    1.000
    C31      C        0.41007    0.80474    0.23960    1.000
    C32      C        0.42530    0.80680    0.17410    1.000
    C33      C        0.48528    0.87636    0.08700    1.000
    C34      C        0.40834    0.88028    0.36162    1.000
    C35      C        0.19305    0.71610    0.38250    1.000
    C36      C        0.15612    0.81624    0.39330    1.000
    C37      C        0.08203    0.74526    0.36560    1.000
    C38      C        0.05104    0.60048    0.32300    1.000
    C39      C        0.96374    0.56848    0.30120    1.000
    C40      C        0.91535    0.48750    0.26140    1.000
    C41      C        0.95436    0.43792    0.24380    1.000
    C42      C        0.04215    0.46990    0.26500    1.000
    C43      C        0.09045    0.55110    0.30420    1.000
    C44      C        0.90095    0.35070    0.20510    1.000
    C45      C        0.81119    0.30358    0.19790    1.000
    C46      C        0.77050    0.22320    0.15410    1.000
    C47      C        0.81991    0.19002    0.12000    1.000
    C48      C        0.90806    0.23192    0.12900    1.000
    C49      C        0.94410    0.31080    0.16670    1.000
    C50      C        0.68984    0.06468    0.04580    1.000
    C51      C        0.80636    0.05072    0.05930    1.000
    C52      C        0.74490    0.97800    0.02310    1.000
    N1       N        0.50534    0.02768    0.70060    1.000
    N2       N        0.57484    0.80168    0.90690    1.000
    N3       N        0.57597    0.68054    0.85750    1.000
    N4       N        0.33310    0.10780    0.57590    1.000
    N5       N        0.31501    0.98322    0.50920    1.000
    N6       N        0.52234    0.02768    0.20060    1.000
    N7       N        0.22684    0.80168    0.40690    1.000
    N8       N        0.10457    0.68054    0.35750    1.000
    N9       N        0.77470    0.10780    0.07590    1.000
    N10      N        0.66821    0.98322    0.00920    1.000
    O1       O        0.32740    0.81676    0.54865    1.000
    O2       O        0.43985    0.93968    0.57318    1.000
    O3       O        0.52894    0.94218    0.90223    1.000
    O4       O        0.43692    0.81844    0.88105    1.000
    O5       O        0.48936    0.81676    0.04865    1.000
    O6       O        0.49983    0.93968    0.07318    1.000
    O7       O        0.41324    0.94218    0.40223    1.000
    O8       O        0.38152    0.81844    0.38105    1.000
    Mn3      Mn       0.98330    0.16838    0.92295    1.000
    Mn4      Mn       0.18508    0.16838    0.42295    1.000
    H39      H        0.10410    0.27900    0.75390    1.000
    H40      H        0.00940    0.03600    0.68850    1.000
    H41      H        0.03860    0.03980    0.57860    1.000
    H42      H        0.87250    0.96960    0.82900    1.000
    H43      H        0.77310    0.11880    0.92170    1.000
    H44      H        0.65150    0.97680    0.86540    1.000
    H45      H        0.58640    0.83940    0.81680    1.000
    H46      H        0.52100    0.70560    0.77610    1.000
    H47      H        0.73430    0.70460    0.70990    1.000
    H48      H        0.80450    0.84200    0.75890    1.000
    H49      H        0.44690    0.61440    0.69190    1.000
    H50      H        0.36280    0.49180    0.60740    1.000
    H51      H        0.56280    0.44740    0.58600    1.000
    H52      H        0.64860    0.56940    0.67110    1.000
    H53      H        0.29050    0.36360    0.53430    1.000
    H54      H        0.50610    0.35380    0.48200    1.000
    H55      H        0.38100    0.23420    0.39720    1.000
    H56      H        0.16790    0.35400    0.68290    1.000
    H57      H        0.16570    0.31720    0.60820    1.000
    H58      H        0.17490    0.27900    0.25390    1.000
    H59      H        0.02660    0.03600    0.18850    1.000
    H60      H        0.00120    0.03980    0.07860    1.000
    H61      H        0.09710    0.96960    0.32900    1.000
    H62      H        0.34570    0.11880    0.42170    1.000
    H63      H        0.32530    0.97680    0.36540    1.000
    H64      H        0.25300    0.83940    0.31680    1.000
    H65      H        0.18460    0.70560    0.27610    1.000
    H66      H        0.97030    0.70460    0.20990    1.000
    H67      H        0.03750    0.84200    0.25890    1.000
    H68      H        0.16750    0.61440    0.19190    1.000
    H69      H        0.12900    0.49180    0.10740    1.000
    H70      H        0.88460    0.44740    0.08600    1.000
    H71      H        0.92080    0.56940    0.17110    1.000
    H72      H        0.07310    0.36360    0.03430    1.000
    H73      H        0.84770    0.35380    0.98200    1.000
    H74      H        0.85320    0.23420    0.89720    1.000
    H75      H        0.18610    0.35400    0.18290    1.000
    H76      H        0.15150    0.31720    0.10820    1.000
    C53      C        0.09037    0.16194    0.60020    1.000
    C54      C        0.10863    0.23446    0.65410    1.000
    C55      C        0.09091    0.23102    0.71880    1.000
    C56      C        0.05383    0.15766    0.73303    1.000
    C57      C        0.03446    0.08572    0.67974    1.000
    C58      C        0.05221    0.08782    0.61361    1.000
    C59      C        0.11477    0.16254    0.53350    1.000
    C60      C        0.03634    0.15408    0.80310    1.000
    C61      C        0.83400    0.98900    0.84380    1.000
    C62      C        0.77852    0.07384    0.89630    1.000
    C63      C        0.70968    0.99276    0.86478    1.000
    C64      C        0.70326    0.85792    0.79250    1.000
    C65      C        0.61680    0.81300    0.79570    1.000
    C66      C        0.57772    0.73364    0.76910    1.000
    C67      C        0.61448    0.68656    0.73040    1.000
    C68      C        0.70401    0.73142    0.73030    1.000
    C69      C        0.74587    0.81374    0.76000    1.000
    C70      C        0.55686    0.60432    0.68900    1.000
    C71      C        0.47033    0.58106    0.67050    1.000
    C72      C        0.42045    0.50790    0.61990    1.000
    C73      C        0.45457    0.45814    0.58760    1.000
    C74      C        0.53989    0.48118    0.60710    1.000
    C75      C        0.59139    0.55418    0.65800    1.000
    C76      C        0.32732    0.34664    0.51110    1.000
    C77      C        0.44886    0.34192    0.48177    1.000
    C78      C        0.37838    0.27336    0.43430    1.000
    C79      C        0.07157    0.16194    0.10020    1.000
    C80      C        0.12583    0.23446    0.15410    1.000
    C81      C        0.14011    0.23102    0.21880    1.000
    C82      C        0.10383    0.15766    0.23303    1.000
    C83      C        0.05126    0.08572    0.17974    1.000
    C84      C        0.03561    0.08782    0.11361    1.000
    C85      C        0.04777    0.16254    0.03350    1.000
    C86      C        0.11774    0.15408    0.30310    1.000
    C87      C        0.15500    0.98900    0.34380    1.000
    C88      C        0.29532    0.07384    0.39630    1.000
    C89      C        0.28308    0.99276    0.36478    1.000
    C90      C        0.15466    0.85792    0.29250    1.000
    C91      C        0.19620    0.81300    0.29570    1.000
    C92      C        0.15592    0.73364    0.26910    1.000
    C93      C        0.07208    0.68656    0.23040    1.000
    C94      C        0.02741    0.73142    0.23030    1.000
    C95      C        0.06787    0.81374    0.26000    1.000
    C96      C        0.04746    0.60432    0.18900    1.000
    C97      C        0.11073    0.58106    0.17050    1.000
    C98      C        0.08745    0.50790    0.11990    1.000
    C99      C        0.00357    0.45814    0.08760    1.000
    C100     C        0.94129    0.48118    0.10710    1.000
    C101     C        0.96279    0.55418    0.15800    1.000
    C102     C        0.01932    0.34664    0.01110    1.000
    C103     C        0.89306    0.34192    0.98177    1.000
    C104     C        0.89498    0.27336    0.93430    1.000
    N11      N        0.15299    0.31164    0.64757    1.000
    N12      N        0.85599    0.07238    0.88135    1.000
    N13      N        0.74338    0.94256    0.83360    1.000
    N14      N        0.41905    0.38810    0.52755    1.000
    N15      N        0.30218    0.27716    0.45539    1.000
    N16      N        0.15865    0.31164    0.14757    1.000
    N17      N        0.21639    0.07238    0.38135    1.000
    N18      N        0.19918    0.94256    0.33360    1.000
    N19      N        0.96905    0.38810    0.02755    1.000
    N20      N        0.97498    0.27716    0.95539    1.000
    O9       O        0.10453    0.09914    0.48913    1.000
    O10      O        0.14367    0.22486    0.51711    1.000
    O11      O        0.04054    0.21734    0.84252    1.000
    O12      O        0.02352    0.09886    0.82602    1.000
    O13      O        0.99461    0.09914    0.98913    1.000
    O14      O        0.08119    0.22486    0.01711    1.000
    O15      O        0.17680    0.21734    0.34252    1.000
    O16      O        0.07534    0.09886    0.32602    1.000
    Mn5      Mn       0.71832    0.23158    0.75022    1.000
    Mn6      Mn       0.51326    0.23158    0.25022    1.000
    H77      H        0.69720    0.35380    0.58700    1.000
    H78      H        0.56130    0.11060    0.52270    1.000
    H79      H        0.52940    0.11020    0.41290    1.000
    H80      H        0.64570    0.04600    0.61910    1.000
    H81      H        0.84850    0.15080    0.77090    1.000
    H82      H        0.82650    0.01380    0.71120    1.000
    H83      H        0.57650    0.90700    0.56110    1.000
    H84      H        0.51930    0.77420    0.48790    1.000
    H85      H        0.72620    0.76120    0.55170    1.000
    H86      H        0.78340    0.89400    0.62490    1.000
    H87      H        0.47120    0.64660    0.48250    1.000
    H88      H        0.40060    0.51640    0.40360    1.000
    H89      H        0.63100    0.52940    0.37450    1.000
    H90      H        0.70110    0.66340    0.44530    1.000
    H91      H        0.56240    0.39540    0.33130    1.000
    H92      H        0.33410    0.38960    0.30190    1.000
    H93      H        0.31690    0.25440    0.23720    1.000
    H94      H        0.67760    0.39160    0.44440    1.000
    H95      H        0.71740    0.42780    0.52060    1.000
    H96      H        0.65660    0.35380    0.08700    1.000
    H97      H        0.54930    0.11060    0.02270    1.000
    H98      H        0.58080    0.11020    0.91290    1.000
    H99      H        0.40030    0.04600    0.11910    1.000
    H100     H        0.30230    0.15080    0.27090    1.000
    H101     H        0.18730    0.01380    0.21120    1.000
    H102     H        0.33050    0.90700    0.06110    1.000
    H103     H        0.25490    0.77420    0.98790    1.000
    H104     H        0.03500    0.76120    0.05170    1.000
    H105     H        0.11060    0.89400    0.12490    1.000
    H106     H        0.17540    0.64660    0.98250    1.000
    H107     H        0.11580    0.51640    0.90360    1.000
    H108     H        0.89840    0.52940    0.87450    1.000
    H109     H        0.96230    0.66340    0.94530    1.000
    H110     H        0.83300    0.39540    0.83130    1.000
    H111     H        0.05550    0.38960    0.80190    1.000
    H112     H        0.93750    0.25440    0.73720    1.000
    H113     H        0.71400    0.39160    0.94440    1.000
    H114     H        0.71040    0.42780    0.02060    1.000
    C105     C        0.59873    0.23426    0.43400    1.000
    C106     C        0.64819    0.30518    0.48483    1.000
    C107     C        0.66310    0.30520    0.55240    1.000
    C108     C        0.62699    0.23298    0.56650    1.000
    C109     C        0.58071    0.15962    0.51350    1.000
    C110     C        0.56339    0.15898    0.44750    1.000
    C111     C        0.57396    0.23392    0.36310    1.000
    C112     C        0.64610    0.22940    0.63640    1.000
    C113     C        0.69143    0.05506    0.64880    1.000
    C114     C        0.80557    0.11294    0.73420    1.000
    C115     C        0.79430    0.03720    0.70070    1.000
    C116     C        0.68566    0.91372    0.60030    1.000
    C117     C        0.60651    0.87782    0.55920    1.000
    C118     C        0.57223    0.79826    0.51530    1.000
    C119     C        0.61709    0.75458    0.51250    1.000
    C120     C        0.69623    0.79046    0.55360    1.000
    C121     C        0.73052    0.87004    0.59740    1.000
    C122     C        0.58994    0.66948    0.46970    1.000
    C123     C        0.50353    0.62406    0.45860    1.000
    C124     C        0.46023    0.54506    0.41310    1.000
    C125     C        0.51181    0.51122    0.38260    1.000
    C126     C        0.59902    0.55424    0.39520    1.000
    C127     C        0.64134    0.63388    0.43770    1.000
    C128     C        0.50487    0.37774    0.31650    1.000
    C129     C        0.37706    0.37432    0.30040    1.000
    C130     C        0.36751    0.29842    0.26328    1.000
    C131     C        0.63553    0.23426    0.93400    1.000
    C132     C        0.65699    0.30518    0.98483    1.000
    C133     C        0.64210    0.30520    0.05240    1.000
    C134     C        0.60599    0.23298    0.06650    1.000
    C135     C        0.57891    0.15962    0.01350    1.000
    C136     C        0.59559    0.15898    0.94750    1.000
    C137     C        0.65996    0.23392    0.86310    1.000
    C138     C        0.58330    0.22940    0.13640    1.000
    C139     C        0.36363    0.05506    0.14880    1.000
    C140     C        0.30737    0.11294    0.23420    1.000
    C141     C        0.24290    0.03720    0.20070    1.000
    C142     C        0.22806    0.91372    0.10030    1.000
    C143     C        0.27131    0.87782    0.05920    1.000
    C144     C        0.22603    0.79826    0.01530    1.000
    C145     C        0.13749    0.75458    0.01250    1.000
    C146     C        0.09423    0.79046    0.05360    1.000
    C147     C        0.13952    0.87004    0.09740    1.000
    C148     C        0.07954    0.66948    0.96970    1.000
    C149     C        0.12053    0.62406    0.95860    1.000
    C150     C        0.08483    0.54506    0.91310    1.000
    C151     C        0.99941    0.51122    0.88260    1.000
    C152     C        0.95522    0.55424    0.89520    1.000
    C153     C        0.99254    0.63388    0.93770    1.000
    C154     C        0.87287    0.37774    0.81650    1.000
    C155     C        0.99726    0.37432    0.80040    1.000
    C156     C        0.93091    0.29842    0.76328    1.000
    N21      N        0.68533    0.38346    0.48438    1.000
    N22      N        0.73993    0.12626    0.70421    1.000
    N23      N        0.72360    0.99970    0.64576    1.000
    N24      N        0.46108    0.42456    0.33508    1.000
    N25      N        0.44622    0.29924    0.27155    1.000
    N26      N        0.69813    0.38346    0.98438    1.000
    N27      N        0.38633    0.12626    0.20421    1.000
    N28      N        0.27610    0.99970    0.14576    1.000
    N29      N        0.96348    0.42456    0.83508    1.000
    N30      N        0.85302    0.29924    0.77155    1.000
    O17      O        0.51512    0.17092    0.31942    1.000
    O18      O        0.61570    0.29626    0.34906    1.000
    O19      O        0.70337    0.29402    0.67642    1.000
    O20      O        0.61511    0.17120    0.66039    1.000
    O21      O        0.65580    0.17092    0.81942    1.000
    O22      O        0.68056    0.29626    0.84906    1.000
    O23      O        0.59065    0.29402    0.17642    1.000
    O24      O        0.55609    0.17120    0.16039    1.000
    Mn7      Mn       0.00966    0.81442    0.64789    1.000
    Mn8      Mn       0.80476    0.81442    0.14789    1.000
    H115     H        0.98600    0.91860    0.47900    1.000
    H116     H        0.84430    0.67680    0.41110    1.000
    H117     H        0.81710    0.68000    0.30170    1.000
    H118     H        0.91410    0.60620    0.57860    1.000
    H119     H        0.15490    0.77280    0.56890    1.000
    H120     H        0.13190    0.63340    0.50010    1.000
    H121     H        0.08530    0.50300    0.46580    1.000
    H122     H        0.02800    0.36640    0.40630    1.000
    H123     H        0.79010    0.33560    0.43080    1.000
    H124     H        0.84770    0.47340    0.49000    1.000
    H125     H        0.97370    0.23300    0.38460    1.000
    H126     H        0.91080    0.09680    0.31960    1.000
    H127     H        0.68860    0.09580    0.28150    1.000
    H128     H        0.74990    0.23220    0.34330    1.000
    H129     H        0.85630    0.98080    0.23670    1.000
    H130     H        0.61590    0.95340    0.25590    1.000
    H131     H        0.60300    0.81900    0.18200    1.000
    H132     H        0.96380    0.95540    0.32930    1.000
    H133     H        0.00650    0.99200    0.40210    1.000
    H134     H        0.93260    0.91860    0.97900    1.000
    H135     H        0.83250    0.67680    0.91110    1.000
    H136     H        0.86290    0.68000    0.80170    1.000
    H137     H        0.69210    0.60620    0.07860    1.000
    H138     H        0.61790    0.77280    0.06890    1.000
    H139     H        0.50150    0.63340    0.00010    1.000
    H140     H        0.41770    0.50300    0.96580    1.000
    H141     H        0.33840    0.36640    0.90630    1.000
    H142     H        0.54550    0.33560    0.93080    1.000
    H143     H        0.62570    0.47340    0.99000    1.000
    H144     H        0.25930    0.23300    0.88460    1.000
    H145     H        0.18600    0.09680    0.81960    1.000
    H146     H        0.40720    0.09580    0.78150    1.000
    H147     H        0.48230    0.23220    0.84330    1.000
    H148     H        0.12450    0.98080    0.73670    1.000
    H149     H        0.33750    0.95340    0.75590    1.000
    H150     H        0.21600    0.81900    0.68200    1.000
    H151     H        0.99160    0.95540    0.82930    1.000
    H152     H        0.98550    0.99200    0.90210    1.000
    C157     C        0.88762    0.80304    0.32270    1.000
    C158     C        0.93965    0.87330    0.37506    1.000
    C159     C        0.95319    0.87058    0.44340    1.000
    C160     C        0.91753    0.79726    0.45570    1.000
    C161     C        0.86768    0.72656    0.40269    1.000
    C162     C        0.85163    0.72826    0.33660    1.000
    C163     C        0.87020    0.80580    0.25660    1.000
    C164     C        0.93239    0.79638    0.52683    1.000
    C165     C        0.96928    0.62936    0.56730    1.000
    C166     C        0.10501    0.72382    0.56230    1.000
    C167     C        0.09190    0.64500    0.52350    1.000
    C168     C        0.97204    0.50228    0.48380    1.000
    C169     C        0.02609    0.46958    0.45860    1.000
    C170     C        0.99168    0.38776    0.42320    1.000
    C171     C        0.90325    0.33670    0.41230    1.000
    C172     C        0.84933    0.36926    0.43770    1.000
    C173     C        0.88394    0.45188    0.47320    1.000
    C174     C        0.86741    0.24782    0.37270    1.000
    C175     C        0.91648    0.20596    0.36440    1.000
    C176     C        0.87827    0.12414    0.32580    1.000
    C177     C        0.79412    0.08304    0.29690    1.000
    C178     C        0.74557    0.12354    0.30270    1.000
    C179     C        0.78236    0.20512    0.33990    1.000
    C180     C        0.79671    0.95782    0.23220    1.000
    C181     C        0.66082    0.94244    0.24308    1.000
    C182     C        0.65414    0.86668    0.20150    1.000
    C183     C        0.91542    0.80304    0.82270    1.000
    C184     C        0.93365    0.87330    0.87506    1.000
    C185     C        0.91739    0.87058    0.94340    1.000
    C186     C        0.87973    0.79726    0.95570    1.000
    C187     C        0.85888    0.72656    0.90269    1.000
    C188     C        0.87663    0.72826    0.83660    1.000
    C189     C        0.93560    0.80580    0.75660    1.000
    C190     C        0.86399    0.79638    0.02683    1.000
    C191     C        0.66008    0.62936    0.06730    1.000
    C192     C        0.61881    0.72382    0.06230    1.000
    C193     C        0.55310    0.64500    0.02350    1.000
    C194     C        0.53024    0.50228    0.98380    1.000
    C195     C        0.44349    0.46958    0.95860    1.000
    C196     C        0.39608    0.38776    0.92320    1.000
    C197     C        0.43345    0.33670    0.91230    1.000
    C198     C        0.51993    0.36926    0.93770    1.000
    C199     C        0.56794    0.45188    0.97320    1.000
    C200     C        0.38041    0.24782    0.87270    1.000
    C201     C        0.28948    0.20596    0.86440    1.000
    C202     C        0.24587    0.12414    0.82580    1.000
    C203     C        0.28892    0.08304    0.79690    1.000
    C204     C        0.37797    0.12354    0.80270    1.000
    C205     C        0.42276    0.20512    0.83990    1.000
    C206     C        0.16111    0.95782    0.73220    1.000
    C207     C        0.28162    0.94244    0.74308    1.000
    C208     C        0.21254    0.86668    0.70150    1.000
    N31      N        0.97433    0.94980    0.36793    1.000
    N32      N        0.02851    0.71362    0.58875    1.000
    N33      N        0.00677    0.58654    0.52663    1.000
    N34      N        0.74958    0.99696    0.26046    1.000
    N35      N        0.73622    0.87580    0.19513    1.000
    N36      N        0.97547    0.94980    0.86793    1.000
    N37      N        0.68511    0.71362    0.08875    1.000
    N38      N        0.57977    0.58654    0.02663    1.000
    N39      N        0.24738    0.99696    0.76046    1.000
    N40      N        0.13958    0.87580    0.69513    1.000
    O25      O        0.81498    0.74164    0.21065    1.000
    O26      O        0.90374    0.86742    0.23835    1.000
    O27      O        0.99288    0.86010    0.56647    1.000
    O28      O        0.89149    0.73966    0.54928    1.000
    O29      O        0.92666    0.74164    0.71065    1.000
    O30      O        0.96368    0.86742    0.73835    1.000
    O31      O        0.86722    0.86010    0.06647    1.000
    O32      O        0.84817    0.73966    0.04928    1.000
    Mn9      Mn       0.34729    0.51092    0.19396    1.000
    Mn10     Mn       0.16363    0.51092    0.69396    1.000
    H153     H        0.33890    0.63840    0.03220    1.000
    H154     H        0.19500    0.39700    0.97380    1.000
    H155     H        0.17830    0.39380    0.86040    1.000
    H156     H        0.27150    0.33120    0.07240    1.000
    H157     H        0.49570    0.44880    0.20250    1.000
    H158     H        0.48500    0.31760    0.12110    1.000
    H159     H        0.44450    0.22300    0.00590    1.000
    H160     H        0.38810    0.09420    0.93380    1.000
    H161     H        0.14840    0.04500    0.97570    1.000
    H162     H        0.20520    0.17940    0.04480    1.000
    H163     H        0.34470    0.97520    0.88620    1.000
    H164     H        0.29250    0.84040    0.81730    1.000
    H165     H        0.05100    0.80340    0.82820    1.000
    H166     H        0.10190    0.93640    0.89780    1.000
    H167     H        0.23660    0.70220    0.78480    1.000
    H168     H        0.00950    0.69440    0.73490    1.000
    H169     H        0.00370    0.56180    0.66080    1.000
    H170     H        0.36800    0.70700    0.95650    1.000
    H171     H        0.33270    0.66940    0.88200    1.000
    H172     H        0.29950    0.63840    0.53220    1.000
    H173     H        0.20200    0.39700    0.47380    1.000
    H174     H        0.21550    0.39380    0.36040    1.000
    H175     H        0.05970    0.33120    0.57240    1.000
    H176     H        0.95310    0.44880    0.70250    1.000
    H177     H        0.83260    0.31760    0.62110    1.000
    H178     H        0.77850    0.22300    0.50590    1.000
    H179     H        0.70610    0.09420    0.43380    1.000
    H180     H        0.89660    0.04500    0.47570    1.000
    H181     H        0.97420    0.17940    0.54480    1.000
    H182     H        0.63050    0.97520    0.38620    1.000
    H183     H        0.54790    0.84040    0.31730    1.000
    H184     H        0.75240    0.80340    0.32820    1.000
    H185     H        0.83450    0.93640    0.39780    1.000
    H186     H        0.46560    0.70220    0.28480    1.000
    H187     H        0.68490    0.69440    0.23490    1.000
    H188     H        0.55810    0.56180    0.16080    1.000
    H189     H        0.33900    0.70700    0.45650    1.000
    H190     H        0.33670    0.66940    0.38200    1.000
    C209     C        0.24523    0.51466    0.87970    1.000
    C210     C        0.29481    0.59062    0.93100    1.000
    C211     C        0.30582    0.58964    0.99730    1.000
    C212     C        0.26856    0.51752    0.01240    1.000
    C213     C        0.22044    0.44508    0.96260    1.000
    C214     C        0.20960    0.44320    0.89500    1.000
    C215     C        0.23070    0.51620    0.80780    1.000
    C216     C        0.28355    0.51770    0.08350    1.000
    C217     C        0.32368    0.34296    0.09502    1.000
    C218     C        0.45027    0.40994    0.16790    1.000
    C219     C        0.44386    0.33512    0.12210    1.000
    C220     C        0.32901    0.21302    0.03540    1.000
    C221     C        0.38585    0.18770    0.99980    1.000
    C222     C        0.35170    0.11140    0.95750    1.000
    C223     C        0.26245    0.05490    0.94660    1.000
    C224     C        0.20686    0.08052    0.98110    1.000
    C225     C        0.24180    0.16060    0.02360    1.000
    C226     C        0.22863    0.96966    0.89957    1.000
    C227     C        0.28572    0.94064    0.87490    1.000
    C228     C        0.25445    0.85990    0.83330    1.000
    C229     C        0.16634    0.80868    0.81570    1.000
    C230     C        0.10994    0.83768    0.84000    1.000
    C231     C        0.14046    0.91752    0.88170    1.000
    C232     C        0.18126    0.68412    0.76400    1.000
    C233     C        0.05299    0.67998    0.73500    1.000
    C234     C        0.04887    0.60394    0.69400    1.000
    C235     C        0.26943    0.51466    0.37970    1.000
    C236     C        0.29581    0.59062    0.43100    1.000
    C237     C        0.28382    0.58964    0.49730    1.000
    C238     C        0.24896    0.51752    0.51240    1.000
    C239     C        0.22464    0.44508    0.46260    1.000
    C240     C        0.23360    0.44320    0.39500    1.000
    C241     C        0.28550    0.51620    0.30780    1.000
    C242     C        0.23415    0.51770    0.58350    1.000
    C243     C        0.01928    0.34296    0.59502    1.000
    C244     C        0.95967    0.40994    0.66790    1.000
    C245     C        0.89126    0.33512    0.62210    1.000
    C246     C        0.88401    0.21302    0.53540    1.000
    C247     C        0.80185    0.18770    0.49980    1.000
    C248     C        0.75970    0.11140    0.45750    1.000
    C249     C        0.79245    0.05490    0.44660    1.000
    C250     C        0.87366    0.08052    0.48110    1.000
    C251     C        0.91880    0.16060    0.52360    1.000
    C252     C        0.74103    0.96966    0.39957    1.000
    C253     C        0.65492    0.94064    0.37490    1.000
    C254     C        0.60545    0.85990    0.33330    1.000
    C255     C        0.64234    0.80868    0.31570    1.000
    C256     C        0.72774    0.83768    0.34000    1.000
    C257     C        0.77706    0.91752    0.38170    1.000
    C258     C        0.50286    0.68412    0.26400    1.000
    C259     C        0.62699    0.67998    0.23500    1.000
    C260     C        0.55507    0.60394    0.19400    1.000
    N41      N        0.33693    0.66466    0.92210    1.000
    N42      N        0.37522    0.41304    0.15041    1.000
    N43      N        0.36413    0.29386    0.07953    1.000
    N44      N        0.13548    0.72816    0.77530    1.000
    N45      N        0.12787    0.60634    0.71460    1.000
    N46      N        0.32773    0.66466    0.42210    1.000
    N47      N        0.03782    0.41304    0.65041    1.000
    N48      N        0.92973    0.29386    0.57953    1.000
    N49      N        0.59268    0.72816    0.27530    1.000
    N50      N        0.47847    0.60634    0.21460    1.000
    O33      O        0.17987    0.45290    0.76486    1.000
    O34      O        0.27248    0.57884    0.79036    1.000
    O35      O        0.34107    0.58418    0.12419    1.000
    O36      O        0.24840    0.46120    0.10751    1.000
    O37      O        0.27303    0.45290    0.26486    1.000
    O38      O        0.30636    0.57884    0.29036    1.000
    O39      O        0.24311    0.58418    0.62419    1.000
    O40      O        0.21280    0.46120    0.60751    1.000
