# CIF file generated by openbabel 3.1.0, see https://openbabel.org
data_I
_chemical_name_common 'IKEBUV01_clean'
_cell_length_a 8.4221
_cell_length_b 8.4221
_cell_length_c 12.049
_cell_angle_alpha 90
_cell_angle_beta 90
_cell_angle_gamma 90
_space_group_name_H-M_alt 'P 1'
_space_group_name_Hall 'P 1'
loop_
    _symmetry_equiv_pos_as_xyz
    x,y,z
loop_
    _atom_site_label
    _atom_site_type_symbol
    _atom_site_fract_x
    _atom_site_fract_y
    _atom_site_fract_z
    _atom_site_occupancy
    Cu1      Cu       0.09745    0.69409    0.89107    1.000
    Cu2      Cu       0.90255    0.30591    0.39107    1.000
    Cu3      Cu       0.30591    0.09745    0.14107    1.000
    Cu4      Cu       0.69409    0.90255    0.64107    1.000
    H1       H        0.56140    0.82300    0.89000    1.000
    H2       H        0.47150    0.66920    0.92640    1.000
    H3       H        0.43860    0.17700    0.39000    1.000
    H4       H        0.52850    0.33080    0.42640    1.000
    H5       H        0.17700    0.56140    0.14000    1.000
    H6       H        0.33080    0.47150    0.17640    1.000
    H7       H        0.82300    0.43860    0.64000    1.000
    H8       H        0.66920    0.52850    0.67640    1.000
    C1       C        0.38810    0.75890    0.77960    1.000
    C2       C        0.45710    0.77490    0.89600    1.000
    C3       C        0.36040    0.87120    0.97780    1.000
    C4       C        0.61190    0.24110    0.27960    1.000
    C5       C        0.54290    0.22510    0.39600    1.000
    C6       C        0.63960    0.12880    0.47780    1.000
    C7       C        0.24110    0.38810    0.02960    1.000
    C8       C        0.22510    0.45710    0.14600    1.000
    C9       C        0.12880    0.36040    0.22780    1.000
    C10      C        0.75890    0.61190    0.52960    1.000
    C11      C        0.77490    0.54290    0.64600    1.000
    C12      C        0.87120    0.63960    0.72780    1.000
    O1       O        0.24060    0.73240    0.76956    1.000
    O2       O        0.21070    0.85180    0.98214    1.000
    O3       O        0.47910    0.76710    0.69825    1.000
    O4       O        0.43290    0.96450    0.04024    1.000
    O5       O        0.75940    0.26760    0.26956    1.000
    O6       O        0.78930    0.14820    0.48214    1.000
    O7       O        0.52090    0.23290    0.19825    1.000
    O8       O        0.56710    0.03550    0.54024    1.000
    O9       O        0.26760    0.24060    0.01956    1.000
    O10      O        0.14820    0.21070    0.23214    1.000
    O11      O        0.23290    0.47910    0.94825    1.000
    O12      O        0.03550    0.43290    0.29024    1.000
    O13      O        0.73240    0.75940    0.51956    1.000
    O14      O        0.85180    0.78930    0.73214    1.000
    O15      O        0.76710    0.52090    0.44825    1.000
    O16      O        0.96450    0.56710    0.79024    1.000
