data_functionalizedCrystal
_audit_creation_method	'EQeq! by Chris Wilmer'
_symmetry_space_group_name_H-M	'P1'
_symmetry_Int_Tables_number	1
_symmetry_cell_setting	triclinic
loop_
_symmetry_equiv_pos_as_xyz
  x,y,z
_cell_length_a	27.625
_cell_length_b	9.9064
_cell_length_c	15.5403
_cell_angle_alpha	90
_cell_angle_beta	119.742
_cell_angle_gamma	90
loop_
_atom_site_label
_atom_site_type_symbol
_atom_site_fract_x
_atom_site_fract_y
_atom_site_fract_z
_atom_site_charge
Mof_Co	Co	0.20951	0.13713	0.46752	1.16
Mof_O 	O 	0.23585	0.3908	0.3851	-0.452
Mof_O 	O 	0.1683	0.2351	0.3357	-0.427
Mof_O 	O 	0.23294	0.5771	0.0698	-0.457
Mof_O 	O 	0.16759	0.7368	0.0131	-0.427
Mof_N 	N 	0.01251	0.4757	0.0424	-0.082
Mof_N 	N 	0.1619	0.9684	0.4467	-0.237
Mof_C 	C 	0.1574	0.5515	0.0975	-0.067
Mof_C 	C 	0.1871	0.4801	0.1861	0
Mof_H 	H 	0.2259	0.4805	0.2196	0.042
Mof_C 	C 	0.0995	0.5538	0.0483	-0.058
Mof_H 	H 	0.0796	0.6045	0.9908	0.078
Mof_C 	C 	0.1903	0.3385	0.3224	0.361
Mof_C 	C 	0.1588	0.4088	0.2243	-0.069
Mof_C 	C 	0.1009	0.4055	0.1741	-0.056
Mof_H 	H 	0.0818	0.3554	0.1985	0.074
Mof_C 	C 	0.0719	0.4789	0.0866	0.094
Mof_C 	C 	0.1885	0.6288	0.0567	0.381
Mof_N 	N 	0.109	0.7895	0.3889	-0.185
Mof_C 	C 	0.1435	0.8787	0.3784	0.131
Mof_C 	C 	0.1421	0.9365	0.5086	-0.018
Mof_H 	H 	0.1487	0.9847	0.5648	0.037
Mof_C 	C 	0.1113	0.8227	0.4747	0.046
Mof_H 	H 	0.0946	0.7759	0.5051	0.024
Mof_C 	C 	0.1649	0.8608	0.303	-0.103
Mof_H 	H 	0.1747	0.9484	0.2883	0.059
Mof_H 	H 	0.1352	0.8236	0.2417	0.084
Mof_C 	C 	0.2184	0.7627	0.3454	-0.412
Mof_H 	H 	0.2464	0.7939	0.4095	0.152
Mof_H 	H 	0.2332	0.7632	0.301	0.158
Mof_H 	H 	0.2076	0.6725	0.351	0.156
Mof_C 	C 	0.0319	0.6247	0.3125	0.195
Mof_C 	C 	0.0942	0.6493	0.3338	2.236
Mof_C 	C 	0.0075	0.7277	0.2909	0.401
Mof_C 	C 	0.9416	0.701	0.1913	-1.786
Mof_H 	H 	0.9486	0.6392	0.1505	0.225
Mof_H 	H 	0.9239	0.6471	0.2201	-0.252
Mof_H 	H 	0.0131	0.5604	0.2589	-0.017
Mof_H 	H 	0.0328	0.5879	0.3711	-0.099
Mof_H 	H 	0.0272	0.7934	0.2735	0.21
Mof_H 	H 	0.0048	0.7625	0.3467	-0.061
Mof_H 	H 	0.1192	0.5788	0.3756	-0.714
Mof_H 	H 	0.0955	0.654	0.2727	-0.325
Mof_Co	Co	0.70951	0.63713	0.46752	1.16
Mof_O 	O 	0.73585	0.8908	0.3851	-0.453
Mof_O 	O 	0.6683	0.7351	0.3357	-0.427
Mof_O 	O 	0.73294	0.0771	0.0698	-0.458
Mof_O 	O 	0.66759	0.2368	0.0131	-0.428
Mof_N 	N 	0.51251	0.9757	0.0424	-0.082
Mof_N 	N 	0.6619	0.4684	0.4467	-0.237
Mof_C 	C 	0.6574	0.0515	0.0975	-0.066
Mof_C 	C 	0.6871	0.9801	0.1861	0
Mof_H 	H 	0.7259	0.9805	0.2196	0.042
Mof_C 	C 	0.5995	0.0538	0.0483	-0.065
Mof_H 	H 	0.5796	0.1045	0.9908	0.082
Mof_C 	C 	0.6903	0.8385	0.3224	0.361
Mof_C 	C 	0.6588	0.9088	0.2243	-0.068
Mof_C 	C 	0.6009	0.9055	0.1741	-0.057
Mof_H 	H 	0.5818	0.8554	0.1985	0.074
Mof_C 	C 	0.5719	0.9789	0.0866	0.098
Mof_C 	C 	0.6885	0.1288	0.0567	0.38
Mof_N 	N 	0.609	0.2895	0.3889	-0.185
Mof_C 	C 	0.6435	0.3787	0.3784	0.131
Mof_C 	C 	0.6421	0.4365	0.5086	-0.018
Mof_H 	H 	0.6487	0.4847	0.5648	0.038
Mof_C 	C 	0.6113	0.3227	0.4747	0.047
Mof_H 	H 	0.5946	0.2759	0.5051	0.024
Mof_C 	C 	0.6649	0.3608	0.303	-0.103
Mof_H 	H 	0.6747	0.4484	0.2883	0.059
Mof_H 	H 	0.6352	0.3236	0.2417	0.084
Mof_C 	C 	0.7184	0.2627	0.3454	-0.412
Mof_H 	H 	0.7464	0.2939	0.4095	0.152
Mof_H 	H 	0.7332	0.2632	0.301	0.158
Mof_H 	H 	0.7076	0.1725	0.351	0.156
Mof_C 	C 	0.5319	0.1247	0.3125	0.195
Mof_C 	C 	0.5942	0.1493	0.3338	2.236
Mof_C 	C 	0.5075	0.2277	0.2909	0.4
Mof_C 	C 	0.4416	0.201	0.1913	-1.786
Mof_H 	H 	0.4486	0.1392	0.1505	0.225
Mof_H 	H 	0.4239	0.1471	0.2201	-0.251
Mof_H 	H 	0.5131	0.0604	0.2589	-0.017
Mof_H 	H 	0.5328	0.0879	0.3711	-0.099
Mof_H 	H 	0.5272	0.2934	0.2735	0.21
Mof_H 	H 	0.5048	0.2625	0.3467	-0.061
Mof_H 	H 	0.6192	0.0788	0.3756	-0.714
Mof_H 	H 	0.5955	0.154	0.2727	-0.325
Mof_Co	Co	0.79049	0.13713	0.03248	1.159
Mof_O 	O 	0.76415	0.3908	0.1149	-0.453
Mof_O 	O 	0.8317	0.2351	0.1643	-0.428
Mof_O 	O 	0.76706	0.5771	0.4302	-0.458
Mof_O 	O 	0.83241	0.7368	0.4869	-0.428
Mof_N 	N 	0.98749	0.4757	0.4576	-0.082
Mof_N 	N 	0.8381	0.9684	0.0533	-0.236
Mof_C 	C 	0.8426	0.5515	0.4025	-0.067
Mof_C 	C 	0.8129	0.4801	0.3139	-0
Mof_H 	H 	0.7741	0.4805	0.2804	0.042
Mof_C 	C 	0.9005	0.5538	0.4517	-0.06
Mof_H 	H 	0.9204	0.6045	0.5092	0.08
Mof_C 	C 	0.8097	0.3385	0.1776	0.361
Mof_C 	C 	0.8412	0.4088	0.2757	-0.069
Mof_C 	C 	0.8991	0.4055	0.3259	-0.056
Mof_H 	H 	0.9182	0.3554	0.3015	0.074
Mof_C 	C 	0.9281	0.4789	0.4134	0.095
Mof_C 	C 	0.8115	0.6288	0.4433	0.38
Mof_N 	N 	0.891	0.7895	0.1111	-0.186
Mof_C 	C 	0.8565	0.8787	0.1216	0.131
Mof_C 	C 	0.8579	0.9365	0.9914	-0.021
Mof_H 	H 	0.8513	0.9847	0.9352	0.038
Mof_C 	C 	0.8887	0.8227	0.0253	0.05
Mof_H 	H 	0.9054	0.7759	0.9949	0.023
Mof_C 	C 	0.8351	0.8608	0.197	-0.103
Mof_H 	H 	0.8253	0.9484	0.2117	0.059
Mof_H 	H 	0.8648	0.8236	0.2583	0.084
Mof_C 	C 	0.7816	0.7627	0.1546	-0.413
Mof_H 	H 	0.7536	0.7939	0.0905	0.152
Mof_H 	H 	0.7668	0.7632	0.199	0.159
Mof_H 	H 	0.7924	0.6725	0.149	0.157
Mof_C 	C 	0.9681	0.6247	0.1875	0.194
Mof_C 	C 	0.9058	0.6493	0.1662	2.24
Mof_C 	C 	0.9925	0.7277	0.2091	0.401
Mof_C 	C 	0.0584	0.701	0.3087	-1.785
Mof_H 	H 	0.0514	0.6392	0.3495	0.225
Mof_H 	H 	0.0761	0.6471	0.2799	-0.251
Mof_H 	H 	0.9869	0.5604	0.2411	-0.017
Mof_H 	H 	0.9672	0.5879	0.1289	-0.099
Mof_H 	H 	0.9728	0.7934	0.2265	0.21
Mof_H 	H 	0.9952	0.7625	0.1533	-0.061
Mof_H 	H 	0.8808	0.5788	0.1244	-0.715
Mof_H 	H 	0.9045	0.654	0.2273	-0.325
Mof_Co	Co	0.29049	0.63713	0.03248	1.16
Mof_O 	O 	0.26415	0.8908	0.1149	-0.453
Mof_O 	O 	0.3317	0.7351	0.1643	-0.427
Mof_O 	O 	0.26706	0.0771	0.4302	-0.458
Mof_O 	O 	0.33241	0.2368	0.4869	-0.428
Mof_N 	N 	0.48749	0.9757	0.4576	-0.082
Mof_N 	N 	0.3381	0.4684	0.0533	-0.237
Mof_C 	C 	0.3426	0.0515	0.4025	-0.067
Mof_C 	C 	0.3129	0.9801	0.3139	0
Mof_H 	H 	0.2741	0.9805	0.2804	0.042
Mof_C 	C 	0.4005	0.0538	0.4517	-0.06
Mof_H 	H 	0.4204	0.1045	0.5092	0.08
Mof_C 	C 	0.3097	0.8385	0.1776	0.361
Mof_C 	C 	0.3412	0.9088	0.2757	-0.069
Mof_C 	C 	0.3991	0.9055	0.3259	-0.056
Mof_H 	H 	0.4182	0.8554	0.3015	0.074
Mof_C 	C 	0.4281	0.9789	0.4134	0.095
Mof_C 	C 	0.3115	0.1288	0.4433	0.381
Mof_N 	N 	0.391	0.2895	0.1111	-0.185
Mof_C 	C 	0.3565	0.3787	0.1216	0.131
Mof_C 	C 	0.3579	0.4365	0.9914	-0.016
Mof_H 	H 	0.3513	0.4847	0.9352	0.037
Mof_C 	C 	0.3887	0.3227	0.0253	0.045
Mof_H 	H 	0.4054	0.2759	0.9949	0.025
Mof_C 	C 	0.3351	0.3608	0.197	-0.103
Mof_H 	H 	0.3253	0.4484	0.2117	0.059
Mof_H 	H 	0.3648	0.3236	0.2583	0.084
Mof_C 	C 	0.2816	0.2627	0.1546	-0.412
Mof_H 	H 	0.2536	0.2939	0.0905	0.152
Mof_H 	H 	0.2668	0.2632	0.199	0.158
Mof_H 	H 	0.2924	0.1725	0.149	0.156
Mof_C 	C 	0.4681	0.1247	0.1875	0.195
Mof_C 	C 	0.4058	0.1493	0.1662	2.237
Mof_C 	C 	0.4925	0.2277	0.2091	0.401
Mof_C 	C 	0.5584	0.201	0.3087	-1.785
Mof_H 	H 	0.5514	0.1392	0.3495	0.225
Mof_H 	H 	0.5761	0.1471	0.2799	-0.251
Mof_H 	H 	0.4869	0.0604	0.2411	-0.017
Mof_H 	H 	0.4672	0.0879	0.1289	-0.1
Mof_H 	H 	0.4728	0.2934	0.2265	0.21
Mof_H 	H 	0.4952	0.2625	0.1533	-0.062
Mof_H 	H 	0.3808	0.0788	0.1244	-0.714
Mof_H 	H 	0.4045	0.154	0.2273	-0.325
Mof_Co	Co	0.79049	0.86287	0.53248	1.159
Mof_O 	O 	0.76415	0.6092	0.6149	-0.453
Mof_O 	O 	0.8317	0.7649	0.6643	-0.428
Mof_O 	O 	0.76706	0.4229	0.9302	-0.458
Mof_O 	O 	0.83241	0.2632	0.9869	-0.427
Mof_N 	N 	0.98749	0.5243	0.9576	-0.082
Mof_N 	N 	0.8381	0.0316	0.5533	-0.237
Mof_C 	C 	0.8426	0.4485	0.9025	-0.067
Mof_C 	C 	0.8129	0.5199	0.8139	0
Mof_H 	H 	0.7741	0.5195	0.7804	0.042
Mof_C 	C 	0.9005	0.4462	0.9517	-0.058
Mof_H 	H 	0.9204	0.3955	0.0092	0.078
Mof_C 	C 	0.8097	0.6615	0.6776	0.361
Mof_C 	C 	0.8412	0.5912	0.7757	-0.069
Mof_C 	C 	0.8991	0.5945	0.8259	-0.056
Mof_H 	H 	0.9182	0.6446	0.8015	0.074
Mof_C 	C 	0.9281	0.5211	0.9134	0.094
Mof_C 	C 	0.8115	0.3712	0.9433	0.381
Mof_N 	N 	0.891	0.2105	0.6111	-0.185
Mof_C 	C 	0.8565	0.1213	0.6216	0.131
Mof_C 	C 	0.8579	0.0635	0.4914	-0.018
Mof_H 	H 	0.8513	0.0153	0.4352	0.037
Mof_C 	C 	0.8887	0.1773	0.5253	0.046
Mof_H 	H 	0.9054	0.2241	0.4949	0.024
Mof_C 	C 	0.8351	0.1392	0.697	-0.103
Mof_H 	H 	0.8253	0.0516	0.7117	0.059
Mof_H 	H 	0.8648	0.1764	0.7583	0.084
Mof_C 	C 	0.7816	0.2373	0.6546	-0.412
Mof_H 	H 	0.7536	0.2061	0.5905	0.152
Mof_H 	H 	0.7668	0.2368	0.699	0.158
Mof_H 	H 	0.7924	0.3275	0.649	0.156
Mof_C 	C 	0.9681	0.3753	0.6875	0.195
Mof_C 	C 	0.9058	0.3507	0.6662	2.236
Mof_C 	C 	0.9925	0.2723	0.7091	0.401
Mof_C 	C 	0.0584	0.299	0.8087	-1.786
Mof_H 	H 	0.0514	0.3608	0.8495	0.225
Mof_H 	H 	0.0761	0.3529	0.7799	-0.252
Mof_H 	H 	0.9869	0.4396	0.7411	-0.017
Mof_H 	H 	0.9672	0.4121	0.6289	-0.099
Mof_H 	H 	0.9728	0.2066	0.7265	0.21
Mof_H 	H 	0.9952	0.2375	0.6533	-0.061
Mof_H 	H 	0.8808	0.4212	0.6244	-0.714
Mof_H 	H 	0.9045	0.346	0.7273	-0.325
Mof_Co	Co	0.29049	0.36287	0.53248	1.16
Mof_O 	O 	0.26415	0.1092	0.6149	-0.453
Mof_O 	O 	0.3317	0.2649	0.6643	-0.427
Mof_O 	O 	0.26706	0.9229	0.9302	-0.458
Mof_O 	O 	0.33241	0.7632	0.9869	-0.428
Mof_N 	N 	0.48749	0.0243	0.9576	-0.082
Mof_N 	N 	0.3381	0.5316	0.5533	-0.237
Mof_C 	C 	0.3426	0.9485	0.9025	-0.066
Mof_C 	C 	0.3129	0.0199	0.8139	0
Mof_H 	H 	0.2741	0.0195	0.7804	0.042
Mof_C 	C 	0.4005	0.9462	0.9517	-0.065
Mof_H 	H 	0.4204	0.8955	0.0092	0.082
Mof_C 	C 	0.3097	0.1615	0.6776	0.361
Mof_C 	C 	0.3412	0.0912	0.7757	-0.068
Mof_C 	C 	0.3991	0.0945	0.8259	-0.057
Mof_H 	H 	0.4182	0.1446	0.8015	0.074
Mof_C 	C 	0.4281	0.0211	0.9134	0.098
Mof_C 	C 	0.3115	0.8712	0.9433	0.38
Mof_N 	N 	0.391	0.7105	0.6111	-0.185
Mof_C 	C 	0.3565	0.6213	0.6216	0.131
Mof_C 	C 	0.3579	0.5635	0.4914	-0.018
Mof_H 	H 	0.3513	0.5153	0.4352	0.038
Mof_C 	C 	0.3887	0.6773	0.5253	0.047
Mof_H 	H 	0.4054	0.7241	0.4949	0.024
Mof_C 	C 	0.3351	0.6392	0.697	-0.103
Mof_H 	H 	0.3253	0.5516	0.7117	0.059
Mof_H 	H 	0.3648	0.6764	0.7583	0.084
Mof_C 	C 	0.2816	0.7373	0.6546	-0.412
Mof_H 	H 	0.2536	0.7061	0.5905	0.152
Mof_H 	H 	0.2668	0.7368	0.699	0.158
Mof_H 	H 	0.2924	0.8275	0.649	0.156
Mof_C 	C 	0.4681	0.8753	0.6875	0.195
Mof_C 	C 	0.4058	0.8507	0.6662	2.236
Mof_C 	C 	0.4925	0.7723	0.7091	0.4
Mof_C 	C 	0.5584	0.799	0.8087	-1.786
Mof_H 	H 	0.5514	0.8608	0.8495	0.225
Mof_H 	H 	0.5761	0.8529	0.7799	-0.251
Mof_H 	H 	0.4869	0.9396	0.7411	-0.017
Mof_H 	H 	0.4672	0.9121	0.6289	-0.099
Mof_H 	H 	0.4728	0.7066	0.7265	0.21
Mof_H 	H 	0.4952	0.7375	0.6533	-0.061
Mof_H 	H 	0.3808	0.9212	0.6244	-0.714
Mof_H 	H 	0.4045	0.846	0.7273	-0.325
Mof_Co	Co	0.20951	0.86287	0.96752	1.159
Mof_O 	O 	0.23585	0.6092	0.8851	-0.453
Mof_O 	O 	0.1683	0.7649	0.8357	-0.428
Mof_O 	O 	0.23294	0.4229	0.5698	-0.458
Mof_O 	O 	0.16759	0.2632	0.5131	-0.428
Mof_N 	N 	0.01251	0.5243	0.5424	-0.082
Mof_N 	N 	0.1619	0.0316	0.9467	-0.236
Mof_C 	C 	0.1574	0.4485	0.5975	-0.067
Mof_C 	C 	0.1871	0.5199	0.6861	-0
Mof_H 	H 	0.2259	0.5195	0.7196	0.042
Mof_C 	C 	0.0995	0.4462	0.5483	-0.06
Mof_H 	H 	0.0796	0.3955	0.4908	0.08
Mof_C 	C 	0.1903	0.6615	0.8224	0.361
Mof_C 	C 	0.1588	0.5912	0.7243	-0.069
Mof_C 	C 	0.1009	0.5945	0.6741	-0.056
Mof_H 	H 	0.0818	0.6446	0.6985	0.074
Mof_C 	C 	0.0719	0.5211	0.5866	0.095
Mof_C 	C 	0.1885	0.3712	0.5567	0.38
Mof_N 	N 	0.109	0.2105	0.8889	-0.186
Mof_C 	C 	0.1435	0.1213	0.8784	0.131
Mof_C 	C 	0.1421	0.0635	0.0086	-0.021
Mof_H 	H 	0.1487	0.0153	0.0648	0.038
Mof_C 	C 	0.1113	0.1773	0.9747	0.05
Mof_H 	H 	0.0946	0.2241	0.0051	0.023
Mof_C 	C 	0.1649	0.1392	0.803	-0.103
Mof_H 	H 	0.1747	0.0516	0.7883	0.059
Mof_H 	H 	0.1352	0.1764	0.7417	0.084
Mof_C 	C 	0.2184	0.2373	0.8454	-0.413
Mof_H 	H 	0.2464	0.2061	0.9095	0.152
Mof_H 	H 	0.2332	0.2368	0.801	0.159
Mof_H 	H 	0.2076	0.3275	0.851	0.157
Mof_C 	C 	0.0319	0.3753	0.8125	0.194
Mof_C 	C 	0.0942	0.3507	0.8338	2.24
Mof_C 	C 	0.0075	0.2723	0.7909	0.401
Mof_C 	C 	0.9416	0.299	0.6913	-1.785
Mof_H 	H 	0.9486	0.3608	0.6505	0.225
Mof_H 	H 	0.9239	0.3529	0.7201	-0.251
Mof_H 	H 	0.0131	0.4396	0.7589	-0.017
Mof_H 	H 	0.0328	0.4121	0.8711	-0.099
Mof_H 	H 	0.0272	0.2066	0.7735	0.21
Mof_H 	H 	0.0048	0.2375	0.8467	-0.061
Mof_H 	H 	0.1192	0.4212	0.8756	-0.715
Mof_H 	H 	0.0955	0.346	0.7727	-0.325
Mof_Co	Co	0.70951	0.36287	0.96752	1.16
Mof_O 	O 	0.73585	0.1092	0.8851	-0.453
Mof_O 	O 	0.6683	0.2649	0.8357	-0.427
Mof_O 	O 	0.73294	0.9229	0.5698	-0.458
Mof_O 	O 	0.66759	0.7632	0.5131	-0.428
Mof_N 	N 	0.51251	0.0243	0.5424	-0.082
Mof_N 	N 	0.6619	0.5316	0.9467	-0.237
Mof_C 	C 	0.6574	0.9485	0.5975	-0.067
Mof_C 	C 	0.6871	0.0199	0.6861	0
Mof_H 	H 	0.7259	0.0195	0.7196	0.042
Mof_C 	C 	0.5995	0.9462	0.5483	-0.06
Mof_H 	H 	0.5796	0.8955	0.4908	0.08
Mof_C 	C 	0.6903	0.1615	0.8224	0.361
Mof_C 	C 	0.6588	0.0912	0.7243	-0.069
Mof_C 	C 	0.6009	0.0945	0.6741	-0.056
Mof_H 	H 	0.5818	0.1446	0.6985	0.074
Mof_C 	C 	0.5719	0.0211	0.5866	0.095
Mof_C 	C 	0.6885	0.8712	0.5567	0.381
Mof_N 	N 	0.609	0.7105	0.8889	-0.185
Mof_C 	C 	0.6435	0.6213	0.8784	0.131
Mof_C 	C 	0.6421	0.5635	0.0086	-0.016
Mof_H 	H 	0.6487	0.5153	0.0648	0.037
Mof_C 	C 	0.6113	0.6773	0.9747	0.045
Mof_H 	H 	0.5946	0.7241	0.0051	0.025
Mof_C 	C 	0.6649	0.6392	0.803	-0.103
Mof_H 	H 	0.6747	0.5516	0.7883	0.059
Mof_H 	H 	0.6352	0.6764	0.7417	0.084
Mof_C 	C 	0.7184	0.7373	0.8454	-0.412
Mof_H 	H 	0.7464	0.7061	0.9095	0.152
Mof_H 	H 	0.7332	0.7368	0.801	0.158
Mof_H 	H 	0.7076	0.8275	0.851	0.156
Mof_C 	C 	0.5319	0.8753	0.8125	0.195
Mof_C 	C 	0.5942	0.8507	0.8338	2.237
Mof_C 	C 	0.5075	0.7723	0.7909	0.401
Mof_C 	C 	0.4416	0.799	0.6913	-1.785
Mof_H 	H 	0.4486	0.8608	0.6505	0.225
Mof_H 	H 	0.4239	0.8529	0.7201	-0.251
Mof_H 	H 	0.5131	0.9396	0.7589	-0.017
Mof_H 	H 	0.5328	0.9121	0.8711	-0.1
Mof_H 	H 	0.5272	0.7066	0.7735	0.21
Mof_H 	H 	0.5048	0.7375	0.8467	-0.062
Mof_H 	H 	0.6192	0.9212	0.8756	-0.714
Mof_H 	H 	0.5955	0.846	0.7727	-0.325
_end
