# CIF file generated by openbabel 3.1.0, see https://openbabel.org
data_I
_chemical_name_common 'CEZFIY_clean'
_cell_length_a 14.1744
_cell_length_b 25.9151
_cell_length_c 20.6042
_cell_angle_alpha 90
_cell_angle_beta 90
_cell_angle_gamma 90
_space_group_name_H-M_alt 'P 1'
_space_group_name_Hall 'P 1'
loop_
    _symmetry_equiv_pos_as_xyz
    x,y,z
loop_
    _atom_site_label
    _atom_site_type_symbol
    _atom_site_fract_x
    _atom_site_fract_y
    _atom_site_fract_z
    _atom_site_occupancy
    Zn1      Zn       0.75846    0.90040    0.62308    1.000
    Zn2      Zn       0.74154    0.59960    0.12308    1.000
    Zn3      Zn       0.24154    0.90040    0.12308    1.000
    Zn4      Zn       0.25846    0.59960    0.62308    1.000
    H1       H        0.56650    0.91880    0.56570    1.000
    H2       H        0.45300    0.98310    0.56260    1.000
    H3       H        0.61120    0.06580    0.68820    1.000
    H4       H        0.72040    0.99960    0.68850    1.000
    H5       H        0.40400    0.06850    0.58670    1.000
    H6       H        0.40400    0.06810    0.66420    1.000
    H7       H        0.52560    0.25080    0.50640    1.000
    H8       H        0.50890    0.25680    0.73860    1.000
    H9       H        0.62540    0.43910    0.57810    1.000
    H10      H        0.62530    0.44030    0.65560    1.000
    H11      H        0.56260    0.51920    0.69000    1.000
    H12      H        0.44470    0.58150    0.68790    1.000
    H13      H        0.32100    0.51300    0.54050    1.000
    H14      H        0.43290    0.44790    0.54020    1.000
    H15      H        0.75990    0.77310    0.75000    1.000
    H16      H        0.75680    0.68170    0.78550    1.000
    H17      H        0.75990    0.62100    0.86850    1.000
    H18      H        0.77580    0.73510    0.00340    1.000
    H19      H        0.78350    0.82690    0.96740    1.000
    H20      H        0.78340    0.88740    0.88370    1.000
    H21      H        0.93350    0.58120    0.06570    1.000
    H22      H        0.04700    0.51690    0.06260    1.000
    H23      H        0.88880    0.43420    0.18820    1.000
    H24      H        0.77960    0.50040    0.18850    1.000
    H25      H        0.09600    0.43150    0.08670    1.000
    H26      H        0.09600    0.43190    0.16420    1.000
    H27      H        0.97440    0.24920    0.00640    1.000
    H28      H        0.99110    0.24320    0.23860    1.000
    H29      H        0.87460    0.06090    0.07810    1.000
    H30      H        0.87470    0.05970    0.15560    1.000
    H31      H        0.93740    0.98080    0.19000    1.000
    H32      H        0.05530    0.91850    0.18790    1.000
    H33      H        0.17900    0.98700    0.04050    1.000
    H34      H        0.06710    0.05210    0.04020    1.000
    H35      H        0.74010    0.72690    0.25000    1.000
    H36      H        0.74320    0.81830    0.28550    1.000
    H37      H        0.74010    0.87900    0.36850    1.000
    H38      H        0.72420    0.76490    0.50340    1.000
    H39      H        0.71650    0.67310    0.46740    1.000
    H40      H        0.71660    0.61260    0.38370    1.000
    H41      H        0.43350    0.91880    0.06570    1.000
    H42      H        0.54700    0.98310    0.06260    1.000
    H43      H        0.38880    0.06580    0.18820    1.000
    H44      H        0.27960    0.99960    0.18850    1.000
    H45      H        0.59600    0.06850    0.08670    1.000
    H46      H        0.59600    0.06810    0.16420    1.000
    H47      H        0.47440    0.25080    0.00640    1.000
    H48      H        0.49110    0.25680    0.23860    1.000
    H49      H        0.37460    0.43910    0.07810    1.000
    H50      H        0.37470    0.44030    0.15560    1.000
    H51      H        0.43740    0.51920    0.19000    1.000
    H52      H        0.55530    0.58150    0.18790    1.000
    H53      H        0.67900    0.51300    0.04050    1.000
    H54      H        0.56710    0.44790    0.04020    1.000
    H55      H        0.24010    0.77310    0.25000    1.000
    H56      H        0.24320    0.68170    0.28550    1.000
    H57      H        0.24010    0.62100    0.36850    1.000
    H58      H        0.22420    0.73510    0.50340    1.000
    H59      H        0.21650    0.82690    0.46740    1.000
    H60      H        0.21660    0.88740    0.38370    1.000
    H61      H        0.06650    0.58120    0.56570    1.000
    H62      H        0.95300    0.51690    0.56260    1.000
    H63      H        0.11120    0.43420    0.68820    1.000
    H64      H        0.22040    0.50040    0.68850    1.000
    H65      H        0.90400    0.43150    0.58670    1.000
    H66      H        0.90400    0.43190    0.66420    1.000
    H67      H        0.02560    0.24920    0.50640    1.000
    H68      H        0.00890    0.24320    0.73860    1.000
    H69      H        0.12540    0.06090    0.57810    1.000
    H70      H        0.12530    0.05970    0.65560    1.000
    H71      H        0.06260    0.98080    0.69000    1.000
    H72      H        0.94470    0.91850    0.68790    1.000
    H73      H        0.82100    0.98700    0.54050    1.000
    H74      H        0.93290    0.05210    0.54020    1.000
    H75      H        0.25990    0.72690    0.75000    1.000
    H76      H        0.25680    0.81830    0.78550    1.000
    H77      H        0.25990    0.87900    0.86850    1.000
    H78      H        0.27580    0.76490    0.00340    1.000
    H79      H        0.28350    0.67310    0.96740    1.000
    H80      H        0.28340    0.61260    0.88370    1.000
    C1       C        0.57533    0.94901    0.59106    1.000
    C2       C        0.50754    0.98728    0.58888    1.000
    C3       C        0.51926    0.03172    0.62513    1.000
    C4       C        0.60046    0.03587    0.66273    1.000
    C5       C        0.66515    0.99626    0.66273    1.000
    C6       C        0.44433    0.07289    0.62548    1.000
    C7       C        0.49778    0.15353    0.56933    1.000
    C8       C        0.51014    0.20828    0.58999    1.000
    C9       C        0.52177    0.25200    0.55236    1.000
    C10      C        0.52739    0.29762    0.58699    1.000
    C11      C        0.54171    0.35127    0.56293    1.000
    C12      C        0.53863    0.35402    0.67521    1.000
    C13      C        0.52351    0.29925    0.65484    1.000
    C14      C        0.51159    0.25563    0.69256    1.000
    C15      C        0.50394    0.21011    0.65768    1.000
    C16      C        0.48446    0.15659    0.68116    1.000
    C17      C        0.58509    0.43490    0.61695    1.000
    C18      C        0.50909    0.47587    0.61590    1.000
    C19      C        0.51262    0.51672    0.65947    1.000
    C20      C        0.44226    0.55381    0.65779    1.000
    C21      C        0.36988    0.51366    0.57200    1.000
    C22      C        0.43672    0.47497    0.57124    1.000
    C23      C        0.77511    0.87397    0.75350    1.000
    C24      C        0.77314    0.83502    0.80802    1.000
    C25      C        0.76544    0.78367    0.79400    1.000
    C26      C        0.76547    0.74553    0.84404    1.000
    C27      C        0.76085    0.69263    0.82938    1.000
    C28      C        0.76222    0.65671    0.87852    1.000
    C29      C        0.76716    0.67315    0.94479    1.000
    C30      C        0.77215    0.72450    0.95932    1.000
    C31      C        0.77198    0.76264    0.90896    1.000
    C32      C        0.77895    0.81584    0.92354    1.000
    C33      C        0.77920    0.85163    0.87396    1.000
    C34      C        0.76523    0.63275    0.99762    1.000
    C35      C        0.92467    0.55099    0.09106    1.000
    C36      C        0.99246    0.51272    0.08888    1.000
    C37      C        0.98074    0.46828    0.12513    1.000
    C38      C        0.89954    0.46413    0.16273    1.000
    C39      C        0.83485    0.50374    0.16273    1.000
    C40      C        0.05567    0.42711    0.12548    1.000
    C41      C        0.00222    0.34647    0.06933    1.000
    C42      C        0.98986    0.29172    0.08999    1.000
    C43      C        0.97823    0.24800    0.05236    1.000
    C44      C        0.97261    0.20238    0.08699    1.000
    C45      C        0.95829    0.14873    0.06293    1.000
    C46      C        0.96137    0.14598    0.17521    1.000
    C47      C        0.97649    0.20075    0.15484    1.000
    C48      C        0.98841    0.24437    0.19256    1.000
    C49      C        0.99606    0.28989    0.15768    1.000
    C50      C        0.01554    0.34341    0.18116    1.000
    C51      C        0.91491    0.06510    0.11695    1.000
    C52      C        0.99091    0.02413    0.11590    1.000
    C53      C        0.98738    0.98328    0.15947    1.000
    C54      C        0.05774    0.94619    0.15779    1.000
    C55      C        0.13012    0.98634    0.07200    1.000
    C56      C        0.06328    0.02503    0.07124    1.000
    C57      C        0.72489    0.62603    0.25350    1.000
    C58      C        0.72686    0.66498    0.30802    1.000
    C59      C        0.73456    0.71633    0.29400    1.000
    C60      C        0.73453    0.75447    0.34404    1.000
    C61      C        0.73915    0.80737    0.32938    1.000
    C62      C        0.73778    0.84329    0.37852    1.000
    C63      C        0.73284    0.82685    0.44479    1.000
    C64      C        0.72785    0.77550    0.45932    1.000
    C65      C        0.72802    0.73736    0.40896    1.000
    C66      C        0.72105    0.68416    0.42354    1.000
    C67      C        0.72080    0.64837    0.37396    1.000
    C68      C        0.73477    0.86725    0.49762    1.000
    C69      C        0.42467    0.94901    0.09106    1.000
    C70      C        0.49246    0.98728    0.08888    1.000
    C71      C        0.48074    0.03172    0.12513    1.000
    C72      C        0.39954    0.03587    0.16273    1.000
    C73      C        0.33485    0.99626    0.16273    1.000
    C74      C        0.55567    0.07289    0.12548    1.000
    C75      C        0.50222    0.15353    0.06933    1.000
    C76      C        0.48986    0.20828    0.08999    1.000
    C77      C        0.47823    0.25200    0.05236    1.000
    C78      C        0.47261    0.29762    0.08699    1.000
    C79      C        0.45829    0.35127    0.06293    1.000
    C80      C        0.46137    0.35402    0.17521    1.000
    C81      C        0.47649    0.29925    0.15484    1.000
    C82      C        0.48841    0.25563    0.19256    1.000
    C83      C        0.49606    0.21011    0.15768    1.000
    C84      C        0.51554    0.15659    0.18116    1.000
    C85      C        0.41491    0.43490    0.11695    1.000
    C86      C        0.49091    0.47587    0.11590    1.000
    C87      C        0.48738    0.51672    0.15947    1.000
    C88      C        0.55774    0.55381    0.15779    1.000
    C89      C        0.63012    0.51366    0.07200    1.000
    C90      C        0.56328    0.47497    0.07124    1.000
    C91      C        0.22489    0.87397    0.25350    1.000
    C92      C        0.22686    0.83502    0.30802    1.000
    C93      C        0.23456    0.78367    0.29400    1.000
    C94      C        0.23453    0.74553    0.34404    1.000
    C95      C        0.23915    0.69263    0.32938    1.000
    C96      C        0.23778    0.65671    0.37852    1.000
    C97      C        0.23284    0.67315    0.44479    1.000
    C98      C        0.22785    0.72450    0.45932    1.000
    C99      C        0.22802    0.76264    0.40896    1.000
    C100     C        0.22105    0.81584    0.42354    1.000
    C101     C        0.22080    0.85163    0.37396    1.000
    C102     C        0.23477    0.63275    0.49762    1.000
    C103     C        0.07533    0.55099    0.59106    1.000
    C104     C        0.00754    0.51272    0.58888    1.000
    C105     C        0.01926    0.46828    0.62513    1.000
    C106     C        0.10046    0.46413    0.66273    1.000
    C107     C        0.16515    0.50374    0.66273    1.000
    C108     C        0.94433    0.42711    0.62548    1.000
    C109     C        0.99778    0.34647    0.56933    1.000
    C110     C        0.01014    0.29172    0.58999    1.000
    C111     C        0.02177    0.24800    0.55236    1.000
    C112     C        0.02739    0.20238    0.58699    1.000
    C113     C        0.04171    0.14873    0.56293    1.000
    C114     C        0.03863    0.14598    0.67521    1.000
    C115     C        0.02351    0.20075    0.65484    1.000
    C116     C        0.01159    0.24437    0.69256    1.000
    C117     C        0.00394    0.28989    0.65768    1.000
    C118     C        0.98446    0.34341    0.68116    1.000
    C119     C        0.08509    0.06510    0.61695    1.000
    C120     C        0.00909    0.02413    0.61590    1.000
    C121     C        0.01262    0.98328    0.65947    1.000
    C122     C        0.94226    0.94619    0.65779    1.000
    C123     C        0.86988    0.98634    0.57200    1.000
    C124     C        0.93672    0.02503    0.57124    1.000
    C125     C        0.27511    0.62603    0.75350    1.000
    C126     C        0.27314    0.66498    0.80802    1.000
    C127     C        0.26544    0.71633    0.79400    1.000
    C128     C        0.26547    0.75447    0.84404    1.000
    C129     C        0.26085    0.80737    0.82938    1.000
    C130     C        0.26222    0.84329    0.87852    1.000
    C131     C        0.26716    0.82685    0.94479    1.000
    C132     C        0.27215    0.77550    0.95932    1.000
    C133     C        0.27198    0.73736    0.90896    1.000
    C134     C        0.27895    0.68416    0.92354    1.000
    C135     C        0.27920    0.64837    0.87396    1.000
    C136     C        0.26523    0.86725    0.99762    1.000
    N1       N        0.65301    0.95306    0.62757    1.000
    N2       N        0.48184    0.12543    0.62592    1.000
    N3       N        0.54847    0.38233    0.61819    1.000
    N4       N        0.37130    0.55200    0.61537    1.000
    N5       N        0.84699    0.54694    0.12757    1.000
    N6       N        0.01816    0.37457    0.12592    1.000
    N7       N        0.95153    0.11767    0.11819    1.000
    N8       N        0.12870    0.94800    0.11537    1.000
    N9       N        0.34699    0.95306    0.12757    1.000
    N10      N        0.51816    0.12543    0.12592    1.000
    N11      N        0.45153    0.38233    0.11819    1.000
    N12      N        0.62870    0.55200    0.11537    1.000
    N13      N        0.15301    0.54694    0.62757    1.000
    N14      N        0.98184    0.37457    0.62592    1.000
    N15      N        0.04847    0.11767    0.61819    1.000
    N16      N        0.87130    0.94800    0.61537    1.000
    O1       O        0.50040    0.13568    0.51519    1.000
    O2       O        0.54698    0.36654    0.50764    1.000
    O3       O        0.54381    0.37136    0.72952    1.000
    O4       O        0.47159    0.14181    0.73581    1.000
    O5       O        0.77211    0.85458    0.69615    1.000
    O6       O        0.77985    0.91981    0.76597    1.000
    O7       O        0.76602    0.58691    0.98294    1.000
    O8       O        0.76207    0.65044    0.05611    1.000
    O9       O        0.99960    0.36432    0.01519    1.000
    O10      O        0.95302    0.13346    0.00764    1.000
    O11      O        0.95619    0.12864    0.22952    1.000
    O12      O        0.02841    0.35819    0.23581    1.000
    O13      O        0.72789    0.64542    0.19615    1.000
    O14      O        0.72015    0.58019    0.26597    1.000
    O15      O        0.73398    0.91309    0.48294    1.000
    O16      O        0.73793    0.84956    0.55611    1.000
    O17      O        0.49960    0.13568    0.01519    1.000
    O18      O        0.45302    0.36654    0.00764    1.000
    O19      O        0.45619    0.37136    0.22952    1.000
    O20      O        0.52841    0.14181    0.23581    1.000
    O21      O        0.22789    0.85458    0.19615    1.000
    O22      O        0.22015    0.91981    0.26597    1.000
    O23      O        0.23398    0.58691    0.48294    1.000
    O24      O        0.23793    0.65044    0.55611    1.000
    O25      O        0.00040    0.36432    0.51519    1.000
    O26      O        0.04698    0.13346    0.50764    1.000
    O27      O        0.04381    0.12864    0.72952    1.000
    O28      O        0.97159    0.35819    0.73581    1.000
    O29      O        0.27211    0.64542    0.69615    1.000
    O30      O        0.27985    0.58019    0.76597    1.000
    O31      O        0.26602    0.91309    0.98294    1.000
    O32      O        0.26207    0.84956    0.05611    1.000
    Zn5      Zn       0.75846    0.09960    0.87692    1.000
    Zn6      Zn       0.74154    0.40040    0.37692    1.000
    Zn7      Zn       0.24154    0.09960    0.37692    1.000
    Zn8      Zn       0.25846    0.40040    0.87692    1.000
    H81      H        0.56650    0.08120    0.93430    1.000
    H82      H        0.45300    0.01690    0.93740    1.000
    H83      H        0.61120    0.93420    0.81180    1.000
    H84      H        0.72040    0.00040    0.81150    1.000
    H85      H        0.40400    0.93150    0.91330    1.000
    H86      H        0.40400    0.93190    0.83580    1.000
    H87      H        0.52560    0.74920    0.99360    1.000
    H88      H        0.50890    0.74320    0.76140    1.000
    H89      H        0.62540    0.56090    0.92190    1.000
    H90      H        0.62530    0.55970    0.84440    1.000
    H91      H        0.56260    0.48080    0.81000    1.000
    H92      H        0.44470    0.41850    0.81210    1.000
    H93      H        0.32100    0.48700    0.95950    1.000
    H94      H        0.43290    0.55210    0.95980    1.000
    H95      H        0.75990    0.22690    0.75000    1.000
    H96      H        0.75680    0.31830    0.71450    1.000
    H97      H        0.75990    0.37900    0.63150    1.000
    H98      H        0.77580    0.26490    0.49660    1.000
    H99      H        0.78350    0.17310    0.53260    1.000
    H100     H        0.78340    0.11260    0.61630    1.000
    H101     H        0.93350    0.41880    0.43430    1.000
    H102     H        0.04700    0.48310    0.43740    1.000
    H103     H        0.88880    0.56580    0.31180    1.000
    H104     H        0.77960    0.49960    0.31150    1.000
    H105     H        0.09600    0.56850    0.41330    1.000
    H106     H        0.09600    0.56810    0.33580    1.000
    H107     H        0.97440    0.75080    0.49360    1.000
    H108     H        0.99110    0.75680    0.26140    1.000
    H109     H        0.87460    0.93910    0.42190    1.000
    H110     H        0.87470    0.94030    0.34440    1.000
    H111     H        0.93740    0.01920    0.31000    1.000
    H112     H        0.05530    0.08150    0.31210    1.000
    H113     H        0.17900    0.01300    0.45950    1.000
    H114     H        0.06710    0.94790    0.45980    1.000
    H115     H        0.74010    0.27310    0.25000    1.000
    H116     H        0.74320    0.18170    0.21450    1.000
    H117     H        0.74010    0.12100    0.13150    1.000
    H118     H        0.72420    0.23510    0.99660    1.000
    H119     H        0.71650    0.32690    0.03260    1.000
    H120     H        0.71660    0.38740    0.11630    1.000
    H121     H        0.43350    0.08120    0.43430    1.000
    H122     H        0.54700    0.01690    0.43740    1.000
    H123     H        0.38880    0.93420    0.31180    1.000
    H124     H        0.27960    0.00040    0.31150    1.000
    H125     H        0.59600    0.93150    0.41330    1.000
    H126     H        0.59600    0.93190    0.33580    1.000
    H127     H        0.47440    0.74920    0.49360    1.000
    H128     H        0.49110    0.74320    0.26140    1.000
    H129     H        0.37460    0.56090    0.42190    1.000
    H130     H        0.37470    0.55970    0.34440    1.000
    H131     H        0.43740    0.48080    0.31000    1.000
    H132     H        0.55530    0.41850    0.31210    1.000
    H133     H        0.67900    0.48700    0.45950    1.000
    H134     H        0.56710    0.55210    0.45980    1.000
    H135     H        0.24010    0.22690    0.25000    1.000
    H136     H        0.24320    0.31830    0.21450    1.000
    H137     H        0.24010    0.37900    0.13150    1.000
    H138     H        0.22420    0.26490    0.99660    1.000
    H139     H        0.21650    0.17310    0.03260    1.000
    H140     H        0.21660    0.11260    0.11630    1.000
    H141     H        0.06650    0.41880    0.93430    1.000
    H142     H        0.95300    0.48310    0.93740    1.000
    H143     H        0.11120    0.56580    0.81180    1.000
    H144     H        0.22040    0.49960    0.81150    1.000
    H145     H        0.90400    0.56850    0.91330    1.000
    H146     H        0.90400    0.56810    0.83580    1.000
    H147     H        0.02560    0.75080    0.99360    1.000
    H148     H        0.00890    0.75680    0.76140    1.000
    H149     H        0.12540    0.93910    0.92190    1.000
    H150     H        0.12530    0.94030    0.84440    1.000
    H151     H        0.06260    0.01920    0.81000    1.000
    H152     H        0.94470    0.08150    0.81210    1.000
    H153     H        0.82100    0.01300    0.95950    1.000
    H154     H        0.93290    0.94790    0.95980    1.000
    H155     H        0.25990    0.27310    0.75000    1.000
    H156     H        0.25680    0.18170    0.71450    1.000
    H157     H        0.25990    0.12100    0.63150    1.000
    H158     H        0.27580    0.23510    0.49660    1.000
    H159     H        0.28350    0.32690    0.53260    1.000
    H160     H        0.28340    0.38740    0.61630    1.000
    C137     C        0.57533    0.05099    0.90894    1.000
    C138     C        0.50754    0.01272    0.91112    1.000
    C139     C        0.51926    0.96828    0.87487    1.000
    C140     C        0.60046    0.96413    0.83727    1.000
    C141     C        0.66515    0.00374    0.83727    1.000
    C142     C        0.44433    0.92711    0.87452    1.000
    C143     C        0.49778    0.84647    0.93067    1.000
    C144     C        0.51014    0.79172    0.91001    1.000
    C145     C        0.52177    0.74800    0.94764    1.000
    C146     C        0.52739    0.70238    0.91301    1.000
    C147     C        0.54171    0.64873    0.93707    1.000
    C148     C        0.53863    0.64598    0.82479    1.000
    C149     C        0.52351    0.70075    0.84516    1.000
    C150     C        0.51159    0.74437    0.80744    1.000
    C151     C        0.50394    0.78989    0.84232    1.000
    C152     C        0.48446    0.84341    0.81884    1.000
    C153     C        0.58509    0.56510    0.88305    1.000
    C154     C        0.50909    0.52413    0.88410    1.000
    C155     C        0.51262    0.48328    0.84053    1.000
    C156     C        0.44226    0.44619    0.84221    1.000
    C157     C        0.36988    0.48634    0.92800    1.000
    C158     C        0.43672    0.52503    0.92876    1.000
    C159     C        0.77511    0.12603    0.74650    1.000
    C160     C        0.77314    0.16498    0.69198    1.000
    C161     C        0.76544    0.21633    0.70600    1.000
    C162     C        0.76547    0.25447    0.65596    1.000
    C163     C        0.76085    0.30737    0.67062    1.000
    C164     C        0.76222    0.34329    0.62148    1.000
    C165     C        0.76716    0.32685    0.55521    1.000
    C166     C        0.77215    0.27550    0.54068    1.000
    C167     C        0.77198    0.23736    0.59104    1.000
    C168     C        0.77895    0.18416    0.57646    1.000
    C169     C        0.77920    0.14837    0.62604    1.000
    C170     C        0.76523    0.36725    0.50238    1.000
    C171     C        0.92467    0.44901    0.40894    1.000
    C172     C        0.99246    0.48728    0.41112    1.000
    C173     C        0.98074    0.53172    0.37487    1.000
    C174     C        0.89954    0.53587    0.33727    1.000
    C175     C        0.83485    0.49626    0.33727    1.000
    C176     C        0.05567    0.57289    0.37452    1.000
    C177     C        0.00222    0.65353    0.43067    1.000
    C178     C        0.98986    0.70828    0.41001    1.000
    C179     C        0.97823    0.75200    0.44764    1.000
    C180     C        0.97261    0.79762    0.41301    1.000
    C181     C        0.95829    0.85127    0.43707    1.000
    C182     C        0.96137    0.85402    0.32479    1.000
    C183     C        0.97649    0.79925    0.34516    1.000
    C184     C        0.98841    0.75563    0.30744    1.000
    C185     C        0.99606    0.71011    0.34232    1.000
    C186     C        0.01554    0.65659    0.31884    1.000
    C187     C        0.91491    0.93490    0.38305    1.000
    C188     C        0.99091    0.97587    0.38410    1.000
    C189     C        0.98738    0.01672    0.34053    1.000
    C190     C        0.05774    0.05381    0.34221    1.000
    C191     C        0.13012    0.01366    0.42800    1.000
    C192     C        0.06328    0.97497    0.42876    1.000
    C193     C        0.72489    0.37397    0.24650    1.000
    C194     C        0.72686    0.33502    0.19198    1.000
    C195     C        0.73456    0.28367    0.20600    1.000
    C196     C        0.73453    0.24553    0.15596    1.000
    C197     C        0.73915    0.19263    0.17062    1.000
    C198     C        0.73778    0.15671    0.12148    1.000
    C199     C        0.73284    0.17315    0.05521    1.000
    C200     C        0.72785    0.22450    0.04068    1.000
    C201     C        0.72802    0.26264    0.09104    1.000
    C202     C        0.72105    0.31584    0.07646    1.000
    C203     C        0.72080    0.35163    0.12604    1.000
    C204     C        0.73477    0.13275    0.00238    1.000
    C205     C        0.42467    0.05099    0.40894    1.000
    C206     C        0.49246    0.01272    0.41112    1.000
    C207     C        0.48074    0.96828    0.37487    1.000
    C208     C        0.39954    0.96413    0.33727    1.000
    C209     C        0.33485    0.00374    0.33727    1.000
    C210     C        0.55567    0.92711    0.37452    1.000
    C211     C        0.50222    0.84647    0.43067    1.000
    C212     C        0.48986    0.79172    0.41001    1.000
    C213     C        0.47823    0.74800    0.44764    1.000
    C214     C        0.47261    0.70238    0.41301    1.000
    C215     C        0.45829    0.64873    0.43707    1.000
    C216     C        0.46137    0.64598    0.32479    1.000
    C217     C        0.47649    0.70075    0.34516    1.000
    C218     C        0.48841    0.74437    0.30744    1.000
    C219     C        0.49606    0.78989    0.34232    1.000
    C220     C        0.51554    0.84341    0.31884    1.000
    C221     C        0.41491    0.56510    0.38305    1.000
    C222     C        0.49091    0.52413    0.38410    1.000
    C223     C        0.48738    0.48328    0.34053    1.000
    C224     C        0.55774    0.44619    0.34221    1.000
    C225     C        0.63012    0.48634    0.42800    1.000
    C226     C        0.56328    0.52503    0.42876    1.000
    C227     C        0.22489    0.12603    0.24650    1.000
    C228     C        0.22686    0.16498    0.19198    1.000
    C229     C        0.23456    0.21633    0.20600    1.000
    C230     C        0.23453    0.25447    0.15596    1.000
    C231     C        0.23915    0.30737    0.17062    1.000
    C232     C        0.23778    0.34329    0.12148    1.000
    C233     C        0.23284    0.32685    0.05521    1.000
    C234     C        0.22785    0.27550    0.04068    1.000
    C235     C        0.22802    0.23736    0.09104    1.000
    C236     C        0.22105    0.18416    0.07646    1.000
    C237     C        0.22080    0.14837    0.12604    1.000
    C238     C        0.23477    0.36725    0.00238    1.000
    C239     C        0.07533    0.44901    0.90894    1.000
    C240     C        0.00754    0.48728    0.91112    1.000
    C241     C        0.01926    0.53172    0.87487    1.000
    C242     C        0.10046    0.53587    0.83727    1.000
    C243     C        0.16515    0.49626    0.83727    1.000
    C244     C        0.94433    0.57289    0.87452    1.000
    C245     C        0.99778    0.65353    0.93067    1.000
    C246     C        0.01014    0.70828    0.91001    1.000
    C247     C        0.02177    0.75200    0.94764    1.000
    C248     C        0.02739    0.79762    0.91301    1.000
    C249     C        0.04171    0.85127    0.93707    1.000
    C250     C        0.03863    0.85402    0.82479    1.000
    C251     C        0.02351    0.79925    0.84516    1.000
    C252     C        0.01159    0.75563    0.80744    1.000
    C253     C        0.00394    0.71011    0.84232    1.000
    C254     C        0.98446    0.65659    0.81884    1.000
    C255     C        0.08509    0.93490    0.88305    1.000
    C256     C        0.00909    0.97587    0.88410    1.000
    C257     C        0.01262    0.01672    0.84053    1.000
    C258     C        0.94226    0.05381    0.84221    1.000
    C259     C        0.86988    0.01366    0.92800    1.000
    C260     C        0.93672    0.97497    0.92876    1.000
    C261     C        0.27511    0.37397    0.74650    1.000
    C262     C        0.27314    0.33502    0.69198    1.000
    C263     C        0.26544    0.28367    0.70600    1.000
    C264     C        0.26547    0.24553    0.65596    1.000
    C265     C        0.26085    0.19263    0.67062    1.000
    C266     C        0.26222    0.15671    0.62148    1.000
    C267     C        0.26716    0.17315    0.55521    1.000
    C268     C        0.27215    0.22450    0.54068    1.000
    C269     C        0.27198    0.26264    0.59104    1.000
    C270     C        0.27895    0.31584    0.57646    1.000
    C271     C        0.27920    0.35163    0.62604    1.000
    C272     C        0.26523    0.13275    0.50238    1.000
    N17      N        0.65301    0.04694    0.87243    1.000
    N18      N        0.48184    0.87457    0.87408    1.000
    N19      N        0.54847    0.61767    0.88181    1.000
    N20      N        0.37130    0.44800    0.88463    1.000
    N21      N        0.84699    0.45306    0.37243    1.000
    N22      N        0.01816    0.62543    0.37408    1.000
    N23      N        0.95153    0.88233    0.38181    1.000
    N24      N        0.12870    0.05200    0.38463    1.000
    N25      N        0.34699    0.04694    0.37243    1.000
    N26      N        0.51816    0.87457    0.37408    1.000
    N27      N        0.45153    0.61767    0.38181    1.000
    N28      N        0.62870    0.44800    0.38463    1.000
    N29      N        0.15301    0.45306    0.87243    1.000
    N30      N        0.98184    0.62543    0.87408    1.000
    N31      N        0.04847    0.88233    0.88181    1.000
    N32      N        0.87130    0.05200    0.88463    1.000
    O33      O        0.50040    0.86432    0.98481    1.000
    O34      O        0.54698    0.63346    0.99236    1.000
    O35      O        0.54381    0.62864    0.77048    1.000
    O36      O        0.47159    0.85819    0.76419    1.000
    O37      O        0.77211    0.14542    0.80385    1.000
    O38      O        0.77985    0.08019    0.73403    1.000
    O39      O        0.76602    0.41309    0.51706    1.000
    O40      O        0.76207    0.34956    0.44389    1.000
    O41      O        0.99960    0.63568    0.48481    1.000
    O42      O        0.95302    0.86654    0.49236    1.000
    O43      O        0.95619    0.87136    0.27048    1.000
    O44      O        0.02841    0.64181    0.26419    1.000
    O45      O        0.72789    0.35458    0.30385    1.000
    O46      O        0.72015    0.41981    0.23403    1.000
    O47      O        0.73398    0.08691    0.01706    1.000
    O48      O        0.73793    0.15044    0.94389    1.000
    O49      O        0.49960    0.86432    0.48481    1.000
    O50      O        0.45302    0.63346    0.49236    1.000
    O51      O        0.45619    0.62864    0.27048    1.000
    O52      O        0.52841    0.85819    0.26419    1.000
    O53      O        0.22789    0.14542    0.30385    1.000
    O54      O        0.22015    0.08019    0.23403    1.000
    O55      O        0.23398    0.41309    0.01706    1.000
    O56      O        0.23793    0.34956    0.94389    1.000
    O57      O        0.00040    0.63568    0.98481    1.000
    O58      O        0.04698    0.86654    0.99236    1.000
    O59      O        0.04381    0.87136    0.77048    1.000
    O60      O        0.97159    0.64181    0.76419    1.000
    O61      O        0.27211    0.35458    0.80385    1.000
    O62      O        0.27985    0.41981    0.73403    1.000
    O63      O        0.26602    0.08691    0.51706    1.000
    O64      O        0.26207    0.15044    0.44389    1.000
