# CIF file generated by openbabel 3.1.0, see https://openbabel.org
data_I
_chemical_name_common 'image0'
_cell_length_a 12.7732
_cell_length_b 12.7732
_cell_length_c 11.645
_cell_angle_alpha 90
_cell_angle_beta 90
_cell_angle_gamma 90
_space_group_name_H-M_alt 'P 1'
_space_group_name_Hall 'P 1'
loop_
    _symmetry_equiv_pos_as_xyz
    x,y,z
loop_
    _atom_site_label
    _atom_site_type_symbol
    _atom_site_fract_x
    _atom_site_fract_y
    _atom_site_fract_z
    _atom_site_occupancy
    O1       O        0.38658    0.54880    0.36202    1.000
    O2       O        0.48800    0.68840    0.37550    1.000
    C1       C        0.42110    0.63380    0.32590    1.000
    C2       C        0.37580    0.67460    0.21330    1.000
    C3       C        0.28370    0.63430    0.16930    1.000
    H1       H        0.25010    0.57890    0.20580    1.000
    C4       C        0.24220    0.67740    0.07070    1.000
    H2       H        0.17970    0.65150    0.04130    1.000
    N1       N        0.29119    0.75660    0.01659    1.000
    C5       C        0.38280    0.79360    0.05540    1.000
    H3       H        0.41740    0.84600    0.01500    1.000
    C6       C        0.42600    0.75410    0.15510    1.000
    H4       H        0.48870    0.78110    0.18290    1.000
    C7       C        0.24690    0.80140    0.90887    1.000
    H5       H        0.26190    0.87580    0.90550    1.000
    H6       H        0.17150    0.79250    0.90860    1.000
    C8       C        0.29350    0.74760    0.80490    1.000
    H7       H        0.27860    0.67320    0.80830    1.000
    H8       H        0.36890    0.75670    0.80500    1.000
    O3       O        0.61342    0.45120    0.36202    1.000
    O4       O        0.51200    0.31160    0.37550    1.000
    C9       C        0.57890    0.36620    0.32590    1.000
    C10      C        0.62420    0.32540    0.21330    1.000
    C11      C        0.71630    0.36570    0.16930    1.000
    H9       H        0.74990    0.42110    0.20580    1.000
    C12      C        0.75780    0.32260    0.07070    1.000
    H10      H        0.82030    0.34850    0.04130    1.000
    N2       N        0.70881    0.24340    0.01659    1.000
    C13      C        0.61720    0.20640    0.05540    1.000
    H11      H        0.58260    0.15400    0.01500    1.000
    C14      C        0.57400    0.24590    0.15510    1.000
    H12      H        0.51130    0.21890    0.18290    1.000
    C15      C        0.75310    0.19860    0.90887    1.000
    H13      H        0.73810    0.12420    0.90550    1.000
    H14      H        0.82850    0.20750    0.90860    1.000
    C16      C        0.70650    0.25240    0.80490    1.000
    H15      H        0.72140    0.32680    0.80830    1.000
    H16      H        0.63110    0.24330    0.80500    1.000
    O5       O        0.54880    0.61342    0.63798    1.000
    O6       O        0.68840    0.51200    0.62450    1.000
    C17      C        0.63380    0.57890    0.67410    1.000
    C18      C        0.67460    0.62420    0.78670    1.000
    C19      C        0.63430    0.71630    0.83070    1.000
    H17      H        0.57890    0.74990    0.79420    1.000
    C20      C        0.67740    0.75780    0.92930    1.000
    H18      H        0.65150    0.82030    0.95870    1.000
    N3       N        0.75660    0.70881    0.98341    1.000
    C21      C        0.79360    0.61720    0.94460    1.000
    H19      H        0.84600    0.58260    0.98500    1.000
    C22      C        0.75410    0.57400    0.84490    1.000
    H20      H        0.78110    0.51130    0.81710    1.000
    C23      C        0.80140    0.75310    0.09113    1.000
    H21      H        0.87580    0.73810    0.09450    1.000
    H22      H        0.79250    0.82850    0.09140    1.000
    C24      C        0.74760    0.70650    0.19510    1.000
    H23      H        0.67320    0.72140    0.19170    1.000
    H24      H        0.75670    0.63110    0.19500    1.000
    O7       O        0.45120    0.38658    0.63798    1.000
    O8       O        0.31160    0.48800    0.62450    1.000
    C25      C        0.36620    0.42110    0.67410    1.000
    C26      C        0.32540    0.37580    0.78670    1.000
    C27      C        0.36570    0.28370    0.83070    1.000
    H25      H        0.42110    0.25010    0.79420    1.000
    C28      C        0.32260    0.24220    0.92930    1.000
    H26      H        0.34850    0.17970    0.95870    1.000
    N4       N        0.24340    0.29119    0.98341    1.000
    C29      C        0.20640    0.38280    0.94460    1.000
    H27      H        0.15400    0.41740    0.98500    1.000
    C30      C        0.24590    0.42600    0.84490    1.000
    H28      H        0.21890    0.48870    0.81710    1.000
    C31      C        0.19860    0.24690    0.09113    1.000
    H29      H        0.12420    0.26190    0.09450    1.000
    H30      H        0.20750    0.17150    0.09140    1.000
    C32      C        0.25240    0.29350    0.19510    1.000
    H31      H        0.32680    0.27860    0.19170    1.000
    H32      H        0.24330    0.36890    0.19500    1.000
    O9       O        0.88658    0.95120    0.86202    1.000
    O10      O        0.98800    0.81160    0.87550    1.000
    C33      C        0.92110    0.86620    0.82590    1.000
    C34      C        0.87580    0.82540    0.71330    1.000
    C35      C        0.78370    0.86570    0.66930    1.000
    H33      H        0.75010    0.92110    0.70580    1.000
    C36      C        0.74220    0.82260    0.57070    1.000
    H34      H        0.67970    0.84850    0.54130    1.000
    N5       N        0.79119    0.74340    0.51659    1.000
    C37      C        0.88280    0.70640    0.55540    1.000
    H35      H        0.91740    0.65400    0.51500    1.000
    C38      C        0.92600    0.74590    0.65510    1.000
    H36      H        0.98870    0.71890    0.68290    1.000
    C39      C        0.74690    0.69860    0.40887    1.000
    H37      H        0.76190    0.62420    0.40550    1.000
    H38      H        0.67150    0.70750    0.40860    1.000
    C40      C        0.79350    0.75240    0.30490    1.000
    H39      H        0.77860    0.82680    0.30830    1.000
    H40      H        0.86890    0.74330    0.30500    1.000
    O11      O        0.11342    0.04880    0.86202    1.000
    O12      O        0.01200    0.18840    0.87550    1.000
    C41      C        0.07890    0.13380    0.82590    1.000
    C42      C        0.12420    0.17460    0.71330    1.000
    C43      C        0.21630    0.13430    0.66930    1.000
    H41      H        0.24990    0.07890    0.70580    1.000
    C44      C        0.25780    0.17740    0.57070    1.000
    H42      H        0.32030    0.15150    0.54130    1.000
    N6       N        0.20881    0.25660    0.51659    1.000
    C45      C        0.11720    0.29360    0.55540    1.000
    H43      H        0.08260    0.34600    0.51500    1.000
    C46      C        0.07400    0.25410    0.65510    1.000
    H44      H        0.01130    0.28110    0.68290    1.000
    C47      C        0.25310    0.30140    0.40887    1.000
    H45      H        0.23810    0.37580    0.40550    1.000
    H46      H        0.32850    0.29250    0.40860    1.000
    C48      C        0.20650    0.24760    0.30490    1.000
    H47      H        0.22140    0.17320    0.30830    1.000
    H48      H        0.13110    0.25670    0.30500    1.000
    O13      O        0.04880    0.88658    0.13798    1.000
    O14      O        0.18840    0.98800    0.12450    1.000
    C49      C        0.13380    0.92110    0.17410    1.000
    C50      C        0.17460    0.87580    0.28670    1.000
    C51      C        0.13430    0.78370    0.33070    1.000
    H49      H        0.07890    0.75010    0.29420    1.000
    C52      C        0.17740    0.74220    0.42930    1.000
    H50      H        0.15150    0.67970    0.45870    1.000
    N7       N        0.25660    0.79119    0.48341    1.000
    C53      C        0.29360    0.88280    0.44460    1.000
    H51      H        0.34600    0.91740    0.48500    1.000
    C54      C        0.25410    0.92600    0.34490    1.000
    H52      H        0.28110    0.98870    0.31710    1.000
    C55      C        0.30140    0.74690    0.59113    1.000
    H53      H        0.37580    0.76190    0.59450    1.000
    H54      H        0.29250    0.67150    0.59140    1.000
    C56      C        0.24760    0.79350    0.69510    1.000
    H55      H        0.17320    0.77860    0.69170    1.000
    H56      H        0.25670    0.86890    0.69500    1.000
    O15      O        0.95120    0.11342    0.13798    1.000
    O16      O        0.81160    0.01200    0.12450    1.000
    C57      C        0.86620    0.07890    0.17410    1.000
    C58      C        0.82540    0.12420    0.28670    1.000
    C59      C        0.86570    0.21630    0.33070    1.000
    H57      H        0.92110    0.24990    0.29420    1.000
    C60      C        0.82260    0.25780    0.42930    1.000
    H58      H        0.84850    0.32030    0.45870    1.000
    N8       N        0.74340    0.20881    0.48341    1.000
    C61      C        0.70640    0.11720    0.44460    1.000
    H59      H        0.65400    0.08260    0.48500    1.000
    C62      C        0.74590    0.07400    0.34490    1.000
    H60      H        0.71890    0.01130    0.31710    1.000
    C63      C        0.69860    0.25310    0.59113    1.000
    H61      H        0.62420    0.23810    0.59450    1.000
    H62      H        0.70750    0.32850    0.59140    1.000
    C64      C        0.75240    0.20650    0.69510    1.000
    H63      H        0.82680    0.22140    0.69170    1.000
    H64      H        0.74330    0.13110    0.69500    1.000
    Cd1      Cd       0.50000    0.50000    0.50000    1.000
    Cd2      Cd       0.00000    0.00000    0.00000    1.000
