data_functionalizedCrystal
_audit_creation_method	'EQeq! by Chris Wilmer'
_symmetry_space_group_name_H-M	'P1'
_symmetry_Int_Tables_number	1
_symmetry_cell_setting	triclinic
loop_
_symmetry_equiv_pos_as_xyz
  x,y,z
_cell_length_a	12.9879
_cell_length_b	12.9879
_cell_length_c	25.025
_cell_angle_alpha	90
_cell_angle_beta	90
_cell_angle_gamma	90
loop_
_atom_site_label
_atom_site_type_symbol
_atom_site_fract_x
_atom_site_fract_y
_atom_site_fract_z
_atom_site_charge
Mof_C 	C 	0.4062	0.0691	0.70602	-0.264
Mof_C 	C 	0.3758	0.1702	0.7154	0.102
Mof_H 	H 	0.4058	0.2067	0.7434	-0.013
Mof_C 	C 	0.3011	0.2179	0.6838	-0.142
Mof_H 	H 	0.2796	0.2845	0.6916	0.081
Mof_C 	C 	0.2593	0.1658	0.6408	0.044
Mof_H 	H 	0.21	0.1979	0.6196	0.033
Mof_C 	C 	0.29	0.0671	0.6292	-0.1
Mof_C 	C 	0.3636	0.0198	0.66105	0.033
Mof_H 	H 	0.3854	0.9536	0.6525	0.043
Mof_C 	C 	0.2451	0.0102	0.58165	0.269
Mof_O 	O 	0.2848	0.9255	0.56846	-0.248
Mof_O 	O 	0.1672	0.0461	0.55801	-0.288
Mof_C 	C 	0.9062	0.5691	0.20602	-0.262
Mof_C 	C 	0.8758	0.6702	0.2154	0.118
Mof_H 	H 	0.9058	0.7067	0.2434	-0.007
Mof_C 	C 	0.8011	0.7179	0.1838	-0.158
Mof_H 	H 	0.7796	0.7845	0.1916	0.094
Mof_C 	C 	0.7593	0.6658	0.1408	0.076
Mof_H 	H 	0.71	0.6979	0.1196	0.026
Mof_C 	C 	0.79	0.5671	0.1292	-0.137
Mof_C 	C 	0.8636	0.5198	0.16105	0.116
Mof_H 	H 	0.8854	0.4536	0.1525	0.001
Mof_C 	C 	0.7451	0.5102	0.08165	0.323
Mof_O 	O 	0.7848	0.4255	0.06846	-0.282
Mof_O 	O 	0.6672	0.5461	0.05801	-0.288
Mof_C 	C 	0.5938	0.9309	0.70602	-0.299
Mof_C 	C 	0.6242	0.8298	0.7154	0.151
Mof_H 	H 	0.5942	0.7933	0.7434	-0.027
Mof_C 	C 	0.6989	0.7821	0.6838	-0.195
Mof_H 	H 	0.7204	0.7155	0.6916	0.102
Mof_C 	C 	0.7407	0.8342	0.6408	0.118
Mof_H 	H 	0.79	0.8021	0.6196	0.013
Mof_C 	C 	0.71	0.9329	0.6292	-0.186
Mof_C 	C 	0.6364	0.9802	0.66105	0.211
Mof_H 	H 	0.6146	0.0464	0.6525	-0.055
Mof_C 	C 	0.7549	0.9898	0.58165	0.38
Mof_O 	O 	0.7152	0.0745	0.56846	-0.313
Mof_O 	O 	0.8328	0.9539	0.55801	-0.283
Mof_C 	C 	0.0938	0.4309	0.20602	-0.303
Mof_C 	C 	0.1242	0.3298	0.2154	0.136
Mof_H 	H 	0.0942	0.2933	0.2434	-0.034
Mof_C 	C 	0.1989	0.2821	0.1838	-0.182
Mof_H 	H 	0.2204	0.2155	0.1916	0.088
Mof_C 	C 	0.2407	0.3342	0.1408	0.085
Mof_H 	H 	0.29	0.3021	0.1196	0.018
Mof_C 	C 	0.21	0.4329	0.1292	-0.154
Mof_C 	C 	0.1364	0.4802	0.16105	0.13
Mof_H 	H 	0.1146	0.5464	0.1525	-0.016
Mof_C 	C 	0.2549	0.4898	0.08165	0.325
Mof_O 	O 	0.2152	0.5745	0.06846	-0.291
Mof_O 	O 	0.3328	0.4539	0.05801	-0.29
Mof_C 	C 	0.9309	0.4062	0.70602	-0.301
Mof_C 	C 	0.8298	0.3758	0.7154	0.151
Mof_H 	H 	0.7933	0.4058	0.7434	-0.027
Mof_C 	C 	0.7821	0.3011	0.6838	-0.198
Mof_H 	H 	0.7155	0.2796	0.6916	0.102
Mof_C 	C 	0.8342	0.2593	0.6408	0.118
Mof_H 	H 	0.8021	0.21	0.6196	0.009
Mof_C 	C 	0.9329	0.29	0.6292	-0.19
Mof_C 	C 	0.9802	0.3636	0.66105	0.212
Mof_H 	H 	0.0464	0.3854	0.6525	-0.056
Mof_C 	C 	0.9898	0.2451	0.58165	0.381
Mof_O 	O 	0.0745	0.2848	0.56846	-0.315
Mof_O 	O 	0.9539	0.1672	0.55801	-0.294
Mof_C 	C 	0.4309	0.9062	0.20602	-0.262
Mof_C 	C 	0.3298	0.8758	0.2154	0.115
Mof_H 	H 	0.2933	0.9058	0.2434	-0.01
Mof_C 	C 	0.2821	0.8011	0.1838	-0.157
Mof_H 	H 	0.2155	0.7796	0.1916	0.085
Mof_C 	C 	0.3342	0.7593	0.1408	0.071
Mof_H 	H 	0.3021	0.71	0.1196	0.025
Mof_C 	C 	0.4329	0.79	0.1292	-0.135
Mof_C 	C 	0.4802	0.8636	0.16105	0.113
Mof_H 	H 	0.5464	0.8854	0.1525	0.003
Mof_C 	C 	0.4898	0.7451	0.08165	0.321
Mof_O 	O 	0.5745	0.7848	0.06846	-0.28
Mof_O 	O 	0.4539	0.6672	0.05801	-0.288
Mof_C 	C 	0.0691	0.5938	0.70602	-0.261
Mof_C 	C 	0.1702	0.6242	0.7154	0.102
Mof_H 	H 	0.2067	0.5942	0.7434	-0.012
Mof_C 	C 	0.2179	0.6989	0.6838	-0.139
Mof_H 	H 	0.2845	0.7204	0.6916	0.081
Mof_C 	C 	0.1658	0.7407	0.6408	0.044
Mof_H 	H 	0.1979	0.79	0.6196	0.037
Mof_C 	C 	0.0671	0.71	0.6292	-0.096
Mof_C 	C 	0.0198	0.6364	0.66105	0.032
Mof_H 	H 	0.9536	0.6146	0.6525	0.044
Mof_C 	C 	0.0102	0.7549	0.58165	0.268
Mof_O 	O 	0.9255	0.7152	0.56846	-0.246
Mof_O 	O 	0.0461	0.8328	0.55801	-0.278
Mof_C 	C 	0.5691	0.0938	0.20602	-0.303
Mof_C 	C 	0.6702	0.1242	0.2154	0.139
Mof_H 	H 	0.7067	0.0942	0.2434	-0.031
Mof_C 	C 	0.7179	0.1989	0.1838	-0.183
Mof_H 	H 	0.7845	0.2204	0.1916	0.097
Mof_C 	C 	0.6658	0.2407	0.1408	0.09
Mof_H 	H 	0.6979	0.29	0.1196	0.019
Mof_C 	C 	0.5671	0.21	0.1292	-0.156
Mof_C 	C 	0.5198	0.1364	0.16105	0.132
Mof_H 	H 	0.4536	0.1146	0.1525	-0.018
Mof_C 	C 	0.5102	0.2549	0.08165	0.327
Mof_O 	O 	0.4255	0.2152	0.06846	-0.293
Mof_O 	O 	0.5461	0.3328	0.05801	-0.29
Mof_C 	C 	0.5938	0.9309	0.29398	-0.3
Mof_C 	C 	0.6242	0.8298	0.2846	0.151
Mof_H 	H 	0.5942	0.7933	0.2566	-0.027
Mof_C 	C 	0.6989	0.7821	0.3162	-0.196
Mof_H 	H 	0.7204	0.7155	0.3084	0.102
Mof_C 	C 	0.7407	0.8342	0.3592	0.119
Mof_H 	H 	0.79	0.8021	0.3804	0.013
Mof_C 	C 	0.71	0.9329	0.3708	-0.186
Mof_C 	C 	0.6364	0.9802	0.33895	0.211
Mof_H 	H 	0.6146	0.0464	0.3475	-0.055
Mof_C 	C 	0.7549	0.9898	0.41835	0.38
Mof_O 	O 	0.7152	0.0745	0.43154	-0.313
Mof_O 	O 	0.8328	0.9539	0.44199	-0.283
Mof_C 	C 	0.0938	0.4309	0.79398	-0.298
Mof_C 	C 	0.1242	0.3298	0.7846	0.133
Mof_H 	H 	0.0942	0.2933	0.7566	-0.032
Mof_C 	C 	0.1989	0.2821	0.8162	-0.175
Mof_H 	H 	0.2204	0.2155	0.8084	0.089
Mof_C 	C 	0.2407	0.3342	0.8592	0.082
Mof_H 	H 	0.29	0.3021	0.8804	0.025
Mof_C 	C 	0.21	0.4329	0.8708	-0.143
Mof_C 	C 	0.1364	0.4802	0.83895	0.125
Mof_H 	H 	0.1146	0.5464	0.8475	-0.011
Mof_C 	C 	0.2549	0.4898	0.91835	0.321
Mof_O 	O 	0.2152	0.5745	0.93154	-0.263
Mof_O 	O 	0.3328	0.4539	0.94199	-0.261
Mof_C 	C 	0.4062	0.0691	0.29398	-0.264
Mof_C 	C 	0.3758	0.1702	0.2846	0.103
Mof_H 	H 	0.4058	0.2067	0.2566	-0.013
Mof_C 	C 	0.3011	0.2179	0.3162	-0.142
Mof_H 	H 	0.2796	0.2845	0.3084	0.082
Mof_C 	C 	0.2593	0.1658	0.3592	0.044
Mof_H 	H 	0.21	0.1979	0.3804	0.033
Mof_C 	C 	0.29	0.0671	0.3708	-0.101
Mof_C 	C 	0.3636	0.0198	0.33895	0.034
Mof_H 	H 	0.3854	0.9536	0.3475	0.043
Mof_C 	C 	0.2451	0.0102	0.41835	0.27
Mof_O 	O 	0.2848	0.9255	0.43154	-0.248
Mof_O 	O 	0.1672	0.0461	0.44199	-0.289
Mof_C 	C 	0.9062	0.5691	0.79398	-0.258
Mof_C 	C 	0.8758	0.6702	0.7846	0.116
Mof_H 	H 	0.9058	0.7067	0.7566	-0.005
Mof_C 	C 	0.8011	0.7179	0.8162	-0.152
Mof_H 	H 	0.7796	0.7845	0.8084	0.094
Mof_C 	C 	0.7593	0.6658	0.8592	0.073
Mof_H 	H 	0.71	0.6979	0.8804	0.033
Mof_C 	C 	0.79	0.5671	0.8708	-0.126
Mof_C 	C 	0.8636	0.5198	0.83895	0.112
Mof_H 	H 	0.8854	0.4536	0.8475	0.006
Mof_C 	C 	0.7451	0.5102	0.91835	0.319
Mof_O 	O 	0.7848	0.4255	0.93154	-0.255
Mof_O 	O 	0.6672	0.5461	0.94199	-0.258
Mof_C 	C 	0.0691	0.5938	0.29398	-0.262
Mof_C 	C 	0.1702	0.6242	0.2846	0.102
Mof_H 	H 	0.2067	0.5942	0.2566	-0.013
Mof_C 	C 	0.2179	0.6989	0.3162	-0.139
Mof_H 	H 	0.2845	0.7204	0.3084	0.082
Mof_C 	C 	0.1658	0.7407	0.3592	0.044
Mof_H 	H 	0.1979	0.79	0.3804	0.037
Mof_C 	C 	0.0671	0.71	0.3708	-0.096
Mof_C 	C 	0.0198	0.6364	0.33895	0.033
Mof_H 	H 	0.9536	0.6146	0.3475	0.044
Mof_C 	C 	0.0102	0.7549	0.41835	0.268
Mof_O 	O 	0.9255	0.7152	0.43154	-0.246
Mof_O 	O 	0.0461	0.8328	0.44199	-0.278
Mof_C 	C 	0.5691	0.0938	0.79398	-0.299
Mof_C 	C 	0.6702	0.1242	0.7846	0.136
Mof_H 	H 	0.7067	0.0942	0.7566	-0.029
Mof_C 	C 	0.7179	0.1989	0.8162	-0.176
Mof_H 	H 	0.7845	0.2204	0.8084	0.098
Mof_C 	C 	0.6658	0.2407	0.8592	0.087
Mof_H 	H 	0.6979	0.29	0.8804	0.026
Mof_C 	C 	0.5671	0.21	0.8708	-0.144
Mof_C 	C 	0.5198	0.1364	0.83895	0.128
Mof_H 	H 	0.4536	0.1146	0.8475	-0.013
Mof_C 	C 	0.5102	0.2549	0.91835	0.323
Mof_O 	O 	0.4255	0.2152	0.93154	-0.266
Mof_O 	O 	0.5461	0.3328	0.94199	-0.261
Mof_C 	C 	0.9309	0.4062	0.29398	-0.302
Mof_C 	C 	0.8298	0.3758	0.2846	0.152
Mof_H 	H 	0.7933	0.4058	0.2566	-0.027
Mof_C 	C 	0.7821	0.3011	0.3162	-0.199
Mof_H 	H 	0.7155	0.2796	0.3084	0.102
Mof_C 	C 	0.8342	0.2593	0.3592	0.118
Mof_H 	H 	0.8021	0.21	0.3804	0.009
Mof_C 	C 	0.9329	0.29	0.3708	-0.191
Mof_C 	C 	0.9802	0.3636	0.33895	0.212
Mof_H 	H 	0.0464	0.3854	0.3475	-0.056
Mof_C 	C 	0.9898	0.2451	0.41835	0.382
Mof_O 	O 	0.0745	0.2848	0.43154	-0.315
Mof_O 	O 	0.9539	0.1672	0.44199	-0.294
Mof_C 	C 	0.4309	0.9062	0.79398	-0.257
Mof_C 	C 	0.3298	0.8758	0.7846	0.112
Mof_H 	H 	0.2933	0.9058	0.7566	-0.008
Mof_C 	C 	0.2821	0.8011	0.8162	-0.15
Mof_H 	H 	0.2155	0.7796	0.8084	0.086
Mof_C 	C 	0.3342	0.7593	0.8592	0.068
Mof_H 	H 	0.3021	0.71	0.8804	0.032
Mof_C 	C 	0.4329	0.79	0.8708	-0.124
Mof_C 	C 	0.4802	0.8636	0.83895	0.109
Mof_H 	H 	0.5464	0.8854	0.8475	0.008
Mof_C 	C 	0.4898	0.7451	0.91835	0.317
Mof_O 	O 	0.5745	0.7848	0.93154	-0.253
Mof_O 	O 	0.4539	0.6672	0.94199	-0.258
Mof_Cd	Cd	0.17497	0.88411	0.5	0.471
Mof_Cd	Cd	0.67497	0.38411	-0	0.422
Mof_Cd	Cd	0.82503	0.11589	0.5	0.457
Mof_Cd	Cd	0.32503	0.61589	-0	0.421
Mof_Cd	Cd	0.11589	0.17497	0.5	0.445
Mof_Cd	Cd	0.61589	0.67497	-0	0.426
Mof_Cd	Cd	0.88411	0.82503	0.5	0.483
Mof_Cd	Cd	0.38411	0.32503	-0	0.417
Mof_Si	Si	0.5	2.39198e-32	0.75	0.734
Mof_Si	Si	4.1298e-32	0.5	0.75	0.734
Mof_Si	Si	0.5	0	0.25	0.737
Mof_Si	Si	1.3766e-32	0.5	0.25	0.737
_end
