data_functionalizedCrystal
_audit_creation_method	'EQeq! by Chris Wilmer'
_symmetry_space_group_name_H-M	'P1'
_symmetry_Int_Tables_number	1
_symmetry_cell_setting	triclinic
loop_
_symmetry_equiv_pos_as_xyz
  x,y,z
_cell_length_a	13.4846
_cell_length_b	13.4846
_cell_length_c	8.032
_cell_angle_alpha	90
_cell_angle_beta	90
_cell_angle_gamma	120
loop_
_atom_site_label
_atom_site_type_symbol
_atom_site_fract_x
_atom_site_fract_y
_atom_site_fract_z
_atom_site_charge
Mof_Mn	Mn	0.30142	0.33873	0.54463	0.79
Mof_O 	O 	0.2262	0.18127	0.4032	-0.338
Mof_C 	C 	0.5336	0.3225	0.5481	-0.143
Mof_C 	C 	0.3533	0.5593	0.7786	-0.135
Mof_O 	O 	0.2404	0.05749	0.2424	-0.344
Mof_C 	C 	0.2645	0.1577	0.277	0.355
Mof_N 	N 	0.3485	0.2104	0.9993	-0.237
Mof_H 	H 	0.4139	0.2588	0.946	0.112
Mof_H 	H 	0.2889	0.2009	0.9369	0.15
Mof_C 	C 	0.3452	0.2552	0.1626	-0.162
Mof_H 	H 	0.4221	0.2866	0.2099	0.058
Mof_N 	N 	0.3665	0.429	0.3021	-0.298
Mof_H 	H 	0.3488	0.485	0.2947	0.1
Mof_H 	H 	0.4433	0.4623	0.3013	0.105
Mof_C 	C 	0.3207	0.3548	0.1541	0.012
Mof_H 	H 	0.3555	0.3996	0.0546	-0.002
Mof_H 	H 	0.2387	0.3246	0.1472	0.022
Mof_N 	N 	0.454	0.3203	0.6037	-0.147
Mof_N 	N 	0.3669	0.4993	0.6929	-0.15
Mof_Mn	Mn	0.66127	0.96269	0.54463	0.783
Mof_O 	O 	0.81873	0.04493	0.4032	-0.335
Mof_C 	C 	0.6775	0.2111	0.5481	-0.144
Mof_C 	C 	0.4407	0.794	0.7786	-0.136
Mof_O 	O 	0.94251	0.18291	0.2424	-0.343
Mof_C 	C 	0.8423	0.1068	0.277	0.354
Mof_N 	N 	0.7896	0.1381	0.9993	-0.237
Mof_H 	H 	0.7412	0.1551	0.946	0.113
Mof_H 	H 	0.7991	0.088	0.9369	0.152
Mof_C 	C 	0.7448	0.09	0.1626	-0.159
Mof_H 	H 	0.7134	0.1355	0.2099	0.058
Mof_N 	N 	0.571	0.9375	0.3021	-0.297
Mof_H 	H 	0.515	0.8638	0.2947	0.1
Mof_H 	H 	0.5377	0.981	0.3013	0.103
Mof_C 	C 	0.6452	0.9659	0.1541	0.008
Mof_H 	H 	0.6004	0.9559	0.0546	-0.001
Mof_H 	H 	0.6754	0.9141	0.1472	0.023
Mof_N 	N 	0.6797	0.1337	0.6037	-0.145
Mof_N 	N 	0.5007	0.8676	0.6929	-0.151
Mof_Mn	Mn	0.03731	0.69858	0.54463	0.783
Mof_O 	O 	0.95507	0.7738	0.4032	-0.336
Mof_C 	C 	0.7889	0.4664	0.5481	-0.144
Mof_C 	C 	0.206	0.6467	0.7786	-0.136
Mof_O 	O 	0.81709	0.7596	0.2424	-0.345
Mof_C 	C 	0.8932	0.7355	0.277	0.354
Mof_N 	N 	0.8619	0.6515	0.9993	-0.238
Mof_H 	H 	0.8449	0.5861	0.946	0.113
Mof_H 	H 	0.912	0.7111	0.9369	0.151
Mof_C 	C 	0.91	0.6548	0.1626	-0.157
Mof_H 	H 	0.8645	0.5779	0.2099	0.057
Mof_N 	N 	0.0625	0.6335	0.3021	-0.297
Mof_H 	H 	0.1362	0.6512	0.2947	0.1
Mof_H 	H 	0.019	0.5567	0.3013	0.103
Mof_C 	C 	0.0341	0.6793	0.1541	0.007
Mof_H 	H 	0.0441	0.6445	0.0546	-0
Mof_H 	H 	0.0859	0.7613	0.1472	0.023
Mof_N 	N 	0.8663	0.546	0.6037	-0.145
Mof_N 	N 	0.1324	0.6331	0.6929	-0.151
Mof_Mn	Mn	0.69858	0.66127	0.04463	0.708
Mof_O 	O 	0.7738	0.81873	0.9032	-0.298
Mof_C 	C 	0.4664	0.6775	0.0481	-0.206
Mof_C 	C 	0.6467	0.4407	0.2786	-0.145
Mof_O 	O 	0.7596	0.94251	0.7424	-0.331
Mof_C 	C 	0.7355	0.8423	0.777	0.343
Mof_N 	N 	0.6515	0.7896	0.4993	-0.274
Mof_H 	H 	0.5861	0.7412	0.446	0.101
Mof_H 	H 	0.7111	0.7991	0.4369	0.14
Mof_C 	C 	0.6548	0.7448	0.6626	-0.104
Mof_H 	H 	0.5779	0.7134	0.7099	0.054
Mof_N 	N 	0.6335	0.571	0.8021	-0.284
Mof_H 	H 	0.6512	0.515	0.7947	0.109
Mof_H 	H 	0.5567	0.5377	0.8013	0.116
Mof_C 	C 	0.6793	0.6452	0.6541	-0.016
Mof_H 	H 	0.6445	0.6004	0.5546	0.025
Mof_H 	H 	0.7613	0.6754	0.6472	0.043
Mof_N 	N 	0.546	0.6797	0.1037	-0.138
Mof_N 	N 	0.6331	0.5007	0.1929	-0.158
Mof_Mn	Mn	0.33873	0.03731	0.04463	0.713
Mof_O 	O 	0.18127	0.95507	0.9032	-0.305
Mof_C 	C 	0.3225	0.7889	0.0481	-0.205
Mof_C 	C 	0.5593	0.206	0.2786	-0.145
Mof_O 	O 	0.05749	0.81709	0.7424	-0.333
Mof_C 	C 	0.1577	0.8932	0.777	0.346
Mof_N 	N 	0.2104	0.8619	0.4993	-0.272
Mof_H 	H 	0.2588	0.8449	0.446	0.1
Mof_H 	H 	0.2009	0.912	0.4369	0.138
Mof_C 	C 	0.2552	0.91	0.6626	-0.112
Mof_H 	H 	0.2866	0.8645	0.7099	0.055
Mof_N 	N 	0.429	0.0625	0.8021	-0.285
Mof_H 	H 	0.485	0.1362	0.7947	0.109
Mof_H 	H 	0.4623	0.019	0.8013	0.118
Mof_C 	C 	0.3548	0.0341	0.6541	-0.007
Mof_H 	H 	0.3996	0.0441	0.5546	0.024
Mof_H 	H 	0.3246	0.0859	0.6472	0.041
Mof_N 	N 	0.3203	0.8663	0.1037	-0.139
Mof_N 	N 	0.4993	0.1324	0.1929	-0.157
Mof_Mn	Mn	0.96269	0.30142	0.04463	0.71
Mof_O 	O 	0.04493	0.2262	0.9032	-0.301
Mof_C 	C 	0.2111	0.5336	0.0481	-0.206
Mof_C 	C 	0.794	0.3533	0.2786	-0.145
Mof_O 	O 	0.18291	0.2404	0.7424	-0.329
Mof_C 	C 	0.1068	0.2645	0.777	0.345
Mof_N 	N 	0.1381	0.3485	0.4993	-0.273
Mof_H 	H 	0.1551	0.4139	0.446	0.1
Mof_H 	H 	0.088	0.2889	0.4369	0.139
Mof_C 	C 	0.09	0.3452	0.6626	-0.111
Mof_H 	H 	0.1355	0.4221	0.7099	0.055
Mof_N 	N 	0.9375	0.3665	0.8021	-0.285
Mof_H 	H 	0.8638	0.3488	0.7947	0.109
Mof_H 	H 	0.981	0.4433	0.8013	0.118
Mof_C 	C 	0.9659	0.3207	0.6541	-0.008
Mof_H 	H 	0.9559	0.3555	0.5546	0.024
Mof_H 	H 	0.9141	0.2387	0.6472	0.041
Mof_N 	N 	0.1337	0.454	0.1037	-0.139
Mof_N 	N 	0.8676	0.3669	0.1929	-0.157
Mof_Mn	Mn	0.33333	0.66667	0.9248	0.916
Mof_Mn	Mn	0.66667	0.33333	0.4248	0.792
_end
