# CIF file generated by openbabel 3.1.0, see https://openbabel.org
data_I
_chemical_name_common 'image0'
_cell_length_a 13.5105
_cell_length_b 13.5105
_cell_length_c 8.0463
_cell_angle_alpha 90
_cell_angle_beta 90
_cell_angle_gamma 120
_space_group_name_H-M_alt 'P 1'
_space_group_name_Hall 'P 1'
loop_
    _symmetry_equiv_pos_as_xyz
    x,y,z
loop_
    _atom_site_label
    _atom_site_type_symbol
    _atom_site_fract_x
    _atom_site_fract_y
    _atom_site_fract_z
    _atom_site_occupancy
    Mn1      Mn       0.30249    0.33811    0.95433    1.000
    O1       O        0.22935    0.18085    0.09350    1.000
    C1       C        0.53506    0.32246    0.95120    1.000
    C2       C        0.35410    0.55990    0.72370    1.000
    O2       O        0.24407    0.05720    0.25410    1.000
    C3       C        0.26690    0.15740    0.21990    1.000
    N1       N        0.34660    0.20800    0.50020    1.000
    H1       H        0.28610    0.19780    0.56060    1.000
    H2       H        0.41100    0.25600    0.55540    1.000
    C4       C        0.34550    0.25420    0.33610    1.000
    H3       H        0.42300    0.28640    0.29120    1.000
    N2       N        0.36680    0.42757    0.19800    1.000
    H4       H        0.44350    0.46040    0.19980    1.000
    H5       H        0.34960    0.48370    0.20560    1.000
    C5       C        0.31970    0.35240    0.34450    1.000
    H6       H        0.23770    0.32150    0.34920    1.000
    H7       H        0.35290    0.39660    0.44490    1.000
    N3       N        0.45590    0.32080    0.89390    1.000
    N4       N        0.36840    0.50000    0.81000    1.000
    Mn2      Mn       0.66189    0.96438    0.95433    1.000
    O3       O        0.81915    0.04850    0.09350    1.000
    C6       C        0.67754    0.21260    0.95120    1.000
    C7       C        0.44010    0.79420    0.72370    1.000
    O4       O        0.94280    0.18687    0.25410    1.000
    C8       C        0.84260    0.10950    0.21990    1.000
    N5       N        0.79200    0.13860    0.50020    1.000
    H8       H        0.80220    0.08830    0.56060    1.000
    H9       H        0.74400    0.15500    0.55540    1.000
    C9       C        0.74580    0.09130    0.33610    1.000
    H10      H        0.71360    0.13660    0.29120    1.000
    N6       N        0.57243    0.93923    0.19800    1.000
    H11      H        0.53960    0.98310    0.19980    1.000
    H12      H        0.51630    0.86590    0.20560    1.000
    C10      C        0.64760    0.96730    0.34450    1.000
    H13      H        0.67850    0.91620    0.34920    1.000
    H14      H        0.60340    0.95630    0.44490    1.000
    N7       N        0.67920    0.13510    0.89390    1.000
    N8       N        0.50000    0.86840    0.81000    1.000
    Mn3      Mn       0.03562    0.69751    0.95433    1.000
    O5       O        0.95150    0.77065    0.09350    1.000
    C11      C        0.78740    0.46494    0.95120    1.000
    C12      C        0.20580    0.64590    0.72370    1.000
    O6       O        0.81313    0.75593    0.25410    1.000
    C13      C        0.89050    0.73310    0.21990    1.000
    N9       N        0.86140    0.65340    0.50020    1.000
    H15      H        0.91170    0.71390    0.56060    1.000
    H16      H        0.84500    0.58900    0.55540    1.000
    C14      C        0.90870    0.65450    0.33610    1.000
    H17      H        0.86340    0.57700    0.29120    1.000
    N10      N        0.06077    0.63320    0.19800    1.000
    H18      H        0.01690    0.55650    0.19980    1.000
    H19      H        0.13410    0.65040    0.20560    1.000
    C15      C        0.03270    0.68030    0.34450    1.000
    H20      H        0.08380    0.76230    0.34920    1.000
    H21      H        0.04370    0.64710    0.44490    1.000
    N11      N        0.86490    0.54410    0.89390    1.000
    N12      N        0.13160    0.63160    0.81000    1.000
    Mn4      Mn       0.69751    0.66189    0.45433    1.000
    O7       O        0.77065    0.81915    0.59350    1.000
    C16      C        0.46494    0.67754    0.45120    1.000
    C17      C        0.64590    0.44010    0.22370    1.000
    O8       O        0.75593    0.94280    0.75410    1.000
    C18      C        0.73310    0.84260    0.71990    1.000
    N13      N        0.65340    0.79200    0.00020    1.000
    H22      H        0.71390    0.80220    0.06060    1.000
    H23      H        0.58900    0.74400    0.05540    1.000
    C19      C        0.65450    0.74580    0.83610    1.000
    H24      H        0.57700    0.71360    0.79120    1.000
    N14      N        0.63320    0.57243    0.69800    1.000
    H25      H        0.55650    0.53960    0.69980    1.000
    H26      H        0.65040    0.51630    0.70560    1.000
    C20      C        0.68030    0.64760    0.84450    1.000
    H27      H        0.76230    0.67850    0.84920    1.000
    H28      H        0.64710    0.60340    0.94490    1.000
    N15      N        0.54410    0.67920    0.39390    1.000
    N16      N        0.63160    0.50000    0.31000    1.000
    Mn5      Mn       0.33811    0.03562    0.45433    1.000
    O9       O        0.18085    0.95150    0.59350    1.000
    C21      C        0.32246    0.78740    0.45120    1.000
    C22      C        0.55990    0.20580    0.22370    1.000
    O10      O        0.05720    0.81313    0.75410    1.000
    C23      C        0.15740    0.89050    0.71990    1.000
    N17      N        0.20800    0.86140    0.00020    1.000
    H29      H        0.19780    0.91170    0.06060    1.000
    H30      H        0.25600    0.84500    0.05540    1.000
    C24      C        0.25420    0.90870    0.83610    1.000
    H31      H        0.28640    0.86340    0.79120    1.000
    N18      N        0.42757    0.06077    0.69800    1.000
    H32      H        0.46040    0.01690    0.69980    1.000
    H33      H        0.48370    0.13410    0.70560    1.000
    C25      C        0.35240    0.03270    0.84450    1.000
    H34      H        0.32150    0.08380    0.84920    1.000
    H35      H        0.39660    0.04370    0.94490    1.000
    N19      N        0.32080    0.86490    0.39390    1.000
    N20      N        0.50000    0.13160    0.31000    1.000
    Mn6      Mn       0.96438    0.30249    0.45433    1.000
    O11      O        0.04850    0.22935    0.59350    1.000
    C26      C        0.21260    0.53506    0.45120    1.000
    C27      C        0.79420    0.35410    0.22370    1.000
    O12      O        0.18687    0.24407    0.75410    1.000
    C28      C        0.10950    0.26690    0.71990    1.000
    N21      N        0.13860    0.34660    0.00020    1.000
    H36      H        0.08830    0.28610    0.06060    1.000
    H37      H        0.15500    0.41100    0.05540    1.000
    C29      C        0.09130    0.34550    0.83610    1.000
    H38      H        0.13660    0.42300    0.79120    1.000
    N22      N        0.93923    0.36680    0.69800    1.000
    H39      H        0.98310    0.44350    0.69980    1.000
    H40      H        0.86590    0.34960    0.70560    1.000
    C30      C        0.96730    0.31970    0.84450    1.000
    H41      H        0.91620    0.23770    0.84920    1.000
    H42      H        0.95630    0.35290    0.94490    1.000
    N23      N        0.13510    0.45590    0.39390    1.000
    N24      N        0.86840    0.36840    0.31000    1.000
    Mn7      Mn       0.33333    0.66667    0.57877    1.000
    Mn8      Mn       0.66667    0.33333    0.07877    1.000
