# CIF file generated by openbabel 3.1.0, see https://openbabel.org
data_I
_chemical_name_common 'image0'
_cell_length_a 11.355
_cell_length_b 11.355
_cell_length_c 8.0625
_cell_angle_alpha 90
_cell_angle_beta 90
_cell_angle_gamma 120
_space_group_name_H-M_alt 'P 1'
_space_group_name_Hall 'P 1'
loop_
    _symmetry_equiv_pos_as_xyz
    x,y,z
loop_
    _atom_site_label
    _atom_site_type_symbol
    _atom_site_fract_x
    _atom_site_fract_y
    _atom_site_fract_z
    _atom_site_occupancy
    N1       N        0.12580    0.17210    0.15400    1.000
    N2       N        0.30600    0.35700    0.24400    1.000
    C1       C        0.07500    0.21500    0.28500    1.000
    C2       C        0.19600    0.34000    0.33300    1.000
    N3       N        0.82790    0.95370    0.15400    1.000
    N4       N        0.64300    0.94900    0.24400    1.000
    C3       C        0.78500    0.86000    0.28500    1.000
    C4       C        0.66000    0.85600    0.33300    1.000
    N5       N        0.04630    0.87420    0.15400    1.000
    N6       N        0.05100    0.69400    0.24400    1.000
    C5       C        0.14000    0.92500    0.28500    1.000
    C6       C        0.14400    0.80400    0.33300    1.000
    N7       N        0.82790    0.87420    0.84600    1.000
    N8       N        0.64300    0.69400    0.75600    1.000
    C7       C        0.78500    0.92500    0.71500    1.000
    C8       C        0.66000    0.80400    0.66700    1.000
    N9       N        0.04630    0.17210    0.84600    1.000
    N10      N        0.05100    0.35700    0.75600    1.000
    C9       C        0.14000    0.21500    0.71500    1.000
    C10      C        0.14400    0.34000    0.66700    1.000
    N11      N        0.12580    0.95370    0.84600    1.000
    N12      N        0.30600    0.94900    0.75600    1.000
    C11      C        0.07500    0.86000    0.71500    1.000
    C12      C        0.19600    0.85600    0.66700    1.000
    N13      N        0.87420    0.82790    0.84600    1.000
    N14      N        0.69400    0.64300    0.75600    1.000
    C13      C        0.92500    0.78500    0.71500    1.000
    C14      C        0.80400    0.66000    0.66700    1.000
    N15      N        0.17210    0.04630    0.84600    1.000
    N16      N        0.35700    0.05100    0.75600    1.000
    C15      C        0.21500    0.14000    0.71500    1.000
    C16      C        0.34000    0.14400    0.66700    1.000
    N17      N        0.95370    0.12580    0.84600    1.000
    N18      N        0.94900    0.30600    0.75600    1.000
    C17      C        0.86000    0.07500    0.71500    1.000
    C18      C        0.85600    0.19600    0.66700    1.000
    N19      N        0.17210    0.12580    0.15400    1.000
    N20      N        0.35700    0.30600    0.24400    1.000
    C19      C        0.21500    0.07500    0.28500    1.000
    C20      C        0.34000    0.19600    0.33300    1.000
    N21      N        0.95370    0.82790    0.15400    1.000
    N22      N        0.94900    0.64300    0.24400    1.000
    C21      C        0.86000    0.78500    0.28500    1.000
    C22      C        0.85600    0.66000    0.33300    1.000
    N23      N        0.87420    0.04630    0.15400    1.000
    N24      N        0.69400    0.05100    0.24400    1.000
    C23      C        0.92500    0.14000    0.28500    1.000
    C24      C        0.80400    0.14400    0.33300    1.000
    Co1      Co       0.00000    0.00000    0.00000    1.000
    C25      C        0.25870    0.25870    0.13500    1.000
    C26      C        0.45870    0.45870    0.24600    1.000
    C27      C        0.49200    0.49200    0.43100    1.000
    C28      C        0.74130    0.00000    0.13500    1.000
    C29      C        0.54130    0.00000    0.24600    1.000
    C30      C        0.50800    0.00000    0.43100    1.000
    C31      C        0.00000    0.74130    0.13500    1.000
    C32      C        0.00000    0.54130    0.24600    1.000
    C33      C        0.00000    0.50800    0.43100    1.000
    C34      C        0.74130    0.74130    0.86500    1.000
    C35      C        0.54130    0.54130    0.75400    1.000
    C36      C        0.50800    0.50800    0.56900    1.000
    C37      C        0.00000    0.25870    0.86500    1.000
    C38      C        0.00000    0.45870    0.75400    1.000
    C39      C        0.00000    0.49200    0.56900    1.000
    C40      C        0.25870    0.00000    0.86500    1.000
    C41      C        0.45870    0.00000    0.75400    1.000
    C42      C        0.49200    0.00000    0.56900    1.000
