# CIF file generated by openbabel 3.1.0, see https://openbabel.org
data_I
_chemical_name_common 'HIHGIQ_clean'
_cell_length_a 16.0346
_cell_length_b 16.0346
_cell_length_c 26.471
_cell_angle_alpha 84.3117
_cell_angle_beta 84.3117
_cell_angle_gamma 84.3683
_space_group_name_H-M_alt 'P 1'
_space_group_name_Hall 'P 1'
loop_
    _symmetry_equiv_pos_as_xyz
    x,y,z
loop_
    _atom_site_label
    _atom_site_type_symbol
    _atom_site_fract_x
    _atom_site_fract_y
    _atom_site_fract_z
    _atom_site_occupancy
    Co1      Co       0.72722    0.32122    0.49349    1.000
    Co2      Co       0.89754    0.30618    0.47033    1.000
    Co3      Co       0.32122    0.72722    0.99349    1.000
    Co4      Co       0.30618    0.89754    0.97033    1.000
    H1       H        0.67800    0.55920    0.39410    1.000
    H2       H        0.67590    0.68690    0.34460    1.000
    H3       H        0.92580    0.66460    0.32940    1.000
    H4       H        0.92790    0.53810    0.37740    1.000
    H5       H        0.69760    0.82320    0.29960    1.000
    H6       H        0.71430    0.75050    0.26300    1.000
    H7       H        0.64680    0.92040    0.22140    1.000
    H8       H        0.70850    0.92710    0.17120    1.000
    H9       H        0.60070    0.69850    0.16320    1.000
    H10      H        0.49400    0.69200    0.11150    1.000
    H11      H        0.46940    0.94080    0.08870    1.000
    H12      H        0.57440    0.94820    0.14250    1.000
    H13      H        0.85060    0.91400    0.27380    1.000
    H14      H        0.82350    0.97330    0.22610    1.000
    H15      H        0.64830    0.05290    0.34410    1.000
    H16      H        0.67440    0.15860    0.39100    1.000
    H17      H        0.91820    0.13260    0.34330    1.000
    H18      H        0.89030    0.03070    0.29070    1.000
    H19      H        0.88660    0.79600    0.21700    1.000
    H20      H        0.81950    0.76830    0.18410    1.000
    H21      H        0.96150    0.73210    0.15350    1.000
    H22      H        0.08720    0.71020    0.10080    1.000
    H23      H        0.06870    0.95050    0.04960    1.000
    H24      H        0.93980    0.97060    0.09570    1.000
    H25      H        0.02580    0.39320    0.51510    1.000
    H26      H        0.16770    0.39030    0.51750    1.000
    H27      H        0.19730    0.20590    0.42680    1.000
    H28      H        0.05270    0.21150    0.42750    1.000
    H29      H        0.32190    0.24990    0.45570    1.000
    H30      H        0.30200    0.37960    0.51210    1.000
    H31      H        0.43510    0.45670    0.50480    1.000
    H32      H        0.57510    0.44070    0.51810    1.000
    H33      H        0.59120    0.20840    0.49050    1.000
    H34      H        0.44790    0.21570    0.48210    1.000
    H35      H        0.55920    0.67800    0.89410    1.000
    H36      H        0.68690    0.67590    0.84460    1.000
    H37      H        0.66460    0.92580    0.82940    1.000
    H38      H        0.53810    0.92790    0.87740    1.000
    H39      H        0.82320    0.69760    0.79960    1.000
    H40      H        0.75050    0.71430    0.76300    1.000
    H41      H        0.92040    0.64680    0.72140    1.000
    H42      H        0.92710    0.70850    0.67120    1.000
    H43      H        0.69850    0.60070    0.66320    1.000
    H44      H        0.69200    0.49400    0.61150    1.000
    H45      H        0.94080    0.46940    0.58870    1.000
    H46      H        0.94820    0.57440    0.64250    1.000
    H47      H        0.91400    0.85060    0.77380    1.000
    H48      H        0.97330    0.82350    0.72610    1.000
    H49      H        0.05290    0.64830    0.84410    1.000
    H50      H        0.15860    0.67440    0.89100    1.000
    H51      H        0.13260    0.91820    0.84330    1.000
    H52      H        0.03070    0.89030    0.79070    1.000
    H53      H        0.79600    0.88660    0.71700    1.000
    H54      H        0.76830    0.81950    0.68410    1.000
    H55      H        0.73210    0.96150    0.65350    1.000
    H56      H        0.71020    0.08720    0.60080    1.000
    H57      H        0.95050    0.06870    0.54960    1.000
    H58      H        0.97060    0.93980    0.59570    1.000
    H59      H        0.39320    0.02580    0.01510    1.000
    H60      H        0.39030    0.16770    0.01750    1.000
    H61      H        0.20590    0.19730    0.92680    1.000
    H62      H        0.21150    0.05270    0.92750    1.000
    H63      H        0.24990    0.32190    0.95570    1.000
    H64      H        0.37960    0.30200    0.01210    1.000
    H65      H        0.45670    0.43510    0.00480    1.000
    H66      H        0.44070    0.57510    0.01810    1.000
    H67      H        0.20840    0.59120    0.99050    1.000
    H68      H        0.21570    0.44790    0.98210    1.000
    C1       C        0.80612    0.45304    0.42286    1.000
    C2       C        0.80341    0.53479    0.39045    1.000
    C3       C        0.72836    0.58012    0.38064    1.000
    C4       C        0.72686    0.65668    0.35093    1.000
    C5       C        0.80109    0.68729    0.33100    1.000
    C6       C        0.87522    0.64302    0.34189    1.000
    C7       C        0.87651    0.56755    0.37088    1.000
    C8       C        0.73950    0.79548    0.27629    1.000
    C9       C        0.76778    0.85840    0.23269    1.000
    C10      C        0.69093    0.89023    0.20081    1.000
    C11      C        0.59794    0.82414    0.15637    1.000
    C12      C        0.57435    0.74763    0.14810    1.000
    C13      C        0.51061    0.74411    0.11694    1.000
    C14      C        0.47162    0.81550    0.09410    1.000
    C15      C        0.49564    0.89146    0.10366    1.000
    C16      C        0.55918    0.89618    0.13563    1.000
    C17      C        0.40881    0.81027    0.05660    1.000
    C18      C        0.80361    0.93433    0.25409    1.000
    C19      C        0.76657    0.03557    0.31207    1.000
    C20      C        0.70213    0.07053    0.34272    1.000
    C21      C        0.71857    0.13237    0.37131    1.000
    C22      C        0.79905    0.15755    0.37203    1.000
    C23      C        0.86348    0.11838    0.34266    1.000
    C24      C        0.84705    0.05651    0.31135    1.000
    C25      C        0.81463    0.22031    0.40752    1.000
    C26      C        0.83925    0.81619    0.19756    1.000
    C27      C        0.93926    0.85426    0.12921    1.000
    C28      C        0.98221    0.77601    0.13179    1.000
    C29      C        0.05883    0.76361    0.10070    1.000
    C30      C        0.09133    0.82853    0.07083    1.000
    C31      C        0.04691    0.90551    0.06977    1.000
    C32      C        0.97009    0.91807    0.09813    1.000
    C33      C        0.17494    0.81654    0.04073    1.000
    C34      C        0.06050    0.35396    0.49730    1.000
    C35      C        0.14605    0.35245    0.49888    1.000
    C36      C        0.20019    0.29549    0.47328    1.000
    C37      C        0.16367    0.24419    0.44590    1.000
    C38      C        0.07594    0.24832    0.44609    1.000
    C39      C        0.29116    0.29188    0.47325    1.000
    C40      C        0.33290    0.33850    0.49395    1.000
    C41      C        0.42510    0.33630    0.49320    1.000
    C42      C        0.46560    0.40480    0.50200    1.000
    C43      C        0.55020    0.39680    0.50670    1.000
    C44      C        0.55940    0.26020    0.49120    1.000
    C45      C        0.47260    0.26360    0.48790    1.000
    C46      C        0.45304    0.80612    0.92286    1.000
    C47      C        0.53479    0.80341    0.89045    1.000
    C48      C        0.58012    0.72836    0.88064    1.000
    C49      C        0.65668    0.72686    0.85093    1.000
    C50      C        0.68729    0.80109    0.83100    1.000
    C51      C        0.64302    0.87522    0.84189    1.000
    C52      C        0.56755    0.87651    0.87088    1.000
    C53      C        0.79548    0.73950    0.77629    1.000
    C54      C        0.85840    0.76778    0.73269    1.000
    C55      C        0.89023    0.69093    0.70081    1.000
    C56      C        0.82414    0.59794    0.65637    1.000
    C57      C        0.74763    0.57435    0.64810    1.000
    C58      C        0.74411    0.51061    0.61694    1.000
    C59      C        0.81550    0.47162    0.59410    1.000
    C60      C        0.89146    0.49564    0.60366    1.000
    C61      C        0.89618    0.55918    0.63563    1.000
    C62      C        0.81027    0.40881    0.55660    1.000
    C63      C        0.93433    0.80361    0.75409    1.000
    C64      C        0.03557    0.76657    0.81207    1.000
    C65      C        0.07053    0.70213    0.84272    1.000
    C66      C        0.13237    0.71857    0.87131    1.000
    C67      C        0.15755    0.79905    0.87203    1.000
    C68      C        0.11838    0.86348    0.84266    1.000
    C69      C        0.05651    0.84705    0.81135    1.000
    C70      C        0.22031    0.81463    0.90752    1.000
    C71      C        0.81619    0.83925    0.69756    1.000
    C72      C        0.85426    0.93926    0.62921    1.000
    C73      C        0.77601    0.98221    0.63179    1.000
    C74      C        0.76361    0.05883    0.60070    1.000
    C75      C        0.82853    0.09133    0.57083    1.000
    C76      C        0.90551    0.04691    0.56977    1.000
    C77      C        0.91807    0.97009    0.59813    1.000
    C78      C        0.81654    0.17494    0.54073    1.000
    C79      C        0.35396    0.06050    0.99730    1.000
    C80      C        0.35245    0.14605    0.99888    1.000
    C81      C        0.29549    0.20019    0.97328    1.000
    C82      C        0.24419    0.16367    0.94590    1.000
    C83      C        0.24832    0.07594    0.94609    1.000
    C84      C        0.29188    0.29116    0.97325    1.000
    C85      C        0.33850    0.33290    0.99395    1.000
    C86      C        0.33630    0.42510    0.99320    1.000
    C87      C        0.40480    0.46560    0.00200    1.000
    C88      C        0.39680    0.55020    0.00670    1.000
    C89      C        0.26020    0.55940    0.99120    1.000
    C90      C        0.26360    0.47260    0.98790    1.000
    N1       N        0.59700    0.32700    0.49500    1.000
    N2       N        0.02513    0.30209    0.47147    1.000
    N3       N        0.32700    0.59700    0.99500    1.000
    N4       N        0.30209    0.02513    0.97147    1.000
    O1       O        0.73718    0.42876    0.44381    1.000
    O2       O        0.87711    0.41419    0.42720    1.000
    O3       O        0.80852    0.76238    0.30198    1.000
    O4       O        0.66352    0.81758    0.18638    1.000
    O5       O        0.39114    0.73698    0.05014    1.000
    O6       O        0.37887    0.87621    0.03368    1.000
    O7       O        0.74104    0.97400    0.28424    1.000
    O8       O        0.88920    0.23516    0.41167    1.000
    O9       O        0.75063    0.25241    0.43308    1.000
    O10      O        0.86453    0.87403    0.15770    1.000
    O11      O        0.21142    0.74422    0.03862    1.000
    O12      O        0.20284    0.88268    0.01799    1.000
    O13      O        0.42876    0.73718    0.94381    1.000
    O14      O        0.41419    0.87711    0.92720    1.000
    O15      O        0.76238    0.80852    0.80198    1.000
    O16      O        0.81758    0.66352    0.68638    1.000
    O17      O        0.73698    0.39114    0.55014    1.000
    O18      O        0.87621    0.37887    0.53368    1.000
    O19      O        0.97400    0.74104    0.78424    1.000
    O20      O        0.23516    0.88920    0.91167    1.000
    O21      O        0.25241    0.75063    0.93308    1.000
    O22      O        0.87403    0.86453    0.65770    1.000
    O23      O        0.74422    0.21142    0.53862    1.000
    O24      O        0.88268    0.20284    0.51799    1.000
    Co5      Co       0.67878    0.27278    0.00651    1.000
    Co6      Co       0.69382    0.10246    0.02967    1.000
    Co7      Co       0.27278    0.67878    0.50651    1.000
    Co8      Co       0.10246    0.69382    0.52967    1.000
    H69      H        0.44080    0.32200    0.10590    1.000
    H70      H        0.31310    0.32410    0.15540    1.000
    H71      H        0.33540    0.07420    0.17060    1.000
    H72      H        0.46190    0.07210    0.12260    1.000
    H73      H        0.17680    0.30240    0.20040    1.000
    H74      H        0.24950    0.28570    0.23700    1.000
    H75      H        0.07960    0.35320    0.27860    1.000
    H76      H        0.07290    0.29150    0.32880    1.000
    H77      H        0.30150    0.39930    0.33680    1.000
    H78      H        0.30800    0.50600    0.38850    1.000
    H79      H        0.05920    0.53060    0.41130    1.000
    H80      H        0.05180    0.42560    0.35750    1.000
    H81      H        0.08600    0.14940    0.22620    1.000
    H82      H        0.02670    0.17650    0.27390    1.000
    H83      H        0.94710    0.35170    0.15590    1.000
    H84      H        0.84140    0.32560    0.10900    1.000
    H85      H        0.86740    0.08180    0.15670    1.000
    H86      H        0.96930    0.10970    0.20930    1.000
    H87      H        0.20400    0.11340    0.28300    1.000
    H88      H        0.23170    0.18050    0.31590    1.000
    H89      H        0.26790    0.03850    0.34650    1.000
    H90      H        0.28980    0.91280    0.39920    1.000
    H91      H        0.04950    0.93130    0.45040    1.000
    H92      H        0.02940    0.06020    0.40430    1.000
    H93      H        0.60680    0.97420    0.98490    1.000
    H94      H        0.60970    0.83230    0.98250    1.000
    H95      H        0.79410    0.80270    0.07320    1.000
    H96      H        0.78850    0.94730    0.07250    1.000
    H97      H        0.75010    0.67810    0.04430    1.000
    H98      H        0.62040    0.69800    0.98790    1.000
    H99      H        0.54330    0.56490    0.99520    1.000
    H100     H        0.55930    0.42490    0.98190    1.000
    H101     H        0.79160    0.40880    0.00950    1.000
    H102     H        0.78430    0.55210    0.01790    1.000
    H103     H        0.32200    0.44080    0.60590    1.000
    H104     H        0.32410    0.31310    0.65540    1.000
    H105     H        0.07420    0.33540    0.67060    1.000
    H106     H        0.07210    0.46190    0.62260    1.000
    H107     H        0.30240    0.17680    0.70040    1.000
    H108     H        0.28570    0.24950    0.73700    1.000
    H109     H        0.35320    0.07960    0.77860    1.000
    H110     H        0.29150    0.07290    0.82880    1.000
    H111     H        0.39930    0.30150    0.83680    1.000
    H112     H        0.50600    0.30800    0.88850    1.000
    H113     H        0.53060    0.05920    0.91130    1.000
    H114     H        0.42560    0.05180    0.85750    1.000
    H115     H        0.14940    0.08600    0.72620    1.000
    H116     H        0.17650    0.02670    0.77390    1.000
    H117     H        0.35170    0.94710    0.65590    1.000
    H118     H        0.32560    0.84140    0.60900    1.000
    H119     H        0.08180    0.86740    0.65670    1.000
    H120     H        0.10970    0.96930    0.70930    1.000
    H121     H        0.11340    0.20400    0.78300    1.000
    H122     H        0.18050    0.23170    0.81590    1.000
    H123     H        0.03850    0.26790    0.84650    1.000
    H124     H        0.91280    0.28980    0.89920    1.000
    H125     H        0.93130    0.04950    0.95040    1.000
    H126     H        0.06020    0.02940    0.90430    1.000
    H127     H        0.97420    0.60680    0.48490    1.000
    H128     H        0.83230    0.60970    0.48250    1.000
    H129     H        0.80270    0.79410    0.57320    1.000
    H130     H        0.94730    0.78850    0.57250    1.000
    H131     H        0.67810    0.75010    0.54430    1.000
    H132     H        0.69800    0.62040    0.48790    1.000
    H133     H        0.56490    0.54330    0.49520    1.000
    H134     H        0.42490    0.55930    0.48190    1.000
    H135     H        0.40880    0.79160    0.50950    1.000
    H136     H        0.55210    0.78430    0.51790    1.000
    C91      C        0.54696    0.19388    0.07714    1.000
    C92      C        0.46521    0.19659    0.10955    1.000
    C93      C        0.41988    0.27164    0.11936    1.000
    C94      C        0.34332    0.27314    0.14907    1.000
    C95      C        0.31271    0.19891    0.16900    1.000
    C96      C        0.35698    0.12478    0.15811    1.000
    C97      C        0.43245    0.12349    0.12912    1.000
    C98      C        0.20452    0.26050    0.22371    1.000
    C99      C        0.14160    0.23222    0.26731    1.000
    C100     C        0.10977    0.30907    0.29919    1.000
    C101     C        0.17586    0.40206    0.34363    1.000
    C102     C        0.25237    0.42565    0.35190    1.000
    C103     C        0.25589    0.48939    0.38306    1.000
    C104     C        0.18450    0.52838    0.40590    1.000
    C105     C        0.10854    0.50436    0.39634    1.000
    C106     C        0.10382    0.44082    0.36437    1.000
    C107     C        0.18973    0.59119    0.44340    1.000
    C108     C        0.06567    0.19639    0.24591    1.000
    C109     C        0.96443    0.23343    0.18793    1.000
    C110     C        0.92947    0.29787    0.15728    1.000
    C111     C        0.86763    0.28143    0.12869    1.000
    C112     C        0.84245    0.20095    0.12797    1.000
    C113     C        0.88162    0.13652    0.15734    1.000
    C114     C        0.94349    0.15295    0.18865    1.000
    C115     C        0.77969    0.18537    0.09248    1.000
    C116     C        0.18381    0.16075    0.30244    1.000
    C117     C        0.14574    0.06074    0.37079    1.000
    C118     C        0.22399    0.01779    0.36821    1.000
    C119     C        0.23639    0.94117    0.39930    1.000
    C120     C        0.17147    0.90867    0.42917    1.000
    C121     C        0.09449    0.95309    0.43023    1.000
    C122     C        0.08193    0.02991    0.40187    1.000
    C123     C        0.18346    0.82506    0.45927    1.000
    C124     C        0.64604    0.93950    0.00270    1.000
    C125     C        0.64755    0.85395    0.00112    1.000
    C126     C        0.70451    0.79981    0.02672    1.000
    C127     C        0.75581    0.83633    0.05410    1.000
    C128     C        0.75168    0.92406    0.05391    1.000
    C129     C        0.70812    0.70884    0.02675    1.000
    C130     C        0.66150    0.66710    0.00605    1.000
    C131     C        0.66370    0.57490    0.00680    1.000
    C132     C        0.59520    0.53440    0.99800    1.000
    C133     C        0.60320    0.44980    0.99330    1.000
    C134     C        0.73980    0.44060    0.00880    1.000
    C135     C        0.73640    0.52740    0.01210    1.000
    C136     C        0.19388    0.54696    0.57714    1.000
    C137     C        0.19659    0.46521    0.60955    1.000
    C138     C        0.27164    0.41988    0.61936    1.000
    C139     C        0.27314    0.34332    0.64907    1.000
    C140     C        0.19891    0.31271    0.66900    1.000
    C141     C        0.12478    0.35698    0.65811    1.000
    C142     C        0.12349    0.43245    0.62912    1.000
    C143     C        0.26050    0.20452    0.72371    1.000
    C144     C        0.23222    0.14160    0.76731    1.000
    C145     C        0.30907    0.10977    0.79919    1.000
    C146     C        0.40206    0.17586    0.84363    1.000
    C147     C        0.42565    0.25237    0.85190    1.000
    C148     C        0.48939    0.25589    0.88306    1.000
    C149     C        0.52838    0.18450    0.90590    1.000
    C150     C        0.50436    0.10854    0.89634    1.000
    C151     C        0.44082    0.10382    0.86437    1.000
    C152     C        0.59119    0.18973    0.94340    1.000
    C153     C        0.19639    0.06567    0.74591    1.000
    C154     C        0.23343    0.96443    0.68793    1.000
    C155     C        0.29787    0.92947    0.65728    1.000
    C156     C        0.28143    0.86763    0.62869    1.000
    C157     C        0.20095    0.84245    0.62797    1.000
    C158     C        0.13652    0.88162    0.65734    1.000
    C159     C        0.15295    0.94349    0.68865    1.000
    C160     C        0.18537    0.77969    0.59248    1.000
    C161     C        0.16075    0.18381    0.80244    1.000
    C162     C        0.06074    0.14574    0.87079    1.000
    C163     C        0.01779    0.22399    0.86821    1.000
    C164     C        0.94117    0.23639    0.89930    1.000
    C165     C        0.90867    0.17147    0.92917    1.000
    C166     C        0.95309    0.09449    0.93023    1.000
    C167     C        0.02991    0.08193    0.90187    1.000
    C168     C        0.82506    0.18346    0.95927    1.000
    C169     C        0.93950    0.64604    0.50270    1.000
    C170     C        0.85395    0.64755    0.50112    1.000
    C171     C        0.79981    0.70451    0.52672    1.000
    C172     C        0.83633    0.75581    0.55410    1.000
    C173     C        0.92406    0.75168    0.55391    1.000
    C174     C        0.70884    0.70812    0.52675    1.000
    C175     C        0.66710    0.66150    0.50605    1.000
    C176     C        0.57490    0.66370    0.50680    1.000
    C177     C        0.53440    0.59520    0.49800    1.000
    C178     C        0.44980    0.60320    0.49330    1.000
    C179     C        0.44060    0.73980    0.50880    1.000
    C180     C        0.52740    0.73640    0.51210    1.000
    N5       N        0.67300    0.40300    0.00500    1.000
    N6       N        0.69791    0.97487    0.02853    1.000
    N7       N        0.40300    0.67300    0.50500    1.000
    N8       N        0.97487    0.69791    0.52853    1.000
    O25      O        0.57124    0.26282    0.05619    1.000
    O26      O        0.58581    0.12289    0.07280    1.000
    O27      O        0.23762    0.19148    0.19802    1.000
    O28      O        0.18242    0.33648    0.31362    1.000
    O29      O        0.26302    0.60886    0.44986    1.000
    O30      O        0.12379    0.62113    0.46632    1.000
    O31      O        0.02600    0.25896    0.21576    1.000
    O32      O        0.76484    0.11080    0.08833    1.000
    O33      O        0.74759    0.24937    0.06692    1.000
    O34      O        0.12597    0.13547    0.34230    1.000
    O35      O        0.25578    0.78858    0.46138    1.000
    O36      O        0.11732    0.79716    0.48201    1.000
    O37      O        0.26282    0.57124    0.55619    1.000
    O38      O        0.12289    0.58581    0.57280    1.000
    O39      O        0.19148    0.23762    0.69802    1.000
    O40      O        0.33648    0.18242    0.81362    1.000
    O41      O        0.60886    0.26302    0.94986    1.000
    O42      O        0.62113    0.12379    0.96632    1.000
    O43      O        0.25896    0.02600    0.71576    1.000
    O44      O        0.11080    0.76484    0.58833    1.000
    O45      O        0.24937    0.74759    0.56692    1.000
    O46      O        0.13547    0.12597    0.84230    1.000
    O47      O        0.78858    0.25578    0.96138    1.000
    O48      O        0.79716    0.11732    0.98201    1.000
