# CIF file generated by openbabel 3.1.0, see https://openbabel.org
data_I
_chemical_name_common 'image0'
_cell_length_a 14.104
_cell_length_b 26.654
_cell_length_c 7.645
_cell_angle_alpha 90
_cell_angle_beta 90
_cell_angle_gamma 90
_space_group_name_H-M_alt 'P 1'
_space_group_name_Hall 'P 1'
loop_
    _symmetry_equiv_pos_as_xyz
    x,y,z
loop_
    _atom_site_label
    _atom_site_type_symbol
    _atom_site_fract_x
    _atom_site_fract_y
    _atom_site_fract_z
    _atom_site_occupancy
    Cd1      Cd       0.21989    0.11415    0.13620    1.000
    N1       N        0.24810    0.17160    0.91400    1.000
    N2       N        0.23710    0.16940    0.35700    1.000
    N3       N        0.17060    0.04940    0.33900    1.000
    N4       N        0.12530    0.91760    0.63100    1.000
    N5       N        0.18320    0.05680    0.90500    1.000
    N6       N        0.05570    0.12530    0.08200    1.000
    C1       C        0.24720    0.20080    0.80500    1.000
    C2       C        0.24010    0.20070    0.46200    1.000
    C3       C        0.10470    0.03040    0.40400    1.000
    C4       C        0.07680    0.94850    0.58400    1.000
    C5       C        0.08000    0.05770    0.87800    1.000
    C6       C        0.02700    0.09400    0.94000    1.000
    C7       C        0.92300    0.09600    0.89500    1.000
    Cd2      Cd       0.28011    0.88585    0.63620    1.000
    N7       N        0.25190    0.82840    0.41400    1.000
    N8       N        0.26290    0.83060    0.85700    1.000
    N9       N        0.32940    0.95060    0.83900    1.000
    N10      N        0.37470    0.08240    0.13100    1.000
    N11      N        0.31680    0.94320    0.40500    1.000
    N12      N        0.44430    0.87470    0.58200    1.000
    C8       C        0.25280    0.79920    0.30500    1.000
    C9       C        0.25990    0.79930    0.96200    1.000
    C10      C        0.39530    0.96960    0.90400    1.000
    C11      C        0.42320    0.05150    0.08400    1.000
    C12      C        0.42000    0.94230    0.37800    1.000
    C13      C        0.47300    0.90600    0.44000    1.000
    C14      C        0.57700    0.90400    0.39500    1.000
    Cd3      Cd       0.78011    0.61415    0.86380    1.000
    N13      N        0.75190    0.67160    0.08600    1.000
    N14      N        0.76290    0.66940    0.64300    1.000
    N15      N        0.82940    0.54940    0.66100    1.000
    N16      N        0.87470    0.41760    0.36900    1.000
    N17      N        0.81680    0.55680    0.09500    1.000
    N18      N        0.94430    0.62530    0.91800    1.000
    C15      C        0.75280    0.70080    0.19500    1.000
    C16      C        0.75990    0.70070    0.53800    1.000
    C17      C        0.89530    0.53040    0.59600    1.000
    C18      C        0.92320    0.44850    0.41600    1.000
    C19      C        0.92000    0.55770    0.12200    1.000
    C20      C        0.97300    0.59400    0.06000    1.000
    C21      C        0.07700    0.59600    0.10500    1.000
    Cd4      Cd       0.71989    0.38585    0.36380    1.000
    N19      N        0.74810    0.32840    0.58600    1.000
    N20      N        0.73710    0.33060    0.14300    1.000
    N21      N        0.67060    0.45060    0.16100    1.000
    N22      N        0.62530    0.58240    0.86900    1.000
    N23      N        0.68320    0.44320    0.59500    1.000
    N24      N        0.55570    0.37470    0.41800    1.000
    C22      C        0.74720    0.29920    0.69500    1.000
    C23      C        0.74010    0.29930    0.03800    1.000
    C24      C        0.60470    0.46960    0.09600    1.000
    C25      C        0.57680    0.55150    0.91600    1.000
    C26      C        0.58000    0.44230    0.62200    1.000
    C27      C        0.52700    0.40600    0.56000    1.000
    C28      C        0.42300    0.40400    0.60500    1.000
    Cd5      Cd       0.78011    0.88585    0.86380    1.000
    N25      N        0.75190    0.82840    0.08600    1.000
    N26      N        0.76290    0.83060    0.64300    1.000
    N27      N        0.82940    0.95060    0.66100    1.000
    N28      N        0.87470    0.08240    0.36900    1.000
    N29      N        0.81680    0.94320    0.09500    1.000
    N30      N        0.94430    0.87470    0.91800    1.000
    C29      C        0.75280    0.79920    0.19500    1.000
    C30      C        0.75990    0.79930    0.53800    1.000
    C31      C        0.89530    0.96960    0.59600    1.000
    C32      C        0.92320    0.05150    0.41600    1.000
    C33      C        0.92000    0.94230    0.12200    1.000
    C34      C        0.97300    0.90600    0.06000    1.000
    C35      C        0.07700    0.90400    0.10500    1.000
    Cd6      Cd       0.71989    0.11415    0.36380    1.000
    N31      N        0.74810    0.17160    0.58600    1.000
    N32      N        0.73710    0.16940    0.14300    1.000
    N33      N        0.67060    0.04940    0.16100    1.000
    N34      N        0.62530    0.91760    0.86900    1.000
    N35      N        0.68320    0.05680    0.59500    1.000
    N36      N        0.55570    0.12530    0.41800    1.000
    C36      C        0.74720    0.20080    0.69500    1.000
    C37      C        0.74010    0.20070    0.03800    1.000
    C38      C        0.60470    0.03040    0.09600    1.000
    C39      C        0.57680    0.94850    0.91600    1.000
    C40      C        0.58000    0.05770    0.62200    1.000
    C41      C        0.52700    0.09400    0.56000    1.000
    C42      C        0.42300    0.09600    0.60500    1.000
    Cd7      Cd       0.21989    0.38585    0.13620    1.000
    N37      N        0.24810    0.32840    0.91400    1.000
    N38      N        0.23710    0.33060    0.35700    1.000
    N39      N        0.17060    0.45060    0.33900    1.000
    N40      N        0.12530    0.58240    0.63100    1.000
    N41      N        0.18320    0.44320    0.90500    1.000
    N42      N        0.05570    0.37470    0.08200    1.000
    C43      C        0.24720    0.29920    0.80500    1.000
    C44      C        0.24010    0.29930    0.46200    1.000
    C45      C        0.10470    0.46960    0.40400    1.000
    C46      C        0.07680    0.55150    0.58400    1.000
    C47      C        0.08000    0.44230    0.87800    1.000
    C48      C        0.02700    0.40600    0.94000    1.000
    C49      C        0.92300    0.40400    0.89500    1.000
    Cd8      Cd       0.28011    0.61415    0.63620    1.000
    N43      N        0.25190    0.67160    0.41400    1.000
    N44      N        0.26290    0.66940    0.85700    1.000
    N45      N        0.32940    0.54940    0.83900    1.000
    N46      N        0.37470    0.41760    0.13100    1.000
    N47      N        0.31680    0.55680    0.40500    1.000
    N48      N        0.44430    0.62530    0.58200    1.000
    C50      C        0.25280    0.70080    0.30500    1.000
    C51      C        0.25990    0.70070    0.96200    1.000
    C52      C        0.39530    0.53040    0.90400    1.000
    C53      C        0.42320    0.44850    0.08400    1.000
    C54      C        0.42000    0.55770    0.37800    1.000
    C55      C        0.47300    0.59400    0.44000    1.000
    C56      C        0.57700    0.59600    0.39500    1.000
    Ni1      Ni       0.24380    0.25000    0.63160    1.000
    Ni2      Ni       0.25620    0.75000    0.13160    1.000
    Ni3      Ni       0.75620    0.75000    0.36840    1.000
    Ni4      Ni       0.74380    0.25000    0.86840    1.000
    Ni5      Ni       0.00000    0.00000    0.50000    1.000
    Ni6      Ni       0.50000    0.00000    0.00000    1.000
    Ni7      Ni       0.00000    0.50000    0.50000    1.000
    Ni8      Ni       0.50000    0.50000    0.00000    1.000
