data_functionalizedCrystal
_audit_creation_method	'EQeq! by Chris Wilmer'
_symmetry_space_group_name_H-M	'P1'
_symmetry_Int_Tables_number	1
_symmetry_cell_setting	triclinic
loop_
_symmetry_equiv_pos_as_xyz
  x,y,z
_cell_length_a	6.605
_cell_length_b	10.4478
_cell_length_c	11.0881
_cell_angle_alpha	62.064
_cell_angle_beta	73.41
_cell_angle_gamma	78.404
loop_
_atom_site_label
_atom_site_type_symbol
_atom_site_fract_x
_atom_site_fract_y
_atom_site_fract_z
_atom_site_charge
Mof_Cu	Cu	-3.30068e-17	0	0.5	0.838
Mof_Cu	Cu	0.5	0	0.5	0.813
Mof_H 	H 	0.5867	0.731	0.4429	0.065
Mof_H 	H 	0.1462	0.4453	0.5776	0.055
Mof_H 	H 	0.3478	0.0465	0.8728	0.063
Mof_H 	H 	0.7638	0.9503	0.9083	0.076
Mof_H 	H 	0.4133	0.269	0.5571	0.024
Mof_H 	H 	0.8538	0.5547	0.4224	0.073
Mof_H 	H 	0.6522	0.9535	0.1272	0.036
Mof_H 	H 	0.2362	0.0497	0.0917	0.022
Mof_C 	C 	0.1363	0.9961	0.7289	0.419
Mof_C 	C 	0.1647	0.7177	0.526	0.255
Mof_C 	C 	0.5514	0.6371	0.4663	-0.038
Mof_C 	C 	0.0655	0.9987	0.8697	-0.003
Mof_C 	C 	0.3402	0.6054	0.5132	-0.033
Mof_C 	C 	0.2901	0.4674	0.5463	-0.05
Mof_C 	C 	0.2063	0.0277	0.9244	-0.139
Mof_C 	C 	0.86	0.9707	0.9453	0.019
Mof_C 	C 	0.8637	0.0039	0.2711	0.322
Mof_C 	C 	0.8353	0.2823	0.474	0.41
Mof_C 	C 	0.4486	0.3629	0.5337	0.015
Mof_C 	C 	0.9345	0.0013	0.1303	-0.16
Mof_C 	C 	0.6598	0.3946	0.4868	-0.106
Mof_C 	C 	0.7099	0.5326	0.4537	0.014
Mof_C 	C 	0.7937	0.9723	0.0756	0.114
Mof_C 	C 	0.14	0.0293	0.0547	-0.036
Mof_O 	O 	0.3292	0.0125	0.6698	-0.535
Mof_O 	O 	0.213	0.8324	0.5207	-0.375
Mof_O 	O 	0.9977	0.978	0.6841	-0.323
Mof_O 	O 	0.9811	0.6919	0.5405	-0.203
Mof_O 	O 	0.6708	0.9875	0.3302	-0.318
Mof_O 	O 	0.787	0.1676	0.4793	-0.456
Mof_O 	O 	0.0023	0.022	0.3159	-0.487
Mof_O 	O 	0.0189	0.3081	0.4595	-0.371
_end
