data_functionalizedCrystal
_audit_creation_method	'EQeq! by Chris Wilmer'
_symmetry_space_group_name_H-M	'P1'
_symmetry_Int_Tables_number	1
_symmetry_cell_setting	triclinic
loop_
_symmetry_equiv_pos_as_xyz
  x,y,z
_cell_length_a	27.9999
_cell_length_b	27.9999
_cell_length_c	29.5858
_cell_angle_alpha	61.7579
_cell_angle_beta	61.7579
_cell_angle_gamma	90
loop_
_atom_site_label
_atom_site_type_symbol
_atom_site_fract_x
_atom_site_fract_y
_atom_site_fract_z
_atom_site_charge
Mof_Cu	Cu	0.9566	0.00561	0.98891	0.956
Mof_Cu	Cu	0.55466	0.00564	0.98891	0.957
Mof_Cu	Cu	0.50579	0.0542	0.48898	0.958
Mof_Cu	Cu	0.50566	0.45689	0.48891	0.958
Mof_Cu	Cu	0.44594	0.99468	0.01099	0.957
Mof_Cu	Cu	0.04336	0.99454	0.01085	0.955
Mof_Cu	Cu	0.4947	0.94579	0.51108	0.958
Mof_Cu	Cu	0.49458	0.54319	0.511	0.958
Mof_H 	H 	0.15138	0.16179	0.88515	0.04
Mof_H 	H 	0.19751	0.26344	0.81215	0.048
Mof_H 	H 	0.0594	0.28075	0.78355	0.058
Mof_H 	H 	0.01313	0.17922	0.85632	0.042
Mof_H 	H 	0.46326	0.95316	0.88533	0.041
Mof_H 	H 	0.49013	0.92447	0.81234	0.048
Mof_H 	H 	0.65682	0.93574	0.78379	0.058
Mof_H 	H 	0.63035	0.96454	0.85649	0.042
Mof_H 	H 	0.66194	0.96317	0.38511	0.04
Mof_H 	H 	0.76364	0.99021	0.31203	0.047
Mof_H 	H 	0.78063	0.15684	0.28367	0.058
Mof_H 	H 	0.67914	0.13019	0.35645	0.042
Mof_H 	H 	0.45315	0.65169	0.38512	0.04
Mof_H 	H 	0.42445	0.69775	0.31211	0.048
Mof_H 	H 	0.43568	0.55951	0.28373	0.058
Mof_H 	H 	0.46447	0.51333	0.35646	0.042
Mof_H 	H 	0.53682	0.83824	0.1149	0.04
Mof_H 	H 	0.50973	0.73654	0.18794	0.048
Mof_H 	H 	0.34316	0.71964	0.21617	0.058
Mof_H 	H 	0.36987	0.82118	0.14339	0.041
Mof_H 	H 	0.84849	0.04703	0.11476	0.041
Mof_H 	H 	0.80246	0.07566	0.18781	0.048
Mof_H 	H 	0.94068	0.06426	0.21622	0.058
Mof_H 	H 	0.98685	0.03554	0.14343	0.042
Mof_H 	H 	0.54704	0.03676	0.61493	0.039
Mof_H 	H 	0.57546	0.00969	0.68816	0.046
Mof_H 	H 	0.56413	0.84305	0.71655	0.058
Mof_H 	H 	0.53561	0.86974	0.64361	0.042
Mof_H 	H 	0.33821	0.34828	0.61485	0.04
Mof_H 	H 	0.23651	0.30226	0.68801	0.048
Mof_H 	H 	0.21966	0.44059	0.71626	0.058
Mof_H 	H 	0.32115	0.48671	0.64339	0.042
Mof_H 	H 	0.84855	0.83829	0.11477	0.04
Mof_H 	H 	0.80254	0.73662	0.18775	0.048
Mof_H 	H 	0.94074	0.71951	0.21619	0.058
Mof_H 	H 	0.9869	0.82105	0.14345	0.042
Mof_H 	H 	0.53704	0.0471	0.11483	0.041
Mof_H 	H 	0.50998	0.07573	0.18791	0.048
Mof_H 	H 	0.34337	0.06437	0.21625	0.058
Mof_H 	H 	0.37003	0.03565	0.14346	0.042
Mof_H 	H 	0.33833	0.03694	0.61472	0.04
Mof_H 	H 	0.23662	0.0099	0.68781	0.047
Mof_H 	H 	0.21961	0.84331	0.71614	0.058
Mof_H 	H 	0.3211	0.86993	0.64336	0.042
Mof_H 	H 	0.54705	0.34844	0.61485	0.04
Mof_H 	H 	0.57577	0.30243	0.68784	0.048
Mof_H 	H 	0.56441	0.44066	0.71625	0.058
Mof_H 	H 	0.53559	0.48677	0.64354	0.042
Mof_H 	H 	0.46359	0.16191	0.88514	0.04
Mof_H 	H 	0.49057	0.26357	0.81204	0.048
Mof_H 	H 	0.65724	0.28072	0.78353	0.058
Mof_H 	H 	0.63065	0.17922	0.85637	0.041
Mof_H 	H 	0.15148	0.9531	0.88518	0.041
Mof_H 	H 	0.19763	0.92448	0.81213	0.048
Mof_H 	H 	0.05949	0.93576	0.78359	0.058
Mof_H 	H 	0.01321	0.96447	0.85638	0.042
Mof_H 	H 	0.45309	0.96319	0.38527	0.039
Mof_H 	H 	0.42449	0.99027	0.31217	0.046
Mof_H 	H 	0.43585	0.15686	0.28387	0.058
Mof_H 	H 	0.46455	0.13018	0.35668	0.042
Mof_H 	H 	0.66197	0.6518	0.38503	0.04
Mof_H 	H 	0.76365	0.69785	0.31186	0.048
Mof_H 	H 	0.78055	0.55953	0.28358	0.058
Mof_H 	H 	0.67907	0.51339	0.35647	0.042
Mof_C 	C 	0.87089	0.05808	0.96813	0.043
Mof_C 	C 	0.82375	0.06199	0.96196	-0.069
Mof_C 	C 	0.04959	0.10121	0.92222	0.363
Mof_C 	C 	0.0787	0.16237	0.87636	-0.099
Mof_C 	C 	0.13117	0.18715	0.86275	0.02
Mof_C 	C 	0.15775	0.24523	0.82075	-0.053
Mof_C 	C 	0.13228	0.27971	0.79173	0.001
Mof_C 	C 	0.07994	0.25501	0.80524	-0.045
Mof_C 	C 	0.05357	0.19691	0.84681	0.019
Mof_C 	C 	0.66122	0.97406	0.96802	0.046
Mof_C 	C 	0.71451	0.97634	0.96188	-0.066
Mof_C 	C 	0.52812	0.97668	0.92235	0.364
Mof_C 	C 	0.54475	0.96136	0.87653	-0.099
Mof_C 	C 	0.50586	0.95018	0.86295	0.021
Mof_C 	C 	0.52127	0.93405	0.82097	-0.053
Mof_C 	C 	0.57577	0.92856	0.792	0.001
Mof_C 	C 	0.6146	0.93979	0.80547	-0.045
Mof_C 	C 	0.59942	0.95635	0.847	0.019
Mof_C 	C 	0.55793	0.16113	0.46798	0.044
Mof_C 	C 	0.56121	0.21457	0.46157	-0.068
Mof_C 	C 	0.60132	0.02789	0.42231	0.365
Mof_C 	C 	0.66243	0.04461	0.37641	-0.1
Mof_C 	C 	0.68726	0.00579	0.36275	0.021
Mof_C 	C 	0.74537	0.02129	0.32073	-0.053
Mof_C 	C 	0.77976	0.07583	0.29176	0.001
Mof_C 	C 	0.75497	0.11459	0.30533	-0.045
Mof_C 	C 	0.69689	0.09931	0.34689	0.02
Mof_C 	C 	0.47276	0.37098	0.46658	0.033
Mof_C 	C 	0.47576	0.32414	0.4603	-0.064
Mof_C 	C 	0.47664	0.54979	0.42226	0.364
Mof_C 	C 	0.46131	0.57894	0.37643	-0.099
Mof_C 	C 	0.45014	0.63143	0.36278	0.02
Mof_C 	C 	0.43402	0.65797	0.32078	-0.053
Mof_C 	C 	0.42853	0.63242	0.29182	0.001
Mof_C 	C 	0.43974	0.58009	0.30538	-0.045
Mof_C 	C 	0.45629	0.55377	0.34692	0.019
Mof_C 	C 	0.33741	0.93934	0.03322	0.031
Mof_C 	C 	0.28432	0.93625	0.03927	-0.063
Mof_C 	C 	0.47224	0.89901	0.07762	0.364
Mof_C 	C 	0.45543	0.83785	0.12349	-0.1
Mof_C 	C 	0.4942	0.81295	0.13721	0.02
Mof_C 	C 	0.47866	0.75484	0.17924	-0.053
Mof_C 	C 	0.42412	0.72047	0.20819	0.001
Mof_C 	C 	0.3854	0.7453	0.19456	-0.045
Mof_C 	C 	0.40073	0.8034	0.15297	0.019
Mof_C 	C 	0.12918	0.02584	0.03177	0.046
Mof_C 	C 	0.17618	0.02321	0.03818	-0.066
Mof_C 	C 	0.95037	0.02352	0.07757	0.363
Mof_C 	C 	0.92125	0.0388	0.12344	-0.098
Mof_C 	C 	0.86876	0.04999	0.1371	0.02
Mof_C 	C 	0.84224	0.06607	0.17913	-0.053
Mof_C 	C 	0.86779	0.07148	0.20811	0.002
Mof_C 	C 	0.92011	0.06026	0.19454	-0.045
Mof_C 	C 	0.94642	0.04375	0.15296	0.019
Mof_C 	C 	0.52579	0.83907	0.53239	0.044
Mof_C 	C 	0.52311	0.78571	0.53873	-0.068
Mof_C 	C 	0.52362	0.97205	0.57775	0.365
Mof_C 	C 	0.53883	0.95531	0.62365	-0.1
Mof_C 	C 	0.54996	0.99413	0.63733	0.021
Mof_C 	C 	0.56594	0.97861	0.67944	-0.052
Mof_C 	C 	0.57133	0.92407	0.70844	0.001
Mof_C 	C 	0.56016	0.88531	0.69485	-0.045
Mof_C 	C 	0.54375	0.90061	0.6532	0.02
Mof_C 	C 	0.44208	0.62858	0.53233	0.044
Mof_C 	C 	0.43841	0.67559	0.53868	-0.068
Mof_C 	C 	0.39897	0.45019	0.57759	0.364
Mof_C 	C 	0.33781	0.42106	0.62347	-0.099
Mof_C 	C 	0.31292	0.36856	0.63719	0.02
Mof_C 	C 	0.25481	0.34206	0.67926	-0.053
Mof_C 	C 	0.22044	0.36766	0.7082	0.001
Mof_C 	C 	0.24529	0.41998	0.6946	-0.045
Mof_C 	C 	0.30338	0.44626	0.65298	0.019
Mof_C 	C 	0.12873	0.94181	0.03186	0.043
Mof_C 	C 	0.17575	0.93756	0.0382	-0.069
Mof_C 	C 	0.95036	0.89896	0.07759	0.364
Mof_C 	C 	0.92128	0.83781	0.12347	-0.099
Mof_C 	C 	0.86881	0.81297	0.13713	0.021
Mof_C 	C 	0.84229	0.75487	0.17911	-0.053
Mof_C 	C 	0.86783	0.72045	0.20808	0.002
Mof_C 	C 	0.92016	0.74521	0.19454	-0.045
Mof_C 	C 	0.94646	0.80332	0.15298	0.019
Mof_C 	C 	0.33885	0.02566	0.03203	0.046
Mof_C 	C 	0.28553	0.02281	0.03812	-0.065
Mof_C 	C 	0.47235	0.02362	0.07762	0.363
Mof_C 	C 	0.45561	0.03889	0.1235	-0.099
Mof_C 	C 	0.49442	0.05006	0.13718	0.02
Mof_C 	C 	0.47889	0.06613	0.17922	-0.053
Mof_C 	C 	0.42436	0.07155	0.20819	0.002
Mof_C 	C 	0.38562	0.06035	0.1946	-0.045
Mof_C 	C 	0.40091	0.04384	0.15302	0.019
Mof_C 	C 	0.43976	0.83743	0.53297	0.033
Mof_C 	C 	0.43682	0.78426	0.53928	-0.064
Mof_C 	C 	0.39905	0.97218	0.57762	0.363
Mof_C 	C 	0.33787	0.9555	0.62341	-0.099
Mof_C 	C 	0.31302	0.99432	0.63707	0.021
Mof_C 	C 	0.2549	0.97881	0.67912	-0.052
Mof_C 	C 	0.2205	0.92428	0.70811	0.001
Mof_C 	C 	0.24529	0.88554	0.6945	-0.045
Mof_C 	C 	0.30338	0.90082	0.65292	0.019
Mof_C 	C 	0.52746	0.62958	0.53303	0.033
Mof_C 	C 	0.52409	0.67643	0.53935	-0.064
Mof_C 	C 	0.52355	0.45032	0.57768	0.364
Mof_C 	C 	0.53883	0.42118	0.62355	-0.099
Mof_C 	C 	0.55003	0.3687	0.6372	0.02
Mof_C 	C 	0.56616	0.34219	0.67918	-0.053
Mof_C 	C 	0.57163	0.36776	0.70813	0.001
Mof_C 	C 	0.56037	0.42007	0.6946	-0.045
Mof_C 	C 	0.5438	0.44635	0.65307	0.019
Mof_C 	C 	0.66123	0.05812	0.96789	0.043
Mof_C 	C 	0.71453	0.06206	0.96173	-0.068
Mof_C 	C 	0.52831	0.10128	0.92226	0.364
Mof_C 	C 	0.54505	0.16243	0.87638	-0.099
Mof_C 	C 	0.50621	0.18724	0.86274	0.02
Mof_C 	C 	0.52169	0.24534	0.8207	-0.053
Mof_C 	C 	0.5762	0.27977	0.79167	0.001
Mof_C 	C 	0.615	0.25502	0.80522	-0.045
Mof_C 	C 	0.59975	0.19694	0.84683	0.019
Mof_C 	C 	0.87096	0.97415	0.968	0.046
Mof_C 	C 	0.82384	0.97642	0.96182	-0.066
Mof_C 	C 	0.04963	0.97661	0.92222	0.363
Mof_C 	C 	0.07878	0.96131	0.87639	-0.099
Mof_C 	C 	0.13127	0.95014	0.86278	0.021
Mof_C 	C 	0.15786	0.93407	0.82076	-0.053
Mof_C 	C 	0.13239	0.92865	0.79172	0.002
Mof_C 	C 	0.08003	0.93981	0.80527	-0.045
Mof_C 	C 	0.05366	0.95631	0.84685	0.019
Mof_C 	C 	0.47281	0.16234	0.46674	0.033
Mof_C 	C 	0.47577	0.21548	0.46041	-0.064
Mof_C 	C 	0.47667	0.02788	0.42243	0.364
Mof_C 	C 	0.46133	0.04461	0.37661	-0.099
Mof_C 	C 	0.45014	0.00581	0.36293	0.021
Mof_C 	C 	0.43408	0.02135	0.32088	-0.052
Mof_C 	C 	0.42869	0.07589	0.29189	0.001
Mof_C 	C 	0.43987	0.11462	0.30551	-0.045
Mof_C 	C 	0.45636	0.09931	0.34711	0.019
Mof_C 	C 	0.55783	0.371	0.46792	0.044
Mof_C 	C 	0.56114	0.32393	0.46157	-0.068
Mof_C 	C 	0.60125	0.54988	0.4223	0.364
Mof_C 	C 	0.66239	0.57902	0.3764	-0.099
Mof_C 	C 	0.68726	0.63153	0.36268	0.02
Mof_C 	C 	0.74537	0.65805	0.3206	-0.053
Mof_C 	C 	0.77975	0.63246	0.29166	0.002
Mof_C 	C 	0.75491	0.58013	0.30525	-0.045
Mof_C 	C 	0.69683	0.55384	0.34688	0.019
Mof_C 	C 	0.7974	0.0199	0.96049	0.025
Mof_C 	C 	0.74229	0.01989	0.96045	0.025
Mof_C 	C 	0.51922	0.24262	0.45963	0.026
Mof_C 	C 	0.51921	0.29779	0.4596	0.026
Mof_C 	C 	0.25741	0.9791	0.03988	0.023
Mof_C 	C 	0.20232	0.97948	0.03972	0.026
Mof_C 	C 	0.4796	0.7574	0.54035	0.026
Mof_C 	C 	0.48027	0.70225	0.54036	0.026
Mof_C 	C 	0.15834	0.34177	0.75001	0.118
Mof_C 	C 	0.5915	0.90818	0.75032	0.118
Mof_C 	C 	0.84182	0.0917	0.24995	0.118
Mof_C 	C 	0.40824	0.6584	0.25004	0.118
Mof_C 	C 	0.84183	0.65839	0.24981	0.118
Mof_C 	C 	0.4085	0.09179	0.25002	0.118
Mof_C 	C 	0.15842	0.9084	0.74991	0.118
Mof_C 	C 	0.59198	0.34183	0.74987	0.118
Mof_N 	N 	0.89291	0.01373	0.97282	-0.186
Mof_N 	N 	0.63449	0.01371	0.9727	-0.185
Mof_N 	N 	0.5141	0.13382	0.4726	-0.18
Mof_N 	N 	0.51401	0.39367	0.47248	-0.18
Mof_N 	N 	0.36609	0.98642	0.02742	-0.181
Mof_N 	N 	0.10698	0.98632	0.02705	-0.186
Mof_N 	N 	0.48654	0.86615	0.52751	-0.18
Mof_N 	N 	0.4862	0.60638	0.52746	-0.18
Mof_O 	O 	0.00241	0.07977	0.93319	-0.405
Mof_O 	O 	0.07176	0.07106	0.95048	-0.405
Mof_O 	O 	0.56439	0.9872	0.93321	-0.404
Mof_O 	O 	0.47768	0.97851	0.9507	-0.403
Mof_O 	O 	0.57992	0.06412	0.43322	-0.406
Mof_O 	O 	0.57116	0.97745	0.45071	-0.406
Mof_O 	O 	0.48719	0.50266	0.43317	-0.405
Mof_O 	O 	0.47845	0.57186	0.45063	-0.405
Mof_O 	O 	0.43604	0.92052	0.06672	-0.406
Mof_O 	O 	0.52272	0.92911	0.04927	-0.406
Mof_O 	O 	0.99751	0.01297	0.06662	-0.403
Mof_O 	O 	0.92822	0.02174	0.04925	-0.403
Mof_O 	O 	0.51307	0.93583	0.56685	-0.406
Mof_O 	O 	0.52189	0.0225	0.54934	-0.406
Mof_O 	O 	0.42042	0.4973	0.56671	-0.406
Mof_O 	O 	0.42913	0.42813	0.5492	-0.405
Mof_O 	O 	0.99753	0.92041	0.06659	-0.405
Mof_O 	O 	0.92818	0.92909	0.04932	-0.405
Mof_O 	O 	0.43611	0.01312	0.0667	-0.404
Mof_O 	O 	0.52279	0.02179	0.04928	-0.403
Mof_O 	O 	0.42049	0.93591	0.56678	-0.405
Mof_O 	O 	0.42925	0.02261	0.54925	-0.405
Mof_O 	O 	0.51302	0.49746	0.56676	-0.405
Mof_O 	O 	0.52176	0.42825	0.54931	-0.405
Mof_O 	O 	0.56454	0.07981	0.93315	-0.406
Mof_O 	O 	0.47783	0.07117	0.95064	-0.406
Mof_O 	O 	0.00249	0.98717	0.93314	-0.403
Mof_O 	O 	0.07176	0.9784	0.95055	-0.403
Mof_O 	O 	0.48731	0.06413	0.43327	-0.405
Mof_O 	O 	0.47845	0.97743	0.45081	-0.405
Mof_O 	O 	0.57981	0.50276	0.43318	-0.406
Mof_O 	O 	0.57109	0.57193	0.45069	-0.405
Mof_O 	O 	0.12759	0.37264	0.75014	-0.191
Mof_O 	O 	0.62215	0.8772	0.75049	-0.191
Mof_O 	O 	0.87262	0.12252	0.24996	-0.191
Mof_O 	O 	0.37737	0.62759	0.25009	-0.191
Mof_O 	O 	0.87262	0.62754	0.24966	-0.191
Mof_O 	O 	0.37771	0.12264	0.24998	-0.191
Mof_O 	O 	0.12764	0.87753	0.74993	-0.191
Mof_O 	O 	0.62279	0.37269	0.74984	-0.191
Mof_H 	H 	0.88936	0.09048	0.97006	0.026
Mof_H 	H 	0.80837	0.09792	0.95933	0.048
Mof_H 	H 	0.64085	0.93974	0.96992	0.027
Mof_H 	H 	0.73254	0.94307	0.95922	0.049
Mof_H 	H 	0.59043	0.14107	0.47031	0.027
Mof_H 	H 	0.59699	0.23272	0.45904	0.049
Mof_H 	H 	0.43884	0.38984	0.46755	0.031
Mof_H 	H 	0.44318	0.30925	0.45652	0.048
Mof_H 	H 	0.35708	0.90624	0.0325	0.03
Mof_H 	H 	0.26542	0.89998	0.04305	0.047
Mof_H 	H 	0.11095	0.06033	0.02968	0.026
Mof_H 	H 	0.19159	0.05637	0.04094	0.049
Mof_H 	H 	0.56035	0.85929	0.5303	0.027
Mof_H 	H 	0.55646	0.76789	0.54139	0.049
Mof_H 	H 	0.40964	0.61047	0.53019	0.027
Mof_H 	H 	0.40242	0.69078	0.54129	0.049
Mof_H 	H 	0.11014	0.90955	0.02984	0.026
Mof_H 	H 	0.19085	0.90151	0.04085	0.048
Mof_H 	H 	0.35886	0.06033	0.02994	0.027
Mof_H 	H 	0.26751	0.05615	0.04055	0.048
Mof_H 	H 	0.40683	0.85717	0.5317	0.031
Mof_H 	H 	0.40072	0.76534	0.54284	0.048
Mof_H 	H 	0.56164	0.61108	0.53182	0.031
Mof_H 	H 	0.55661	0.69176	0.54296	0.048
Mof_H 	H 	0.64085	0.09056	0.9697	0.026
Mof_H 	H 	0.7326	0.09809	0.95891	0.048
Mof_H 	H 	0.8895	0.93989	0.96982	0.026
Mof_H 	H 	0.80856	0.94319	0.95904	0.049
Mof_H 	H 	0.4389	0.14245	0.46774	0.031
Mof_H 	H 	0.44316	0.23409	0.45666	0.048
Mof_H 	H 	0.59028	0.38876	0.47028	0.027
Mof_H 	H 	0.5969	0.30831	0.45913	0.049
_end
