data_functionalizedCrystal
_audit_creation_method	'EQeq! by Chris Wilmer'
_symmetry_space_group_name_H-M	'P1'
_symmetry_Int_Tables_number	1
_symmetry_cell_setting	triclinic
loop_
_symmetry_equiv_pos_as_xyz
  x,y,z
_cell_length_a	22.2913
_cell_length_b	16.1324
_cell_length_c	17.39
_cell_angle_alpha	90
_cell_angle_beta	90
_cell_angle_gamma	90
loop_
_atom_site_label
_atom_site_type_symbol
_atom_site_fract_x
_atom_site_fract_y
_atom_site_fract_z
_atom_site_charge
Mof_Zn	Zn	0.04337	0.03394	0.44149	1.209
Mof_Zn	Zn	0.19649	0.53647	0.49191	1.211
Mof_O 	O 	0.08724	0.12779	0.48121	-0.439
Mof_O 	O 	0.00861	0.20079	0.4422	-0.299
Mof_O 	O 	0.08136	0.48796	0.4465	-0.35
Mof_O 	O 	0.15592	0.43233	0.51119	-0.496
Mof_O 	O 	0.06496	0.2258	0.64435	-0.282
Mof_O 	O 	0.15736	0.1865	0.67212	-0.293
Mof_O 	O 	0.08242	0.9274	0.45724	-0.451
Mof_O 	O 	0.1647	0.9633	0.395	-0.289
Mof_O 	O 	0.12689	0.66183	0.57595	-0.322
Mof_O 	O 	0.17626	0.64925	0.46528	-0.477
Mof_O 	O 	0.195	0.7818	0.30117	-0.256
Mof_O 	O 	0.29153	0.8045	0.32364	-0.262
Mof_N 	N 	0.25734	0.5391	0.5807	-0.278
Mof_N 	N 	0.44904	0.5604	0.7362	-0.144
Mof_H 	H 	0.4442	0.6055	0.71	0.116
Mof_N 	N 	0.57545	0.5215	0.7271	-0.068
Mof_N 	N 	0.75572	0.4905	0.8947	-0.277
Mof_N 	N 	0.97684	0.0108	0.5208	-0.267
Mof_N 	N 	0.7895	0.9961	0.6773	-0.066
Mof_N 	N 	0.66183	0.982	0.6577	-0.152
Mof_H 	H 	0.6611	0.9278	0.663	0.141
Mof_N 	N 	0.48876	0.0309	0.8334	-0.285
Mof_C 	C 	0.27567	0.6098	0.6131	0.111
Mof_H 	H 	0.2597	0.6608	0.5949	-0.017
Mof_C 	C 	0.31708	0.6115	0.6723	-0.196
Mof_H 	H 	0.3284	0.6628	0.6947	0.115
Mof_C 	C 	0.34182	0.5387	0.6986	0.153
Mof_C 	C 	0.3228	0.4646	0.6651	-0.189
Mof_H 	H 	0.3387	0.4129	0.6816	0.09
Mof_C 	C 	0.28055	0.4683	0.6079	0.102
Mof_H 	H 	0.2669	0.4176	0.5863	-0.025
Mof_C 	C 	0.38622	0.5391	0.7638	-0.172
Mof_H 	H 	0.3867	0.4838	0.7885	0.084
Mof_H 	H 	0.3735	0.5801	0.8028	0.088
Mof_C 	C 	0.49011	0.5654	0.8047	-0.051
Mof_H 	H 	0.4896	0.5119	0.8326	0.066
Mof_H 	H 	0.4757	0.609	0.8403	0.052
Mof_C 	C 	0.55356	0.585	0.7794	-0.066
Mof_H 	H 	0.5543	0.6396	0.7534	0.063
Mof_H 	H 	0.5801	0.588	0.825	0.052
Mof_C 	C 	0.53705	0.5196	0.6582	-0.075
Mof_H 	H 	0.5525	0.4777	0.6217	0.064
Mof_H 	H 	0.5383	0.5743	0.6325	0.067
Mof_C 	C 	0.47278	0.4989	0.6796	-0.042
Mof_H 	H 	0.4475	0.4993	0.6327	0.045
Mof_H 	H 	0.4711	0.4426	0.7021	0.052
Mof_C 	C 	0.63827	0.5375	0.7037	-0.166
Mof_H 	H 	0.6422	0.5955	0.6859	0.083
Mof_H 	H 	0.6491	0.5005	0.6604	0.074
Mof_C 	C 	0.73426	0.4291	0.8503	0.094
Mof_H 	H 	0.7452	0.3737	0.8624	-0
Mof_C 	C 	0.69718	0.4427	0.7882	-0.181
Mof_H 	H 	0.6833	0.3973	0.7584	0.109
Mof_C 	C 	0.68024	0.5227	0.7695	0.151
Mof_C 	C 	0.7038	0.5866	0.814	-0.191
Mof_H 	H 	0.6944	0.6426	0.8023	0.093
Mof_C 	C 	0.74084	0.5682	0.8753	0.097
Mof_H 	H 	0.7565	0.6126	0.9051	-0.027
Mof_C 	C 	0.9563	0.9336	0.5326	0.097
Mof_H 	H 	0.9703	0.8901	0.5005	-0.017
Mof_C 	C 	0.91573	0.9154	0.5895	-0.187
Mof_H 	H 	0.9025	0.8599	0.5963	0.088
Mof_C 	C 	0.89407	0.9769	0.637	0.147
Mof_C 	C 	0.91518	0.0568	0.6246	-0.175
Mof_H 	H 	0.9015	0.1013	0.6558	0.105
Mof_C 	C 	0.95579	0.0709	0.567	0.096
Mof_H 	H 	0.9698	0.1259	0.5594	0.004
Mof_C 	C 	0.84797	0.9608	0.6986	-0.169
Mof_H 	H 	0.8438	0.9004	0.7065	0.076
Mof_H 	H 	0.8616	0.9858	0.7476	0.087
Mof_C 	C 	0.74858	0.9886	0.7432	-0.079
Mof_H 	H 	0.7662	0.0168	0.7884	0.076
Mof_H 	H 	0.7431	0.9294	0.7562	0.062
Mof_C 	C 	0.68833	0.027	0.7246	-0.038
Mof_H 	H 	0.6613	0.0226	0.7696	0.052
Mof_H 	H 	0.6934	0.0864	0.7119	0.07
Mof_C 	C 	0.70373	0.9868	0.5899	-0.053
Mof_H 	H 	0.7084	0.0453	0.5739	0.056
Mof_H 	H 	0.6866	0.9554	0.5462	0.049
Mof_C 	C 	0.76407	0.9514	0.6108	-0.065
Mof_H 	H 	0.7598	0.8919	0.6236	0.057
Mof_H 	H 	0.7916	0.9562	0.5663	0.053
Mof_C 	C 	0.60079	0.0121	0.6339	-0.141
Mof_H 	H 	0.584	0.9738	0.5949	0.058
Mof_H 	H 	0.6045	0.0675	0.6099	0.077
Mof_C 	C 	0.50251	0.0983	0.7916	0.099
Mof_H 	H 	0.4878	0.1507	0.8078	-0.01
Mof_C 	C 	0.53721	0.094	0.7261	-0.181
Mof_H 	H 	0.5466	0.1428	0.698	0.098
Mof_C 	C 	0.55825	0.0172	0.7019	0.146
Mof_C 	C 	0.54072	0.9472	0.7418	-0.192
Mof_H 	H 	0.552	0.8936	0.7244	0.119
Mof_C 	C 	0.50689	0.9565	0.8067	0.098
Mof_H 	H 	0.4956	0.9082	0.8345	-0.023
Mof_C 	C 	0.05851	0.1965	0.4709	0.243
Mof_C 	C 	0.09293	0.2736	0.4965	0.16
Mof_C 	C 	0.07698	0.3447	0.4668	-0.295
Mof_H 	H 	0.0424	0.3435	0.4349	0.15
Mof_C 	C 	0.1061	0.4281	0.4762	0.409
Mof_C 	C 	0.14222	0.2573	0.5543	-0.4
Mof_H 	H 	0.1717	0.2185	0.5316	0.159
Mof_H 	H 	0.1633	0.31	0.5655	0.167
Mof_C 	C 	0.1188	0.2215	0.6281	0.395
Mof_C 	C 	0.13475	0.9128	0.4328	0.272
Mof_C 	C 	0.16134	0.8291	0.4522	0.125
Mof_C 	C 	0.12702	0.7754	0.4888	-0.258
Mof_H 	H 	0.0875	0.7928	0.5012	0.138
Mof_C 	C 	0.14437	0.6898	0.5126	0.392
Mof_C 	C 	0.22588	0.8159	0.4305	-0.35
Mof_H 	H 	0.2416	0.7685	0.4605	0.147
Mof_H 	H 	0.249	0.8656	0.4458	0.143
Mof_C 	C 	0.23738	0.7993	0.3451	0.377
Mof_Zn	Zn	0.95663	0.96606	0.94149	1.202
Mof_Zn	Zn	0.80351	0.46353	0.99191	1.199
Mof_O 	O 	0.91276	0.87221	0.98121	-0.461
Mof_O 	O 	0.99139	0.79921	0.9422	-0.312
Mof_O 	O 	0.91864	0.51204	0.9465	-0.344
Mof_O 	O 	0.84408	0.56767	0.01119	-0.449
Mof_O 	O 	0.93504	0.7742	0.14435	-0.269
Mof_O 	O 	0.84264	0.8135	0.17212	-0.286
Mof_O 	O 	0.91758	0.0726	0.95724	-0.463
Mof_O 	O 	0.8353	0.0367	0.895	-0.29
Mof_O 	O 	0.87311	0.33817	0.07595	-0.344
Mof_O 	O 	0.82374	0.35075	0.96528	-0.528
Mof_O 	O 	0.805	0.2182	0.80117	-0.26
Mof_O 	O 	0.70847	0.1955	0.82364	-0.268
Mof_N 	N 	0.74266	0.4609	0.0807	-0.271
Mof_N 	N 	0.55096	0.4396	0.2362	-0.145
Mof_H 	H 	0.5558	0.3945	0.21	0.119
Mof_N 	N 	0.42455	0.4785	0.2271	-0.066
Mof_N 	N 	0.24428	0.5095	0.3947	-0.273
Mof_N 	N 	0.02316	0.9892	0.0208	-0.257
Mof_N 	N 	0.2105	0.0039	0.1773	-0.066
Mof_N 	N 	0.33817	0.018	0.1577	-0.149
Mof_H 	H 	0.3389	0.0722	0.163	0.142
Mof_N 	N 	0.51124	0.9691	0.3334	-0.284
Mof_C 	C 	0.72433	0.3902	0.1131	0.113
Mof_H 	H 	0.7403	0.3392	0.0949	-0.011
Mof_C 	C 	0.68292	0.3885	0.1723	-0.194
Mof_H 	H 	0.6716	0.3372	0.1947	0.117
Mof_C 	C 	0.65818	0.4613	0.1986	0.153
Mof_C 	C 	0.6772	0.5354	0.1651	-0.188
Mof_H 	H 	0.6613	0.5871	0.1816	0.092
Mof_C 	C 	0.71945	0.5317	0.1079	0.104
Mof_H 	H 	0.7331	0.5824	0.0863	-0.02
Mof_C 	C 	0.61378	0.4609	0.2638	-0.172
Mof_H 	H 	0.6133	0.5162	0.2885	0.085
Mof_H 	H 	0.6265	0.4199	0.3028	0.089
Mof_C 	C 	0.50989	0.4346	0.3047	-0.052
Mof_H 	H 	0.5104	0.4881	0.3326	0.069
Mof_H 	H 	0.5243	0.391	0.3403	0.057
Mof_C 	C 	0.44644	0.415	0.2794	-0.066
Mof_H 	H 	0.4457	0.3604	0.2534	0.065
Mof_H 	H 	0.4199	0.412	0.325	0.056
Mof_C 	C 	0.46295	0.4804	0.1582	-0.08
Mof_H 	H 	0.4475	0.5223	0.1217	0.072
Mof_H 	H 	0.4617	0.4257	0.1325	0.074
Mof_C 	C 	0.52722	0.5011	0.1796	-0.041
Mof_H 	H 	0.5525	0.5007	0.1327	0.05
Mof_H 	H 	0.5289	0.5574	0.2021	0.053
Mof_C 	C 	0.36173	0.4625	0.2037	-0.168
Mof_H 	H 	0.3578	0.4045	0.1859	0.085
Mof_H 	H 	0.3509	0.4995	0.1604	0.076
Mof_C 	C 	0.26574	0.5709	0.3503	0.096
Mof_H 	H 	0.2548	0.6263	0.3624	0
Mof_C 	C 	0.30282	0.5573	0.2882	-0.181
Mof_H 	H 	0.3167	0.6027	0.2584	0.11
Mof_C 	C 	0.31976	0.4773	0.2695	0.153
Mof_C 	C 	0.2962	0.4134	0.314	-0.19
Mof_H 	H 	0.3056	0.3574	0.3023	0.096
Mof_C 	C 	0.25916	0.4318	0.3753	0.1
Mof_H 	H 	0.2435	0.3874	0.4051	-0.019
Mof_C 	C 	0.0437	0.0664	0.0326	0.1
Mof_H 	H 	0.0297	0.1099	0.0005	-0.007
Mof_C 	C 	0.08427	0.0846	0.0895	-0.185
Mof_H 	H 	0.0975	0.1401	0.0963	0.091
Mof_C 	C 	0.10593	0.0231	0.137	0.148
Mof_C 	C 	0.08482	0.9432	0.1246	-0.173
Mof_H 	H 	0.0985	0.8987	0.1558	0.106
Mof_C 	C 	0.04421	0.9291	0.067	0.098
Mof_H 	H 	0.0302	0.8741	0.0594	0.012
Mof_C 	C 	0.15203	0.0392	0.1986	-0.169
Mof_H 	H 	0.1562	0.0996	0.2065	0.077
Mof_H 	H 	0.1384	0.0142	0.2476	0.088
Mof_C 	C 	0.25142	0.0114	0.2432	-0.079
Mof_H 	H 	0.2338	0.9832	0.2884	0.078
Mof_H 	H 	0.2569	0.0706	0.2562	0.065
Mof_C 	C 	0.31167	0.973	0.2246	-0.04
Mof_H 	H 	0.3387	0.9774	0.2696	0.055
Mof_H 	H 	0.3066	0.9136	0.2119	0.072
Mof_C 	C 	0.29627	0.0132	0.0899	-0.06
Mof_H 	H 	0.2916	0.9547	0.0739	0.066
Mof_H 	H 	0.3134	0.0446	0.0462	0.062
Mof_C 	C 	0.23593	0.0486	0.1108	-0.063
Mof_H 	H 	0.2402	0.1081	0.1236	0.059
Mof_H 	H 	0.2084	0.0438	0.0663	0.059
Mof_C 	C 	0.39921	0.9879	0.1339	-0.148
Mof_H 	H 	0.416	0.0262	0.0949	0.067
Mof_H 	H 	0.3955	0.9325	0.1099	0.085
Mof_C 	C 	0.49749	0.9017	0.2916	0.102
Mof_H 	H 	0.5122	0.8493	0.3078	-0.01
Mof_C 	C 	0.46279	0.906	0.2261	-0.184
Mof_H 	H 	0.4534	0.8572	0.198	0.1
Mof_C 	C 	0.44175	0.9828	0.2019	0.15
Mof_C 	C 	0.45928	0.0528	0.2418	-0.193
Mof_H 	H 	0.448	0.1064	0.2244	0.122
Mof_C 	C 	0.49311	0.0435	0.3067	0.1
Mof_H 	H 	0.5044	0.0918	0.3345	-0.019
Mof_C 	C 	0.94149	0.8035	0.9709	0.257
Mof_C 	C 	0.90707	0.7264	0.9965	0.097
Mof_C 	C 	0.92302	0.6553	0.9668	-0.257
Mof_H 	H 	0.9576	0.6565	0.9349	0.135
Mof_C 	C 	0.8939	0.5719	0.9762	0.348
Mof_C 	C 	0.85778	0.7427	0.0543	-0.338
Mof_H 	H 	0.8283	0.7815	0.0316	0.153
Mof_H 	H 	0.8367	0.69	0.0655	0.155
Mof_C 	C 	0.8812	0.7785	0.1281	0.381
Mof_C 	C 	0.86525	0.0872	0.9328	0.248
Mof_C 	C 	0.83866	0.1709	0.9522	0.179
Mof_C 	C 	0.87298	0.2246	0.9888	-0.408
Mof_H 	H 	0.9125	0.2072	0.0012	0.213
Mof_C 	C 	0.85563	0.3102	0.0126	0.507
Mof_C 	C 	0.77412	0.1841	0.9305	-0.379
Mof_H 	H 	0.7584	0.2315	0.9605	0.148
Mof_H 	H 	0.751	0.1344	0.9458	0.142
Mof_C 	C 	0.76262	0.2007	0.8451	0.385
Mof_Zn	Zn	0.54337	0.96606	0.44149	1.208
Mof_Zn	Zn	0.69649	0.46353	0.49191	1.21
Mof_O 	O 	0.58724	0.87221	0.48121	-0.439
Mof_O 	O 	0.50861	0.79921	0.4422	-0.298
Mof_O 	O 	0.58136	0.51204	0.4465	-0.35
Mof_O 	O 	0.65592	0.56767	0.51119	-0.496
Mof_O 	O 	0.56496	0.7742	0.64435	-0.282
Mof_O 	O 	0.65736	0.8135	0.67212	-0.293
Mof_O 	O 	0.58242	0.0726	0.45724	-0.452
Mof_O 	O 	0.6647	0.0367	0.395	-0.29
Mof_O 	O 	0.62689	0.33817	0.57595	-0.322
Mof_O 	O 	0.67626	0.35075	0.46528	-0.477
Mof_O 	O 	0.695	0.2182	0.30117	-0.256
Mof_O 	O 	0.79153	0.1955	0.32364	-0.261
Mof_N 	N 	0.75734	0.4609	0.5807	-0.278
Mof_N 	N 	0.94904	0.4396	0.7362	-0.145
Mof_H 	H 	0.9442	0.3945	0.71	0.117
Mof_N 	N 	0.07545	0.4785	0.7271	-0.068
Mof_N 	N 	0.25572	0.5095	0.8947	-0.277
Mof_N 	N 	0.47684	0.9892	0.5208	-0.27
Mof_N 	N 	0.2895	0.0039	0.6773	-0.066
Mof_N 	N 	0.16183	0.018	0.6577	-0.153
Mof_H 	H 	0.1611	0.0722	0.663	0.141
Mof_N 	N 	0.98876	0.9691	0.8334	-0.285
Mof_C 	C 	0.77567	0.3902	0.6131	0.111
Mof_H 	H 	0.7597	0.3392	0.5949	-0.017
Mof_C 	C 	0.81708	0.3885	0.6723	-0.196
Mof_H 	H 	0.8284	0.3372	0.6947	0.115
Mof_C 	C 	0.84182	0.4613	0.6986	0.153
Mof_C 	C 	0.8228	0.5354	0.6651	-0.189
Mof_H 	H 	0.8387	0.5871	0.6816	0.09
Mof_C 	C 	0.78055	0.5317	0.6079	0.102
Mof_H 	H 	0.7669	0.5824	0.5863	-0.025
Mof_C 	C 	0.88622	0.4609	0.7638	-0.172
Mof_H 	H 	0.8867	0.5162	0.7885	0.084
Mof_H 	H 	0.8735	0.4199	0.8028	0.088
Mof_C 	C 	0.99011	0.4346	0.8047	-0.049
Mof_H 	H 	0.9896	0.4881	0.8326	0.066
Mof_H 	H 	0.9757	0.391	0.8403	0.052
Mof_C 	C 	0.05356	0.415	0.7794	-0.068
Mof_H 	H 	0.0543	0.3604	0.7534	0.063
Mof_H 	H 	0.0801	0.412	0.825	0.052
Mof_C 	C 	0.03705	0.4804	0.6582	-0.077
Mof_H 	H 	0.0525	0.5223	0.6217	0.064
Mof_H 	H 	0.0383	0.4257	0.6325	0.067
Mof_C 	C 	0.97278	0.5011	0.6796	-0.04
Mof_H 	H 	0.9475	0.5007	0.6327	0.045
Mof_H 	H 	0.9711	0.5574	0.7021	0.052
Mof_C 	C 	0.13827	0.4625	0.7037	-0.166
Mof_H 	H 	0.1422	0.4045	0.6859	0.083
Mof_H 	H 	0.1491	0.4995	0.6604	0.074
Mof_C 	C 	0.23426	0.5709	0.8503	0.094
Mof_H 	H 	0.2452	0.6263	0.8624	-0
Mof_C 	C 	0.19718	0.5573	0.7882	-0.181
Mof_H 	H 	0.1833	0.6027	0.7584	0.109
Mof_C 	C 	0.18024	0.4773	0.7695	0.151
Mof_C 	C 	0.2038	0.4134	0.814	-0.191
Mof_H 	H 	0.1944	0.3574	0.8023	0.093
Mof_C 	C 	0.24084	0.4318	0.8753	0.097
Mof_H 	H 	0.2565	0.3874	0.9051	-0.028
Mof_C 	C 	0.4563	0.0664	0.5326	0.101
Mof_H 	H 	0.4703	0.1099	0.5005	-0.017
Mof_C 	C 	0.41573	0.0846	0.5895	-0.19
Mof_H 	H 	0.4025	0.1401	0.5963	0.089
Mof_C 	C 	0.39407	0.0231	0.637	0.151
Mof_C 	C 	0.41518	0.9432	0.6246	-0.179
Mof_H 	H 	0.4015	0.8987	0.6558	0.106
Mof_C 	C 	0.45579	0.9291	0.567	0.098
Mof_H 	H 	0.4698	0.8741	0.5594	0.002
Mof_C 	C 	0.34797	0.0392	0.6986	-0.171
Mof_H 	H 	0.3438	0.0996	0.7065	0.077
Mof_H 	H 	0.3616	0.0142	0.7476	0.088
Mof_C 	C 	0.24858	0.0114	0.7432	-0.079
Mof_H 	H 	0.2662	0.9832	0.7884	0.076
Mof_H 	H 	0.2431	0.0706	0.7562	0.062
Mof_C 	C 	0.18833	0.973	0.7246	-0.037
Mof_H 	H 	0.1613	0.9774	0.7696	0.052
Mof_H 	H 	0.1934	0.9136	0.7119	0.07
Mof_C 	C 	0.20373	0.0132	0.5899	-0.054
Mof_H 	H 	0.2084	0.9547	0.5739	0.056
Mof_H 	H 	0.1866	0.0446	0.5462	0.049
Mof_C 	C 	0.26407	0.0486	0.6108	-0.065
Mof_H 	H 	0.2598	0.1081	0.6236	0.057
Mof_H 	H 	0.2916	0.0438	0.5663	0.053
Mof_C 	C 	0.10079	0.9879	0.6339	-0.137
Mof_H 	H 	0.084	0.0262	0.5949	0.055
Mof_H 	H 	0.1045	0.9325	0.6099	0.076
Mof_C 	C 	0.00251	0.9017	0.7916	0.101
Mof_H 	H 	0.9878	0.8493	0.8078	-0.011
Mof_C 	C 	0.03721	0.906	0.7261	-0.182
Mof_H 	H 	0.0466	0.8572	0.698	0.098
Mof_C 	C 	0.05825	0.9828	0.7019	0.146
Mof_C 	C 	0.04072	0.0528	0.7418	-0.19
Mof_H 	H 	0.052	0.1064	0.7244	0.118
Mof_C 	C 	0.00689	0.0435	0.8067	0.09
Mof_H 	H 	0.9956	0.0918	0.8345	-0.018
Mof_C 	C 	0.55851	0.8035	0.4709	0.243
Mof_C 	C 	0.59293	0.7264	0.4965	0.16
Mof_C 	C 	0.57698	0.6553	0.4668	-0.295
Mof_H 	H 	0.5424	0.6565	0.4349	0.15
Mof_C 	C 	0.6061	0.5719	0.4762	0.409
Mof_C 	C 	0.64222	0.7427	0.5543	-0.4
Mof_H 	H 	0.6717	0.7815	0.5316	0.159
Mof_H 	H 	0.6633	0.69	0.5655	0.167
Mof_C 	C 	0.6188	0.7785	0.6281	0.395
Mof_C 	C 	0.63475	0.0872	0.4328	0.272
Mof_C 	C 	0.66134	0.1709	0.4522	0.125
Mof_C 	C 	0.62702	0.2246	0.4888	-0.258
Mof_H 	H 	0.5875	0.2072	0.5012	0.138
Mof_C 	C 	0.64437	0.3102	0.5126	0.392
Mof_C 	C 	0.72588	0.1841	0.4305	-0.35
Mof_H 	H 	0.7416	0.2315	0.4605	0.147
Mof_H 	H 	0.749	0.1344	0.4458	0.143
Mof_C 	C 	0.73738	0.2007	0.3451	0.377
Mof_Zn	Zn	0.45663	0.03394	0.94149	1.203
Mof_Zn	Zn	0.30351	0.53647	0.99191	1.199
Mof_O 	O 	0.41276	0.12779	0.98121	-0.461
Mof_O 	O 	0.49139	0.20079	0.9422	-0.312
Mof_O 	O 	0.41864	0.48796	0.9465	-0.344
Mof_O 	O 	0.34408	0.43233	0.01119	-0.448
Mof_O 	O 	0.43504	0.2258	0.14435	-0.269
Mof_O 	O 	0.34264	0.1865	0.17212	-0.286
Mof_O 	O 	0.41758	0.9274	0.95724	-0.465
Mof_O 	O 	0.3353	0.9633	0.895	-0.29
Mof_O 	O 	0.37311	0.66183	0.07595	-0.344
Mof_O 	O 	0.32374	0.64925	0.96528	-0.529
Mof_O 	O 	0.305	0.7818	0.80117	-0.26
Mof_O 	O 	0.20847	0.8045	0.82364	-0.268
Mof_N 	N 	0.24266	0.5391	0.0807	-0.271
Mof_N 	N 	0.05096	0.5604	0.2362	-0.145
Mof_H 	H 	0.0558	0.6055	0.21	0.119
Mof_N 	N 	0.92455	0.5215	0.2271	-0.066
Mof_N 	N 	0.74428	0.4905	0.3947	-0.273
Mof_N 	N 	0.52316	0.0108	0.0208	-0.259
Mof_N 	N 	0.7105	0.9961	0.1773	-0.065
Mof_N 	N 	0.83817	0.982	0.1577	-0.15
Mof_H 	H 	0.8389	0.9278	0.163	0.142
Mof_N 	N 	0.01124	0.0309	0.3334	-0.288
Mof_C 	C 	0.22433	0.6098	0.1131	0.113
Mof_H 	H 	0.2403	0.6608	0.0949	-0.011
Mof_C 	C 	0.18292	0.6115	0.1723	-0.194
Mof_H 	H 	0.1716	0.6628	0.1947	0.117
Mof_C 	C 	0.15818	0.5387	0.1986	0.153
Mof_C 	C 	0.1772	0.4646	0.1651	-0.188
Mof_H 	H 	0.1613	0.4129	0.1816	0.091
Mof_C 	C 	0.21945	0.4683	0.1079	0.104
Mof_H 	H 	0.2331	0.4176	0.0863	-0.02
Mof_C 	C 	0.11378	0.5391	0.2638	-0.172
Mof_H 	H 	0.1133	0.4838	0.2885	0.085
Mof_H 	H 	0.1265	0.5801	0.3028	0.089
Mof_C 	C 	0.00989	0.5654	0.3047	-0.053
Mof_H 	H 	0.0104	0.5119	0.3326	0.069
Mof_H 	H 	0.0243	0.609	0.3403	0.057
Mof_C 	C 	0.94644	0.585	0.2794	-0.065
Mof_H 	H 	0.9457	0.6396	0.2534	0.065
Mof_H 	H 	0.9199	0.588	0.325	0.056
Mof_C 	C 	0.96295	0.5196	0.1582	-0.079
Mof_H 	H 	0.9475	0.4777	0.1217	0.071
Mof_H 	H 	0.9617	0.5743	0.1325	0.073
Mof_C 	C 	0.02722	0.4989	0.1796	-0.042
Mof_H 	H 	0.0525	0.4993	0.1327	0.05
Mof_H 	H 	0.0289	0.4426	0.2021	0.053
Mof_C 	C 	0.86173	0.5375	0.2037	-0.168
Mof_H 	H 	0.8578	0.5955	0.1859	0.084
Mof_H 	H 	0.8509	0.5005	0.1604	0.076
Mof_C 	C 	0.76574	0.4291	0.3503	0.096
Mof_H 	H 	0.7548	0.3737	0.3624	0
Mof_C 	C 	0.80282	0.4427	0.2882	-0.181
Mof_H 	H 	0.8167	0.3973	0.2584	0.111
Mof_C 	C 	0.81976	0.5227	0.2695	0.153
Mof_C 	C 	0.7962	0.5866	0.314	-0.19
Mof_H 	H 	0.8056	0.6426	0.3023	0.096
Mof_C 	C 	0.75916	0.5682	0.3753	0.1
Mof_H 	H 	0.7435	0.6126	0.4051	-0.019
Mof_C 	C 	0.5437	0.9336	0.0326	0.104
Mof_H 	H 	0.5297	0.8901	0.0005	-0.008
Mof_C 	C 	0.58427	0.9154	0.0895	-0.187
Mof_H 	H 	0.5975	0.8599	0.0963	0.092
Mof_C 	C 	0.60593	0.9769	0.137	0.151
Mof_C 	C 	0.58482	0.0568	0.1246	-0.176
Mof_H 	H 	0.5985	0.1013	0.1558	0.107
Mof_C 	C 	0.54421	0.0709	0.067	0.1
Mof_H 	H 	0.5302	0.1259	0.0594	0.012
Mof_C 	C 	0.65203	0.9608	0.1986	-0.171
Mof_H 	H 	0.6562	0.9004	0.2065	0.078
Mof_H 	H 	0.6384	0.9858	0.2476	0.088
Mof_C 	C 	0.75142	0.9886	0.2432	-0.08
Mof_H 	H 	0.7338	0.0168	0.2884	0.078
Mof_H 	H 	0.7569	0.9294	0.2562	0.065
Mof_C 	C 	0.81167	0.027	0.2246	-0.039
Mof_H 	H 	0.8387	0.0226	0.2696	0.055
Mof_H 	H 	0.8066	0.0864	0.2119	0.072
Mof_C 	C 	0.79627	0.9868	0.0899	-0.061
Mof_H 	H 	0.7916	0.0453	0.0739	0.066
Mof_H 	H 	0.8134	0.9554	0.0462	0.062
Mof_C 	C 	0.73593	0.9514	0.1108	-0.063
Mof_H 	H 	0.7402	0.8919	0.1236	0.059
Mof_H 	H 	0.7084	0.9562	0.0663	0.059
Mof_C 	C 	0.89921	0.0121	0.1339	-0.147
Mof_H 	H 	0.916	0.9738	0.0949	0.065
Mof_H 	H 	0.8955	0.0675	0.1099	0.085
Mof_C 	C 	0.99749	0.0983	0.2916	0.113
Mof_H 	H 	0.0122	0.1507	0.3078	-0.015
Mof_C 	C 	0.96279	0.094	0.2261	-0.189
Mof_H 	H 	0.9534	0.1428	0.198	0.103
Mof_C 	C 	0.94175	0.0172	0.2019	0.155
Mof_C 	C 	0.95928	0.9472	0.2418	-0.197
Mof_H 	H 	0.948	0.8936	0.2244	0.123
Mof_C 	C 	0.99311	0.9565	0.3067	0.101
Mof_H 	H 	0.0044	0.9082	0.3345	-0.018
Mof_C 	C 	0.44149	0.1965	0.9709	0.257
Mof_C 	C 	0.40707	0.2736	0.9965	0.097
Mof_C 	C 	0.42302	0.3447	0.9668	-0.257
Mof_H 	H 	0.4576	0.3435	0.9349	0.134
Mof_C 	C 	0.3939	0.4281	0.9762	0.348
Mof_C 	C 	0.35778	0.2573	0.0543	-0.337
Mof_H 	H 	0.3283	0.2185	0.0316	0.153
Mof_H 	H 	0.3367	0.31	0.0655	0.155
Mof_C 	C 	0.3812	0.2215	0.1281	0.38
Mof_C 	C 	0.36525	0.9128	0.9328	0.248
Mof_C 	C 	0.33866	0.8291	0.9522	0.18
Mof_C 	C 	0.37298	0.7754	0.9888	-0.41
Mof_H 	H 	0.4125	0.7928	0.0012	0.213
Mof_C 	C 	0.35563	0.6898	0.0126	0.508
Mof_C 	C 	0.27412	0.8159	0.9305	-0.379
Mof_H 	H 	0.2584	0.7685	0.9605	0.148
Mof_H 	H 	0.251	0.8656	0.9458	0.142
Mof_C 	C 	0.26262	0.7993	0.8451	0.386
_end
