data_functionalizedCrystal
_audit_creation_method	'EQeq! by Chris Wilmer'
_symmetry_space_group_name_H-M	'P1'
_symmetry_Int_Tables_number	1
_symmetry_cell_setting	triclinic
loop_
_symmetry_equiv_pos_as_xyz
  x,y,z
_cell_length_a	17.9572
_cell_length_b	17.9572
_cell_length_c	17.9572
_cell_angle_alpha	96.2813
_cell_angle_beta	96.2813
_cell_angle_gamma	96.2813
loop_
_atom_site_label
_atom_site_type_symbol
_atom_site_fract_x
_atom_site_fract_y
_atom_site_fract_z
_atom_site_charge
Mof_Cd	Cd	0.97549	0.49438	0.68799	0.448
Mof_Cd	Cd	0.12597	0.12597	0.12597	0.437
Mof_Cd	Cd	0.02451	0.50562	0.31201	0.415
Mof_Cd	Cd	0.49438	0.68799	0.97549	0.448
Mof_Cd	Cd	2.50286e-18	0.5	0.5	0.487
Mof_Cd	Cd	0.50562	0.31201	0.02451	0.415
Mof_Cd	Cd	0.68799	0.97549	0.49438	0.448
Mof_Cd	Cd	0.31201	0.02451	0.50562	0.415
Mof_Cd	Cd	-0	0	-0	0.451
Mof_Cd	Cd	0.5	0.5	-0	0.487
Mof_Cd	Cd	0.87403	0.87403	0.87403	0.443
Mof_Cd	Cd	0.5	1.00114e-17	0.5	0.487
Mof_H 	H 	0.3681	0.4709	0.6171	0.132
Mof_H 	H 	0.9245	0.9201	0.1587	0.077
Mof_H 	H 	0.5065	0.6279	0.567	-0.011
Mof_H 	H 	0.2694	0.9691	0.7459	0.115
Mof_H 	H 	0.2893	0.8298	0.6646	0.128
Mof_H 	H 	0.6404	0.7668	0.3564	0.05
Mof_H 	H 	0.8983	0.6016	0.1475	0.127
Mof_H 	H 	0.6279	0.567	0.5065	-0.012
Mof_H 	H 	0.6319	0.5291	0.3829	0.131
Mof_H 	H 	0.3231	0.7936	0.3789	0.055
Mof_H 	H 	0.1475	0.8983	0.6016	0.126
Mof_H 	H 	0.7338	0.0316	0.7719	0.089
Mof_H 	H 	0.6016	0.1475	0.8983	0.126
Mof_H 	H 	0.6211	0.6769	0.2064	0.054
Mof_H 	H 	0.9684	0.2281	0.2662	0.098
Mof_H 	H 	0.7719	0.7338	0.0316	0.089
Mof_H 	H 	0.1787	0.8603	0.3789	0.063
Mof_H 	H 	0.7306	0.0309	0.2541	0.154
Mof_H 	H 	0.7936	0.3789	0.3231	0.055
Mof_H 	H 	0.117	0.1924	0.7968	-0.02
Mof_H 	H 	0.5729	0.8855	0.2896	0.064
Mof_H 	H 	0.567	0.5065	0.6279	-0.012
Mof_H 	H 	0.3372	0.4905	0.1033	0.106
Mof_H 	H 	0.1702	0.3354	0.7107	0.126
Mof_H 	H 	0.707	0.0844	0.8884	0.008
Mof_H 	H 	0.1033	0.3372	0.4905	0.106
Mof_H 	H 	0.3398	0.6871	0.8414	0.05
Mof_H 	H 	0.1586	0.6602	0.3129	0.047
Mof_H 	H 	0.3596	0.2332	0.6436	0.049
Mof_H 	H 	0.6966	0.7946	0.1743	0.052
Mof_H 	H 	0.9691	0.7459	0.2694	0.114
Mof_H 	H 	0.7056	0.1704	0.5471	0.058
Mof_H 	H 	0.3789	0.3231	0.7936	0.055
Mof_H 	H 	0.6602	0.3129	0.1586	0.047
Mof_H 	H 	0.9201	0.1587	0.9245	0.076
Mof_H 	H 	0.1887	0.6954	0.4753	0.058
Mof_H 	H 	0.2054	0.8257	0.3034	0.058
Mof_H 	H 	0.5419	0.0944	0.6745	0.116
Mof_H 	H 	0.4529	0.2944	0.8296	0.06
Mof_H 	H 	0.0316	0.7719	0.7338	0.089
Mof_H 	H 	0.4271	0.1145	0.7104	0.06
Mof_H 	H 	0.5652	0.1739	0.5538	0.119
Mof_H 	H 	0.7107	0.1702	0.3354	0.126
Mof_H 	H 	0.8296	0.4529	0.2944	0.06
Mof_H 	H 	0.4753	0.1887	0.6954	0.058
Mof_H 	H 	0.1017	0.3984	0.8525	0.124
Mof_H 	H 	0.7946	0.1743	0.6966	0.052
Mof_H 	H 	0.5095	0.8967	0.6628	0.112
Mof_H 	H 	0.3984	0.8525	0.1017	0.124
Mof_H 	H 	0.6954	0.4753	0.1887	0.058
Mof_H 	H 	0.7299	0.7802	0.4464	0.137
Mof_H 	H 	0.5536	0.2701	0.2198	0.136
Mof_H 	H 	0.2757	0.4498	0.403	0.093
Mof_H 	H 	0.5538	0.5652	0.1739	0.119
Mof_H 	H 	0.0836	0.7324	0.869	0.138
Mof_H 	H 	0.8413	0.0755	0.0799	0.115
Mof_H 	H 	0.2662	0.9684	0.2281	0.098
Mof_H 	H 	0.6646	0.2893	0.8298	0.127
Mof_H 	H 	0.4935	0.3721	0.433	-0.012
Mof_H 	H 	0.4464	0.7299	0.7802	0.137
Mof_H 	H 	0.403	0.2757	0.4498	0.093
Mof_H 	H 	0.1587	0.9245	0.9201	0.076
Mof_H 	H 	0.2032	0.883	0.8076	0.024
Mof_H 	H 	0.6871	0.8414	0.3398	0.05
Mof_H 	H 	0.4498	0.403	0.2757	0.093
Mof_H 	H 	0.3829	0.6319	0.5291	0.131
Mof_H 	H 	0.6436	0.3596	0.2332	0.049
Mof_H 	H 	0.3354	0.7107	0.1702	0.126
Mof_H 	H 	0.7324	0.869	0.0836	0.138
Mof_H 	H 	0.8603	0.3789	0.1787	0.063
Mof_H 	H 	0.1116	0.293	0.9156	0.007
Mof_H 	H 	0.9056	0.3255	0.4581	0.119
Mof_H 	H 	0.131	0.9164	0.2676	0.106
Mof_H 	H 	0.293	0.9156	0.1116	0.007
Mof_H 	H 	0.3564	0.6404	0.7668	0.049
Mof_H 	H 	0.1918	0.255	0.4584	-0.007
Mof_H 	H 	0.2064	0.6211	0.6769	0.054
Mof_H 	H 	0.7968	0.117	0.1924	-0.02
Mof_H 	H 	0.1704	0.5471	0.7056	0.058
Mof_H 	H 	0.8414	0.3398	0.6871	0.05
Mof_H 	H 	0.6745	0.5419	0.0944	0.116
Mof_H 	H 	0.8298	0.6646	0.2893	0.127
Mof_H 	H 	0.5247	0.8113	0.3046	0.058
Mof_H 	H 	0.2944	0.8296	0.4529	0.06
Mof_H 	H 	0.1145	0.7104	0.4271	0.06
Mof_H 	H 	0.9164	0.2676	0.131	0.106
Mof_H 	H 	0.7104	0.4271	0.1145	0.06
Mof_H 	H 	0.2541	0.7306	0.0309	0.154
Mof_H 	H 	0.745	0.5416	0.8082	-0.004
Mof_H 	H 	0.4709	0.6171	0.3681	0.131
Mof_H 	H 	0.5416	0.8082	0.745	-0.004
Mof_H 	H 	0.869	0.0836	0.7324	0.138
Mof_H 	H 	0.3721	0.433	0.4935	-0.012
Mof_H 	H 	0.3034	0.2054	0.8257	0.058
Mof_H 	H 	0.2198	0.5536	0.2701	0.136
Mof_H 	H 	0.1739	0.5538	0.5652	0.119
Mof_H 	H 	0.4581	0.9056	0.3255	0.119
Mof_H 	H 	0.2332	0.6436	0.3596	0.049
Mof_H 	H 	0.1397	0.6211	0.8213	0.056
Mof_H 	H 	0.1743	0.6966	0.7946	0.052
Mof_H 	H 	0.0799	0.8413	0.0755	0.115
Mof_H 	H 	0.6628	0.5095	0.8967	0.112
Mof_H 	H 	0.255	0.4584	0.1918	-0.007
Mof_H 	H 	0.433	0.4935	0.3721	-0.012
Mof_H 	H 	0.7668	0.3564	0.6404	0.049
Mof_H 	H 	0.3789	0.1787	0.8603	0.063
Mof_H 	H 	0.7802	0.4464	0.7299	0.137
Mof_H 	H 	0.8213	0.1397	0.6211	0.056
Mof_H 	H 	0.8884	0.707	0.0844	0.008
Mof_H 	H 	0.8257	0.3034	0.2054	0.058
Mof_H 	H 	0.0755	0.0799	0.8413	0.115
Mof_H 	H 	0.2281	0.2662	0.9684	0.098
Mof_H 	H 	0.6171	0.3681	0.4709	0.131
Mof_H 	H 	0.3046	0.5247	0.8113	0.058
Mof_H 	H 	0.4348	0.8261	0.4462	0.12
Mof_H 	H 	0.0944	0.6745	0.5419	0.116
Mof_H 	H 	0.3129	0.1586	0.6602	0.047
Mof_H 	H 	0.3255	0.4581	0.9056	0.119
Mof_H 	H 	0.597	0.7243	0.5502	0.094
Mof_H 	H 	0.4584	0.1918	0.255	-0.007
Mof_H 	H 	0.5291	0.3829	0.6319	0.131
Mof_H 	H 	0.8261	0.4462	0.4348	0.12
Mof_H 	H 	0.883	0.8076	0.2032	0.024
Mof_H 	H 	0.0844	0.8884	0.707	0.008
Mof_H 	H 	0.2896	0.5729	0.8855	0.064
Mof_H 	H 	0.2701	0.2198	0.5536	0.136
Mof_H 	H 	0.6769	0.2064	0.6211	0.054
Mof_H 	H 	0.4462	0.4348	0.8261	0.12
Mof_H 	H 	0.5471	0.7056	0.1704	0.058
Mof_H 	H 	0.8076	0.2032	0.883	0.024
Mof_H 	H 	0.2676	0.131	0.9164	0.106
Mof_H 	H 	0.7243	0.5502	0.597	0.094
Mof_H 	H 	0.8855	0.2896	0.5729	0.064
Mof_H 	H 	0.5502	0.597	0.7243	0.094
Mof_H 	H 	0.8082	0.745	0.5416	-0.004
Mof_H 	H 	0.9156	0.1116	0.293	0.007
Mof_H 	H 	0.6211	0.8213	0.1397	0.056
Mof_H 	H 	0.8525	0.1017	0.3984	0.124
Mof_H 	H 	0.8967	0.6628	0.5095	0.112
Mof_H 	H 	0.8113	0.3046	0.5247	0.058
Mof_H 	H 	0.7459	0.2694	0.9691	0.114
Mof_H 	H 	0.4905	0.1033	0.3372	0.106
Mof_H 	H 	0.1924	0.7968	0.117	-0.02
Mof_H 	H 	0.0309	0.2541	0.7306	0.154
Mof_C 	C 	0.1483	0.3897	0.8758	-0.217
Mof_C 	C 	0.3448	0.1774	0.8144	-0.019
Mof_C 	C 	0.212	0.4395	0.8745	0.239
Mof_C 	C 	0.272	0.6409	0.2284	0.26
Mof_C 	C 	0.6796	0.4718	0.8654	-0.148
Mof_C 	C 	0.2537	0.0815	0.8943	-0.153
Mof_C 	C 	0.8745	0.212	0.4395	0.239
Mof_C 	C 	0.9254	0.6033	0.3789	0.268
Mof_C 	C 	0.2456	0.6143	0.7891	0.038
Mof_C 	C 	0.3427	0.6017	0.1291	0.06
Mof_C 	C 	0.5031	0.4744	0.2152	0.045
Mof_C 	C 	0.3983	0.8709	0.6573	0.066
Mof_C 	C 	0.7859	0.4707	0.4493	-0.206
Mof_C 	C 	0.9578	0.897	0.1893	-0.06
Mof_C 	C 	0.6545	0.0278	0.6357	0.26
Mof_C 	C 	0.0542	0.9991	0.1804	0.299
Mof_C 	C 	0.2109	0.7544	0.3857	0.041
Mof_C 	C 	0.9449	0.2242	0.3095	-0.129
Mof_C 	C 	0.5256	0.7848	0.4969	0.047
Mof_C 	C 	0.0318	0.9312	0.2101	-0.024
Mof_C 	C 	0.897	0.1893	0.9578	-0.06
Mof_C 	C 	0.5327	0.5466	0.7259	-0.149
Mof_C 	C 	0.9458	0.0009	0.8196	0.187
Mof_C 	C 	0.9682	0.0688	0.7899	0.106
Mof_C 	C 	0.2142	0.9332	0.8286	0.047
Mof_C 	C 	0.7175	0.5756	0.093	-0.188
Mof_C 	C 	0.8517	0.6103	0.1242	-0.216
Mof_C 	C 	0.9416	0.174	0.7239	0.31
Mof_C 	C 	0.2166	0.5812	0.7075	-0.011
Mof_C 	C 	0.6017	0.1291	0.3427	0.06
Mof_C 	C 	0.3789	0.9254	0.6033	0.268
Mof_C 	C 	0.849	0.4863	0.5806	0.255
Mof_C 	C 	0.9843	0.7931	0.2553	-0.162
Mof_C 	C 	0.5137	0.4194	0.151	0.257
Mof_C 	C 	0.3455	0.9722	0.3643	0.26
Mof_C 	C 	0.826	0.2761	0.0584	0.203
Mof_C 	C 	0.7664	0.7495	0.4343	-0.256
Mof_C 	C 	0.5516	0.8349	0.2676	-0.013
Mof_C 	C 	0.7294	0.4804	0.3968	0.245
Mof_C 	C 	0.3857	0.2109	0.7544	0.041
Mof_C 	C 	0.3095	0.9449	0.2242	-0.129
Mof_C 	C 	0.4343	0.7664	0.7495	-0.256
Mof_C 	C 	0.6552	0.8226	0.1856	-0.004
Mof_C 	C 	0.6573	0.3983	0.8709	0.066
Mof_C 	C 	0.0584	0.826	0.2761	0.203
Mof_C 	C 	0.6389	0.0594	0.7115	0.032
Mof_C 	C 	0.812	0.7283	0.4915	0.131
Mof_C 	C 	0.4194	0.151	0.5137	0.257
Mof_C 	C 	0.5806	0.849	0.4863	0.255
Mof_C 	C 	0.6743	0.0874	0.8452	0.088
Mof_C 	C 	0.4493	0.7859	0.4707	-0.206
Mof_C 	C 	0.5812	0.7075	0.2166	-0.011
Mof_C 	C 	0.508	0.3316	0.4569	0.12
Mof_C 	C 	0.093	0.7175	0.5756	-0.188
Mof_C 	C 	0.5085	0.188	0.2717	0.126
Mof_C 	C 	0.4484	0.1651	0.7324	-0.013
Mof_C 	C 	0.5431	0.492	0.6684	0.121
Mof_C 	C 	0.0746	0.3967	0.6211	0.27
Mof_C 	C 	0.8226	0.1856	0.6552	-0.004
Mof_C 	C 	0.151	0.5137	0.4194	0.257
Mof_C 	C 	0.4707	0.4493	0.7859	-0.206
Mof_C 	C 	0.5293	0.5507	0.2141	-0.205
Mof_C 	C 	0.4915	0.812	0.7283	0.131
Mof_C 	C 	0.174	0.7239	0.9416	0.31
Mof_C 	C 	0.3197	0.6605	0.1749	-0.2
Mof_C 	C 	0.4188	0.2925	0.7834	-0.014
Mof_C 	C 	0.6674	0.7899	0.3192	0.001
Mof_C 	C 	0.1548	0.3257	0.9126	0.094
Mof_C 	C 	0.2676	0.5516	0.8349	-0.013
Mof_C 	C 	0.2069	0.7447	0.0157	-0.296
Mof_C 	C 	0.1714	0.7858	0.0668	0.166
Mof_C 	C 	0.2741	0.4673	0.4534	-0.147
Mof_C 	C 	0.6211	0.0746	0.3967	0.27
Mof_C 	C 	0.7899	0.9682	0.0688	0.106
Mof_C 	C 	0.4673	0.4534	0.2741	-0.147
Mof_C 	C 	0.3897	0.8758	0.1483	-0.217
Mof_C 	C 	0.1255	0.788	0.5605	0.235
Mof_C 	C 	0.6808	0.3326	0.2101	0
Mof_C 	C 	0.6143	0.7891	0.2456	0.038
Mof_C 	C 	0.1291	0.3427	0.6017	0.06
Mof_C 	C 	0.7758	0.6905	0.0551	-0.126
Mof_C 	C 	0.3395	0.8251	0.6803	-0.201
Mof_C 	C 	0.7495	0.4343	0.7664	-0.256
Mof_C 	C 	0.8251	0.6803	0.3395	-0.201
Mof_C 	C 	0.7891	0.2456	0.6143	0.038
Mof_C 	C 	0.7283	0.4915	0.812	0.131
Mof_C 	C 	0.2885	0.3611	0.9406	0.04
Mof_C 	C 	0.6684	0.5431	0.492	0.121
Mof_C 	C 	0.5605	0.1255	0.788	0.235
Mof_C 	C 	0.3968	0.7294	0.4804	0.245
Mof_C 	C 	0.8107	0.0422	0.103	-0.202
Mof_C 	C 	0.2553	0.9843	0.7931	-0.162
Mof_C 	C 	0.492	0.6684	0.5431	0.121
Mof_C 	C 	0.1893	0.9578	0.897	-0.06
Mof_C 	C 	0.6905	0.0551	0.7758	-0.126
Mof_C 	C 	0.7716	0.728	0.3591	0.263
Mof_C 	C 	0.4718	0.8654	0.6796	-0.148
Mof_C 	C 	0.3611	0.9406	0.2885	0.04
Mof_C 	C 	0.2717	0.5085	0.188	0.126
Mof_C 	C 	0.0009	0.8196	0.9458	0.187
Mof_C 	C 	0.9185	0.1057	0.7463	-0.257
Mof_C 	C 	0.2242	0.3095	0.9449	-0.129
Mof_C 	C 	0.9332	0.8286	0.2142	0.047
Mof_C 	C 	0.2505	0.5657	0.2336	-0.255
Mof_C 	C 	0.7858	0.0668	0.1714	0.166
Mof_C 	C 	0.0815	0.8943	0.2537	-0.153
Mof_C 	C 	0.6698	0.5197	0.4189	-0.237
Mof_C 	C 	0.7447	0.0157	0.2069	-0.296
Mof_C 	C 	0.9312	0.2101	0.0318	-0.024
Mof_C 	C 	0.5507	0.2141	0.5293	-0.205
Mof_C 	C 	0.4244	0.907	0.2825	-0.19
Mof_C 	C 	0.1242	0.8517	0.6103	-0.216
Mof_C 	C 	0.7259	0.5327	0.5466	-0.149
Mof_C 	C 	0.4534	0.2741	0.4673	-0.147
Mof_C 	C 	0.6605	0.1749	0.3197	-0.2
Mof_C 	C 	0.3192	0.6674	0.7899	0.001
Mof_C 	C 	0.8196	0.9458	0.0009	0.187
Mof_C 	C 	0.3204	0.5282	0.1346	-0.146
Mof_C 	C 	0.3591	0.7716	0.728	0.263
Mof_C 	C 	0.8144	0.3448	0.1774	-0.019
Mof_C 	C 	0.6032	0.2706	0.5196	0.244
Mof_C 	C 	0.1804	0.0542	0.9991	0.299
Mof_C 	C 	0.8654	0.6796	0.4718	-0.148
Mof_C 	C 	0.728	0.3591	0.7716	0.263
Mof_C 	C 	0.8943	0.2537	0.0815	-0.153
Mof_C 	C 	0.3967	0.6211	0.0746	0.27
Mof_C 	C 	0.4569	0.508	0.3316	0.12
Mof_C 	C 	0.2101	0.0318	0.9312	-0.024
Mof_C 	C 	0.3316	0.4569	0.508	0.12
Mof_C 	C 	0.4803	0.5811	0.3302	-0.236
Mof_C 	C 	0.1856	0.6552	0.8226	-0.004
Mof_C 	C 	0.5657	0.2336	0.2505	-0.255
Mof_C 	C 	0.4744	0.2152	0.5031	0.045
Mof_C 	C 	0.7324	0.4484	0.1651	-0.013
Mof_C 	C 	0.3326	0.2101	0.6808	0
Mof_C 	C 	0.6103	0.1242	0.8517	-0.216
Mof_C 	C 	0.7115	0.6389	0.0594	0.032
Mof_C 	C 	0.0688	0.7899	0.9682	0.106
Mof_C 	C 	0.0551	0.7758	0.6905	-0.126
Mof_C 	C 	0.907	0.2825	0.4244	-0.19
Mof_C 	C 	0.103	0.8107	0.0422	-0.202
Mof_C 	C 	0.2284	0.272	0.6409	0.26
Mof_C 	C 	0.0668	0.1714	0.7858	0.166
Mof_C 	C 	0.0278	0.6357	0.6545	0.26
Mof_C 	C 	0.7931	0.2553	0.9843	-0.162
Mof_C 	C 	0.7848	0.4969	0.5256	0.047
Mof_C 	C 	0.2706	0.5196	0.6032	0.244
Mof_C 	C 	0.3302	0.4803	0.5811	-0.236
Mof_C 	C 	0.8349	0.2676	0.5516	-0.013
Mof_C 	C 	0.6803	0.3395	0.8251	-0.201
Mof_C 	C 	0.4189	0.6698	0.5197	-0.237
Mof_C 	C 	0.8758	0.1483	0.3897	-0.217
Mof_C 	C 	0.5756	0.093	0.7175	-0.188
Mof_C 	C 	0.8286	0.2142	0.9332	0.047
Mof_C 	C 	0.1346	0.3204	0.5282	-0.146
Mof_C 	C 	0.7899	0.3192	0.6674	0.001
Mof_C 	C 	0.5466	0.7259	0.5327	-0.149
Mof_C 	C 	0.6409	0.2284	0.272	0.26
Mof_C 	C 	0.7075	0.2166	0.5812	-0.011
Mof_C 	C 	0.5197	0.4189	0.6698	-0.237
Mof_C 	C 	0.7463	0.9185	0.1057	-0.257
Mof_C 	C 	0.8709	0.6573	0.3983	0.066
Mof_C 	C 	0.0594	0.7115	0.6389	0.032
Mof_C 	C 	0.1774	0.8144	0.3448	-0.019
Mof_C 	C 	0.9722	0.3643	0.3455	0.26
Mof_C 	C 	0.7834	0.4188	0.2925	-0.014
Mof_C 	C 	0.1057	0.7463	0.9185	-0.257
Mof_C 	C 	0.4863	0.5806	0.849	0.255
Mof_C 	C 	0.2141	0.5293	0.5507	-0.205
Mof_C 	C 	0.9126	0.1548	0.3257	0.094
Mof_C 	C 	0.0422	0.103	0.8107	-0.202
Mof_C 	C 	0.2825	0.4244	0.907	-0.19
Mof_C 	C 	0.9406	0.2885	0.3611	0.04
Mof_C 	C 	0.188	0.2717	0.5085	0.126
Mof_C 	C 	0.4395	0.8745	0.212	0.239
Mof_C 	C 	0.2761	0.0584	0.826	0.203
Mof_C 	C 	0.8452	0.6743	0.0874	0.088
Mof_C 	C 	0.7544	0.3857	0.2109	0.041
Mof_C 	C 	0.7239	0.9416	0.174	0.31
Mof_C 	C 	0.2152	0.5031	0.4744	0.045
Mof_C 	C 	0.2336	0.2505	0.5657	-0.255
Mof_C 	C 	0.9991	0.1804	0.0542	0.299
Mof_C 	C 	0.788	0.5605	0.1255	0.235
Mof_C 	C 	0.3643	0.3455	0.9722	0.26
Mof_C 	C 	0.5282	0.1346	0.3204	-0.146
Mof_C 	C 	0.1651	0.7324	0.4484	-0.013
Mof_C 	C 	0.0157	0.2069	0.7447	-0.296
Mof_C 	C 	0.5196	0.6032	0.2706	0.244
Mof_C 	C 	0.4969	0.5256	0.7848	0.047
Mof_C 	C 	0.4804	0.3968	0.7294	0.245
Mof_C 	C 	0.6033	0.3789	0.9254	0.268
Mof_C 	C 	0.1749	0.3197	0.6605	-0.2
Mof_C 	C 	0.0874	0.8452	0.6743	0.088
Mof_C 	C 	0.5811	0.3302	0.4803	-0.236
Mof_C 	C 	0.6357	0.6545	0.0278	0.26
Mof_C 	C 	0.3257	0.9126	0.1548	0.094
Mof_C 	C 	0.2925	0.7834	0.4188	-0.014
Mof_C 	C 	0.2101	0.6808	0.3326	0
Mof_O 	O 	0.2159	0.6831	0.8991	-0.241
Mof_O 	O 	0.6794	0.053	0.4044	-0.307
Mof_O 	O 	0.9878	0.3764	0.283	-0.264
Mof_O 	O 	0.3514	0.1481	0.4877	-0.277
Mof_O 	O 	0.4246	0.3883	0.9615	-0.278
Mof_O 	O 	0.8991	0.2159	0.6831	-0.241
Mof_O 	O 	0.1284	0.0129	0.0228	-0.298
Mof_O 	O 	0.9029	0.4524	0.5603	-0.281
Mof_O 	O 	0.0971	0.5476	0.4397	-0.288
Mof_O 	O 	0.0228	0.1284	0.0129	-0.298
Mof_O 	O 	0.301	0.7275	0.7483	-0.237
Mof_O 	O 	0.8716	0.9871	0.9772	-0.23
Mof_O 	O 	0.7986	0.4988	0.1619	-0.221
Mof_O 	O 	0.717	0.0122	0.6236	-0.277
Mof_O 	O 	0.0467	0.4104	0.5486	-0.271
Mof_O 	O 	0.4104	0.5486	0.0467	-0.271
Mof_O 	O 	0.6831	0.8991	0.2159	-0.241
Mof_O 	O 	0.1619	0.7986	0.4988	-0.221
Mof_O 	O 	0.4514	0.9533	0.5896	-0.258
Mof_O 	O 	0.8381	0.2014	0.5012	-0.222
Mof_O 	O 	0.4586	0.3196	0.7249	-0.225
Mof_O 	O 	0.2725	0.2517	0.699	-0.237
Mof_O 	O 	0.4524	0.5603	0.9029	-0.281
Mof_O 	O 	0.2517	0.699	0.2725	-0.237
Mof_O 	O 	0.0122	0.6236	0.717	-0.277
Mof_O 	O 	0.7841	0.3169	0.1009	-0.219
Mof_O 	O 	0.3883	0.9615	0.4246	-0.278
Mof_O 	O 	0.1481	0.4877	0.3514	-0.277
Mof_O 	O 	0.5414	0.6804	0.2751	-0.225
Mof_O 	O 	0.5603	0.9029	0.4524	-0.281
Mof_O 	O 	0.2048	0.1196	0.0353	-0.281
Mof_O 	O 	0.1196	0.0353	0.2048	-0.281
Mof_O 	O 	0.7952	0.8804	0.9647	-0.229
Mof_O 	O 	0.3196	0.7249	0.4586	-0.225
Mof_O 	O 	0.053	0.4044	0.6794	-0.307
Mof_O 	O 	0.947	0.5956	0.3206	-0.293
Mof_O 	O 	0.4044	0.6794	0.053	-0.307
Mof_O 	O 	0.5956	0.3206	0.947	-0.293
Mof_O 	O 	0.3764	0.283	0.9878	-0.264
Mof_O 	O 	0.9772	0.8716	0.9871	-0.23
Mof_O 	O 	0.6804	0.2751	0.5414	-0.225
Mof_O 	O 	0.283	0.9878	0.3764	-0.264
Mof_O 	O 	0.1009	0.7841	0.3169	-0.219
Mof_O 	O 	0.4988	0.1619	0.7986	-0.221
Mof_O 	O 	0.5896	0.4514	0.9533	-0.258
Mof_O 	O 	0.6236	0.717	0.0122	-0.277
Mof_O 	O 	0.3206	0.947	0.5956	-0.293
Mof_O 	O 	0.7249	0.4586	0.3196	-0.225
Mof_O 	O 	0.8519	0.5123	0.6486	-0.273
Mof_O 	O 	0.9615	0.4246	0.3883	-0.278
Mof_O 	O 	0.2751	0.5414	0.6804	-0.225
Mof_O 	O 	0.4397	0.0971	0.5476	-0.288
Mof_O 	O 	0.699	0.2725	0.2517	-0.237
Mof_O 	O 	0.7483	0.301	0.7275	-0.237
Mof_O 	O 	0.5012	0.8381	0.2014	-0.222
Mof_O 	O 	0.9647	0.7952	0.8804	-0.229
Mof_O 	O 	0.6486	0.8519	0.5123	-0.273
Mof_O 	O 	0.0353	0.2048	0.1196	-0.281
Mof_O 	O 	0.4877	0.3514	0.1481	-0.277
Mof_O 	O 	0.9871	0.9772	0.8716	-0.23
Mof_O 	O 	0.5476	0.4397	0.0971	-0.288
Mof_O 	O 	0.3169	0.1009	0.7841	-0.219
Mof_O 	O 	0.6117	0.0385	0.5754	-0.29
Mof_O 	O 	0.0129	0.0228	0.1284	-0.298
Mof_O 	O 	0.0385	0.5754	0.6117	-0.29
Mof_O 	O 	0.2014	0.5012	0.8381	-0.222
Mof_O 	O 	0.5486	0.0467	0.4104	-0.271
Mof_O 	O 	0.5754	0.6117	0.0385	-0.29
Mof_O 	O 	0.8804	0.9647	0.7952	-0.229
Mof_O 	O 	0.9533	0.5896	0.4514	-0.258
Mof_O 	O 	0.5123	0.6486	0.8519	-0.273
Mof_O 	O 	0.7275	0.7483	0.301	-0.237
_end
