data_functionalizedCrystal
_audit_creation_method	'EQeq! by Chris Wilmer'
_symmetry_space_group_name_H-M	'P1'
_symmetry_Int_Tables_number	1
_symmetry_cell_setting	triclinic
loop_
_symmetry_equiv_pos_as_xyz
  x,y,z
_cell_length_a	14.7843
_cell_length_b	15.9539
_cell_length_c	15.9539
_cell_angle_alpha	120
_cell_angle_beta	90
_cell_angle_gamma	90
loop_
_atom_site_label
_atom_site_type_symbol
_atom_site_fract_x
_atom_site_fract_y
_atom_site_fract_z
_atom_site_charge
Mof_Zn	Zn	0.9851	0.38554	0.63348	1.193
Mof_Zn	Zn	0.65177	0.24794	0.61446	1.202
Mof_Zn	Zn	0.4851	0.61446	0.36652	1.202
Mof_Zn	Zn	0.15177	0.75206	0.38554	1.203
Mof_Zn	Zn	0.31843	0.36652	0.75206	1.202
Mof_Zn	Zn	0.81843	0.63348	0.24794	1.202
Mof_H 	H 	0.5128	0.7143	0.0701	0.604
Mof_H 	H 	0.12997	0.7019	0.1719	0.059
Mof_H 	H 	0.33267	0.5572	0.1097	0.107
Mof_H 	H 	0.0644	0.2027	0.4736	0.024
Mof_H 	H 	0.9066	0.2428	0.7858	0.284
Mof_H 	H 	0.99933	0.5525	0.4428	0.07
Mof_H 	H 	0.9488	0.0028	0.3849	0.065
Mof_H 	H 	0.62997	0.2981	0.8281	0.054
Mof_H 	H 	0.12587	0.5417	0.3281	0.297
Mof_H 	H 	0.23167	0.612	0.244	0.14
Mof_H 	H 	0.84613	0.9299	0.6442	0.586
Mof_H 	H 	0.76377	0.6756	0.8972	0.561
Mof_H 	H 	0.43043	0.2216	0.3244	0.572
Mof_H 	H 	0.77533	0.6193	0.4773	-0.036
Mof_H 	H 	0.10867	0.5227	0.142	-0.034
Mof_H 	H 	0.73107	0.2709	0.7973	0.045
Mof_H 	H 	0.78213	0.3849	0.3821	0.094
Mof_H 	H 	0.34613	0.0701	0.3558	0.614
Mof_H 	H 	0.28367	0.3583	0.2688	0.63
Mof_H 	H 	0.45033	0.0895	0.3583	0.623
Mof_H 	H 	0.5971	0.8972	0.2216	0.563
Mof_H 	H 	0.27533	0.3807	0.5227	-0.04
Mof_H 	H 	0.79663	0.47	0.2981	0.047
Mof_H 	H 	0.79253	0.7864	0.4583	0.278
Mof_H 	H 	0.40303	0.0916	0.4473	0.643
Mof_H 	H 	0.76187	0.5181	0.7632	-0.397
Mof_H 	H 	0.07327	0.457	0.2428	0.298
Mof_H 	H 	0.617	0.7312	0.0895	0.613
Mof_H 	H 	0.89833	0.632	0.388	0.134
Mof_H 	H 	0.73167	0.388	0.756	0.14
Mof_H 	H 	0.0971	0.1028	0.7784	0.531
Mof_H 	H 	0.7089	0.0431	0.4954	-0.029
Mof_H 	H 	0.60867	0.4773	0.858	-0.038
Mof_H 	H 	0.166	0.1097	0.5525	0.093
Mof_H 	H 	0.29663	0.53	0.7019	0.057
Mof_H 	H 	0.39833	0.368	0.612	0.14
Mof_H 	H 	0.90303	0.9084	0.5527	0.61
Mof_H 	H 	0.65807	0.6799	0.8928	0.533
Mof_H 	H 	0.66197	0.4923	0.1469	-0.013
Mof_H 	H 	0.78367	0.6417	0.7312	0.612
Mof_H 	H 	0.26377	0.3244	0.1028	0.579
Mof_H 	H 	0.62587	0.4583	0.6719	0.285
Mof_H 	H 	0.73993	0.7858	0.543	0.276
Mof_H 	H 	0.4914	0.8928	0.2129	0.534
Mof_H 	H 	0.17947	0.3558	0.2857	0.624
Mof_H 	H 	0.83267	0.4428	0.8903	0.105
Mof_H 	H 	0.117	0.2688	0.9105	0.617
Mof_H 	H 	0.2089	0.9569	0.5046	-0.021
Mof_H 	H 	0.28213	0.6151	0.6179	0.107
Mof_H 	H 	0.32473	0.2129	0.3201	0.543
Mof_H 	H 	0.54223	0.4954	0.4523	-0.029
Mof_H 	H 	0.49933	0.4475	0.5572	0.107
Mof_H 	H 	0.0952	0.2368	0.7549	-0.393
Mof_H 	H 	0.065	0.244	0.632	0.143
Mof_H 	H 	0.9914	0.1072	0.7871	0.47
Mof_H 	H 	0.23637	0.4473	0.3557	0.65
Mof_H 	H 	0.04223	0.5046	0.5477	0.032
Mof_H 	H 	0.442	0.858	0.3807	-0.039
Mof_H 	H 	0.29253	0.2136	0.5417	0.29
Mof_H 	H 	0.70417	0.6066	0.9178	0.575
Mof_H 	H 	0.4066	0.7572	0.2142	0.282
Mof_H 	H 	0.4592	0.6719	0.2136	0.286
Mof_H 	H 	0.37083	0.3112	0.3934	0.584
Mof_H 	H 	0.666	0.8903	0.4475	0.106
Mof_H 	H 	0.73637	0.5527	0.6443	0.633
Mof_H 	H 	0.67947	0.6442	0.7143	0.603
Mof_H 	H 	0.0697	0.3557	0.9084	0.643
Mof_H 	H 	0.9953	0.8531	0.3454	-0.046
Mof_H 	H 	0.82473	0.7871	0.6799	0.52
Mof_H 	H 	0.5952	0.7632	0.2451	-0.398
Mof_H 	H 	0.23107	0.7291	0.2027	0.046
Mof_H 	H 	0.61547	0.3821	0.9972	0.105
Mof_H 	H 	0.9633	0.1719	0.47	0.005
Mof_H 	H 	0.11547	0.6179	0.0028	0.107
Mof_H 	H 	0.95033	0.9105	0.6417	0.588
Mof_H 	H 	0.42853	0.2451	0.4819	-0.404
Mof_H 	H 	0.39773	0.5264	0.7291	0.046
Mof_H 	H 	0.5375	0.9178	0.3112	0.575
Mof_H 	H 	0.37557	0.4523	0.9569	-0.029
Mof_H 	H 	0.26187	0.4819	0.2368	-0.41
Mof_H 	H 	0.15807	0.3201	0.1072	0.552
Mof_H 	H 	0.942	0.142	0.6193	-0.044
Mof_H 	H 	0.82863	0.3454	0.4923	-0.006
Mof_H 	H 	0.4488	0.9972	0.6151	0.098
Mof_H 	H 	0.0375	0.0822	0.6888	0.549
Mof_H 	H 	0.5697	0.6443	0.0916	0.634
Mof_H 	H 	0.92853	0.7549	0.5181	-0.393
Mof_H 	H 	0.565	0.756	0.368	0.14
Mof_H 	H 	0.16197	0.5077	0.8531	-0.004
Mof_H 	H 	0.87083	0.6888	0.6066	0.561
Mof_H 	H 	0.23993	0.2142	0.457	0.288
Mof_H 	H 	0.89773	0.4736	0.2709	0.032
Mof_H 	H 	0.32863	0.6546	0.5077	-0.013
Mof_H 	H 	0.87557	0.5477	0.0431	-0.034
Mof_H 	H 	0.57327	0.543	0.7572	0.282
Mof_H 	H 	0.20417	0.3934	0.0822	0.591
Mof_H 	H 	0.5644	0.7973	0.5264	0.044
Mof_H 	H 	0.9592	0.3281	0.7864	0.282
Mof_H 	H 	0.93043	0.7784	0.6756	0.544
Mof_H 	H 	0.4633	0.8281	0.53	0.053
Mof_H 	H 	0.4953	0.1469	0.6546	-0.01
Mof_H 	H 	0.0128	0.2857	0.9299	0.619
Mof_C 	C 	0.66917	0.4155	0.0046	-0.235
Mof_C 	C 	0.16917	0.5845	0.9954	-0.223
Mof_C 	C 	0.1552	0.9665	0.4803	0.086
Mof_C 	C 	0.10947	0.5629	0.2127	0.178
Mof_C 	C 	0.68553	0.6319	0.383	0.253
Mof_C 	C 	0.69777	0.4812	0.0944	0.101
Mof_C 	C 	0.60947	0.4371	0.7873	0.179
Mof_C 	C 	0.37813	0.2107	0.4383	1.429
Mof_C 	C 	0.79707	0.4507	0.9418	-0.248
Mof_C 	C 	0.6304	0.9418	0.4911	-0.244
Mof_C 	C 	0.62467	0.5	0.7417	-0.935
Mof_C 	C 	0.1304	0.0582	0.5089	-0.206
Mof_C 	C 	0.19777	0.5188	0.9056	0.097
Mof_C 	C 	0.96373	0.5089	0.4507	-0.179
Mof_C 	C 	0.89593	0.8936	0.6037	-2.01
Mof_C 	C 	0.70917	0.6381	0.8801	-1.866
Mof_C 	C 	0.01887	0.617	0.2489	0.29
Mof_C 	C 	0.29133	0.2417	0.5	-0.951
Mof_C 	C 	0.71147	0.5617	0.7724	1.404
Mof_C 	C 	0.77613	0.6498	0.4371	0.172
Mof_C 	C 	0.33583	0.5891	0.5845	-0.236
Mof_C 	C 	0.35483	0.5001	0.676	-0.169
Mof_C 	C 	0.5025	0.0046	0.5891	-0.22
Mof_C 	C 	0.0025	0.9954	0.4109	-0.169
Mof_C 	C 	0.5448	0.7724	0.2107	1.407
Mof_C 	C 	0.51887	0.383	0.7511	0.25
Mof_C 	C 	0.86443	0.3868	0.4812	0.08
Mof_C 	C 	0.29707	0.5493	0.0582	-0.245
Mof_C 	C 	0.9428	0.2127	0.6498	0.162
Mof_C 	C 	0.21147	0.4383	0.2276	1.446
Mof_C 	C 	0.38463	0.5274	0.6025	0.153
Mof_C 	C 	0.88463	0.4726	0.3975	0.111
Mof_C 	C 	0.458	0.7417	0.2417	-0.938
Mof_C 	C 	0.0215	0.1759	0.4999	-0.071
Mof_C 	C 	0.37583	0.242	0.3619	-1.896
Mof_C 	C 	0.71797	0.3975	0.9249	0.152
Mof_C 	C 	0.72927	0.6037	0.7101	-2.065
Mof_C 	C 	0.6552	0.0335	0.5197	0.109
Mof_C 	C 	0.36443	0.6132	0.5188	0.102
Mof_C 	C 	0.22927	0.3963	0.2899	-2.12
Mof_C 	C 	0.0311	0.9056	0.3868	0.13
Mof_C 	C 	0.87583	0.758	0.6381	-1.825
Mof_C 	C 	0.5311	0.0944	0.6132	0.094
Mof_C 	C 	0.21797	0.6025	0.0751	0.148
Mof_C 	C 	0.5425	0.8801	0.242	-1.87
Mof_C 	C 	0.20917	0.3619	0.1199	-1.917
Mof_C 	C 	0.12467	0.5	0.2583	-0.959
Mof_C 	C 	0.8522	0.2489	0.6319	0.252
Mof_C 	C 	0.18553	0.3681	0.617	0.246
Mof_C 	C 	0.5215	0.8241	0.5001	-0.163
Mof_C 	C 	0.32187	0.4862	0.9665	0.109
Mof_C 	C 	0.0513	0.0751	0.4726	0.11
Mof_C 	C 	0.87813	0.7893	0.5617	1.368
Mof_C 	C 	0.98853	0.4803	0.5138	0.005
Mof_C 	C 	0.958	0.2583	0.7583	-0.959
Mof_C 	C 	0.3522	0.7511	0.3681	0.25
Mof_C 	C 	0.18817	0.676	0.1759	-0.167
Mof_C 	C 	0.0448	0.2276	0.7893	1.404
Mof_C 	C 	0.0626	0.2899	0.8936	-2.072
Mof_C 	C 	0.5626	0.7101	0.1064	-2.069
Mof_C 	C 	0.83583	0.4109	0.4155	-0.205
Mof_C 	C 	0.0425	0.1199	0.758	-1.736
Mof_C 	C 	0.48853	0.5197	0.4862	0.107
Mof_C 	C 	0.82187	0.5138	0.0335	0.108
Mof_C 	C 	0.39593	0.1064	0.3963	-2.097
Mof_C 	C 	0.4428	0.7873	0.3502	0.18
Mof_C 	C 	0.5513	0.9249	0.5274	0.144
Mof_C 	C 	0.79133	0.7583	0.5	-0.915
Mof_C 	C 	0.46373	0.4911	0.5493	-0.245
Mof_C 	C 	0.68817	0.324	0.8241	-0.167
Mof_C 	C 	0.85483	0.4999	0.324	-0.144
Mof_C 	C 	0.27613	0.3502	0.5629	0.186
Mof_Br	Br	0.47936	0.47523	0.20879	-0.526
Mof_Br	Br	0.31269	0.20879	0.73356	-0.523
Mof_Br	Br	0.14603	0.73356	0.52477	-0.508
Mof_Br	Br	0.64603	0.26644	0.47523	-0.527
Mof_Br	Br	0.97936	0.52477	0.79121	-0.552
Mof_Br	Br	0.81269	0.79121	0.26644	-0.533
Mof_N 	N 	0.0134	0.2429	0.6053	-0.289
Mof_N 	N 	0.6075	0.1116	0.5807	-0.279
Mof_N 	N 	0.18007	0.6376	0.2429	-0.297
Mof_N 	N 	0.5134	0.7571	0.3947	-0.298
Mof_N 	N 	0.1075	0.8884	0.4193	-0.278
Mof_N 	N 	0.44083	0.5807	0.4691	-0.281
Mof_N 	N 	0.94083	0.4193	0.5309	-0.265
Mof_N 	N 	0.84673	0.6053	0.3624	-0.299
Mof_N 	N 	0.34673	0.3947	0.6376	-0.298
Mof_N 	N 	0.27417	0.4691	0.8884	-0.279
Mof_N 	N 	0.68007	0.3624	0.7571	-0.297
Mof_N 	N 	0.77417	0.5309	0.1116	-0.281
Mof_O 	O 	0.44997	0.4228	0.8018	-0.417
Mof_O 	O 	0.61663	0.621	0.4228	-0.418
Mof_O 	O 	0.2833	0.8018	0.379	-0.417
Mof_O 	O 	0.8525	0.3288	0.6361	-0.427
Mof_O 	O 	0.11663	0.379	0.5772	-0.404
Mof_O 	O 	0.51917	0.3073	0.6712	-0.423
Mof_O 	O 	0.68583	0.6361	0.3073	-0.424
Mof_O 	O 	0.94997	0.5772	0.1982	-0.451
Mof_O 	O 	0.7833	0.1982	0.621	-0.418
Mof_O 	O 	0.01917	0.6927	0.3288	-0.416
Mof_O 	O 	0.3525	0.6712	0.3639	-0.423
Mof_O 	O 	0.18583	0.3639	0.6927	-0.418
_end
