data_functionalizedCrystal
_audit_creation_method	'EQeq! by Chris Wilmer'
_symmetry_space_group_name_H-M	'P1'
_symmetry_Int_Tables_number	1
_symmetry_cell_setting	triclinic
loop_
_symmetry_equiv_pos_as_xyz
  x,y,z
_cell_length_a	15.3552
_cell_length_b	15.3552
_cell_length_c	16.958
_cell_angle_alpha	67.503
_cell_angle_beta	67.503
_cell_angle_gamma	64.4311
loop_
_atom_site_label
_atom_site_type_symbol
_atom_site_fract_x
_atom_site_fract_y
_atom_site_fract_z
_atom_site_charge
Mof_Co	Co	0.45822	0.2671	0.38258	1.195
Mof_Co	Co	0.7329	0.54178	0.11742	1.195
Mof_Co	Co	0.34301	0.65699	0.75	1.194
Mof_Co	Co	0.2671	0.45822	0.88258	1.195
Mof_Co	Co	0.65699	0.34301	0.25	1.194
Mof_Co	Co	0.54178	0.7329	0.61742	1.195
Mof_H 	H 	0.963	0.6352	0.9444	0.066
Mof_H 	H 	0.436	0.3424	0.6125	0.059
Mof_H 	H 	0.6843	0.4055	0.4507	0.056
Mof_H 	H 	0.3648	0.037	0.5556	0.065
Mof_H 	H 	0.8951	0.7559	0.3586	0.078
Mof_H 	H 	0.037	0.3648	0.0556	0.067
Mof_H 	H 	0.0459	0.8407	0.7226	0.08
Mof_H 	H 	0.3424	0.436	0.1125	0.06
Mof_H 	H 	0.564	0.6576	0.3875	0.06
Mof_H 	H 	0.2441	0.1049	0.1414	0.079
Mof_H 	H 	0.3157	0.5945	0.5493	0.056
Mof_H 	H 	0.4055	0.6843	0.9507	0.054
Mof_H 	H 	0.8407	0.0459	0.2226	0.074
Mof_H 	H 	0.5945	0.3157	0.0493	0.054
Mof_H 	H 	0.6352	0.963	0.4444	0.065
Mof_H 	H 	0.1049	0.2441	0.6414	0.078
Mof_H 	H 	0.9541	0.1593	0.2774	0.08
Mof_H 	H 	0.7559	0.8951	0.8586	0.079
Mof_H 	H 	0.4957	0.5475	0.1735	0.04
Mof_H 	H 	0.1593	0.9541	0.7774	0.074
Mof_H 	H 	0.4525	0.5043	0.3265	0.041
Mof_H 	H 	0.6576	0.564	0.8875	0.06
Mof_H 	H 	0.5475	0.4957	0.6735	0.041
Mof_H 	H 	0.5043	0.4525	0.8265	0.04
Mof_C 	C 	0.6106	0.5632	0.2679	0.345
Mof_C 	C 	0.5214	0.579	0.345	-0.098
Mof_C 	C 	0.3713	0.4839	0.0987	0.047
Mof_C 	C 	0.7659	0.7307	0.9908	0.33
Mof_C 	C 	0.1805	0.0037	0.7311	0.01
Mof_C 	C 	0.0215	0.7245	0.8313	-0.064
Mof_C 	C 	0.2384	0.153	0.5859	-0.061
Mof_C 	C 	0.6567	0.1275	0.3171	0.372
Mof_C 	C 	0.8195	0.9963	0.2689	0.01
Mof_C 	C 	0.8526	0.822	0.3516	0.009
Mof_C 	C 	0.3433	0.8725	0.6829	0.372
Mof_C 	C 	0.4566	0.6288	0.059	-0.08
Mof_C 	C 	0.178	0.1474	0.1484	0.003
Mof_C 	C 	0.9468	0.6968	0.9034	0.019
Mof_C 	C 	0.5628	0.3654	0.5205	-0.098
Mof_C 	C 	0.5632	0.6106	0.7679	0.346
Mof_C 	C 	0.4631	0.5511	0.1354	0.034
Mof_C 	C 	0.2693	0.2341	0.5092	0.336
Mof_C 	C 	0.9785	0.2755	0.1687	-0.064
Mof_C 	C 	0.1474	0.178	0.6484	0.009
Mof_C 	C 	0.104	0.1202	0.2216	-0.031
Mof_C 	C 	0.5062	0.7058	0.0306	0.306
Mof_C 	C 	0.1275	0.6567	0.8171	0.369
Mof_C 	C 	0.3712	0.5434	0.441	-0.078
Mof_C 	C 	0.5617	0.3225	0.4553	0.373
Mof_C 	C 	0.6287	0.5161	0.9013	0.047
Mof_C 	C 	0.3032	0.0532	0.5966	0.027
Mof_C 	C 	0.3654	0.5628	0.0205	-0.1
Mof_C 	C 	0.0532	0.3032	0.0966	0.019
Mof_C 	C 	0.3672	0.5914	0.4976	0.041
Mof_C 	C 	0.6346	0.4372	0.9795	-0.1
Mof_C 	C 	0.2942	0.4938	0.4694	0.303
Mof_C 	C 	0.8725	0.3433	0.1829	0.369
Mof_C 	C 	0.5161	0.6287	0.4013	0.046
Mof_C 	C 	0.3225	0.5617	0.9553	0.374
Mof_C 	C 	0.896	0.8798	0.7784	-0.031
Mof_C 	C 	0.9764	0.8676	0.207	0.278
Mof_C 	C 	0.579	0.5214	0.845	-0.099
Mof_C 	C 	0.7058	0.5062	0.5306	0.303
Mof_C 	C 	0.6328	0.4086	0.5024	0.041
Mof_C 	C 	0.6775	0.4383	0.0447	0.374
Mof_C 	C 	0.847	0.7616	0.9141	-0.055
Mof_C 	C 	0.2341	0.2693	0.0092	0.33
Mof_C 	C 	0.5511	0.4631	0.6354	0.033
Mof_C 	C 	0.4839	0.3713	0.5987	0.046
Mof_C 	C 	0.3894	0.4368	0.7321	0.345
Mof_C 	C 	0.2755	0.9785	0.6687	-0.073
Mof_C 	C 	0.1324	0.0236	0.293	0.271
Mof_C 	C 	0.4489	0.5369	0.3646	0.033
Mof_C 	C 	0.0037	0.1805	0.2311	-0.002
Mof_C 	C 	0.7616	0.847	0.4141	-0.061
Mof_C 	C 	0.4086	0.6328	0.0024	0.044
Mof_C 	C 	0.5914	0.3672	0.9976	0.044
Mof_C 	C 	0.153	0.2384	0.0859	-0.055
Mof_C 	C 	0.4372	0.6346	0.4795	-0.098
Mof_C 	C 	0.8798	0.896	0.2784	-0.037
Mof_C 	C 	0.6288	0.4566	0.559	-0.078
Mof_C 	C 	0.6968	0.9468	0.4034	0.027
Mof_C 	C 	0.8676	0.9764	0.707	0.271
Mof_C 	C 	0.9963	0.8195	0.7689	-0.002
Mof_C 	C 	0.0236	0.1324	0.793	0.278
Mof_C 	C 	0.4786	0.421	0.655	-0.098
Mof_C 	C 	0.5434	0.3712	0.941	-0.08
Mof_C 	C 	0.7245	0.0215	0.3313	-0.073
Mof_C 	C 	0.4368	0.3894	0.2321	0.346
Mof_C 	C 	0.7307	0.7659	0.4908	0.336
Mof_C 	C 	0.1202	0.104	0.7216	-0.037
Mof_C 	C 	0.4383	0.6775	0.5447	0.373
Mof_C 	C 	0.421	0.4786	0.155	-0.099
Mof_C 	C 	0.4938	0.2942	0.9694	0.306
Mof_C 	C 	0.822	0.8526	0.8516	0.003
Mof_C 	C 	0.5369	0.4489	0.8646	0.034
Mof_O 	O 	0.9982	0.0608	0.8522	-0.184
Mof_O 	O 	0.35828	0.20448	0.4607	-0.392
Mof_O 	O 	0.69147	0.19347	0.2625	-0.405
Mof_O 	O 	0.777	0.023	0.7093	-0.182
Mof_O 	O 	0.9392	0.0018	0.6478	-0.183
Mof_O 	O 	0.86016	0.43376	0.1359	-0.415
Mof_O 	O 	0.37452	0.49852	0.7736	-0.517
Mof_O 	O 	0.63203	0.32523	0.3832	-0.41
Mof_O 	O 	0.023	0.777	0.2093	-0.185
Mof_O 	O 	0.7095	0.5073	0.0267	-0.421
Mof_O 	O 	0.2905	0.4927	0.9733	-0.421
Mof_O 	O 	0.67873	0.78953	0.001	-0.207
Mof_O 	O 	0.79552	0.64172	0.0393	-0.389
Mof_O 	O 	0.49852	0.37452	0.2736	-0.517
Mof_O 	O 	0.80653	0.30853	0.2375	-0.404
Mof_O 	O 	0.36797	0.67477	0.6168	-0.41
Mof_O 	O 	0.66728	0.61288	0.24	-0.315
Mof_O 	O 	0.50148	0.62548	0.7264	-0.517
Mof_O 	O 	0.13984	0.56624	0.8641	-0.415
Mof_O 	O 	0.67477	0.36797	0.1168	-0.41
Mof_O 	O 	0.4927	0.2905	0.4733	-0.421
Mof_O 	O 	0.44212	0.30772	0.9157	-0.235
Mof_O 	O 	0.43376	0.86016	0.6359	-0.416
Mof_O 	O 	0.61288	0.66728	0.74	-0.315
Mof_O 	O 	0.0608	0.9982	0.3522	-0.183
Mof_O 	O 	0.33272	0.38712	0.76	-0.315
Mof_O 	O 	0.56624	0.13984	0.3641	-0.416
Mof_O 	O 	0.78953	0.67873	0.501	-0.211
Mof_O 	O 	0.69228	0.55788	0.5843	-0.235
Mof_O 	O 	0.0018	0.9392	0.1478	-0.184
Mof_O 	O 	0.19347	0.69147	0.7625	-0.404
Mof_O 	O 	0.5026	0.2258	0.0346	-0.205
Mof_O 	O 	0.38712	0.33272	0.26	-0.315
Mof_O 	O 	0.62548	0.50148	0.2264	-0.517
Mof_O 	O 	0.7742	0.4974	0.4654	-0.203
Mof_O 	O 	0.223	0.977	0.2907	-0.182
Mof_O 	O 	0.2258	0.5026	0.5346	-0.203
Mof_O 	O 	0.20448	0.35828	0.9607	-0.389
Mof_O 	O 	0.4974	0.7742	0.9654	-0.205
Mof_O 	O 	0.30772	0.44212	0.4157	-0.235
Mof_O 	O 	0.5073	0.7095	0.5267	-0.421
Mof_O 	O 	0.30853	0.80653	0.7375	-0.405
Mof_O 	O 	0.55788	0.69228	0.0843	-0.235
Mof_O 	O 	0.32523	0.63203	0.8832	-0.41
Mof_O 	O 	0.977	0.223	0.7907	-0.185
Mof_O 	O 	0.64172	0.79552	0.5393	-0.392
Mof_O 	O 	0.32127	0.21047	0.999	-0.207
Mof_O 	O 	0.21047	0.32127	0.499	-0.211
_end
