data_functionalizedCrystal
_audit_creation_method	'EQeq! by Chris Wilmer'
_symmetry_space_group_name_H-M	'P1'
_symmetry_Int_Tables_number	1
_symmetry_cell_setting	triclinic
loop_
_symmetry_equiv_pos_as_xyz
  x,y,z
_cell_length_a	15.7891
_cell_length_b	8.4306
_cell_length_c	16.1358
_cell_angle_alpha	90
_cell_angle_beta	112.357
_cell_angle_gamma	90
loop_
_atom_site_label
_atom_site_type_symbol
_atom_site_fract_x
_atom_site_fract_y
_atom_site_fract_z
_atom_site_charge
Mof_Zn	Zn	0.63644	0.63754	0.52447	1.237
Mof_P 	P 	0.5204	0.37261	0.40048	0.447
Mof_O 	O 	0.6077	0.422	0.4762	-0.437
Mof_O 	O 	0.4557	0.2866	0.4325	-0.426
Mof_O 	O 	0.4748	0.511	0.3406	-0.48
Mof_H 	H 	0.548	0.262	0.353	-0.027
Mof_P 	P 	0.65252	0.8626	0.36492	0.473
Mof_H 	H 	0.614	0.001	0.344	-0.031
Mof_O 	O 	0.7493	0.9002	0.3761	-0.426
Mof_O 	O 	0.6397	0.8088	0.4481	-0.489
Mof_O 	O 	0.6102	0.7529	0.2863	-0.446
Mof_Zn	Zn	0.13644	0.13754	0.52447	1.232
Mof_P 	P 	0.0204	0.87261	0.40048	0.311
Mof_O 	O 	0.1077	0.922	0.4762	-0.436
Mof_O 	O 	0.9557	0.7866	0.4325	-0.345
Mof_O 	O 	0.9748	0.011	0.3406	-0.386
Mof_H 	H 	0.048	0.762	0.353	-0.036
Mof_P 	P 	0.15252	0.3626	0.36492	0.471
Mof_H 	H 	0.114	0.501	0.344	-0.048
Mof_O 	O 	0.2493	0.4002	0.3761	-0.433
Mof_O 	O 	0.1397	0.3088	0.4481	-0.504
Mof_O 	O 	0.1102	0.2529	0.2863	-0.466
Mof_Zn	Zn	0.36356	0.63754	0.97553	1.233
Mof_P 	P 	0.4796	0.37261	0.09952	0.446
Mof_O 	O 	0.3923	0.422	0.0238	-0.436
Mof_O 	O 	0.5443	0.2866	0.0675	-0.422
Mof_O 	O 	0.5252	0.511	0.1594	-0.478
Mof_H 	H 	0.452	0.262	0.147	-0.028
Mof_P 	P 	0.34748	0.8626	0.13508	0.473
Mof_H 	H 	0.386	0.001	0.156	-0.032
Mof_O 	O 	0.2507	0.9002	0.1239	-0.433
Mof_O 	O 	0.3603	0.8088	0.0519	-0.488
Mof_O 	O 	0.3898	0.7529	0.2137	-0.449
Mof_Zn	Zn	0.86356	0.13754	0.97553	1.237
Mof_P 	P 	0.9796	0.87261	0.09952	0.58
Mof_O 	O 	0.8923	0.922	0.0238	-0.437
Mof_O 	O 	0.0443	0.7866	0.0675	-0.503
Mof_O 	O 	0.0252	0.011	0.1594	-0.559
Mof_H 	H 	0.952	0.762	0.147	-0.018
Mof_P 	P 	0.84748	0.3626	0.13508	0.476
Mof_H 	H 	0.886	0.501	0.156	-0.016
Mof_O 	O 	0.7507	0.4002	0.1239	-0.426
Mof_O 	O 	0.8603	0.3088	0.0519	-0.47
Mof_O 	O 	0.8898	0.2529	0.2137	-0.416
Mof_Zn	Zn	0.36356	0.36246	0.47553	1.235
Mof_P 	P 	0.4796	0.62739	0.59952	0.446
Mof_O 	O 	0.3923	0.578	0.5238	-0.44
Mof_O 	O 	0.5443	0.7134	0.5675	-0.425
Mof_O 	O 	0.5252	0.489	0.6594	-0.479
Mof_H 	H 	0.452	0.738	0.647	-0.028
Mof_P 	P 	0.34748	0.1374	0.63508	0.473
Mof_H 	H 	0.386	0.999	0.656	-0.033
Mof_O 	O 	0.2507	0.0998	0.6239	-0.435
Mof_O 	O 	0.3603	0.1912	0.5519	-0.491
Mof_O 	O 	0.3898	0.2471	0.7137	-0.449
Mof_Zn	Zn	0.86356	0.86246	0.47553	1.239
Mof_P 	P 	0.9796	0.12739	0.59952	0.58
Mof_O 	O 	0.8923	0.078	0.5238	-0.44
Mof_O 	O 	0.0443	0.2134	0.5675	-0.505
Mof_O 	O 	0.0252	0.989	0.6594	-0.56
Mof_H 	H 	0.952	0.238	0.647	-0.018
Mof_P 	P 	0.84748	0.6374	0.63508	0.476
Mof_H 	H 	0.886	0.499	0.656	-0.017
Mof_O 	O 	0.7507	0.5998	0.6239	-0.428
Mof_O 	O 	0.8603	0.6912	0.5519	-0.474
Mof_O 	O 	0.8898	0.7471	0.7137	-0.418
Mof_Zn	Zn	0.63644	0.36246	0.02447	1.238
Mof_P 	P 	0.5204	0.62739	0.90048	0.446
Mof_O 	O 	0.6077	0.578	0.9762	-0.441
Mof_O 	O 	0.4557	0.7134	0.9325	-0.428
Mof_O 	O 	0.4748	0.489	0.8406	-0.481
Mof_H 	H 	0.548	0.738	0.853	-0.028
Mof_P 	P 	0.65252	0.1374	0.86492	0.473
Mof_H 	H 	0.614	0.999	0.844	-0.032
Mof_O 	O 	0.7493	0.0998	0.8761	-0.428
Mof_O 	O 	0.6397	0.1912	0.9481	-0.493
Mof_O 	O 	0.6102	0.2471	0.7863	-0.446
Mof_Zn	Zn	0.13644	0.86246	0.02447	1.234
Mof_P 	P 	0.0204	0.12739	0.90048	0.313
Mof_O 	O 	0.1077	0.078	0.9762	-0.44
Mof_O 	O 	0.9557	0.2134	0.9325	-0.349
Mof_O 	O 	0.9748	0.989	0.8406	-0.388
Mof_H 	H 	0.048	0.238	0.853	-0.036
Mof_P 	P 	0.15252	0.6374	0.86492	0.471
Mof_H 	H 	0.114	0.499	0.844	-0.048
Mof_O 	O 	0.2493	0.5998	0.8761	-0.434
Mof_O 	O 	0.1397	0.6912	0.9481	-0.506
Mof_O 	O 	0.1102	0.7471	0.7863	-0.466
Mof_Zn	Zn	0.5	0.62722	0.25	1.232
Mof_Zn	Zn	1.32231e-33	0.12722	0.25	1.203
Mof_Zn	Zn	0.5	0.37278	0.75	1.232
Mof_Zn	Zn	5.72323e-17	0.87278	0.75	1.204
_end
