# CIF file generated by openbabel 3.1.0, see https://openbabel.org
data_I
_chemical_name_common 'image0'
_cell_length_a 18.9011
_cell_length_b 14.8488
_cell_length_c 12.9302
_cell_angle_alpha 90
_cell_angle_beta 90
_cell_angle_gamma 90
_space_group_name_H-M_alt 'P 1'
_space_group_name_Hall 'P 1'
loop_
    _symmetry_equiv_pos_as_xyz
    x,y,z
loop_
    _atom_site_label
    _atom_site_type_symbol
    _atom_site_fract_x
    _atom_site_fract_y
    _atom_site_fract_z
    _atom_site_occupancy
    N1       N        0.57110    0.42400    0.64610    1.000
    N2       N        0.68070    0.32810    0.55310    1.000
    C1       C        0.59990    0.44910    0.55500    1.000
    H1       H        0.58290    0.50030    0.52180    1.000
    C2       C        0.65300    0.40160    0.51110    1.000
    H2       H        0.67100    0.42150    0.44810    1.000
    C3       C        0.65140    0.30250    0.64400    1.000
    H3       H        0.66810    0.25100    0.67690    1.000
    C4       C        0.59790    0.35030    0.68830    1.000
    H4       H        0.57940    0.33030    0.75090    1.000
    N3       N        0.57110    0.92400    0.14610    1.000
    N4       N        0.68070    0.82810    0.05310    1.000
    C5       C        0.59990    0.94910    0.05500    1.000
    H5       H        0.58290    0.00030    0.02180    1.000
    C6       C        0.65300    0.90160    0.01110    1.000
    H6       H        0.67100    0.92150    0.94810    1.000
    C7       C        0.65140    0.80250    0.14400    1.000
    H7       H        0.66810    0.75100    0.17690    1.000
    C8       C        0.59790    0.85030    0.18830    1.000
    H8       H        0.57940    0.83030    0.25090    1.000
    N5       N        0.07110    0.42400    0.14610    1.000
    N6       N        0.18070    0.32810    0.05310    1.000
    C9       C        0.09990    0.44910    0.05500    1.000
    H9       H        0.08290    0.50030    0.02180    1.000
    C10      C        0.15300    0.40160    0.01110    1.000
    H10      H        0.17100    0.42150    0.94810    1.000
    C11      C        0.15140    0.30250    0.14400    1.000
    H11      H        0.16810    0.25100    0.17690    1.000
    C12      C        0.09790    0.35030    0.18830    1.000
    H12      H        0.07940    0.33030    0.25090    1.000
    N7       N        0.07110    0.92400    0.64610    1.000
    N8       N        0.18070    0.82810    0.55310    1.000
    C13      C        0.09990    0.94910    0.55500    1.000
    H13      H        0.08290    0.00030    0.52180    1.000
    C14      C        0.15300    0.90160    0.51110    1.000
    H14      H        0.17100    0.92150    0.44810    1.000
    C15      C        0.15140    0.80250    0.64400    1.000
    H15      H        0.16810    0.75100    0.67690    1.000
    C16      C        0.09790    0.85030    0.68830    1.000
    H16      H        0.07940    0.83030    0.75090    1.000
    N9       N        0.42890    0.57600    0.64610    1.000
    N10      N        0.31930    0.67190    0.55310    1.000
    C17      C        0.40010    0.55090    0.55500    1.000
    H17      H        0.41710    0.49970    0.52180    1.000
    C18      C        0.34700    0.59840    0.51110    1.000
    H18      H        0.32900    0.57850    0.44810    1.000
    C19      C        0.34860    0.69750    0.64400    1.000
    H19      H        0.33190    0.74900    0.67690    1.000
    C20      C        0.40210    0.64970    0.68830    1.000
    H20      H        0.42060    0.66970    0.75090    1.000
    N11      N        0.42890    0.07600    0.14610    1.000
    N12      N        0.31930    0.17190    0.05310    1.000
    C21      C        0.40010    0.05090    0.05500    1.000
    H21      H        0.41710    0.99970    0.02180    1.000
    C22      C        0.34700    0.09840    0.01110    1.000
    H22      H        0.32900    0.07850    0.94810    1.000
    C23      C        0.34860    0.19750    0.14400    1.000
    H23      H        0.33190    0.24900    0.17690    1.000
    C24      C        0.40210    0.14970    0.18830    1.000
    H24      H        0.42060    0.16970    0.25090    1.000
    N13      N        0.92890    0.57600    0.14610    1.000
    N14      N        0.81930    0.67190    0.05310    1.000
    C25      C        0.90010    0.55090    0.05500    1.000
    H25      H        0.91710    0.49970    0.02180    1.000
    C26      C        0.84700    0.59840    0.01110    1.000
    H26      H        0.82900    0.57850    0.94810    1.000
    C27      C        0.84860    0.69750    0.14400    1.000
    H27      H        0.83190    0.74900    0.17690    1.000
    C28      C        0.90210    0.64970    0.18830    1.000
    H28      H        0.92060    0.66970    0.25090    1.000
    N15      N        0.92890    0.07600    0.64610    1.000
    N16      N        0.81930    0.17190    0.55310    1.000
    C29      C        0.90010    0.05090    0.55500    1.000
    H29      H        0.91710    0.99970    0.52180    1.000
    C30      C        0.84700    0.09840    0.51110    1.000
    H30      H        0.82900    0.07850    0.44810    1.000
    C31      C        0.84860    0.19750    0.64400    1.000
    H31      H        0.83190    0.24900    0.67690    1.000
    C32      C        0.90210    0.14970    0.68830    1.000
    H32      H        0.92060    0.16970    0.75090    1.000
    N17      N        0.82110    0.82600    0.89610    1.000
    N18      N        0.93070    0.92190    0.80310    1.000
    C33      C        0.84990    0.80090    0.80500    1.000
    H33      H        0.83290    0.74970    0.77180    1.000
    C34      C        0.90300    0.84840    0.76110    1.000
    H34      H        0.92100    0.82850    0.69810    1.000
    C35      C        0.90140    0.94750    0.89400    1.000
    H35      H        0.91810    0.99900    0.92690    1.000
    C36      C        0.84790    0.89970    0.93830    1.000
    H36      H        0.82940    0.91970    0.00090    1.000
    N19      N        0.82110    0.32600    0.39610    1.000
    N20      N        0.93070    0.42190    0.30310    1.000
    C37      C        0.84990    0.30090    0.30500    1.000
    H37      H        0.83290    0.24970    0.27180    1.000
    C38      C        0.90300    0.34840    0.26110    1.000
    H38      H        0.92100    0.32850    0.19810    1.000
    C39      C        0.90140    0.44750    0.39400    1.000
    H39      H        0.91810    0.49900    0.42690    1.000
    C40      C        0.84790    0.39970    0.43830    1.000
    H40      H        0.82940    0.41970    0.50090    1.000
    N21      N        0.32110    0.82600    0.39610    1.000
    N22      N        0.43070    0.92190    0.30310    1.000
    C41      C        0.34990    0.80090    0.30500    1.000
    H41      H        0.33290    0.74970    0.27180    1.000
    C42      C        0.40300    0.84840    0.26110    1.000
    H42      H        0.42100    0.82850    0.19810    1.000
    C43      C        0.40140    0.94750    0.39400    1.000
    H43      H        0.41810    0.99900    0.42690    1.000
    C44      C        0.34790    0.89970    0.43830    1.000
    H44      H        0.32940    0.91970    0.50090    1.000
    N23      N        0.32110    0.32600    0.89610    1.000
    N24      N        0.43070    0.42190    0.80310    1.000
    C45      C        0.34990    0.30090    0.80500    1.000
    H45      H        0.33290    0.24970    0.77180    1.000
    C46      C        0.40300    0.34840    0.76110    1.000
    H46      H        0.42100    0.32850    0.69810    1.000
    C47      C        0.40140    0.44750    0.89400    1.000
    H47      H        0.41810    0.49900    0.92690    1.000
    C48      C        0.34790    0.39970    0.93830    1.000
    H48      H        0.32940    0.41970    0.00090    1.000
    N25      N        0.67890    0.67400    0.89610    1.000
    N26      N        0.56930    0.57810    0.80310    1.000
    C49      C        0.65010    0.69910    0.80500    1.000
    H49      H        0.66710    0.75030    0.77180    1.000
    C50      C        0.59700    0.65160    0.76110    1.000
    H50      H        0.57900    0.67150    0.69810    1.000
    C51      C        0.59860    0.55250    0.89400    1.000
    H51      H        0.58190    0.50100    0.92690    1.000
    C52      C        0.65210    0.60030    0.93830    1.000
    H52      H        0.67060    0.58030    0.00090    1.000
    N27      N        0.67890    0.17400    0.39610    1.000
    N28      N        0.56930    0.07810    0.30310    1.000
    C53      C        0.65010    0.19910    0.30500    1.000
    H53      H        0.66710    0.25030    0.27180    1.000
    C54      C        0.59700    0.15160    0.26110    1.000
    H54      H        0.57900    0.17150    0.19810    1.000
    C55      C        0.59860    0.05250    0.39400    1.000
    H55      H        0.58190    0.00100    0.42690    1.000
    C56      C        0.65210    0.10030    0.43830    1.000
    H56      H        0.67060    0.08030    0.50090    1.000
    N29      N        0.17890    0.67400    0.39610    1.000
    N30      N        0.06930    0.57810    0.30310    1.000
    C57      C        0.15010    0.69910    0.30500    1.000
    H57      H        0.16710    0.75030    0.27180    1.000
    C58      C        0.09700    0.65160    0.26110    1.000
    H58      H        0.07900    0.67150    0.19810    1.000
    C59      C        0.09860    0.55250    0.39400    1.000
    H59      H        0.08190    0.50100    0.42690    1.000
    C60      C        0.15210    0.60030    0.43830    1.000
    H60      H        0.17060    0.58030    0.50090    1.000
    N31      N        0.17890    0.17400    0.89610    1.000
    N32      N        0.06930    0.07810    0.80310    1.000
    C61      C        0.15010    0.19910    0.80500    1.000
    H61      H        0.16710    0.25030    0.77180    1.000
    C62      C        0.09700    0.15160    0.76110    1.000
    H62      H        0.07900    0.17150    0.69810    1.000
    C63      C        0.09860    0.05250    0.89400    1.000
    H63      H        0.08190    0.00100    0.92690    1.000
    C64      C        0.15210    0.10030    0.93830    1.000
    H64      H        0.17060    0.08030    0.00090    1.000
    Cu1      Cu       0.50000    0.50000    0.72400    1.000
    Cu2      Cu       0.50000    0.00000    0.22400    1.000
    Cu3      Cu       0.00000    0.50000    0.22400    1.000
    Cu4      Cu       0.00000    0.00000    0.72400    1.000
    Cu5      Cu       0.75000    0.75000    0.97400    1.000
    Cu6      Cu       0.75000    0.25000    0.47400    1.000
    Cu7      Cu       0.25000    0.75000    0.47400    1.000
    Cu8      Cu       0.25000    0.25000    0.97400    1.000
