# CIF file generated by openbabel 3.1.0, see https://openbabel.org
data_I
_chemical_name_common 'image0'
_cell_length_a 11.335
_cell_length_b 12.152
_cell_length_c 23.319
_cell_angle_alpha 83.543
_cell_angle_beta 81.741
_cell_angle_gamma 71.112
_space_group_name_H-M_alt 'P 1'
_space_group_name_Hall 'P 1'
loop_
    _symmetry_equiv_pos_as_xyz
    x,y,z
loop_
    _atom_site_label
    _atom_site_type_symbol
    _atom_site_fract_x
    _atom_site_fract_y
    _atom_site_fract_z
    _atom_site_occupancy
    W1       W        0.08615    0.01098    0.23558    1.000
    W2       W        0.98687    0.15729    0.36891    1.000
    W3       W        0.98008    0.51458    0.25469    1.000
    W4       W        0.76239    0.42068    0.36972    1.000
    W5       W        0.68097    0.18445    0.35560    1.000
    W6       W        0.78609    0.03283    0.21918    1.000
    W7       W        0.96737    0.12952    0.11126    1.000
    W8       W        0.73909    0.42428    0.10830    1.000
    W9       W        0.64621    0.56719    0.23155    1.000
    W10      W        0.06895    0.38338    0.13301    1.000
    W11      W        0.55873    0.33143    0.21797    1.000
    Cu1      Cu       0.10780    0.74400    0.25484    1.000
    Cu2      Cu       0.69250    0.62980    0.97174    1.000
    Y1       Y        0.25550    0.23653    0.25890    1.000
    Si1      Si       0.86880    0.28680    0.23770    1.000
    O1       O        0.19390    0.86920    0.24260    1.000
    O2       O        0.98460    0.65470    0.26780    1.000
    O3       O        0.13740    0.43100    0.06570    1.000
    O4       O        0.40820    0.32410    0.21970    1.000
    O5       O        0.74450    0.36630    0.20880    1.000
    O6       O        0.65330    0.32960    0.39170    1.000
    O7       O        0.89350    0.29780    0.40510    1.000
    O8       O        0.82260    0.11300    0.39130    1.000
    O9       O        0.66050    0.50350    0.31150    1.000
    O10      O        0.74290    0.07120    0.29800    1.000
    O11      O        0.01620    0.04320    0.31260    1.000
    O12      O        0.10120    0.21780    0.33110    1.000
    O13      O        0.80370    0.57750    0.22970    1.000
    O14      O        0.13370    0.42560    0.26880    1.000
    O15      O        0.18320    0.09960    0.23150    1.000
    O16      O        0.20610    0.31460    0.16600    1.000
    O17      O        0.03180    0.52060    0.17050    1.000
    O18      O        0.89080    0.44460    0.11110    1.000
    O19      O        0.65560    0.56340    0.15010    1.000
    O20      O        0.82200    0.26550    0.09880    1.000
    O21      O        0.08940    0.01250    0.15160    1.000
    O22      O        0.93790    0.94170    0.23730    1.000
    O23      O        0.51660    0.49100    0.23550    1.000
    O24      O        0.85220    0.04280    0.13800    1.000
    O25      O        0.65320    0.17980    0.20040    1.000
    O26      O        0.05070    0.24110    0.11550    1.000
    O27      O        0.58190    0.28550    0.29660    1.000
    O28      O        0.89420    0.47380    0.32470    1.000
    O29      O        0.58840    0.37820    0.13680    1.000
    O30      O        0.83610    0.26810    0.30790    1.000
    O31      O        0.91540    0.15880    0.21170    1.000
    O32      O        0.97730    0.34750    0.22090    1.000
    C1       C        0.99860    0.77240    0.37380    1.000
    H1       H        0.92720    0.76900    0.35990    1.000
    C2       C        0.99190    0.79130    0.43000    1.000
    C3       C        0.09100    0.80800    0.45480    1.000
    H2       H        0.08360    0.83090    0.49220    1.000
    C4       C        0.20380    0.78600    0.41640    1.000
    C5       C        0.20300    0.76530    0.35990    1.000
    H3       H        0.27740    0.75530    0.33530    1.000
    C6       C        0.76300    0.88600    0.45390    1.000
    H4       H        0.75210    0.92710    0.41800    1.000
    C7       C        0.71900    0.81460    0.53450    1.000
    H5       H        0.67530    0.79840    0.56960    1.000
    C8       C        0.84800    0.76100    0.51810    1.000
    H6       H        0.90520    0.69990    0.53710    1.000
    C9       C        0.43100    0.72100    0.42830    1.000
    H7       H        0.45410    0.64910    0.41270    1.000
    C10      C        0.50700    0.76800    0.44930    1.000
    H8       H        0.59210    0.73080    0.45250    1.000
    C11      C        0.32200    0.89300    0.45550    1.000
    H9       H        0.25400    0.96040    0.46230    1.000
    C12      C        0.00200    0.75240    0.14740    1.000
    H10      H        0.92970    0.75450    0.17230    1.000
    C13      C        0.99830    0.75540    0.08930    1.000
    C14      C        0.10280    0.75170    0.05010    1.000
    H11      H        0.10150    0.75280    0.01030    1.000
    C15      C        0.21170    0.74630    0.07450    1.000
    C16      C        0.21140    0.74170    0.13440    1.000
    H12      H        0.28520    0.73500    0.14950    1.000
    C17      C        0.43970    0.67620    0.03860    1.000
    H13      H        0.46240    0.61440    0.06640    1.000
    C18      C        0.31800    0.83700    0.99220    1.000
    H14      H        0.25320    0.90350    0.98230    1.000
    C19      C        0.44300    0.79760    0.96630    1.000
    H15      H        0.47220    0.83210    0.93190    1.000
    C20      C        0.87260    0.68770    0.03090    1.000
    H16      H        0.93900    0.62930    0.01350    1.000
    C21      C        0.76800    0.83570    0.08540    1.000
    H17      H        0.75000    0.89480    0.11040    1.000
    C22      C        0.68500    0.80700    0.05770    1.000
    H18      H        0.59800    0.84160    0.06100    1.000
    N1       N        0.10390    0.75830    0.33710    1.000
    N2       N        0.86770    0.82450    0.46620    1.000
    N3       N        0.66890    0.89000    0.49300    1.000
    N4       N        0.31180    0.80010    0.43430    1.000
    N5       N        0.43770    0.88170    0.46590    1.000
    N6       N        0.10810    0.74660    0.17050    1.000
    N7       N        0.31830    0.75200    0.03580    1.000
    N8       N        0.51870    0.70360    0.99620    1.000
    N9       N        0.88540    0.75710    0.06770    1.000
    N10      N        0.75670    0.71050    0.02200    1.000
    W12      W        0.91385    0.98902    0.76442    1.000
    W13      W        0.01313    0.84271    0.63109    1.000
    W14      W        0.01992    0.48542    0.74531    1.000
    W15      W        0.23761    0.57932    0.63028    1.000
    W16      W        0.31903    0.81555    0.64440    1.000
    W17      W        0.21391    0.96717    0.78082    1.000
    W18      W        0.03263    0.87048    0.88874    1.000
    W19      W        0.26091    0.57572    0.89170    1.000
    W20      W        0.35379    0.43281    0.76845    1.000
    W21      W        0.93105    0.61662    0.86699    1.000
    W22      W        0.44127    0.66857    0.78203    1.000
    Cu3      Cu       0.89220    0.25600    0.74516    1.000
    Cu4      Cu       0.30750    0.37020    0.02826    1.000
    Y2       Y        0.74450    0.76347    0.74110    1.000
    Si2      Si       0.13120    0.71320    0.76230    1.000
    O33      O        0.80610    0.13080    0.75740    1.000
    O34      O        0.01540    0.34530    0.73220    1.000
    O35      O        0.86260    0.56900    0.93430    1.000
    O36      O        0.59180    0.67590    0.78030    1.000
    O37      O        0.25550    0.63370    0.79120    1.000
    O38      O        0.34670    0.67040    0.60830    1.000
    O39      O        0.10650    0.70220    0.59490    1.000
    O40      O        0.17740    0.88700    0.60870    1.000
    O41      O        0.33950    0.49650    0.68850    1.000
    O42      O        0.25710    0.92880    0.70200    1.000
    O43      O        0.98380    0.95680    0.68740    1.000
    O44      O        0.89880    0.78220    0.66890    1.000
    O45      O        0.19630    0.42250    0.77030    1.000
    O46      O        0.86630    0.57440    0.73120    1.000
    O47      O        0.81680    0.90040    0.76850    1.000
    O48      O        0.79390    0.68540    0.83400    1.000
    O49      O        0.96820    0.47940    0.82950    1.000
    O50      O        0.10920    0.55540    0.88890    1.000
    O51      O        0.34440    0.43660    0.84990    1.000
    O52      O        0.17800    0.73450    0.90120    1.000
    O53      O        0.91060    0.98750    0.84840    1.000
    O54      O        0.06210    0.05830    0.76270    1.000
    O55      O        0.48340    0.50900    0.76450    1.000
    O56      O        0.14780    0.95720    0.86200    1.000
    O57      O        0.34680    0.82020    0.79960    1.000
    O58      O        0.94930    0.75890    0.88450    1.000
    O59      O        0.41810    0.71450    0.70340    1.000
    O60      O        0.10580    0.52620    0.67530    1.000
    O61      O        0.41160    0.62180    0.86320    1.000
    O62      O        0.16390    0.73190    0.69210    1.000
    O63      O        0.08460    0.84120    0.78830    1.000
    O64      O        0.02270    0.65250    0.77910    1.000
    C23      C        0.00140    0.22760    0.62620    1.000
    H19      H        0.07280    0.23100    0.64010    1.000
    C24      C        0.00810    0.20870    0.57000    1.000
    C25      C        0.90900    0.19200    0.54520    1.000
    H20      H        0.91640    0.16910    0.50780    1.000
    C26      C        0.79620    0.21400    0.58360    1.000
    C27      C        0.79700    0.23470    0.64010    1.000
    H21      H        0.72260    0.24470    0.66470    1.000
    C28      C        0.23700    0.11400    0.54610    1.000
    H22      H        0.24790    0.07290    0.58200    1.000
    C29      C        0.28100    0.18540    0.46550    1.000
    H23      H        0.32470    0.20160    0.43040    1.000
    C30      C        0.15200    0.23900    0.48190    1.000
    H24      H        0.09480    0.30010    0.46290    1.000
    C31      C        0.56900    0.27900    0.57170    1.000
    H25      H        0.54590    0.35090    0.58730    1.000
    C32      C        0.49300    0.23200    0.55070    1.000
    H26      H        0.40790    0.26920    0.54750    1.000
    C33      C        0.67800    0.10700    0.54450    1.000
    H27      H        0.74600    0.03960    0.53770    1.000
    C34      C        0.99800    0.24760    0.85260    1.000
    H28      H        0.07030    0.24550    0.82770    1.000
    C35      C        0.00170    0.24460    0.91070    1.000
    C36      C        0.89720    0.24830    0.94990    1.000
    H29      H        0.89850    0.24720    0.98970    1.000
    C37      C        0.78830    0.25370    0.92550    1.000
    C38      C        0.78860    0.25830    0.86560    1.000
    H30      H        0.71480    0.26500    0.85050    1.000
    C39      C        0.56030    0.32380    0.96140    1.000
    H31      H        0.53760    0.38560    0.93360    1.000
    C40      C        0.68200    0.16300    0.00780    1.000
    H32      H        0.74680    0.09650    0.01770    1.000
    C41      C        0.55700    0.20240    0.03370    1.000
    H33      H        0.52780    0.16790    0.06810    1.000
    C42      C        0.12740    0.31230    0.96910    1.000
    H34      H        0.06100    0.37070    0.98650    1.000
    C43      C        0.23200    0.16430    0.91460    1.000
    H35      H        0.25000    0.10520    0.88960    1.000
    C44      C        0.31500    0.19300    0.94230    1.000
    H36      H        0.40200    0.15840    0.93900    1.000
    N11      N        0.89610    0.24170    0.66290    1.000
    N12      N        0.13230    0.17550    0.53380    1.000
    N13      N        0.33110    0.11000    0.50700    1.000
    N14      N        0.68820    0.19990    0.56570    1.000
    N15      N        0.56230    0.11830    0.53410    1.000
    N16      N        0.89190    0.25340    0.82950    1.000
    N17      N        0.68170    0.24800    0.96420    1.000
    N18      N        0.48130    0.29640    0.00380    1.000
    N19      N        0.11460    0.24290    0.93230    1.000
    N20      N        0.24330    0.28950    0.97800    1.000
    Cu5      Cu       0.50000    0.00000    0.50000    1.000
