# CIF file generated by openbabel 3.1.0, see https://openbabel.org
data_I
_chemical_name_common 'image0'
_cell_length_a 8.2939
_cell_length_b 9.226
_cell_length_c 12.5021
_cell_angle_alpha 90
_cell_angle_beta 90
_cell_angle_gamma 90
_space_group_name_H-M_alt 'P 1'
_space_group_name_Hall 'P 1'
loop_
    _symmetry_equiv_pos_as_xyz
    x,y,z
loop_
    _atom_site_label
    _atom_site_type_symbol
    _atom_site_fract_x
    _atom_site_fract_y
    _atom_site_fract_z
    _atom_site_occupancy
    V1       V        0.74600    0.06400    0.39490    1.000
    V2       V        0.97650    0.70930    0.50280    1.000
    P1       P        0.75860    0.93290    0.63590    1.000
    O1       O        0.76550    0.05530    0.55350    1.000
    O2       O        0.90010    0.82740    0.62000    1.000
    O3       O        0.76610    0.00290    0.74640    1.000
    O4       O        0.59740    0.85010    0.62710    1.000
    O5       O        0.61270    0.87650    0.42110    1.000
    F1       F        0.94650    0.87990    0.41660    1.000
    V3       V        0.75400    0.93600    0.89490    1.000
    V4       V        0.52350    0.29070    0.00280    1.000
    P2       P        0.74140    0.06710    0.13590    1.000
    O6       O        0.73450    0.94470    0.05350    1.000
    O7       O        0.59990    0.17260    0.12000    1.000
    O8       O        0.73390    0.99710    0.24640    1.000
    O9       O        0.90260    0.14990    0.12710    1.000
    O10      O        0.88730    0.12350    0.92110    1.000
    F2       F        0.55350    0.12010    0.91660    1.000
    V5       V        0.25400    0.56400    0.10510    1.000
    V6       V        0.02350    0.20930    0.99720    1.000
    P3       P        0.24140    0.43290    0.86410    1.000
    O11      O        0.23450    0.55530    0.94650    1.000
    O12      O        0.09990    0.32740    0.88000    1.000
    O13      O        0.23390    0.50290    0.75360    1.000
    O14      O        0.40260    0.35010    0.87290    1.000
    O15      O        0.38730    0.37650    0.07890    1.000
    F3       F        0.05350    0.37990    0.08340    1.000
    V7       V        0.24600    0.43600    0.60510    1.000
    V8       V        0.47650    0.79070    0.49720    1.000
    P4       P        0.25860    0.56710    0.36410    1.000
    O16      O        0.26550    0.44470    0.44650    1.000
    O17      O        0.40010    0.67260    0.38000    1.000
    O18      O        0.26610    0.49710    0.25360    1.000
    O19      O        0.09740    0.64990    0.37290    1.000
    O20      O        0.11270    0.62350    0.57890    1.000
    F4       F        0.44650    0.62010    0.58340    1.000
