data_functionalizedCrystal
_audit_creation_method	'EQeq! by Chris Wilmer'
_symmetry_space_group_name_H-M	'P1'
_symmetry_Int_Tables_number	1
_symmetry_cell_setting	triclinic
loop_
_symmetry_equiv_pos_as_xyz
  x,y,z
_cell_length_a	9.943
_cell_length_b	9.943
_cell_length_c	15.764
_cell_angle_alpha	90
_cell_angle_beta	90
_cell_angle_gamma	90
loop_
_atom_site_label
_atom_site_type_symbol
_atom_site_fract_x
_atom_site_fract_y
_atom_site_fract_z
_atom_site_charge
Mof_C 	C 	0.2421	0.1601	0.312	-0.012
Mof_H 	H 	0.2392	0.0985	0.3564	0.042
Mof_C 	C 	0.7421	0.6601	0.812	0.063
Mof_H 	H 	0.7392	0.5985	0.8564	0.081
Mof_C 	C 	0.7579	0.8399	0.312	0.049
Mof_H 	H 	0.7608	0.9015	0.3564	0.157
Mof_C 	C 	0.2579	0.3399	0.812	0.018
Mof_H 	H 	0.2608	0.4015	0.8564	0.057
Mof_C 	C 	0.8399	0.2421	0.312	0.021
Mof_H 	H 	0.9015	0.2392	0.3564	0.126
Mof_C 	C 	0.3399	0.7421	0.812	0.045
Mof_H 	H 	0.4015	0.7392	0.8564	0.078
Mof_C 	C 	0.1601	0.7579	0.312	0.017
Mof_H 	H 	0.0985	0.7608	0.3564	0.079
Mof_C 	C 	0.6601	0.2579	0.812	0.038
Mof_H 	H 	0.5985	0.2608	0.8564	0.059
Mof_C 	C 	0.7579	0.1601	0.188	0.017
Mof_H 	H 	0.7608	0.0985	0.1436	0.078
Mof_C 	C 	0.2579	0.6601	0.688	0.038
Mof_H 	H 	0.2608	0.5985	0.6436	0.054
Mof_C 	C 	0.2421	0.8399	0.188	0.02
Mof_H 	H 	0.2392	0.9015	0.1436	0.126
Mof_C 	C 	0.7421	0.3399	0.688	0.044
Mof_H 	H 	0.7392	0.4015	0.6436	0.075
Mof_C 	C 	0.1601	0.2421	0.188	-0.013
Mof_H 	H 	0.0985	0.2392	0.1436	0.042
Mof_C 	C 	0.6601	0.7421	0.688	0.063
Mof_H 	H 	0.5985	0.7392	0.6436	0.078
Mof_C 	C 	0.8399	0.7579	0.188	0.049
Mof_H 	H 	0.9015	0.7608	0.1436	0.157
Mof_C 	C 	0.3399	0.2579	0.688	0.017
Mof_H 	H 	0.4015	0.2608	0.6436	0.052
Mof_C 	C 	0.7579	0.8399	0.688	0.049
Mof_H 	H 	0.7608	0.9015	0.6436	0.156
Mof_C 	C 	0.2579	0.3399	0.188	0.016
Mof_H 	H 	0.2608	0.4015	0.1436	0.051
Mof_C 	C 	0.2421	0.1601	0.688	-0.012
Mof_H 	H 	0.2392	0.0985	0.6436	0.043
Mof_C 	C 	0.7421	0.6601	0.188	0.063
Mof_H 	H 	0.7392	0.5985	0.1436	0.078
Mof_C 	C 	0.1601	0.7579	0.688	0.018
Mof_H 	H 	0.0985	0.7608	0.6436	0.079
Mof_C 	C 	0.6601	0.2579	0.188	0.037
Mof_H 	H 	0.5985	0.2608	0.1436	0.054
Mof_C 	C 	0.8399	0.2421	0.688	0.021
Mof_H 	H 	0.9015	0.2392	0.6436	0.125
Mof_C 	C 	0.3399	0.7421	0.188	0.044
Mof_H 	H 	0.4015	0.7392	0.1436	0.074
Mof_C 	C 	0.2421	0.8399	0.812	0.022
Mof_H 	H 	0.2392	0.9015	0.8564	0.129
Mof_C 	C 	0.7421	0.3399	0.312	0.044
Mof_H 	H 	0.7392	0.4015	0.3564	0.075
Mof_C 	C 	0.7579	0.1601	0.812	0.018
Mof_H 	H 	0.7608	0.0985	0.8564	0.083
Mof_C 	C 	0.2579	0.6601	0.312	0.037
Mof_H 	H 	0.2608	0.5985	0.3564	0.054
Mof_C 	C 	0.8399	0.7579	0.812	0.05
Mof_H 	H 	0.9015	0.7608	0.8564	0.158
Mof_C 	C 	0.3399	0.2579	0.312	0.016
Mof_H 	H 	0.4015	0.2608	0.3564	0.052
Mof_C 	C 	0.1601	0.2421	0.812	-0.011
Mof_H 	H 	0.0985	0.2392	0.8564	0.049
Mof_C 	C 	0.6601	0.7421	0.312	0.063
Mof_H 	H 	0.5985	0.7392	0.3564	0.078
Mof_Nb	Nb	-0	0	-0	2.127
Mof_Nb	Nb	0.5	0.5	0.5	3.085
Mof_Nb	Nb	2.97222e-33	0	0.5	2.17
Mof_Nb	Nb	0.5	0.5	-0	3.059
Mof_Ni	Ni	1.48611e-33	0	0.25	0.991
Mof_Ni	Ni	0.5	0.5	0.75	1.12
Mof_Ni	Ni	-3.64044e-33	-8.09877e-33	0.75	0.994
Mof_Ni	Ni	0.5	0.5	0.25	1.12
Mof_O 	O 	7.3176e-34	0	0.1231	-0.748
Mof_O 	O 	0.5	0.5	0.6231	-0.68
Mof_O 	O 	2.24046e-33	0	0.3769	-0.753
Mof_O 	O 	0.5	0.5	0.8769	-0.668
Mof_O 	O 	-1.09849e-32	-1.61975e-32	0.8769	-0.73
Mof_O 	O 	0.5	0.5	0.3769	-0.68
Mof_O 	O 	1.18027e-32	8.09877e-33	0.6231	-0.75
Mof_O 	O 	0.5	0.5	0.1231	-0.677
Mof_F 	F 	0.008	0.1908	-0	-0.672
Mof_F 	F 	0.508	0.6908	0.5	-0.672
Mof_F 	F 	0.992	0.8092	-0	-0.402
Mof_F 	F 	0.492	0.3092	0.5	-0.724
Mof_F 	F 	0.8092	0.008	-0	-0.577
Mof_F 	F 	0.3092	0.508	0.5	-0.716
Mof_F 	F 	0.1908	0.992	-0	-0.482
Mof_F 	F 	0.6908	0.492	0.5	-0.681
Mof_F 	F 	0.992	0.1908	0.5	-0.482
Mof_F 	F 	0.492	0.6908	-0	-0.684
Mof_F 	F 	0.008	0.8092	0.5	-0.576
Mof_F 	F 	0.508	0.3092	-0	-0.72
Mof_F 	F 	0.1908	0.008	0.5	-0.669
Mof_F 	F 	0.6908	0.508	-0	-0.675
Mof_F 	F 	0.8092	0.992	0.5	-0.404
Mof_F 	F 	0.3092	0.492	-0	-0.728
Mof_N 	N 	0.1514	0.1514	0.25	-0.222
Mof_N 	N 	0.6514	0.6514	0.75	-0.192
Mof_N 	N 	0.8486	0.8486	0.25	-0.075
Mof_N 	N 	0.3486	0.3486	0.75	-0.2
Mof_N 	N 	0.8486	0.1514	0.25	-0.144
Mof_N 	N 	0.3486	0.6514	0.75	-0.196
Mof_N 	N 	0.1514	0.8486	0.25	-0.144
Mof_N 	N 	0.6514	0.3486	0.75	-0.196
Mof_N 	N 	0.8486	0.8486	0.75	-0.077
Mof_N 	N 	0.3486	0.3486	0.25	-0.2
Mof_N 	N 	0.1514	0.1514	0.75	-0.221
Mof_N 	N 	0.6514	0.6514	0.25	-0.193
Mof_N 	N 	0.1514	0.8486	0.75	-0.145
Mof_N 	N 	0.6514	0.3486	0.25	-0.197
Mof_N 	N 	0.8486	0.1514	0.75	-0.145
Mof_N 	N 	0.3486	0.6514	0.25	-0.197
_end
