# CIF file generated by openbabel 3.1.0, see https://openbabel.org
data_I
_chemical_name_common 'VAHQAY_clean'
_cell_length_a 15.9224
_cell_length_b 19.6814
_cell_length_c 19.6814
_cell_angle_alpha 80.5827
_cell_angle_beta 66.14
_cell_angle_gamma 66.1399
_space_group_name_H-M_alt 'P 1'
_space_group_name_Hall 'P 1'
loop_
    _symmetry_equiv_pos_as_xyz
    x,y,z
loop_
    _atom_site_label
    _atom_site_type_symbol
    _atom_site_fract_x
    _atom_site_fract_y
    _atom_site_fract_z
    _atom_site_occupancy
    Er1      Er       0.20571    0.38278    0.20189    1.000
    Er2      Er       0.79038    0.61722    0.79811    1.000
    Cu1      Cu       0.36036    0.68624    0.09070    1.000
    Cu2      Cu       0.13730    0.31376    0.90930    1.000
    H1       H        0.03540    0.42570    0.46270    1.000
    H2       H        0.01570    0.40810    0.58590    1.000
    H3       H        0.32580    0.33070    0.40510    1.000
    H4       H        0.30630    0.31170    0.52750    1.000
    H5       H        0.24890    0.24320    0.64160    1.000
    H6       H        0.23460    0.23160    0.76140    1.000
    H7       H        0.03700    0.44680    0.69080    1.000
    H8       H        0.03230    0.42860    0.80880    1.000
    H9       H        0.98430    0.56480    0.08080    1.000
    H10      H        0.83920    0.61690    0.05890    1.000
    H11      H        0.88120    0.42250    0.22510    1.000
    H12      H        0.73650    0.47360    0.20380    1.000
    H13      H        0.72840    0.60150    0.00630    1.000
    H14      H        0.57950    0.64350    0.99290    1.000
    H15      H        0.58780    0.58050    0.22370    1.000
    H16      H        0.44390    0.62480    0.20460    1.000
    H17      H        0.55510    0.26710    0.08270    1.000
    H18      H        0.71760    0.25320    0.04740    1.000
    H19      H        0.46730    0.48490    0.11330    1.000
    H20      H        0.63100    0.47080    0.07700    1.000
    H21      H        0.84810    0.25500    0.07900    1.000
    H22      H        0.01060    0.24380    0.03220    1.000
    H23      H        0.78210    0.45120    0.97680    1.000
    H24      H        0.94550    0.43620    0.93480    1.000
    H25      H        0.22640    0.18700    0.06280    1.000
    H26      H        0.25520    0.06660    0.04200    1.000
    H27      H        0.24950    0.12850    0.26050    1.000
    H28      H        0.28630    0.00620    0.23740    1.000
    H29      H        0.18080    0.96490    0.09190    1.000
    H30      H        0.21520    0.84360    0.07380    1.000
    H31      H        0.41400    0.89660    0.15220    1.000
    H32      H        0.44390    0.77860    0.12820    1.000
    H33      H        0.92380    0.57430    0.53730    1.000
    H34      H        0.00970    0.59190    0.41410    1.000
    H35      H        0.06160    0.66930    0.59490    1.000
    H36      H        0.14550    0.68830    0.47250    1.000
    H37      H        0.13370    0.75680    0.35840    1.000
    H38      H        0.22760    0.76840    0.23860    1.000
    H39      H        0.17460    0.55320    0.30920    1.000
    H40      H        0.26970    0.57140    0.19120    1.000
    H41      H        0.62990    0.43520    0.91920    1.000
    H42      H        0.51500    0.38310    0.94110    1.000
    H43      H        0.52880    0.57750    0.77490    1.000
    H44      H        0.41390    0.52640    0.79620    1.000
    H45      H        0.33620    0.39850    0.99370    1.000
    H46      H        0.21590    0.35650    0.00710    1.000
    H47      H        0.39200    0.41950    0.77630    1.000
    H48      H        0.27330    0.37520    0.79540    1.000
    H49      H        0.90490    0.73290    0.91730    1.000
    H50      H        0.01820    0.74680    0.95260    1.000
    H51      H        0.06550    0.51510    0.88670    1.000
    H52      H        0.17880    0.52920    0.92300    1.000
    H53      H        0.18210    0.74500    0.92100    1.000
    H54      H        0.28660    0.75620    0.96780    1.000
    H55      H        0.21010    0.54880    0.02320    1.000
    H56      H        0.31650    0.56380    0.06520    1.000
    H57      H        0.47620    0.81300    0.93720    1.000
    H58      H        0.36380    0.93340    0.95800    1.000
    H59      H        0.63850    0.87150    0.73950    1.000
    H60      H        0.52990    0.99380    0.76260    1.000
    H61      H        0.23760    0.03510    0.90810    1.000
    H62      H        0.13260    0.15640    0.92620    1.000
    H63      H        0.46280    0.10340    0.84780    1.000
    H64      H        0.35070    0.22140    0.87180    1.000
    C1       C        0.19610    0.39250    0.34110    1.000
    C2       C        0.18190    0.38250    0.42150    1.000
    C3       C        0.09090    0.40360    0.47540    1.000
    C4       C        0.07930    0.39260    0.54960    1.000
    C5       C        0.26250    0.34720    0.44160    1.000
    C6       C        0.25080    0.33590    0.51510    1.000
    C7       C        0.15840    0.35970    0.57090    1.000
    C8       C        0.14600    0.34730    0.64990    1.000
    C9       C        0.20380    0.28230    0.67450    1.000
    C10      C        0.19450    0.27590    0.74670    1.000
    C11      C        0.07920    0.40240    0.70340    1.000
    C12      C        0.07630    0.39050    0.77450    1.000
    C13      C        0.03860    0.45480    0.17300    1.000
    C14      C        0.94790    0.48890    0.15490    1.000
    C15      C        0.93430    0.54640    0.10560    1.000
    C16      C        0.84730    0.57760    0.09220    1.000
    C17      C        0.87280    0.46150    0.19170    1.000
    C18      C        0.78640    0.49220    0.17860    1.000
    C19      C        0.77210    0.55030    0.12830    1.000
    C20      C        0.67750    0.58210    0.11710    1.000
    C21      C        0.67138    0.60422    0.04762    1.000
    C22      C        0.58140    0.63000    0.04000    1.000
    C23      C        0.58890    0.59200    0.17560    1.000
    C24      C        0.50220    0.61880    0.16360    1.000
    C25      C        0.39030    0.38390    0.12710    1.000
    C26      C        0.49450    0.37740    0.10260    1.000
    C27      C        0.57030    0.30820    0.08180    1.000
    C28      C        0.66770    0.30000    0.06000    1.000
    C29      C        0.51740    0.43830    0.10010    1.000
    C30      C        0.61580    0.42970    0.07790    1.000
    C31      C        0.69160    0.36130    0.05690    1.000
    C32      C        0.79655    0.35348    0.03142    1.000
    C33      C        0.86650    0.29210    0.04870    1.000
    C34      C        0.96440    0.28590    0.02030    1.000
    C35      C        0.82740    0.40820    0.98860    1.000
    C36      C        0.92610    0.39850    0.96310    1.000
    C37      C        0.21770    0.24770    0.17790    1.000
    C38      C        0.23500    0.17050    0.16390    1.000
    C39      C        0.23730    0.15090    0.09850    1.000
    C40      C        0.25560    0.07860    0.08560    1.000
    C41      C        0.25210    0.11600    0.21600    1.000
    C42      C        0.27300    0.04280    0.20260    1.000
    C43      C        0.27420    0.02410    0.13730    1.000
    C44      C        0.29480    0.94620    0.12360    1.000
    C45      C        0.23500    0.92780    0.10000    1.000
    C46      C        0.25690    0.85450    0.08870    1.000
    C47      C        0.37290    0.88770    0.13490    1.000
    C48      C        0.38990    0.81660    0.12100    1.000
    C49      C        0.92970    0.60750    0.65890    1.000
    C50      C        0.98590    0.61750    0.57850    1.000
    C51      C        0.96990    0.59640    0.52460    1.000
    C52      C        0.02150    0.60740    0.45040    1.000
    C53      C        0.05130    0.65280    0.55840    1.000
    C54      C        0.10180    0.66410    0.48490    1.000
    C55      C        0.08900    0.64030    0.42910    1.000
    C56      C        0.14320    0.65270    0.35010    1.000
    C57      C        0.16060    0.71770    0.32550    1.000
    C58      C        0.21710    0.72410    0.25330    1.000
    C59      C        0.18500    0.59760    0.29660    1.000
    C60      C        0.24130    0.60950    0.22550    1.000
    C61      C        0.66640    0.54520    0.82700    1.000
    C62      C        0.59170    0.51110    0.84510    1.000
    C63      C        0.58630    0.45360    0.89440    1.000
    C64      C        0.51710    0.42240    0.90780    1.000
    C65      C        0.52600    0.53850    0.80830    1.000
    C66      C        0.45720    0.50780    0.82140    1.000
    C67      C        0.45070    0.44970    0.87170    1.000
    C68      C        0.37670    0.41790    0.88290    1.000
    C69      C        0.32322    0.39578    0.95238    1.000
    C70      C        0.25140    0.37000    0.96000    1.000
    C71      C        0.35650    0.40800    0.82440    1.000
    C72      C        0.28460    0.38120    0.83640    1.000
    C73      C        0.90130    0.61610    0.87290    1.000
    C74      C        0.97450    0.62260    0.89740    1.000
    C75      C        0.96030    0.69180    0.91820    1.000
    C76      C        0.02770    0.70000    0.94000    1.000
    C77      C        0.05580    0.56170    0.89990    1.000
    C78      C        0.12340    0.57030    0.92210    1.000
    C79      C        0.10980    0.63870    0.94310    1.000
    C80      C        0.18145    0.64652    0.96858    1.000
    C81      C        0.20730    0.70790    0.95130    1.000
    C82      C        0.27060    0.71410    0.97970    1.000
    C83      C        0.22420    0.59180    0.01140    1.000
    C84      C        0.28770    0.60150    0.03690    1.000
    C85      C        0.64330    0.75230    0.82210    1.000
    C86      C        0.56940    0.82950    0.83610    1.000
    C87      C        0.48670    0.84910    0.90150    1.000
    C88      C        0.41980    0.92140    0.91440    1.000
    C89      C        0.58410    0.88400    0.78400    1.000
    C90      C        0.51840    0.95720    0.79740    1.000
    C91      C        0.43560    0.97590    0.86270    1.000
    C92      C        0.36460    0.05380    0.87640    1.000
    C93      C        0.26280    0.07220    0.90000    1.000
    C94      C        0.20010    0.14550    0.91130    1.000
    C95      C        0.39550    0.11230    0.86510    1.000
    C96      C        0.32750    0.18340    0.87900    1.000
    N1       N        0.13222    0.32812    0.79804    1.000
    N2       N        0.49568    0.63684    0.09780    1.000
    N3       N        0.99550    0.33743    0.97697    1.000
    N4       N        0.33377    0.79802    0.09744    1.000
    N5       N        0.25838    0.67188    0.20196    1.000
    N6       N        0.23032    0.36316    0.90220    1.000
    N7       N        0.30990    0.66257    0.02303    1.000
    N8       N        0.22923    0.20198    0.90256    1.000
    O1       O        0.27830    0.35970    0.29310    1.000
    O2       O        0.12441    0.43219    0.32239    1.000
    O3       O        0.03960    0.40966    0.22554    1.000
    O4       O        0.11330    0.47228    0.13672    1.000
    O5       O        0.31912    0.44527    0.14749    1.000
    O6       O        0.37358    0.32712    0.12732    1.000
    O7       O        0.21352    0.29599    0.12617    1.000
    O8       O        0.21021    0.26448    0.23970    1.000
    O9       O        0.93110    0.64030    0.70690    1.000
    O10      O        0.87899    0.56781    0.67761    1.000
    O11      O        0.67480    0.59034    0.77446    1.000
    O12      O        0.72230    0.52772    0.86328    1.000
    O13      O        0.91188    0.55473    0.85251    1.000
    O14      O        0.82802    0.67288    0.87268    1.000
    O15      O        0.63568    0.70401    0.87383    1.000
    O16      O        0.71439    0.73552    0.76030    1.000
    Er3      Er       0.59240    0.20189    0.61722    1.000
    Er4      Er       0.41151    0.79811    0.38278    1.000
    Cu3      Cu       0.54894    0.09070    0.31376    1.000
    Cu4      Cu       0.95340    0.90930    0.68624    1.000
    H65      H        0.50190    0.46270    0.57430    1.000
    H66      H        0.39840    0.58590    0.59190    1.000
    H67      H        0.26910    0.40510    0.66930    1.000
    H68      H        0.16620    0.52750    0.68830    1.000
    H69      H        0.10950    0.64160    0.75680    1.000
    H70      H        0.00400    0.76140    0.76840    1.000
    H71      H        0.27220    0.69080    0.55320    1.000
    H72      H        0.15890    0.80880    0.57140    1.000
    H73      H        0.93490    0.08080    0.43520    1.000
    H74      H        0.10190    0.05890    0.38310    1.000
    H75      H        0.89370    0.22510    0.57750    1.000
    H76      H        0.05970    0.20380    0.52640    1.000
    H77      H        0.26530    0.00630    0.39850    1.000
    H78      H        0.42760    0.99290    0.35650    1.000
    H79      H        0.18850    0.22370    0.41950    1.000
    H80      H        0.35150    0.20460    0.37520    1.000
    H81      H        0.36220    0.08270    0.73290    1.000
    H82      H        0.23500    0.04740    0.74680    1.000
    H83      H        0.41940    0.11330    0.51510    1.000
    H84      H        0.29200    0.07700    0.52920    1.000
    H85      H        0.07290    0.07900    0.74500    1.000
    H86      H        0.95720    0.03220    0.75620    1.000
    H87      H        0.24110    0.97680    0.54880    1.000
    H88      H        0.11970    0.93480    0.56380    1.000
    H89      H        0.71080    0.06280    0.81300    1.000
    H90      H        0.70280    0.04200    0.93340    1.000
    H91      H        0.49000    0.26050    0.87150    1.000
    H92      H        0.47630    0.23740    0.99380    1.000
    H93      H        0.72730    0.09190    0.03510    1.000
    H94      H        0.71100    0.07380    0.15640    1.000
    H95      H        0.43380    0.15220    0.10340    1.000
    H96      H        0.42790    0.12820    0.22140    1.000
    H97      H        0.53890    0.53730    0.42570    1.000
    H98      H        0.57620    0.41410    0.40810    1.000
    H99      H        0.34350    0.59490    0.33070    1.000
    H100     H        0.38200    0.47250    0.31170    1.000
    H101     H        0.50790    0.35840    0.24320    1.000
    H102     H        0.53380    0.23860    0.23160    1.000
    H103     H        0.51620    0.30920    0.44680    1.000
    H104     H        0.53910    0.19120    0.42860    1.000
    H105     H        0.45090    0.91920    0.56480    1.000
    H106     H        0.54390    0.94110    0.61690    1.000
    H107     H        0.69630    0.77490    0.42250    1.000
    H108     H        0.78990    0.79620    0.47360    1.000
    H109     H        0.67010    0.99370    0.60150    1.000
    H110     H        0.77700    0.00710    0.64350    1.000
    H111     H        0.83170    0.77630    0.58050    1.000
    H112     H        0.93130    0.79540    0.62480    1.000
    H113     H        0.17780    0.91730    0.26710    1.000
    H114     H        0.02920    0.95260    0.25320    1.000
    H115     H        0.04780    0.88670    0.48490    1.000
    H116     H        0.89820    0.92300    0.47080    1.000
    H117     H        0.89690    0.92100    0.25500    1.000
    H118     H        0.74560    0.96780    0.24380    1.000
    H119     H        0.76670    0.02320    0.45120    1.000
    H120     H        0.61830    0.06520    0.43620    1.000
    H121     H        0.58660    0.93720    0.18700    1.000
    H122     H        0.67820    0.95800    0.06660    1.000
    H123     H        0.62200    0.73950    0.12850    1.000
    H124     H        0.70750    0.76260    0.00620    1.000
    H125     H        0.85430    0.90810    0.96490    1.000
    H126     H        0.94120    0.92620    0.84360    1.000
    H127     H        0.68940    0.84780    0.89660    1.000
    H128     H        0.77750    0.87180    0.77860    1.000
    C97      C        0.46280    0.34110    0.60750    1.000
    C98      C        0.39660    0.42150    0.61750    1.000
    C99      C        0.43370    0.47540    0.59640    1.000
    C100     C        0.37110    0.54960    0.60740    1.000
    C101     C        0.29590    0.44160    0.65280    1.000
    C102     C        0.23410    0.51510    0.66410    1.000
    C103     C        0.27070    0.57090    0.64030    1.000
    C104     C        0.20410    0.64990    0.65270    1.000
    C105     C        0.12170    0.67450    0.71770    1.000
    C106     C        0.05880    0.74670    0.72410    1.000
    C107     C        0.21740    0.70340    0.59760    1.000
    C108     C        0.14920    0.77450    0.60950    1.000
    C109     C        0.78840    0.17300    0.54520    1.000
    C110     C        0.89720    0.15490    0.51110    1.000
    C111     C        0.96010    0.10560    0.45360    1.000
    C112     C        0.06050    0.09220    0.42240    1.000
    C113     C        0.93550    0.19170    0.53850    1.000
    C114     C        0.03500    0.17860    0.50780    1.000
    C115     C        0.09960    0.12830    0.44970    1.000
    C116     C        0.20540    0.11710    0.41790    1.000
    C117     C        0.28100    0.04762    0.39578    1.000
    C118     C        0.37860    0.04000    0.37000    1.000
    C119     C        0.23550    0.17560    0.40800    1.000
    C120     C        0.33420    0.16360    0.38120    1.000
    C121     C        0.48260    0.12710    0.61610    1.000
    C122     C        0.40290    0.10260    0.62260    1.000
    C123     C        0.34790    0.08180    0.69180    1.000
    C124     C        0.27230    0.06000    0.70000    1.000
    C125     C        0.38250    0.10010    0.56170    1.000
    C126     C        0.30630    0.07790    0.57030    1.000
    C127     C        0.25150    0.05690    0.63870    1.000
    C128     C        0.17203    0.03142    0.64652    1.000
    C129     C        0.08480    0.04870    0.70790    1.000
    C130     C        0.01530    0.02030    0.71410    1.000
    C131     C        0.18400    0.98860    0.59180    1.000
    C132     C        0.11080    0.96310    0.60150    1.000
    C133     C        0.60440    0.17790    0.75230    1.000
    C134     C        0.60110    0.16390    0.82950    1.000
    C135     C        0.66420    0.09850    0.84910    1.000
    C136     C        0.65880    0.08560    0.92140    1.000
    C137     C        0.53190    0.21600    0.88400    1.000
    C138     C        0.52440    0.20260    0.95720    1.000
    C139     C        0.58850    0.13730    0.97590    1.000
    C140     C        0.58160    0.12360    0.05380    1.000
    C141     C        0.66500    0.10000    0.07220    1.000
    C142     C        0.65440    0.08870    0.14550    1.000
    C143     C        0.49220    0.13490    0.11230    1.000
    C144     C        0.48910    0.12100    0.18340    1.000
    C145     C        0.41140    0.65890    0.39250    1.000
    C146     C        0.43560    0.57850    0.38250    1.000
    C147     C        0.50550    0.52460    0.40360    1.000
    C148     C        0.52810    0.45040    0.39260    1.000
    C149     C        0.39030    0.55840    0.34720    1.000
    C150     C        0.41330    0.48490    0.33590    1.000
    C151     C        0.48190    0.42910    0.35970    1.000
    C152     C        0.50670    0.35010    0.34730    1.000
    C153     C        0.51390    0.32550    0.28230    1.000
    C154     C        0.52960    0.25330    0.27590    1.000
    C155     C        0.51840    0.29660    0.40240    1.000
    C156     C        0.53320    0.22550    0.39050    1.000
    C157     C        0.50660    0.82700    0.45480    1.000
    C158     C        0.56320    0.84510    0.48890    1.000
    C159     C        0.51930    0.89440    0.54640    1.000
    C160     C        0.57510    0.90780    0.57760    1.000
    C161     C        0.66570    0.80830    0.46150    1.000
    C162     C        0.72140    0.82140    0.49220    1.000
    C163     C        0.67760    0.87170    0.55030    1.000
    C164     C        0.74040    0.88290    0.58210    1.000
    C165     C        0.72440    0.95238    0.60422    1.000
    C166     C        0.78860    0.96000    0.63000    1.000
    C167     C        0.81910    0.82440    0.59200    1.000
    C168     C        0.87900    0.83640    0.61880    1.000
    C169     C        0.22580    0.87290    0.38390    1.000
    C170     C        0.12810    0.89740    0.37740    1.000
    C171     C        0.12150    0.91820    0.30820    1.000
    C172     C        0.03230    0.94000    0.30000    1.000
    C173     C        0.04430    0.89990    0.43830    1.000
    C174     C        0.95450    0.92210    0.42970    1.000
    C175     C        0.94710    0.94310    0.36130    1.000
    C176     C        0.84997    0.96858    0.35348    1.000
    C177     C        0.84140    0.95130    0.29210    1.000
    C178     C        0.74970    0.97970    0.28590    1.000
    C179     C        0.76440    0.01140    0.40820    1.000
    C180     C        0.67540    0.03690    0.39850    1.000
    C181     C        0.53460    0.82210    0.24770    1.000
    C182     C        0.59450    0.83610    0.17050    1.000
    C183     C        0.61180    0.90150    0.15090    1.000
    C184     C        0.66580    0.91440    0.07860    1.000
    C185     C        0.63190    0.78400    0.11600    1.000
    C186     C        0.68420    0.79740    0.04280    1.000
    C187     C        0.70170    0.86270    0.02410    1.000
    C188     C        0.75900    0.87640    0.94620    1.000
    C189     C        0.83720    0.90000    0.92780    1.000
    C190     C        0.88860    0.91130    0.85450    1.000
    C191     C        0.73940    0.86510    0.88770    1.000
    C192     C        0.79350    0.87900    0.81660    1.000
    N9       N        0.06974    0.79804    0.67188    1.000
    N10      N        0.40652    0.09780    0.36316    1.000
    N11      N        0.02753    0.97697    0.66257    1.000
    N12      N        0.56879    0.09744    0.20198    1.000
    N13      N        0.53966    0.20196    0.32812    1.000
    N14      N        0.86748    0.90220    0.63684    1.000
    N15      N        0.66707    0.02303    0.33743    1.000
    N16      N        0.86821    0.90256    0.79802    1.000
    O17      O        0.42860    0.29310    0.64030    1.000
    O18      O        0.55320    0.32239    0.56781    1.000
    O19      O        0.73486    0.22554    0.59034    1.000
    O20      O        0.74998    0.13672    0.52772    1.000
    O21      O        0.53339    0.14749    0.55473    1.000
    O22      O        0.49910    0.12732    0.67288    1.000
    O23      O        0.66031    0.12617    0.70401    1.000
    O24      O        0.55009    0.23970    0.73552    1.000
    O25      O        0.36200    0.70690    0.35970    1.000
    O26      O        0.44340    0.67761    0.43219    1.000
    O27      O        0.55074    0.77446    0.40966    1.000
    O28      O        0.41442    0.86328    0.47228    1.000
    O29      O        0.23561    0.85251    0.44527    1.000
    O30      O        0.29930    0.87268    0.32712    1.000
    O31      O        0.49049    0.87383    0.29599    1.000
    O32      O        0.52531    0.76030    0.26448    1.000
