# CIF file generated by openbabel 3.1.0, see https://openbabel.org
data_I
_chemical_name_common 'image0'
_cell_length_a 27.316
_cell_length_b 17.472
_cell_length_c 10.197
_cell_angle_alpha 90
_cell_angle_beta 90
_cell_angle_gamma 90
_space_group_name_H-M_alt 'P 1'
_space_group_name_Hall 'P 1'
loop_
    _symmetry_equiv_pos_as_xyz
    x,y,z
loop_
    _atom_site_label
    _atom_site_type_symbol
    _atom_site_fract_x
    _atom_site_fract_y
    _atom_site_fract_z
    _atom_site_occupancy
    Ga1      Ga       0.22030    0.23920    0.08840    1.000
    Ga2      Ga       0.34410    0.17930    0.11050    1.000
    Ga3      Ga       0.05400    0.42350    0.90250    1.000
    Ga4      Ga       0.24150    0.41270    0.92600    1.000
    P1       P        0.14160    0.31980    0.90400    1.000
    P2       P        0.25520    0.06570    0.11050    1.000
    P3       P        0.44040    0.07420    0.09480    1.000
    P4       P        0.30400    0.27340    0.88600    1.000
    F1       F        0.28390    0.23020    0.17930    1.000
    F2       F        0.23250    0.35240    0.09370    1.000
    O1       O        0.21730    0.12810    0.08710    1.000
    O2       O        0.25680    0.23390    0.92610    1.000
    O3       O        0.40410    0.13210    0.04790    1.000
    O4       O        0.17650    0.38790    0.88790    1.000
    O5       O        0.43870    0.00420    0.00830    1.000
    O6       O        0.09370    0.35030    0.96960    1.000
    O7       O        0.29920    0.36060    0.89840    1.000
    O8       O        0.24290    0.00080    0.01600    1.000
    O9       O        0.31720    0.25100    0.74550    1.000
    O10      O        0.25350    0.03480    0.25220    1.000
    O11      O        0.16070    0.25500    0.98730    1.000
    O12      O        0.34730    0.24790    0.97280    1.000
    O13      O        0.30820    0.09150    0.07850    1.000
    O14      O        0.12690    0.29170    0.76690    1.000
    O15      O        0.43030    0.04700    0.23600    1.000
    O16      O        0.49150    0.11160    0.08880    1.000
    Ga5      Ga       0.27970    0.26080    0.58840    1.000
    Ga6      Ga       0.15590    0.32070    0.61050    1.000
    Ga7      Ga       0.44600    0.07650    0.40250    1.000
    Ga8      Ga       0.25850    0.08730    0.42600    1.000
    P5       P        0.35840    0.18020    0.40400    1.000
    P6       P        0.24480    0.43430    0.61050    1.000
    P7       P        0.05960    0.42580    0.59480    1.000
    P8       P        0.19600    0.22660    0.38600    1.000
    F3       F        0.21610    0.26980    0.67930    1.000
    F4       F        0.26750    0.14760    0.59370    1.000
    O17      O        0.28270    0.37190    0.58710    1.000
    O18      O        0.24320    0.26610    0.42610    1.000
    O19      O        0.09590    0.36790    0.54790    1.000
    O20      O        0.32350    0.11210    0.38790    1.000
    O21      O        0.06130    0.49580    0.50830    1.000
    O22      O        0.40630    0.14970    0.46960    1.000
    O23      O        0.20080    0.13940    0.39840    1.000
    O24      O        0.25710    0.49920    0.51600    1.000
    O25      O        0.18280    0.24900    0.24550    1.000
    O26      O        0.24650    0.46520    0.75220    1.000
    O27      O        0.33930    0.24500    0.48730    1.000
    O28      O        0.15270    0.25210    0.47280    1.000
    O29      O        0.19180    0.40850    0.57850    1.000
    O30      O        0.37310    0.20830    0.26690    1.000
    O31      O        0.06970    0.45300    0.73600    1.000
    O32      O        0.00850    0.38840    0.58880    1.000
    Ga9      Ga       0.77970    0.23920    0.41160    1.000
    Ga10     Ga       0.65590    0.17930    0.38950    1.000
    Ga11     Ga       0.94600    0.42350    0.59750    1.000
    Ga12     Ga       0.75850    0.41270    0.57400    1.000
    P9       P        0.85840    0.31980    0.59600    1.000
    P10      P        0.74480    0.06570    0.38950    1.000
    P11      P        0.55960    0.07420    0.40520    1.000
    P12      P        0.69600    0.27340    0.61400    1.000
    F5       F        0.71610    0.23020    0.32070    1.000
    F6       F        0.76750    0.35240    0.40630    1.000
    O33      O        0.78270    0.12810    0.41290    1.000
    O34      O        0.74320    0.23390    0.57390    1.000
    O35      O        0.59590    0.13210    0.45210    1.000
    O36      O        0.82350    0.38790    0.61210    1.000
    O37      O        0.56130    0.00420    0.49170    1.000
    O38      O        0.90630    0.35030    0.53040    1.000
    O39      O        0.70080    0.36060    0.60160    1.000
    O40      O        0.75710    0.00080    0.48400    1.000
    O41      O        0.68280    0.25100    0.75450    1.000
    O42      O        0.74650    0.03480    0.24780    1.000
    O43      O        0.83930    0.25500    0.51270    1.000
    O44      O        0.65270    0.24790    0.52720    1.000
    O45      O        0.69180    0.09150    0.42150    1.000
    O46      O        0.87310    0.29170    0.73310    1.000
    O47      O        0.56970    0.04700    0.26400    1.000
    O48      O        0.50850    0.11160    0.41120    1.000
    Ga13     Ga       0.72030    0.26080    0.91160    1.000
    Ga14     Ga       0.84410    0.32070    0.88950    1.000
    Ga15     Ga       0.55400    0.07650    0.09750    1.000
    Ga16     Ga       0.74150    0.08730    0.07400    1.000
    P13      P        0.64160    0.18020    0.09600    1.000
    P14      P        0.75520    0.43430    0.88950    1.000
    P15      P        0.94040    0.42580    0.90520    1.000
    P16      P        0.80400    0.22660    0.11400    1.000
    F7       F        0.78390    0.26980    0.82070    1.000
    F8       F        0.73250    0.14760    0.90630    1.000
    O49      O        0.71730    0.37190    0.91290    1.000
    O50      O        0.75680    0.26610    0.07390    1.000
    O51      O        0.90410    0.36790    0.95210    1.000
    O52      O        0.67650    0.11210    0.11210    1.000
    O53      O        0.93870    0.49580    0.99170    1.000
    O54      O        0.59370    0.14970    0.03040    1.000
    O55      O        0.79920    0.13940    0.10160    1.000
    O56      O        0.74290    0.49920    0.98400    1.000
    O57      O        0.81720    0.24900    0.25450    1.000
    O58      O        0.75350    0.46520    0.74780    1.000
    O59      O        0.66070    0.24500    0.01270    1.000
    O60      O        0.84730    0.25210    0.02720    1.000
    O61      O        0.80820    0.40850    0.92150    1.000
    O62      O        0.62690    0.20830    0.23310    1.000
    O63      O        0.93030    0.45300    0.76400    1.000
    O64      O        0.99150    0.38840    0.91120    1.000
    Ga17     Ga       0.77970    0.76080    0.91160    1.000
    Ga18     Ga       0.65590    0.82070    0.88950    1.000
    Ga19     Ga       0.94600    0.57650    0.09750    1.000
    Ga20     Ga       0.75850    0.58730    0.07400    1.000
    P17      P        0.85840    0.68020    0.09600    1.000
    P18      P        0.74480    0.93430    0.88950    1.000
    P19      P        0.55960    0.92580    0.90520    1.000
    P20      P        0.69600    0.72660    0.11400    1.000
    F9       F        0.71610    0.76980    0.82070    1.000
    F10      F        0.76750    0.64760    0.90630    1.000
    O65      O        0.78270    0.87190    0.91290    1.000
    O66      O        0.74320    0.76610    0.07390    1.000
    O67      O        0.59590    0.86790    0.95210    1.000
    O68      O        0.82350    0.61210    0.11210    1.000
    O69      O        0.56130    0.99580    0.99170    1.000
    O70      O        0.90630    0.64970    0.03040    1.000
    O71      O        0.70080    0.63940    0.10160    1.000
    O72      O        0.75710    0.99920    0.98400    1.000
    O73      O        0.68280    0.74900    0.25450    1.000
    O74      O        0.74650    0.96520    0.74780    1.000
    O75      O        0.83930    0.74500    0.01270    1.000
    O76      O        0.65270    0.75210    0.02720    1.000
    O77      O        0.69180    0.90850    0.92150    1.000
    O78      O        0.87310    0.70830    0.23310    1.000
    O79      O        0.56970    0.95300    0.76400    1.000
    O80      O        0.50850    0.88840    0.91120    1.000
    Ga21     Ga       0.72030    0.73920    0.41160    1.000
    Ga22     Ga       0.84410    0.67930    0.38950    1.000
    Ga23     Ga       0.55400    0.92350    0.59750    1.000
    Ga24     Ga       0.74150    0.91270    0.57400    1.000
    P21      P        0.64160    0.81980    0.59600    1.000
    P22      P        0.75520    0.56570    0.38950    1.000
    P23      P        0.94040    0.57420    0.40520    1.000
    P24      P        0.80400    0.77340    0.61400    1.000
    F11      F        0.78390    0.73020    0.32070    1.000
    F12      F        0.73250    0.85240    0.40630    1.000
    O81      O        0.71730    0.62810    0.41290    1.000
    O82      O        0.75680    0.73390    0.57390    1.000
    O83      O        0.90410    0.63210    0.45210    1.000
    O84      O        0.67650    0.88790    0.61210    1.000
    O85      O        0.93870    0.50420    0.49170    1.000
    O86      O        0.59370    0.85030    0.53040    1.000
    O87      O        0.79920    0.86060    0.60160    1.000
    O88      O        0.74290    0.50080    0.48400    1.000
    O89      O        0.81720    0.75100    0.75450    1.000
    O90      O        0.75350    0.53480    0.24780    1.000
    O91      O        0.66070    0.75500    0.51270    1.000
    O92      O        0.84730    0.74790    0.52720    1.000
    O93      O        0.80820    0.59150    0.42150    1.000
    O94      O        0.62690    0.79170    0.73310    1.000
    O95      O        0.93030    0.54700    0.26400    1.000
    O96      O        0.99150    0.61160    0.41120    1.000
    Ga25     Ga       0.22030    0.76080    0.58840    1.000
    Ga26     Ga       0.34410    0.82070    0.61050    1.000
    Ga27     Ga       0.05400    0.57650    0.40250    1.000
    Ga28     Ga       0.24150    0.58730    0.42600    1.000
    P25      P        0.14160    0.68020    0.40400    1.000
    P26      P        0.25520    0.93430    0.61050    1.000
    P27      P        0.44040    0.92580    0.59480    1.000
    P28      P        0.30400    0.72660    0.38600    1.000
    F13      F        0.28390    0.76980    0.67930    1.000
    F14      F        0.23250    0.64760    0.59370    1.000
    O97      O        0.21730    0.87190    0.58710    1.000
    O98      O        0.25680    0.76610    0.42610    1.000
    O99      O        0.40410    0.86790    0.54790    1.000
    O100     O        0.17650    0.61210    0.38790    1.000
    O101     O        0.43870    0.99580    0.50830    1.000
    O102     O        0.09370    0.64970    0.46960    1.000
    O103     O        0.29920    0.63940    0.39840    1.000
    O104     O        0.24290    0.99920    0.51600    1.000
    O105     O        0.31720    0.74900    0.24550    1.000
    O106     O        0.25350    0.96520    0.75220    1.000
    O107     O        0.16070    0.74500    0.48730    1.000
    O108     O        0.34730    0.75210    0.47280    1.000
    O109     O        0.30820    0.90850    0.57850    1.000
    O110     O        0.12690    0.70830    0.26690    1.000
    O111     O        0.43030    0.95300    0.73600    1.000
    O112     O        0.49150    0.88840    0.58880    1.000
    Ga29     Ga       0.27970    0.73920    0.08840    1.000
    Ga30     Ga       0.15590    0.67930    0.11050    1.000
    Ga31     Ga       0.44600    0.92350    0.90250    1.000
    Ga32     Ga       0.25850    0.91270    0.92600    1.000
    P29      P        0.35840    0.81980    0.90400    1.000
    P30      P        0.24480    0.56570    0.11050    1.000
    P31      P        0.05960    0.57420    0.09480    1.000
    P32      P        0.19600    0.77340    0.88600    1.000
    F15      F        0.21610    0.73020    0.17930    1.000
    F16      F        0.26750    0.85240    0.09370    1.000
    O113     O        0.28270    0.62810    0.08710    1.000
    O114     O        0.24320    0.73390    0.92610    1.000
    O115     O        0.09590    0.63210    0.04790    1.000
    O116     O        0.32350    0.88790    0.88790    1.000
    O117     O        0.06130    0.50420    0.00830    1.000
    O118     O        0.40630    0.85030    0.96960    1.000
    O119     O        0.20080    0.86060    0.89840    1.000
    O120     O        0.25710    0.50080    0.01600    1.000
    O121     O        0.18280    0.75100    0.74550    1.000
    O122     O        0.24650    0.53480    0.25220    1.000
    O123     O        0.33930    0.75500    0.98730    1.000
    O124     O        0.15270    0.74790    0.97280    1.000
    O125     O        0.19180    0.59150    0.07850    1.000
    O126     O        0.37310    0.79170    0.76690    1.000
    O127     O        0.06970    0.54700    0.23600    1.000
    O128     O        0.00850    0.61160    0.08880    1.000
