# CIF file generated by openbabel 3.1.0, see https://openbabel.org
data_I
_chemical_name_common 'image0'
_cell_length_a 9.1461
_cell_length_b 9.6587
_cell_length_c 12.7617
_cell_angle_alpha 94.664
_cell_angle_beta 103.837
_cell_angle_gamma 114.83
_space_group_name_H-M_alt 'P 1'
_space_group_name_Hall 'P 1'
loop_
    _symmetry_equiv_pos_as_xyz
    x,y,z
loop_
    _atom_site_label
    _atom_site_type_symbol
    _atom_site_fract_x
    _atom_site_fract_y
    _atom_site_fract_z
    _atom_site_occupancy
    C1       C        0.76800    0.31010    0.26072    1.000
    O1       O        0.28890    0.33970    0.56498    1.000
    O2       O        0.43670    0.31550    0.34398    1.000
    O3       O        0.37200    0.45300    0.23420    1.000
    C2       C        0.32720    0.34530    0.28450    1.000
    C3       C        0.14340    0.24490    0.27324    1.000
    H1       H        0.10960    0.14510    0.22550    1.000
    O4       O        0.68810    0.03980    0.42575    1.000
    O5       O        0.89820    0.26994    0.51672    1.000
    C4       C        0.82860    0.15280    0.43905    1.000
    Co1      Co       0.63443    0.48781    0.30123    1.000
    O6       O        0.19381    0.47430    0.45822    1.000
    O7       O        0.83620    0.42910    0.33900    1.000
    C5       C        0.20300    0.35010    0.47567    1.000
    C6       C        0.10620    0.20720    0.38247    1.000
    H2       H        0.13690    0.12500    0.40260    1.000
    N1       N        0.72880    0.63490    0.19836    1.000
    C7       C        0.85790    0.21130    0.24751    1.000
    H3       H        0.78330    0.12390    0.18510    1.000
    C8       C        0.02250    0.30700    0.21950    1.000
    H4       H        0.00250    0.29140    0.14030    1.000
    H5       H        0.06730    0.41730    0.24930    1.000
    C9       C        0.92000    0.95750    0.99700    1.000
    H6       H        0.83930    0.97070    0.94460    1.000
    C10      C        0.85800    0.84430    0.06550    1.000
    C11      C        0.91060    0.14190    0.34912    1.000
    H7       H        0.86510    0.03010    0.32000    1.000
    O8       O        0.63000    0.27960    0.19409    1.000
    C12      C        0.96330    0.82250    0.15310    1.000
    H8       H        0.07990    0.87790    0.16880    1.000
    C13      C        0.62790    0.65460    0.11350    1.000
    H9       H        0.51180    0.59690    0.09870    1.000
    C14      C        0.68630    0.75610    0.04610    1.000
    H10      H        0.61000    0.76510    0.98760    1.000
    C15      C        0.89630    0.71900    0.21710    1.000
    H11      H        0.96980    0.70680    0.27570    1.000
    C16      C        0.23200    0.68990    0.73928    1.000
    O9       O        0.71110    0.66030    0.43502    1.000
    O10      O        0.56330    0.68450    0.65602    1.000
    O11      O        0.62800    0.54700    0.76580    1.000
    C17      C        0.67280    0.65470    0.71550    1.000
    C18      C        0.85660    0.75510    0.72676    1.000
    H12      H        0.89040    0.85490    0.77450    1.000
    O12      O        0.31190    0.96020    0.57425    1.000
    O13      O        0.10180    0.73006    0.48328    1.000
    C19      C        0.17140    0.84720    0.56095    1.000
    Co2      Co       0.36557    0.51219    0.69877    1.000
    O14      O        0.80619    0.52570    0.54178    1.000
    O15      O        0.16380    0.57090    0.66100    1.000
    C20      C        0.79700    0.64990    0.52433    1.000
    C21      C        0.89380    0.79280    0.61753    1.000
    H13      H        0.86310    0.87500    0.59740    1.000
    N2       N        0.27120    0.36510    0.80164    1.000
    C22      C        0.14210    0.78870    0.75249    1.000
    H14      H        0.21670    0.87610    0.81490    1.000
    C23      C        0.97750    0.69300    0.78050    1.000
    H15      H        0.99750    0.70860    0.85970    1.000
    H16      H        0.93270    0.58270    0.75070    1.000
    C24      C        0.08000    0.04250    0.00300    1.000
    H17      H        0.16070    0.02930    0.05540    1.000
    C25      C        0.14200    0.15570    0.93450    1.000
    C26      C        0.08940    0.85810    0.65088    1.000
    H18      H        0.13490    0.96990    0.68000    1.000
    O16      O        0.37000    0.72040    0.80591    1.000
    C27      C        0.03670    0.17750    0.84690    1.000
    H19      H        0.92010    0.12210    0.83120    1.000
    C28      C        0.37210    0.34540    0.88650    1.000
    H20      H        0.48820    0.40310    0.90130    1.000
    C29      C        0.31370    0.24390    0.95390    1.000
    H21      H        0.39000    0.23490    0.01240    1.000
    C30      C        0.10370    0.28100    0.78290    1.000
    H22      H        0.03020    0.29320    0.72430    1.000
    Co3      Co       0.00000    0.50000    0.50000    1.000
    Co4      Co       0.50000    0.00000    0.50000    1.000
