# CIF file generated by openbabel 3.1.0, see https://openbabel.org
data_I
_chemical_name_common 'IFUNUU_clean'
_cell_length_a 12.9653
_cell_length_b 13.906
_cell_length_c 14.62
_cell_angle_alpha 95.9483
_cell_angle_beta 90
_cell_angle_gamma 117.786
_space_group_name_H-M_alt 'P 1'
_space_group_name_Hall 'P 1'
loop_
    _symmetry_equiv_pos_as_xyz
    x,y,z
loop_
    _atom_site_label
    _atom_site_type_symbol
    _atom_site_fract_x
    _atom_site_fract_y
    _atom_site_fract_z
    _atom_site_occupancy
    Tb1      Tb       0.46749    0.34548    0.46790    1.000
    Tb2      Tb       0.12201    0.65452    0.03210    1.000
    Tb3      Tb       0.53251    0.65452    0.53210    1.000
    Tb4      Tb       0.87799    0.34548    0.96790    1.000
    H1       H        0.33060    0.26280    0.72830    1.000
    H2       H        0.31830    0.54360    0.79010    1.000
    H3       H        0.13380    0.28660    0.93150    1.000
    H4       H        0.33750    0.00120    0.89120    1.000
    H5       H        0.04000    0.09200    0.88470    1.000
    H6       H        0.00830    0.92620    0.93510    1.000
    H7       H        0.52300    0.19280    0.40920    1.000
    H8       H        0.06780    0.73720    0.77170    1.000
    H9       H        0.77470    0.45640    0.70990    1.000
    H10      H        0.84720    0.71340    0.56850    1.000
    H11      H        0.33630    0.99880    0.60880    1.000
    H12      H        0.94800    0.90800    0.61530    1.000
    H13      H        0.08210    0.07380    0.56490    1.000
    H14      H        0.33020    0.80720    0.09080    1.000
    H15      H        0.66940    0.73720    0.27170    1.000
    H16      H        0.68170    0.45640    0.20990    1.000
    H17      H        0.86620    0.71340    0.06850    1.000
    H18      H        0.66250    0.99880    0.10880    1.000
    H19      H        0.96000    0.90800    0.11530    1.000
    H20      H        0.99170    0.07380    0.06490    1.000
    H21      H        0.47700    0.80720    0.59080    1.000
    H22      H        0.93220    0.26280    0.22830    1.000
    H23      H        0.22530    0.54360    0.29010    1.000
    H24      H        0.15280    0.28660    0.43150    1.000
    H25      H        0.66370    0.00120    0.39120    1.000
    H26      H        0.05200    0.09200    0.38470    1.000
    H27      H        0.91790    0.92620    0.43510    1.000
    H28      H        0.66980    0.19280    0.90920    1.000
    C1       C        0.23290    0.25680    0.83680    1.000
    C2       C        0.30240    0.30340    0.76470    1.000
    C3       C        0.33080    0.40760    0.74530    1.000
    C4       C        0.29390    0.47140    0.80000    1.000
    C5       C        0.21910    0.42600    0.87090    1.000
    C6       C        0.18670    0.31800    0.88700    1.000
    C7       C        0.21030    0.14780    0.86090    1.000
    C8       C        0.29330    0.11480    0.86080    1.000
    C9       C        0.27650    0.01880    0.89110    1.000
    C10      C        0.10120    0.07480    0.88710    1.000
    C11      C        0.40460    0.45160    0.66450    1.000
    C12      C        0.15190    0.84680    0.96070    1.000
    C13      C        0.17130    0.94920    0.92110    1.000
    C14      C        0.08180    0.97460    0.91760    1.000
    C15      C        0.17760    0.49340    0.92890    1.000
    C16      C        0.97610    0.74320    0.66320    1.000
    C17      C        0.99900    0.69660    0.73530    1.000
    C18      C        0.92320    0.59240    0.75470    1.000
    C19      C        0.82250    0.52860    0.70000    1.000
    C20      C        0.79310    0.57400    0.62910    1.000
    C21      C        0.86870    0.68200    0.61300    1.000
    C22      C        0.06250    0.85220    0.63910    1.000
    C23      C        0.17850    0.88520    0.63920    1.000
    C24      C        0.25770    0.98120    0.60890    1.000
    C25      C        0.02640    0.92520    0.61290    1.000
    C26      C        0.95300    0.54840    0.83550    1.000
    C27      C        0.30510    0.15320    0.53930    1.000
    C28      C        0.22210    0.05080    0.57890    1.000
    C29      C        0.10720    0.02540    0.58240    1.000
    C30      C        0.68420    0.50660    0.57110    1.000
    C31      C        0.76710    0.74320    0.16320    1.000
    C32      C        0.69760    0.69660    0.23530    1.000
    C33      C        0.66920    0.59240    0.25470    1.000
    C34      C        0.70610    0.52860    0.20000    1.000
    C35      C        0.78090    0.57400    0.12910    1.000
    C36      C        0.81330    0.68200    0.11300    1.000
    C37      C        0.78970    0.85220    0.13910    1.000
    C38      C        0.70670    0.88520    0.13920    1.000
    C39      C        0.72350    0.98120    0.10890    1.000
    C40      C        0.89880    0.92520    0.11290    1.000
    C41      C        0.59540    0.54840    0.33550    1.000
    C42      C        0.84810    0.15320    0.03930    1.000
    C43      C        0.82870    0.05080    0.07890    1.000
    C44      C        0.91820    0.02540    0.08240    1.000
    C45      C        0.82240    0.50660    0.07110    1.000
    C46      C        0.02390    0.25680    0.33680    1.000
    C47      C        0.00100    0.30340    0.26470    1.000
    C48      C        0.07680    0.40760    0.24530    1.000
    C49      C        0.17750    0.47140    0.30000    1.000
    C50      C        0.20690    0.42600    0.37090    1.000
    C51      C        0.13130    0.31800    0.38700    1.000
    C52      C        0.93750    0.14780    0.36090    1.000
    C53      C        0.82150    0.11480    0.36080    1.000
    C54      C        0.74230    0.01880    0.39110    1.000
    C55      C        0.97360    0.07480    0.38710    1.000
    C56      C        0.04700    0.45160    0.16450    1.000
    C57      C        0.69490    0.84680    0.46070    1.000
    C58      C        0.77790    0.94920    0.42110    1.000
    C59      C        0.89280    0.97460    0.41760    1.000
    C60      C        0.31580    0.49340    0.42890    1.000
    O1       O        0.42750    0.54540    0.64810    1.000
    O2       O        0.43700    0.38860    0.62100    1.000
    O3       O        0.24430    0.59520    0.94500    1.000
    O4       O        0.07820    0.44900    0.96060    1.000
    O5       O        0.23420    0.82280    0.96280    1.000
    O6       O        0.05910    0.79140    0.99420    1.000
    O7       O        0.56740    0.25360    0.38980    1.000
    O8       O        0.88210    0.45460    0.85190    1.000
    O9       O        0.04840    0.61140    0.87900    1.000
    O10      O        0.64910    0.40480    0.55500    1.000
    O11      O        0.62920    0.55100    0.53940    1.000
    O12      O        0.41140    0.17720    0.53720    1.000
    O13      O        0.26770    0.20860    0.50580    1.000
    O14      O        0.31380    0.74640    0.11020    1.000
    O15      O        0.57250    0.45460    0.35190    1.000
    O16      O        0.56300    0.61140    0.37900    1.000
    O17      O        0.75570    0.40480    0.05500    1.000
    O18      O        0.92180    0.55100    0.03940    1.000
    O19      O        0.76580    0.17720    0.03720    1.000
    O20      O        0.94090    0.20860    0.00580    1.000
    O21      O        0.43260    0.74640    0.61020    1.000
    O22      O        0.11790    0.54540    0.14810    1.000
    O23      O        0.95160    0.38860    0.12100    1.000
    O24      O        0.35090    0.59520    0.44500    1.000
    O25      O        0.37080    0.44900    0.46060    1.000
    O26      O        0.58860    0.82280    0.46280    1.000
    O27      O        0.73230    0.79140    0.49420    1.000
    O28      O        0.68620    0.25360    0.88980    1.000
    F1       F        0.39670    0.17580    0.82760    1.000
    F2       F        0.22090    0.82420    0.67240    1.000
    F3       F        0.60330    0.82420    0.17240    1.000
    F4       F        0.77910    0.17580    0.32760    1.000
