# CIF file generated by openbabel 3.1.0, see https://openbabel.org
data_I
_chemical_name_common 'image0'
_cell_length_a 13.736
_cell_length_b 22.64
_cell_length_c 23.01
_cell_angle_alpha 65.026
_cell_angle_beta 75.118
_cell_angle_gamma 87.591
_space_group_name_H-M_alt 'P 1'
_space_group_name_Hall 'P 1'
loop_
    _symmetry_equiv_pos_as_xyz
    x,y,z
loop_
    _atom_site_label
    _atom_site_type_symbol
    _atom_site_fract_x
    _atom_site_fract_y
    _atom_site_fract_z
    _atom_site_occupancy
    Mn1      Mn       0.04356    0.75145    0.34270    1.000
    O1       O        0.00680    0.76600    0.42640    1.000
    O2       O        0.08960    0.84450    0.27420    1.000
    O3       O        0.90180    0.73490    0.33120    1.000
    O4       O        0.95160    0.64610    0.39640    1.000
    O5       O        0.17070    0.70570    0.35990    1.000
    C1       C        0.95090    0.80920    0.43200    1.000
    C2       C        0.03070    0.88160    0.24470    1.000
    Mn2      Mn       0.82175    0.82402    0.33290    1.000
    O6       O        0.89760    0.84080    0.39370    1.000
    C3       C        0.95300    0.82730    0.48790    1.000
    O7       O        0.94000    0.87310    0.24970    1.000
    C4       C        0.08300    0.95010    0.19460    1.000
    O8       O        0.71080    0.76350    0.41400    1.000
    O9       O        0.73900    0.91470    0.32760    1.000
    O10      O        0.73120    0.82280    0.27070    1.000
    C5       C        0.90760    0.88260    0.49020    1.000
    C6       C        0.99220    0.78600    0.53970    1.000
    C7       C        0.04080    0.98440    0.14200    1.000
    C8       C        0.16360    0.97890    0.20200    1.000
    C9       C        0.62190    0.75110    0.43510    1.000
    Mn3      Mn       0.58951    0.88790    0.33595    1.000
    H1       H        0.88080    0.91080    0.45480    1.000
    C10      C        0.90140    0.89650    0.54430    1.000
    C11      C        0.98600    0.80000    0.59380    1.000
    H2       H        0.02330    0.74820    0.53820    1.000
    H3       H        0.98580    0.96470    0.13700    1.000
    C12      C        0.07910    0.04760    0.09690    1.000
    C13      C        0.20180    0.04220    0.15690    1.000
    H4       H        0.19240    0.95550    0.23790    1.000
    O11      O        0.55620    0.79610    0.41260    1.000
    C14      C        0.57250    0.69030    0.48820    1.000
    O12      O        0.43430    0.90740    0.35900    1.000
    O13      O        0.53320    0.99640    0.28590    1.000
    O14      O        0.61810    0.89070    0.24410    1.000
    H5       H        0.87030    0.93430    0.54580    1.000
    C15      C        0.94060    0.85520    0.59610    1.000
    H6       H        0.01280    0.77170    0.62920    1.000
    H7       H        0.05020    0.07110    0.06100    1.000
    C16      C        0.15960    0.07650    0.10430    1.000
    H8       H        0.25690    0.06190    0.16190    1.000
    C17      C        0.63450    0.63950    0.50850    1.000
    C18      C        0.46870    0.67970    0.51630    1.000
    C19      C        0.44790    0.96500    0.32300    1.000
    Si1      Si       0.92440    0.87244    0.67140    1.000
    Si2      Si       0.20900    0.16210    0.03870    1.000
    H9       H        0.70540    0.64670    0.48930    1.000
    C20      C        0.59260    0.57810    0.55690    1.000
    C21      C        0.42690    0.61830    0.56470    1.000
    H10      H        0.42640    0.71440    0.50250    1.000
    C22      C        0.35770    0.00680    0.31900    1.000
    C23      C        0.81100    0.92100    0.67940    1.000
    C24      C        0.03670    0.92280    0.66390    1.000
    C25      C        0.90470    0.79130    0.74490    1.000
    C26      C        0.10950    0.22210    0.03710    1.000
    C27      C        0.24140    0.15500    0.95620    1.000
    C28      C        0.32570    0.18940    0.05170    1.000
    H11      H        0.63500    0.54340    0.57080    1.000
    C29      C        0.48880    0.56760    0.58500    1.000
    H12      H        0.35600    0.61110    0.58390    1.000
    C30      C        0.26280    0.97550    0.35660    1.000
    C31      C        0.36830    0.07420    0.28220    1.000
    C32      C        0.82160    0.98840    0.64260    1.000
    C33      C        0.71600    0.88970    0.71700    1.000
    C34      C        0.02680    0.95340    0.70620    1.000
    C35      C        0.12490    0.93430    0.61350    1.000
    C36      C        0.82840    0.74640    0.75570    1.000
    C37      C        0.97190    0.77320    0.78440    1.000
    C38      C        0.14380    0.28780    0.00330    1.000
    C39      C        0.00650    0.20420    0.06050    1.000
    C40      C        0.19530    0.19450    0.90740    1.000
    C41      C        0.30900    0.11130    0.94450    1.000
    C42      C        0.32010    0.20150    0.10690    1.000
    C43      C        0.41770    0.19910    0.00480    1.000
    Si3      Si       0.43920    0.48496    0.65610    1.000
    H13      H        0.25550    0.92940    0.38170    1.000
    H14      H        0.43320    0.09570    0.25650    1.000
    H15      H        0.88640    0.00980    0.61690    1.000
    H16      H        0.70880    0.84360    0.74210    1.000
    C44      C        0.10520    0.99550    0.69790    1.000
    H17      H        0.96650    0.94550    0.74060    1.000
    H18      H        0.13170    0.91350    0.58470    1.000
    C45      C        0.20330    0.97640    0.60530    1.000
    C46      C        0.81930    0.68360    0.80600    1.000
    H19      H        0.78250    0.75880    0.72870    1.000
    H20      H        0.02410    0.80380    0.77700    1.000
    C47      C        0.96280    0.71030    0.83470    1.000
    C48      C        0.07490    0.33550    0.99300    1.000
    H21      H        0.21420    0.30010    0.98730    1.000
    H22      H        0.98310    0.15930    0.08350    1.000
    C49      C        0.93760    0.25190    0.05020    1.000
    C50      C        0.21670    0.19030    0.84690    1.000
    H23      H        0.14910    0.22430    0.91550    1.000
    H24      H        0.34060    0.08430    0.97790    1.000
    C51      C        0.33050    0.10720    0.88400    1.000
    C52      C        0.40650    0.22330    0.11510    1.000
    H25      H        0.25720    0.19480    0.13890    1.000
    H26      H        0.42150    0.19080    0.96710    1.000
    C53      C        0.50410    0.22090    0.01310    1.000
    C54      C        0.37920    0.49380    0.73380    1.000
    C55      C        0.34510    0.43880    0.63960    1.000
    C56      C        0.55270    0.43420    0.66580    1.000
    C57      C        0.19350    0.00700    0.64750    1.000
    H27      H        0.09850    0.01630    0.72680    1.000
    H28      H        0.26360    0.98430    0.57080    1.000
    C58      C        0.88660    0.66550    0.84560    1.000
    H29      H        0.76720    0.65290    0.81340    1.000
    H30      H        0.00880    0.69800    0.86170    1.000
    C59      C        0.97180    0.31760    0.01640    1.000
    H31      H        0.09830    0.38040    0.97000    1.000
    H32      H        0.86710    0.23960    0.06620    1.000
    C60      C        0.28440    0.14670    0.83520    1.000
    H33      H        0.18520    0.21730    0.81360    1.000
    H34      H        0.37670    0.07730    0.87600    1.000
    C61      C        0.49850    0.23300    0.06820    1.000
    H35      H        0.40260    0.23150    0.15280    1.000
    H36      H        0.56690    0.22760    0.98100    1.000
    C62      C        0.42560    0.53360    0.75270    1.000
    C63      C        0.28570    0.46090    0.77260    1.000
    C64      C        0.33490    0.37110    0.67430    1.000
    C65      C        0.27800    0.47060    0.60230    1.000
    C66      C        0.59270    0.41170    0.61770    1.000
    C67      C        0.59380    0.41790    0.71940    1.000
    C68      C        0.27750    0.05380    0.63760    1.000
    C69      C        0.87560    0.59620    0.89920    1.000
    C70      C        0.89390    0.36960    0.00370    1.000
    C71      C        0.31320    0.14400    0.77210    1.000
    C72      C        0.59420    0.25680    0.07540    1.000
    C73      C        0.37870    0.54050    0.81050    1.000
    H37      H        0.48950    0.55620    0.72620    1.000
    H38      H        0.25390    0.43370    0.75970    1.000
    C74      C        0.23870    0.46770    0.83040    1.000
    C75      C        0.25770    0.33530    0.67180    1.000
    H39      H        0.38080    0.34940    0.69980    1.000
    H40      H        0.28500    0.51680    0.57850    1.000
    C76      C        0.20080    0.43470    0.59980    1.000
    C77      C        0.67400    0.37280    0.62310    1.000
    H41      H        0.56460    0.42280    0.58110    1.000
    H42      H        0.56650    0.43330    0.75230    1.000
    C78      C        0.67510    0.37900    0.72490    1.000
    O15      O        0.35750    0.06010    0.59730    1.000
    O16      O        0.95870    0.57890    0.91910    1.000
    O17      O        0.80390    0.56010    0.91360    1.000
    O18      O        0.92750    0.42820    0.98080    1.000
    O19      O        0.80520    0.35180    0.01850    1.000
    O20      O        0.66850    0.27650    0.02280    1.000
    O21      O        0.58950    0.26250    0.12700    1.000
    C79      C        0.28520    0.50750    0.84930    1.000
    H43      H        0.41040    0.56760    0.82350    1.000
    H44      H        0.17480    0.44520    0.85690    1.000
    C80      C        0.19060    0.36710    0.63450    1.000
    H45      H        0.25070    0.28900    0.69560    1.000
    H46      H        0.15500    0.45650    0.57430    1.000
    C81      C        0.71510    0.35640    0.67670    1.000
    H47      H        0.70130    0.35730    0.59020    1.000
    H48      H        0.70320    0.36780    0.76150    1.000
    Mn4      Mn       0.77215    0.45925    0.96885    1.000
    C82      C        0.22710    0.51530    0.91090    1.000
    C83      C        0.10530    0.32310    0.63710    1.000
    C84      C        0.80360    0.31390    0.68430    1.000
    O22      O        0.72190    0.46010    0.06240    1.000
    O23      O        0.86000    0.50280    0.06490    1.000
    O24      O        0.84560    0.30180    0.72690    1.000
    Mn5      Mn       0.95644    0.24855    0.65730    1.000
    O25      O        0.99320    0.23400    0.57360    1.000
    O26      O        0.91040    0.15550    0.72580    1.000
    O27      O        0.09820    0.26510    0.66880    1.000
    O28      O        0.04840    0.35390    0.60360    1.000
    O29      O        0.82930    0.29430    0.64010    1.000
    C85      C        0.04910    0.19080    0.56800    1.000
    C86      C        0.96930    0.11840    0.75530    1.000
    Mn6      Mn       0.17825    0.17598    0.66710    1.000
    O30      O        0.10240    0.15920    0.60630    1.000
    C87      C        0.04700    0.17270    0.51210    1.000
    O31      O        0.06000    0.12690    0.75030    1.000
    C88      C        0.91700    0.04990    0.80540    1.000
    O32      O        0.28920    0.23650    0.58600    1.000
    O33      O        0.26100    0.08530    0.67240    1.000
    O34      O        0.26880    0.17720    0.72930    1.000
    C89      C        0.09240    0.11740    0.50980    1.000
    C90      C        0.00780    0.21400    0.46030    1.000
    C91      C        0.95920    0.01560    0.85800    1.000
    C92      C        0.83640    0.02110    0.79800    1.000
    C93      C        0.37810    0.24890    0.56490    1.000
    Mn7      Mn       0.41049    0.11210    0.66405    1.000
    H49      H        0.11920    0.08920    0.54520    1.000
    C94      C        0.09860    0.10350    0.45570    1.000
    C95      C        0.01400    0.20000    0.40620    1.000
    H50      H        0.97670    0.25180    0.46180    1.000
    H51      H        0.01420    0.03530    0.86300    1.000
    C96      C        0.92090    0.95240    0.90310    1.000
    C97      C        0.79820    0.95780    0.84310    1.000
    H52      H        0.80760    0.04450    0.76210    1.000
    O35      O        0.44380    0.20390    0.58740    1.000
    C98      C        0.42750    0.30970    0.51180    1.000
    O36      O        0.56570    0.09260    0.64100    1.000
    O37      O        0.46680    0.00360    0.71410    1.000
    O38      O        0.38190    0.10930    0.75590    1.000
    H53      H        0.12970    0.06570    0.45420    1.000
    C99      C        0.05940    0.14480    0.40390    1.000
    H54      H        0.98720    0.22830    0.37080    1.000
    H55      H        0.94980    0.92890    0.93900    1.000
    C100     C        0.84040    0.92350    0.89570    1.000
    H56      H        0.74310    0.93810    0.83810    1.000
    C101     C        0.36550    0.36050    0.49150    1.000
    C102     C        0.53130    0.32030    0.48370    1.000
    C103     C        0.55210    0.03500    0.67700    1.000
    Si4      Si       0.07560    0.12756    0.32860    1.000
    Si5      Si       0.79100    0.83790    0.96130    1.000
    H57      H        0.29460    0.35330    0.51070    1.000
    C104     C        0.40740    0.42190    0.44310    1.000
    C105     C        0.57310    0.38170    0.43530    1.000
    H58      H        0.57360    0.28560    0.49750    1.000
    C106     C        0.64230    0.99320    0.68100    1.000
    C107     C        0.18900    0.07900    0.32060    1.000
    C108     C        0.96330    0.07720    0.33610    1.000
    C109     C        0.09530    0.20870    0.25510    1.000
    C110     C        0.89050    0.77790    0.96290    1.000
    C111     C        0.75860    0.84500    0.04380    1.000
    C112     C        0.67430    0.81060    0.94830    1.000
    H59      H        0.36500    0.45660    0.42920    1.000
    C113     C        0.51120    0.43240    0.41500    1.000
    H60      H        0.64400    0.38890    0.41610    1.000
    C114     C        0.73720    0.02450    0.64340    1.000
    C115     C        0.63170    0.92580    0.71780    1.000
    C116     C        0.17840    0.01160    0.35740    1.000
    C117     C        0.28400    0.11030    0.28300    1.000
    C118     C        0.97320    0.04660    0.29380    1.000
    C119     C        0.87510    0.06570    0.38650    1.000
    C120     C        0.17160    0.25360    0.24430    1.000
    C121     C        0.02810    0.22680    0.21560    1.000
    C122     C        0.85620    0.71220    0.99670    1.000
    C123     C        0.99350    0.79580    0.93950    1.000
    C124     C        0.80470    0.80550    0.09260    1.000
    C125     C        0.69100    0.88870    0.05550    1.000
    C126     C        0.67990    0.79850    0.89310    1.000
    C127     C        0.58230    0.80090    0.99520    1.000
    Si6      Si       0.56080    0.51504    0.34390    1.000
    H61      H        0.74450    0.07060    0.61830    1.000
    H62      H        0.56680    0.90430    0.74350    1.000
    H63      H        0.11360    0.99020    0.38310    1.000
    H64      H        0.29120    0.15640    0.25790    1.000
    C128     C        0.89480    0.00450    0.30210    1.000
    H65      H        0.03350    0.05450    0.25940    1.000
    H66      H        0.86830    0.08650    0.41530    1.000
    C129     C        0.79670    0.02360    0.39470    1.000
    C130     C        0.18070    0.31640    0.19400    1.000
    H67      H        0.21750    0.24120    0.27130    1.000
    H68      H        0.97590    0.19620    0.22300    1.000
    C131     C        0.03720    0.28970    0.16530    1.000
    C132     C        0.92510    0.66450    0.00700    1.000
    H69      H        0.78580    0.69990    0.01270    1.000
    H70      H        0.01690    0.84070    0.91650    1.000
    C133     C        0.06240    0.74810    0.94980    1.000
    C134     C        0.78330    0.80970    0.15310    1.000
    H71      H        0.85090    0.77570    0.08450    1.000
    H72      H        0.65940    0.91570    0.02210    1.000
    C135     C        0.66950    0.89280    0.11600    1.000
    C136     C        0.59350    0.77670    0.88490    1.000
    H73      H        0.74280    0.80520    0.86110    1.000
    H74      H        0.57850    0.80920    0.03290    1.000
    C137     C        0.49590    0.77910    0.98690    1.000
    C138     C        0.62080    0.50620    0.26620    1.000
    C139     C        0.65490    0.56120    0.36040    1.000
    C140     C        0.44730    0.56580    0.33420    1.000
    C141     C        0.80650    0.99300    0.35250    1.000
    H75      H        0.90150    0.98370    0.27320    1.000
    H76      H        0.73640    0.01570    0.42920    1.000
    C142     C        0.11340    0.33450    0.15440    1.000
    H77      H        0.23280    0.34710    0.18660    1.000
    H78      H        0.99120    0.30200    0.13830    1.000
    C143     C        0.02820    0.68240    0.98360    1.000
    H79      H        0.90170    0.61960    0.03000    1.000
    H80      H        0.13290    0.76040    0.93380    1.000
    C144     C        0.71560    0.85330    0.16480    1.000
    H81      H        0.81480    0.78270    0.18640    1.000
    H82      H        0.62330    0.92270    0.12400    1.000
    C145     C        0.50150    0.76700    0.93180    1.000
    H83      H        0.59740    0.76850    0.84720    1.000
    H84      H        0.43310    0.77240    0.01900    1.000
    C146     C        0.57440    0.46640    0.24730    1.000
    C147     C        0.71430    0.53910    0.22740    1.000
    C148     C        0.66510    0.62890    0.32570    1.000
    C149     C        0.72200    0.52940    0.39770    1.000
    C150     C        0.40730    0.58830    0.38230    1.000
    C151     C        0.40620    0.58210    0.28060    1.000
    C152     C        0.72250    0.94620    0.36240    1.000
    C153     C        0.12440    0.40380    0.10080    1.000
    C154     C        0.10610    0.63040    0.99630    1.000
    C155     C        0.68680    0.85600    0.22790    1.000
    C156     C        0.40580    0.74320    0.92460    1.000
    C157     C        0.62130    0.45950    0.18950    1.000
    H85      H        0.51050    0.44380    0.27380    1.000
    H86      H        0.74610    0.56630    0.24030    1.000
    C158     C        0.76130    0.53230    0.16960    1.000
    C159     C        0.74230    0.66470    0.32820    1.000
    H87      H        0.61920    0.65060    0.30020    1.000
    H88      H        0.71500    0.48320    0.42150    1.000
    C160     C        0.79920    0.56530    0.40020    1.000
    C161     C        0.32600    0.62720    0.37690    1.000
    H89      H        0.43540    0.57720    0.41890    1.000
    H90      H        0.43350    0.56670    0.24770    1.000
    C162     C        0.32490    0.62100    0.27510    1.000
    O39      O        0.64250    0.93990    0.40270    1.000
    O40      O        0.04130    0.42110    0.08090    1.000
    O41      O        0.19610    0.43990    0.08640    1.000
    O42      O        0.07250    0.57180    0.01920    1.000
    O43      O        0.19480    0.64820    0.98150    1.000
    O44      O        0.33150    0.72350    0.97720    1.000
    O45      O        0.41050    0.73750    0.87300    1.000
    C163     C        0.71480    0.49250    0.15070    1.000
    H91      H        0.58960    0.43240    0.17650    1.000
    H92      H        0.82520    0.55480    0.14310    1.000
    C164     C        0.80940    0.63290    0.36550    1.000
    H93      H        0.74930    0.71100    0.30440    1.000
    H94      H        0.84500    0.54350    0.42570    1.000
    C165     C        0.28490    0.64360    0.32330    1.000
    H95      H        0.29870    0.64270    0.40980    1.000
    H96      H        0.29680    0.63220    0.23850    1.000
    Mn8      Mn       0.22785    0.54075    0.03115    1.000
    C166     C        0.77290    0.48470    0.08910    1.000
    C167     C        0.89470    0.67690    0.36290    1.000
    C168     C        0.19640    0.68610    0.31570    1.000
    O46      O        0.27810    0.53990    0.93760    1.000
    O47      O        0.14000    0.49720    0.93510    1.000
    O48      O        0.15440    0.69820    0.27310    1.000
    Mn9      Mn       0.00000    0.50000    0.00000    1.000
