# CIF file generated by openbabel 3.1.0, see https://openbabel.org
data_I
_chemical_name_common 'image0'
_cell_length_a 22.219
_cell_length_b 5.5243
_cell_length_c 18.4719
_cell_angle_alpha 90
_cell_angle_beta 115.962
_cell_angle_gamma 90
_space_group_name_H-M_alt 'P 1'
_space_group_name_Hall 'P 1'
loop_
    _symmetry_equiv_pos_as_xyz
    x,y,z
loop_
    _atom_site_label
    _atom_site_type_symbol
    _atom_site_fract_x
    _atom_site_fract_y
    _atom_site_fract_z
    _atom_site_occupancy
    C1       C        0.64490    0.60730    0.33038    1.000
    H1       H        0.65460    0.73720    0.30520    1.000
    O1       O        0.49831    0.81802    0.16494    1.000
    O2       O        0.56339    0.09930    0.15187    1.000
    C2       C        0.61380    0.22050    0.39869    1.000
    H2       H        0.60340    0.08780    0.42210    1.000
    N1       N        0.57894    0.25422    0.31851    1.000
    C3       C        0.53356    0.90350    0.13172    1.000
    C4       C        0.68058    0.57560    0.41339    1.000
    C5       C        0.66403    0.37450    0.44723    1.000
    H3       H        0.68690    0.34500    0.50220    1.000
    C6       C        0.59504    0.44490    0.28554    1.000
    H4       H        0.57180    0.46890    0.23030    1.000
    C7       C        0.49965    0.56700    0.03358    1.000
    C8       C        0.53677    0.76270    0.06509    1.000
    C9       C        0.73244    0.75180    0.45995    1.000
    H5       H        0.56560    0.82200    0.04400    1.000
    H6       H        0.74040    0.87500    0.43080    1.000
    H7       H        0.47030    0.51200    0.05540    1.000
    C10      C        0.14490    0.10730    0.33038    1.000
    H8       H        0.15460    0.23720    0.30520    1.000
    O3       O        0.99831    0.31802    0.16494    1.000
    O4       O        0.06339    0.59930    0.15187    1.000
    C11      C        0.11380    0.72050    0.39869    1.000
    H9       H        0.10340    0.58780    0.42210    1.000
    N2       N        0.07894    0.75422    0.31851    1.000
    C12      C        0.03356    0.40350    0.13172    1.000
    C13      C        0.18058    0.07560    0.41339    1.000
    C14      C        0.16403    0.87450    0.44723    1.000
    H10      H        0.18690    0.84500    0.50220    1.000
    C15      C        0.09504    0.94490    0.28554    1.000
    H11      H        0.07180    0.96890    0.23030    1.000
    C16      C        0.99965    0.06700    0.03358    1.000
    C17      C        0.03677    0.26270    0.06509    1.000
    C18      C        0.23244    0.25180    0.45995    1.000
    H12      H        0.06560    0.32200    0.04400    1.000
    H13      H        0.24040    0.37500    0.43080    1.000
    H14      H        0.97030    0.01200    0.05540    1.000
    C19      C        0.35510    0.60730    0.16962    1.000
    H15      H        0.34540    0.73720    0.19480    1.000
    O5       O        0.50169    0.81802    0.33506    1.000
    O6       O        0.43661    0.09930    0.34813    1.000
    C20      C        0.38620    0.22050    0.10131    1.000
    H16      H        0.39660    0.08780    0.07790    1.000
    N3       N        0.42106    0.25422    0.18149    1.000
    C21      C        0.46644    0.90350    0.36828    1.000
    C22      C        0.31942    0.57560    0.08661    1.000
    C23      C        0.33597    0.37450    0.05277    1.000
    H17      H        0.31310    0.34500    0.99780    1.000
    C24      C        0.40496    0.44490    0.21446    1.000
    H18      H        0.42820    0.46890    0.26970    1.000
    C25      C        0.50035    0.56700    0.46642    1.000
    C26      C        0.46323    0.76270    0.43491    1.000
    C27      C        0.26756    0.75180    0.04005    1.000
    H19      H        0.43440    0.82200    0.45600    1.000
    H20      H        0.25960    0.87500    0.06920    1.000
    H21      H        0.52970    0.51200    0.44460    1.000
    C28      C        0.85510    0.10730    0.16962    1.000
    H22      H        0.84540    0.23720    0.19480    1.000
    O7       O        0.00169    0.31802    0.33506    1.000
    O8       O        0.93661    0.59930    0.34813    1.000
    C29      C        0.88620    0.72050    0.10131    1.000
    H23      H        0.89660    0.58780    0.07790    1.000
    N4       N        0.92106    0.75422    0.18149    1.000
    C30      C        0.96644    0.40350    0.36828    1.000
    C31      C        0.81942    0.07560    0.08661    1.000
    C32      C        0.83597    0.87450    0.05277    1.000
    H24      H        0.81310    0.84500    0.99780    1.000
    C33      C        0.90496    0.94490    0.21446    1.000
    H25      H        0.92820    0.96890    0.26970    1.000
    C34      C        0.00035    0.06700    0.46642    1.000
    C35      C        0.96323    0.26270    0.43491    1.000
    C36      C        0.76756    0.25180    0.04005    1.000
    H26      H        0.93440    0.32200    0.45600    1.000
    H27      H        0.75960    0.37500    0.06920    1.000
    H28      H        0.02970    0.01200    0.44460    1.000
    C37      C        0.35510    0.39270    0.66962    1.000
    H29      H        0.34540    0.26280    0.69480    1.000
    O9       O        0.50169    0.18198    0.83506    1.000
    O10      O        0.43661    0.90070    0.84813    1.000
    C38      C        0.38620    0.77950    0.60131    1.000
    H30      H        0.39660    0.91220    0.57790    1.000
    N5       N        0.42106    0.74578    0.68149    1.000
    C39      C        0.46644    0.09650    0.86828    1.000
    C40      C        0.31942    0.42440    0.58661    1.000
    C41      C        0.33597    0.62550    0.55277    1.000
    H31      H        0.31310    0.65500    0.49780    1.000
    C42      C        0.40496    0.55510    0.71446    1.000
    H32      H        0.42820    0.53110    0.76970    1.000
    C43      C        0.50035    0.43300    0.96642    1.000
    C44      C        0.46323    0.23730    0.93491    1.000
    C45      C        0.26756    0.24820    0.54005    1.000
    H33      H        0.43440    0.17800    0.95600    1.000
    H34      H        0.25960    0.12500    0.56920    1.000
    H35      H        0.52970    0.48800    0.94460    1.000
    C46      C        0.85510    0.89270    0.66962    1.000
    H36      H        0.84540    0.76280    0.69480    1.000
    O11      O        0.00169    0.68198    0.83506    1.000
    O12      O        0.93661    0.40070    0.84813    1.000
    C47      C        0.88620    0.27950    0.60131    1.000
    H37      H        0.89660    0.41220    0.57790    1.000
    N6       N        0.92106    0.24578    0.68149    1.000
    C48      C        0.96644    0.59650    0.86828    1.000
    C49      C        0.81942    0.92440    0.58661    1.000
    C50      C        0.83597    0.12550    0.55277    1.000
    H38      H        0.81310    0.15500    0.49780    1.000
    C51      C        0.90496    0.05510    0.71446    1.000
    H39      H        0.92820    0.03110    0.76970    1.000
    C52      C        0.00035    0.93300    0.96642    1.000
    C53      C        0.96323    0.73730    0.93491    1.000
    C54      C        0.76756    0.74820    0.54005    1.000
    H40      H        0.93440    0.67800    0.95600    1.000
    H41      H        0.75960    0.62500    0.56920    1.000
    H42      H        0.02970    0.98800    0.94460    1.000
    C55      C        0.64490    0.39270    0.83038    1.000
    H43      H        0.65460    0.26280    0.80520    1.000
    O13      O        0.49831    0.18198    0.66494    1.000
    O14      O        0.56339    0.90070    0.65187    1.000
    C56      C        0.61380    0.77950    0.89869    1.000
    H44      H        0.60340    0.91220    0.92210    1.000
    N7       N        0.57894    0.74578    0.81851    1.000
    C57      C        0.53356    0.09650    0.63172    1.000
    C58      C        0.68058    0.42440    0.91339    1.000
    C59      C        0.66403    0.62550    0.94723    1.000
    H45      H        0.68690    0.65500    0.00220    1.000
    C60      C        0.59504    0.55510    0.78554    1.000
    H46      H        0.57180    0.53110    0.73030    1.000
    C61      C        0.49965    0.43300    0.53358    1.000
    C62      C        0.53677    0.23730    0.56509    1.000
    C63      C        0.73244    0.24820    0.95995    1.000
    H47      H        0.56560    0.17800    0.54400    1.000
    H48      H        0.74040    0.12500    0.93080    1.000
    H49      H        0.47030    0.48800    0.55540    1.000
    C64      C        0.14490    0.89270    0.83038    1.000
    H50      H        0.15460    0.76280    0.80520    1.000
    O15      O        0.99831    0.68198    0.66494    1.000
    O16      O        0.06339    0.40070    0.65187    1.000
    C65      C        0.11380    0.27950    0.89869    1.000
    H51      H        0.10340    0.41220    0.92210    1.000
    N8       N        0.07894    0.24578    0.81851    1.000
    C66      C        0.03356    0.59650    0.63172    1.000
    C67      C        0.18058    0.92440    0.91339    1.000
    C68      C        0.16403    0.12550    0.94723    1.000
    H52      H        0.18690    0.15500    0.00220    1.000
    C69      C        0.09504    0.05510    0.78554    1.000
    H53      H        0.07180    0.03110    0.73030    1.000
    C70      C        0.99965    0.93300    0.53358    1.000
    C71      C        0.03677    0.73730    0.56509    1.000
    C72      C        0.23244    0.74820    0.95995    1.000
    H54      H        0.06560    0.67800    0.54400    1.000
    H55      H        0.24040    0.62500    0.93080    1.000
    H56      H        0.97030    0.98800    0.55540    1.000
    Zn1      Zn       0.50000    0.03681    0.25000    1.000
    Zn2      Zn       0.00000    0.53681    0.25000    1.000
    Zn3      Zn       0.50000    0.96319    0.75000    1.000
    Zn4      Zn       0.00000    0.46319    0.75000    1.000
