data_functionalizedCrystal
_audit_creation_method	'EQeq! by Chris Wilmer'
_symmetry_space_group_name_H-M	'P1'
_symmetry_Int_Tables_number	1
_symmetry_cell_setting	triclinic
loop_
_symmetry_equiv_pos_as_xyz
  x,y,z
_cell_length_a	19.2095
_cell_length_b	19.2095
_cell_length_c	36.0245
_cell_angle_alpha	90
_cell_angle_beta	90
_cell_angle_gamma	120
loop_
_atom_site_label
_atom_site_type_symbol
_atom_site_fract_x
_atom_site_fract_y
_atom_site_fract_z
_atom_site_charge
Mof_H 	H 	0.923	0.2847	0.4195	0.019
Mof_H 	H 	0.3257	0.4675	0.1525	-0.008
Mof_H 	H 	0.4456	0.3544	0.9075	-0.028
Mof_C 	C 	0.7493	0.128	0.0702	-0.043
Mof_C 	C 	0.6267	0.1326	0.6407	-0.053
Mof_C 	C 	0.9029	0.5461	0.47648	-0.032
Mof_C 	C 	0.43	0.1531	0.04055	-0.132
Mof_C 	C 	0.4934	0.1025	0.60473	-0.045
Mof_O 	O 	0.11378	0.48361	0.00836	-0.17
Mof_O 	O 	0.59385	0.03796	0.04259	-0.283
Mof_O 	O 	0.34079	0.54282	0.28975	-0.351
Mof_Zn	Zn	0.52333	0.04666	0.96536	1.015
Mof_Br	Br	0.85788	0.71576	0.1282	-0.223
Mof_Cr	Cr	0.2758	0.5516	0.25	0.971
Mof_H 	H 	0.472	0.236	0.4997	0.058
Mof_C 	C 	0.44748	0.22374	0.47621	-0.087
Mof_C 	C 	0.40605	0.59395	0.1965	-0.095
Mof_C 	C 	0.8244	0.1756	0.4145	-0.043
Mof_C 	C 	0.4259	0.8518	0.34158	-0.011
Mof_N 	N 	0.45535	0.9107	0.08733	-0.104
Mof_O 	O 	0.33333	0.66667	0.25	-0.355
_end
