data_functionalizedCrystal
_audit_creation_method	'EQeq! by Chris Wilmer'
_symmetry_space_group_name_H-M	'P1'
_symmetry_Int_Tables_number	1
_symmetry_cell_setting	triclinic
loop_
_symmetry_equiv_pos_as_xyz
  x,y,z
_cell_length_a	10.8173
_cell_length_b	13.582
_cell_length_c	14.7037
_cell_angle_alpha	110.628
_cell_angle_beta	90
_cell_angle_gamma	90
loop_
_atom_site_label
_atom_site_type_symbol
_atom_site_fract_x
_atom_site_fract_y
_atom_site_fract_z
_atom_site_charge
Mof_Co	Co	0.09747	0.5906	0.53886	1.157
Mof_Co	Co	0.98954	0.4959	0.70764	1.172
Mof_Co	Co	0.90253	0.4094	0.46114	1.157
Mof_Co	Co	0.51046	0.4959	0.20764	1.173
Mof_Co	Co	0.48954	0.5041	0.79236	1.173
Mof_Co	Co	0.59747	0.4094	0.96114	1.157
Mof_Co	Co	0.40253	0.5906	0.03886	1.157
Mof_Co	Co	0.01046	0.5041	0.29236	1.172
Mof_H 	H 	0.6673	0.1497	0.7899	0.072
Mof_H 	H 	0.0681	0.0011	0.7104	0.063
Mof_H 	H 	0.9568	0.8601	0.3435	0.04
Mof_H 	H 	0.37	0.1389	0.8583	0.067
Mof_H 	H 	0.13	0.1389	0.3583	0.067
Mof_H 	H 	0.5681	0.9989	0.7896	0.063
Mof_H 	H 	0.87	0.8611	0.6417	0.067
Mof_H 	H 	0.6416	0.0885	0.9925	0.034
Mof_H 	H 	0.6822	0.9496	0.044	0.075
Mof_H 	H 	0.8327	0.1497	0.2899	0.072
Mof_H 	H 	0.1673	0.8503	0.7101	0.072
Mof_H 	H 	0.3178	0.0504	0.956	0.075
Mof_H 	H 	0.0432	0.1399	0.6565	0.04
Mof_H 	H 	0.8178	0.9496	0.544	0.075
Mof_H 	H 	0.4568	0.1399	0.1565	0.04
Mof_H 	H 	0.3584	0.9115	0.0075	0.034
Mof_H 	H 	0.63	0.8611	0.1417	0.067
Mof_H 	H 	0.3327	0.8503	0.2101	0.072
Mof_H 	H 	0.4319	0.0011	0.2104	0.063
Mof_H 	H 	0.5432	0.8601	0.8435	0.04
Mof_H 	H 	0.9319	0.9989	0.2896	0.063
Mof_H 	H 	0.1416	0.9115	0.5075	0.036
Mof_H 	H 	0.1822	0.0504	0.456	0.075
Mof_H 	H 	0.8584	0.0885	0.4925	0.036
Mof_C 	C 	0.2031	0.9824	0.41638	-0.098
Mof_C 	C 	0.8042	0.86131	0.6825	-0.048
Mof_C 	C 	0.1683	0.31475	0.6878	0.338
Mof_C 	C 	0.7588	0.03451	0.17373	0.041
Mof_C 	C 	0.2224	0.05413	0.79055	0.023
Mof_C 	C 	0.8907	0.85985	0.303	-0
Mof_C 	C 	0.1919	0.22447	0.72409	-0.046
Mof_C 	C 	0.38262	0.31118	0.8193	0.352
Mof_C 	C 	0.61738	0.68882	0.1807	0.352
Mof_C 	C 	0.7063	0.1372	0.73044	-0.067
Mof_C 	C 	0.1786	0.89893	0.44736	0.022
Mof_C 	C 	0.7776	0.94587	0.20945	0.023
Mof_C 	C 	0.7097	0.77689	0.21488	-0.037
Mof_C 	C 	0.6683	0.68525	0.8122	0.339
Mof_C 	C 	0.2412	0.96549	0.82627	0.041
Mof_C 	C 	0.66666	0.2964	0.0867	0.37
Mof_C 	C 	0.27064	0.77948	0.30129	-0.016
Mof_C 	C 	0.20913	0.79687	0.38917	-0.075
Mof_C 	C 	0.83334	0.2964	0.5867	0.368
Mof_C 	C 	0.31688	0.67148	0.2407	0.344
Mof_C 	C 	0.3214	0.89893	0.94736	0.026
Mof_C 	C 	0.8214	0.10107	0.55264	0.022
Mof_C 	C 	0.7224	0.94587	0.70945	0.024
Mof_C 	C 	0.6958	0.86131	0.1825	-0.048
Mof_C 	C 	0.2937	0.8628	0.26956	-0.067
Mof_C 	C 	0.88262	0.68882	0.6807	0.352
Mof_C 	C 	0.2776	0.05413	0.29055	0.024
Mof_C 	C 	0.2903	0.22311	0.78512	-0.037
Mof_C 	C 	0.81688	0.32852	0.2593	0.344
Mof_C 	C 	0.3317	0.31475	0.1878	0.339
Mof_C 	C 	0.3907	0.14015	0.197	0
Mof_C 	C 	0.6786	0.10107	0.05264	0.026
Mof_C 	C 	0.3757	0.05643	0.22957	-0.073
Mof_C 	C 	0.3081	0.22447	0.22409	-0.047
Mof_C 	C 	0.6243	0.94357	0.77043	-0.073
Mof_C 	C 	0.29087	0.79687	0.88917	-0.077
Mof_C 	C 	0.11738	0.31118	0.3193	0.352
Mof_C 	C 	0.18312	0.67148	0.7407	0.344
Mof_C 	C 	0.7969	0.0176	0.58362	-0.098
Mof_C 	C 	0.79087	0.20313	0.61083	-0.075
Mof_C 	C 	0.2097	0.22311	0.28512	-0.037
Mof_C 	C 	0.3042	0.13869	0.8175	-0.048
Mof_C 	C 	0.1093	0.14015	0.697	-0
Mof_C 	C 	0.1958	0.13869	0.3175	-0.048
Mof_C 	C 	0.1243	0.05643	0.72957	-0.072
Mof_C 	C 	0.8757	0.94357	0.27043	-0.072
Mof_C 	C 	0.8317	0.68525	0.3122	0.338
Mof_C 	C 	0.7937	0.1372	0.23044	-0.068
Mof_C 	C 	0.2063	0.8628	0.76956	-0.068
Mof_C 	C 	0.7412	0.03451	0.67373	0.04
Mof_C 	C 	0.16666	0.7036	0.4133	0.368
Mof_C 	C 	0.70913	0.20313	0.11083	-0.077
Mof_C 	C 	0.68312	0.32852	0.7593	0.344
Mof_C 	C 	0.22936	0.77948	0.80129	-0.015
Mof_C 	C 	0.7903	0.77689	0.71488	-0.037
Mof_C 	C 	0.6093	0.85985	0.803	0
Mof_C 	C 	0.7031	0.0176	0.08362	-0.098
Mof_C 	C 	0.6919	0.77553	0.77591	-0.047
Mof_C 	C 	0.8081	0.77553	0.27591	-0.046
Mof_C 	C 	0.2969	0.9824	0.91638	-0.098
Mof_C 	C 	0.2588	0.96549	0.32627	0.04
Mof_C 	C 	0.77064	0.22052	0.19871	-0.015
Mof_C 	C 	0.33334	0.7036	0.9133	0.37
Mof_C 	C 	0.72936	0.22052	0.69871	-0.016
Mof_O 	O 	0.35292	0.62132	0.84202	-0.426
Mof_O 	O 	0.03085	0.30171	0.37152	-0.413
Mof_O 	O 	0.15314	0.71555	0.50137	-0.412
Mof_O 	O 	0.77736	0.36646	0.34501	-0.409
Mof_O 	O 	0.36373	0.38874	0.79233	-0.423
Mof_O 	O 	0.95814	0.53889	0.43247	-0.585
Mof_O 	O 	0.716	0.68855	0.89051	-0.26
Mof_O 	O 	0.89592	0.37028	0.22108	-0.392
Mof_O 	O 	0.53085	0.69829	0.12848	-0.413
Mof_O 	O 	0.60408	0.37028	0.72108	-0.393
Mof_O 	O 	0.64708	0.37868	0.15798	-0.426
Mof_O 	O 	0.10408	0.62972	0.77892	-0.392
Mof_O 	O 	0.65314	0.28445	0.99863	-0.414
Mof_O 	O 	0.90413	0.61544	0.26078	-0.39
Mof_O 	O 	0.54186	0.53889	0.93247	-0.585
Mof_O 	O 	0.45814	0.46111	0.06753	-0.585
Mof_O 	O 	0.216	0.31145	0.60949	-0.259
Mof_O 	O 	0.13627	0.38874	0.29233	-0.423
Mof_O 	O 	0.40413	0.38456	0.23922	-0.391
Mof_O 	O 	0.04186	0.46111	0.56753	-0.585
Mof_O 	O 	0.72264	0.36646	0.84501	-0.41
Mof_O 	O 	0.14708	0.62132	0.34202	-0.426
Mof_O 	O 	0.59587	0.61544	0.76078	-0.391
Mof_O 	O 	0.46915	0.30171	0.87152	-0.413
Mof_O 	O 	0.22264	0.63354	0.65499	-0.409
Mof_O 	O 	0.34686	0.71555	0.00137	-0.414
Mof_O 	O 	0.96915	0.69829	0.62848	-0.413
Mof_O 	O 	0.784	0.68855	0.39051	-0.259
Mof_O 	O 	0.63627	0.61126	0.20767	-0.423
Mof_O 	O 	0.27736	0.63354	0.15499	-0.41
Mof_O 	O 	0.284	0.31145	0.10949	-0.26
Mof_O 	O 	0.86373	0.61126	0.70767	-0.423
Mof_O 	O 	0.39592	0.62972	0.27892	-0.393
Mof_O 	O 	0.84686	0.28445	0.49863	-0.412
Mof_O 	O 	0.85292	0.37868	0.65798	-0.426
Mof_O 	O 	0.09587	0.38456	0.73922	-0.39
_end
