data_functionalizedCrystal
_audit_creation_method	'EQeq! by Chris Wilmer'
_symmetry_space_group_name_H-M	'P1'
_symmetry_Int_Tables_number	1
_symmetry_cell_setting	triclinic
loop_
_symmetry_equiv_pos_as_xyz
  x,y,z
_cell_length_a	14.7719
_cell_length_b	14.7719
_cell_length_c	23.1284
_cell_angle_alpha	81.687
_cell_angle_beta	78.3919
_cell_angle_gamma	117.296
loop_
_atom_site_label
_atom_site_type_symbol
_atom_site_fract_x
_atom_site_fract_y
_atom_site_fract_z
_atom_site_charge
Mof_Mn	Mn	0.43088	0.92619	0.22357	0.984
Mof_Mn	Mn	0.64976	0.65445	0.27643	0.985
Mof_Mn	Mn	0.56912	0.07381	0.77643	0.984
Mof_Mn	Mn	0.35024	0.34555	0.72357	0.985
Mof_Mn	Mn	0.41984	0.66984	0.25	0.995
Mof_Mn	Mn	0.58016	0.33016	0.75	0.995
Mof_P 	P 	0.6695	0.91665	0.84487	0.215
Mof_P 	P 	0.26152	0.51437	0.65513	0.214
Mof_P 	P 	0.3305	0.08335	0.15513	0.215
Mof_P 	P 	0.73848	0.48563	0.34487	0.214
Mof_H 	H 	0.5797	0.732	0.9501	0.055
Mof_H 	H 	0.5087	0.7004	0.0551	0.036
Mof_H 	H 	0.5726	0.0016	0.0298	0.041
Mof_H 	H 	0.6364	0.0316	0.9244	0.054
Mof_H 	H 	0.8248	0.0176	0.9076	0.049
Mof_H 	H 	0.0109	0.1293	0.8746	0.05
Mof_H 	H 	0.024	0.0772	0.7078	0.049
Mof_H 	H 	0.8385	0.9704	0.7393	0.051
Mof_H 	H 	0.7493	0.7694	0.8413	0.056
Mof_H 	H 	0.692	0.6099	0.8149	0.03
Mof_H 	H 	0.4417	0.6254	0.7795	0.038
Mof_H 	H 	0.4983	0.7851	0.8056	0.068
Mof_H 	H 	0.1821	0.5298	0.5499	0.057
Mof_H 	H 	0.2555	0.5638	0.4449	0.035
Mof_H 	H 	0.5314	0.6024	0.4702	0.037
Mof_H 	H 	0.456	0.5608	0.5756	0.058
Mof_H 	H 	0.4252	0.7324	0.5924	0.049
Mof_H 	H 	0.5039	0.8855	0.6254	0.049
Mof_H 	H 	0.285	0.7318	0.7922	0.048
Mof_H 	H 	0.2097	0.5778	0.7607	0.05
Mof_H 	H 	0.1107	0.5906	0.6587	0.055
Mof_H 	H 	0.9248	0.5069	0.6851	0.031
Mof_H 	H 	0.9049	0.2212	0.7205	0.038
Mof_H 	H 	0.0907	0.3039	0.6944	0.067
Mof_H 	H 	0.4203	0.268	0.0499	0.055
Mof_H 	H 	0.4913	0.2996	0.9449	0.036
Mof_H 	H 	0.4274	0.9984	0.9702	0.041
Mof_H 	H 	0.3636	0.9684	0.0756	0.054
Mof_H 	H 	0.1752	0.9824	0.0924	0.049
Mof_H 	H 	0.9891	0.8707	0.1254	0.05
Mof_H 	H 	0.976	0.9228	0.2922	0.049
Mof_H 	H 	0.1615	0.0296	0.2607	0.051
Mof_H 	H 	0.2507	0.2306	0.1587	0.056
Mof_H 	H 	0.308	0.3901	0.1851	0.03
Mof_H 	H 	0.5583	0.3746	0.2205	0.038
Mof_H 	H 	0.5017	0.2149	0.1944	0.068
Mof_H 	H 	0.8179	0.4702	0.4501	0.057
Mof_H 	H 	0.7445	0.4362	0.5551	0.035
Mof_H 	H 	0.4686	0.3976	0.5298	0.037
Mof_H 	H 	0.544	0.4392	0.4244	0.058
Mof_H 	H 	0.5748	0.2676	0.4076	0.049
Mof_H 	H 	0.4961	0.1145	0.3746	0.049
Mof_H 	H 	0.715	0.2682	0.2078	0.048
Mof_H 	H 	0.7903	0.4222	0.2393	0.05
Mof_H 	H 	0.8893	0.4094	0.3413	0.055
Mof_H 	H 	0.0752	0.4931	0.3149	0.031
Mof_H 	H 	0.0951	0.7788	0.2795	0.038
Mof_H 	H 	0.9093	0.6961	0.3056	0.067
Mof_C 	C 	0.61626	0.88567	0.92705	-0.012
Mof_C 	C 	0.57755	0.78688	0.96617	-0.072
Mof_C 	C 	0.53597	0.76851	0.02852	0.018
Mof_C 	C 	0.53343	0.84765	0.05284	-0.107
Mof_C 	C 	0.48703	0.82722	0.12115	0.387
Mof_C 	C 	0.57268	0.9461	0.01364	0.01
Mof_C 	C 	0.61204	0.96437	0.95107	-0.065
Mof_C 	C 	0.81287	0.98572	0.82607	-0.022
Mof_C 	C 	0.86466	0.03118	0.8665	-0.057
Mof_C 	C 	0.97571	0.09714	0.84689	-0.013
Mof_C 	C 	0.03453	0.11601	0.7878	-0.061
Mof_C 	C 	0.15268	0.19426	0.76558	0.289
Mof_C 	C 	0.98352	0.06699	0.74811	-0.014
Mof_C 	C 	0.87319	0.00292	0.76705	-0.054
Mof_C 	C 	0.63011	0.79376	0.82505	-0.009
Mof_C 	C 	0.68715	0.74065	0.82828	-0.083
Mof_C 	C 	0.65313	0.64599	0.81256	0.024
Mof_C 	C 	0.56299	0.60366	0.79339	-0.116
Mof_C 	C 	0.52882	0.50204	0.77446	0.392
Mof_C 	C 	0.5048	0.65526	0.79152	0.022
Mof_C 	C 	0.53829	0.74995	0.80712	-0.074
Mof_C 	C 	0.31272	0.54331	0.57295	-0.008
Mof_C 	C 	0.25305	0.54372	0.53383	-0.077
Mof_C 	C 	0.29703	0.56449	0.47148	0.023
Mof_C 	C 	0.40049	0.58627	0.44716	-0.112
Mof_C 	C 	0.44837	0.60818	0.37885	0.388
Mof_C 	C 	0.45974	0.58632	0.48636	0.019
Mof_C 	C 	0.41544	0.56311	0.54893	-0.073
Mof_C 	C 	0.31179	0.63894	0.67393	-0.024
Mof_C 	C 	0.39768	0.73116	0.6335	-0.056
Mof_C 	C 	0.44403	0.8226	0.65311	-0.011
Mof_C 	C 	0.40381	0.82233	0.7122	-0.062
Mof_C 	C 	0.45984	0.91826	0.73442	0.289
Mof_C 	C 	0.3151	0.73163	0.75189	-0.014
Mof_C 	C 	0.26997	0.64024	0.73295	-0.051
Mof_C 	C 	0.11881	0.45516	0.67495	-0.009
Mof_C 	C 	0.06893	0.51543	0.67172	-0.082
Mof_C 	C 	0.95855	0.46569	0.68744	0.024
Mof_C 	C 	0.89705	0.35638	0.70661	-0.116
Mof_C 	C 	0.7765	0.30328	0.72554	0.392
Mof_C 	C 	0.94678	0.29632	0.70848	0.021
Mof_C 	C 	0.05707	0.34541	0.69288	-0.073
Mof_C 	C 	0.38374	0.11433	0.07295	-0.012
Mof_C 	C 	0.42245	0.21312	0.03383	-0.072
Mof_C 	C 	0.46403	0.23149	0.97148	0.018
Mof_C 	C 	0.46657	0.15235	0.94716	-0.107
Mof_C 	C 	0.51297	0.17278	0.87885	0.387
Mof_C 	C 	0.42732	0.0539	0.98636	0.01
Mof_C 	C 	0.38796	0.03563	0.04893	-0.065
Mof_C 	C 	0.18713	0.01428	0.17393	-0.022
Mof_C 	C 	0.13534	0.96882	0.1335	-0.057
Mof_C 	C 	0.02429	0.90286	0.15311	-0.013
Mof_C 	C 	0.96547	0.88399	0.2122	-0.061
Mof_C 	C 	0.84732	0.80574	0.23442	0.289
Mof_C 	C 	0.01648	0.93301	0.25189	-0.014
Mof_C 	C 	0.12681	0.99708	0.23295	-0.054
Mof_C 	C 	0.36989	0.20624	0.17495	-0.009
Mof_C 	C 	0.31285	0.25935	0.17172	-0.083
Mof_C 	C 	0.34687	0.35401	0.18744	0.024
Mof_C 	C 	0.43701	0.39634	0.20661	-0.116
Mof_C 	C 	0.47118	0.49796	0.22554	0.392
Mof_C 	C 	0.4952	0.34474	0.20848	0.022
Mof_C 	C 	0.46171	0.25005	0.19288	-0.074
Mof_C 	C 	0.68728	0.45669	0.42705	-0.008
Mof_C 	C 	0.74695	0.45628	0.46617	-0.077
Mof_C 	C 	0.70297	0.43551	0.52852	0.023
Mof_C 	C 	0.59951	0.41373	0.55284	-0.112
Mof_C 	C 	0.55163	0.39182	0.62115	0.388
Mof_C 	C 	0.54026	0.41368	0.51364	0.019
Mof_C 	C 	0.58456	0.43689	0.45107	-0.073
Mof_C 	C 	0.68821	0.36106	0.32607	-0.024
Mof_C 	C 	0.60232	0.26884	0.3665	-0.056
Mof_C 	C 	0.55597	0.1774	0.34689	-0.011
Mof_C 	C 	0.59619	0.17767	0.2878	-0.062
Mof_C 	C 	0.54016	0.08174	0.26558	0.289
Mof_C 	C 	0.6849	0.26837	0.24811	-0.014
Mof_C 	C 	0.73003	0.35976	0.26705	-0.051
Mof_C 	C 	0.88119	0.54484	0.32505	-0.009
Mof_C 	C 	0.93107	0.48457	0.32828	-0.082
Mof_C 	C 	0.04145	0.53431	0.31256	0.024
Mof_C 	C 	0.10295	0.64362	0.29339	-0.116
Mof_C 	C 	0.2235	0.69672	0.27446	0.392
Mof_C 	C 	0.05322	0.70368	0.29152	0.021
Mof_C 	C 	0.94293	0.65459	0.30712	-0.073
Mof_C 	C 	0.5919	0.8419	0.25	0.381
Mof_C 	C 	0.6899	0.9399	0.25	-0.08
Mof_C 	C 	0.4081	0.1581	0.75	0.381
Mof_C 	C 	0.3101	0.0601	0.75	-0.08
Mof_O 	O 	0.45761	0.73856	0.15401	-0.392
Mof_O 	O 	0.48123	0.90228	0.13831	-0.395
Mof_O 	O 	0.19456	0.24807	0.80029	-0.317
Mof_O 	O 	0.20572	0.20744	0.71198	-0.316
Mof_O 	O 	0.59259	0.46796	0.77035	-0.403
Mof_O 	O 	0.44024	0.46096	0.7641	-0.398
Mof_O 	O 	0.63197	0.98142	0.81263	-0.313
Mof_O 	O 	0.50344	0.83853	0.26089	-0.432
Mof_O 	O 	0.39257	0.61162	0.34599	-0.392
Mof_O 	O 	0.54059	0.61954	0.36169	-0.396
Mof_O 	O 	0.54836	0.99485	0.69971	-0.317
Mof_O 	O 	0.41942	0.9177	0.78802	-0.316
Mof_O 	O 	0.73831	0.36294	0.72965	-0.403
Mof_O 	O 	0.72506	0.20434	0.7359	-0.398
Mof_O 	O 	0.29405	0.4446	0.68737	-0.313
Mof_O 	O 	0.59942	0.76433	0.23911	-0.432
Mof_O 	O 	0.54239	0.26144	0.84599	-0.392
Mof_O 	O 	0.51877	0.09772	0.86169	-0.395
Mof_O 	O 	0.80544	0.75193	0.19971	-0.317
Mof_O 	O 	0.79428	0.79256	0.28802	-0.316
Mof_O 	O 	0.40741	0.53204	0.22965	-0.403
Mof_O 	O 	0.55976	0.53904	0.2359	-0.398
Mof_O 	O 	0.36803	0.01858	0.18737	-0.313
Mof_O 	O 	0.49656	0.16147	0.73911	-0.432
Mof_O 	O 	0.60743	0.38838	0.65401	-0.392
Mof_O 	O 	0.45941	0.38046	0.63831	-0.396
Mof_O 	O 	0.45164	0.00515	0.30029	-0.317
Mof_O 	O 	0.58058	0.0823	0.21198	-0.316
Mof_O 	O 	0.26169	0.63706	0.27035	-0.403
Mof_O 	O 	0.27494	0.79566	0.2641	-0.398
Mof_O 	O 	0.70595	0.5554	0.31263	-0.313
Mof_O 	O 	0.40058	0.23567	0.76089	-0.432
Mof_H 	H 	0.7253	0.7548	0.6699	0.099
Mof_H 	H 	0.7791	0.7987	0.6022	0.095
Mof_H 	H 	0.6022	0.7074	0.6208	0.095
Mof_H 	H 	0.6013	0.6062	0.6573	0.101
Mof_H 	H 	0.6587	0.6532	0.5849	0.098
Mof_H 	H 	0.8678	0.7135	0.6449	0.114
Mof_H 	H 	0.8134	0.6531	0.5985	0.118
Mof_H 	H 	0.7551	0.6055	0.6708	0.126
Mof_C 	C 	0.6431	0.6711	0.6234	-0.23
Mof_C 	C 	0.7998	0.6709	0.6373	-0.296
Mof_N 	N 	0.7387	0.7374	0.6337	-0.161
Mof_H 	H 	0.9247	0.3952	0.8301	0.099
Mof_H 	H 	0.9009	0.3813	0.8978	0.095
Mof_H 	H 	0.8282	0.223	0.8792	0.094
Mof_H 	H 	0.7635	0.2586	0.8427	0.101
Mof_H 	H 	0.7381	0.2436	0.9151	0.098
Mof_H 	H 	0.8584	0.5127	0.8551	0.114
Mof_H 	H 	0.7516	0.4119	0.9015	0.118
Mof_H 	H 	0.7763	0.4259	0.8292	0.126
Mof_C 	C 	0.7945	0.2665	0.8766	-0.23
Mof_C 	C 	0.8082	0.4371	0.8627	-0.296
Mof_N 	N 	0.8711	0.3724	0.8663	-0.161
Mof_H 	H 	0.2747	0.2452	0.3301	0.099
Mof_H 	H 	0.2209	0.2013	0.3978	0.095
Mof_H 	H 	0.3978	0.2926	0.3792	0.095
Mof_H 	H 	0.3987	0.3938	0.3427	0.101
Mof_H 	H 	0.3413	0.3468	0.4151	0.098
Mof_H 	H 	0.1322	0.2865	0.3551	0.114
Mof_H 	H 	0.1866	0.3469	0.4015	0.118
Mof_H 	H 	0.2449	0.3945	0.3292	0.126
Mof_C 	C 	0.3569	0.3289	0.3766	-0.23
Mof_C 	C 	0.2002	0.3291	0.3627	-0.296
Mof_N 	N 	0.2613	0.2626	0.3663	-0.161
Mof_H 	H 	0.0753	0.6048	0.1699	0.099
Mof_H 	H 	0.0991	0.6187	0.1022	0.095
Mof_H 	H 	0.1718	0.777	0.1208	0.094
Mof_H 	H 	0.2365	0.7414	0.1573	0.101
Mof_H 	H 	0.2619	0.7564	0.0849	0.098
Mof_H 	H 	0.1416	0.4873	0.1449	0.114
Mof_H 	H 	0.2484	0.5881	0.0985	0.118
Mof_H 	H 	0.2237	0.5741	0.1708	0.126
Mof_C 	C 	0.2055	0.7335	0.1234	-0.23
Mof_C 	C 	0.1918	0.5629	0.1373	-0.296
Mof_N 	N 	0.1289	0.6276	0.1337	-0.161
_end
