data_functionalizedCrystal
_audit_creation_method	'EQeq! by Chris Wilmer'
_symmetry_space_group_name_H-M	'P1'
_symmetry_Int_Tables_number	1
_symmetry_cell_setting	triclinic
loop_
_symmetry_equiv_pos_as_xyz
  x,y,z
_cell_length_a	32.632
_cell_length_b	17.2264
_cell_length_c	10.1532
_cell_angle_alpha	90
_cell_angle_beta	93.448
_cell_angle_gamma	90
loop_
_atom_site_label
_atom_site_type_symbol
_atom_site_fract_x
_atom_site_fract_y
_atom_site_fract_z
_atom_site_charge
Mof_Eu	Eu	0.30826	0.20956	0.00171	2.104
Mof_O 	O 	0.28392	0.1139	0.1513	-0.504
Mof_O 	O 	0.23208	0.19	0.0938	-0.635
Mof_O 	O 	0.26336	0.8608	0.355	-0.583
Mof_O 	O 	0.2013	0.8066	0.3368	-0.521
Mof_O 	O 	0.37601	0.2738	0.0333	-0.354
Mof_O 	O 	0.36372	0.1948	0.1895	-0.294
Mof_C 	C 	0.2455	0.1253	0.1369	0.465
Mof_C 	C 	0.2176	0.0606	0.1685	-0.243
Mof_C 	C 	0.2333	0.9954	0.2317	0.167
Mof_H 	H 	0.2611	0.9929	0.2578	-0.019
Mof_C 	C 	0.208	0.9339	0.2564	-0.239
Mof_C 	C 	0.2259	0.8624	0.3234	0.524
Mof_C 	C 	0.1673	0.9363	0.2174	0.127
Mof_H 	H 	0.1508	0.8939	0.2342	0.005
Mof_C 	C 	0.1499	0.9997	0.1539	-0.165
Mof_C 	C 	0.1771	0.062	0.1272	0.131
Mof_H 	H 	0.1669	0.1048	0.0801	-0.041
Mof_C 	C 	0.1059	0.0048	0.1107	0.214
Mof_C 	C 	0.0791	0.9552	0.155	-0.204
Mof_H 	H 	0.0879	0.9184	0.2176	0.119
Mof_C 	C 	0.0375	0.9568	0.11	0.057
Mof_H 	H 	0.0198	0.9215	0.1468	0.022
Mof_C 	C 	0.0224	0.0028	0.0232	-0.053
Mof_C 	C 	0.0492	0.0567	0.002	0.084
Mof_H 	H 	0.0396	0.1004	0.9562	0.017
Mof_C 	C 	0.0893	0.0552	0.0411	-0.251
Mof_H 	H 	0.1056	0.0954	0.013	0.132
Mof_N 	N 	0.3867	0.2461	0.1459	0.073
Mof_O 	O 	0.4166	0.2703	0.2115	-0.132
Mof_Eu	Eu	0.80826	0.70956	0.00171	2.105
Mof_O 	O 	0.78392	0.6139	0.1513	-0.505
Mof_O 	O 	0.73208	0.69	0.0938	-0.636
Mof_O 	O 	0.76336	0.3608	0.355	-0.584
Mof_O 	O 	0.7013	0.3066	0.3368	-0.522
Mof_O 	O 	0.87601	0.7738	0.0333	-0.353
Mof_O 	O 	0.86372	0.6948	0.1895	-0.294
Mof_C 	C 	0.7455	0.6253	0.1369	0.465
Mof_C 	C 	0.7176	0.5606	0.1685	-0.244
Mof_C 	C 	0.7333	0.4954	0.2317	0.168
Mof_H 	H 	0.7611	0.4929	0.2578	-0.019
Mof_C 	C 	0.708	0.4339	0.2564	-0.241
Mof_C 	C 	0.7259	0.3624	0.3234	0.524
Mof_C 	C 	0.6673	0.4363	0.2174	0.13
Mof_H 	H 	0.6508	0.3939	0.2342	0.003
Mof_C 	C 	0.6499	0.4997	0.1539	-0.17
Mof_C 	C 	0.6771	0.562	0.1272	0.134
Mof_H 	H 	0.6669	0.6048	0.0801	-0.042
Mof_C 	C 	0.6059	0.5048	0.1107	0.222
Mof_C 	C 	0.5791	0.4552	0.155	-0.209
Mof_H 	H 	0.5879	0.4184	0.2176	0.121
Mof_C 	C 	0.5375	0.4568	0.11	0.06
Mof_H 	H 	0.5198	0.4215	0.1468	0.022
Mof_C 	C 	0.5224	0.5028	0.0232	-0.055
Mof_C 	C 	0.5492	0.5567	0.002	0.09
Mof_H 	H 	0.5396	0.6004	0.9562	0.014
Mof_C 	C 	0.5893	0.5552	0.0411	-0.258
Mof_H 	H 	0.6056	0.5954	0.013	0.134
Mof_N 	N 	0.8867	0.7461	0.1459	0.073
Mof_O 	O 	0.9166	0.7703	0.2115	-0.132
Mof_Eu	Eu	0.69174	0.20956	0.49829	2.103
Mof_O 	O 	0.71608	0.1139	0.3487	-0.505
Mof_O 	O 	0.76792	0.19	0.4062	-0.636
Mof_O 	O 	0.73664	0.8608	0.145	-0.584
Mof_O 	O 	0.7987	0.8066	0.1632	-0.522
Mof_O 	O 	0.62399	0.2738	0.4667	-0.354
Mof_O 	O 	0.63628	0.1948	0.3105	-0.294
Mof_C 	C 	0.7545	0.1253	0.3631	0.465
Mof_C 	C 	0.7824	0.0606	0.3315	-0.244
Mof_C 	C 	0.7667	0.9954	0.2683	0.167
Mof_H 	H 	0.7389	0.9929	0.2422	-0.019
Mof_C 	C 	0.792	0.9339	0.2436	-0.24
Mof_C 	C 	0.7741	0.8624	0.1766	0.524
Mof_C 	C 	0.8327	0.9363	0.2826	0.128
Mof_H 	H 	0.8492	0.8939	0.2658	0.004
Mof_C 	C 	0.8501	0.9997	0.3461	-0.168
Mof_C 	C 	0.8229	0.062	0.3728	0.133
Mof_H 	H 	0.8331	0.1048	0.4199	-0.041
Mof_C 	C 	0.8941	0.0048	0.3893	0.218
Mof_C 	C 	0.9209	0.9552	0.345	-0.207
Mof_H 	H 	0.9121	0.9184	0.2824	0.12
Mof_C 	C 	0.9625	0.9568	0.39	0.059
Mof_H 	H 	0.9802	0.9215	0.3532	0.022
Mof_C 	C 	0.9776	0.0028	0.4768	-0.054
Mof_C 	C 	0.9508	0.0567	0.498	0.087
Mof_H 	H 	0.9604	0.1004	0.5438	0.015
Mof_C 	C 	0.9107	0.0552	0.4589	-0.255
Mof_H 	H 	0.8944	0.0954	0.487	0.133
Mof_N 	N 	0.6133	0.2461	0.3541	0.073
Mof_O 	O 	0.5834	0.2703	0.2885	-0.132
Mof_Eu	Eu	0.19174	0.70956	0.49829	2.103
Mof_O 	O 	0.21608	0.6139	0.3487	-0.505
Mof_O 	O 	0.26792	0.69	0.4062	-0.636
Mof_O 	O 	0.23664	0.3608	0.145	-0.584
Mof_O 	O 	0.2987	0.3066	0.1632	-0.522
Mof_O 	O 	0.12399	0.7738	0.4667	-0.354
Mof_O 	O 	0.13628	0.6948	0.3105	-0.293
Mof_C 	C 	0.2545	0.6253	0.3631	0.465
Mof_C 	C 	0.2824	0.5606	0.3315	-0.243
Mof_C 	C 	0.2667	0.4954	0.2683	0.168
Mof_H 	H 	0.2389	0.4929	0.2422	-0.019
Mof_C 	C 	0.292	0.4339	0.2436	-0.241
Mof_C 	C 	0.2741	0.3624	0.1766	0.524
Mof_C 	C 	0.3327	0.4363	0.2826	0.129
Mof_H 	H 	0.3492	0.3939	0.2658	0.004
Mof_C 	C 	0.3501	0.4997	0.3461	-0.169
Mof_C 	C 	0.3229	0.562	0.3728	0.134
Mof_H 	H 	0.3331	0.6048	0.4199	-0.042
Mof_C 	C 	0.3941	0.5048	0.3893	0.221
Mof_C 	C 	0.4209	0.4552	0.345	-0.208
Mof_H 	H 	0.4121	0.4184	0.2824	0.121
Mof_C 	C 	0.4625	0.4568	0.39	0.06
Mof_H 	H 	0.4802	0.4215	0.3532	0.022
Mof_C 	C 	0.4776	0.5028	0.4768	-0.054
Mof_C 	C 	0.4508	0.5567	0.498	0.088
Mof_H 	H 	0.4604	0.6004	0.5438	0.015
Mof_C 	C 	0.4107	0.5552	0.4589	-0.257
Mof_H 	H 	0.3944	0.5954	0.487	0.134
Mof_N 	N 	0.1133	0.7461	0.3541	0.073
Mof_O 	O 	0.0834	0.7703	0.2885	-0.132
Mof_Eu	Eu	0.69174	0.79044	0.99829	2.103
Mof_O 	O 	0.71608	0.8861	0.8487	-0.505
Mof_O 	O 	0.76792	0.81	0.9062	-0.636
Mof_O 	O 	0.73664	0.1392	0.645	-0.584
Mof_O 	O 	0.7987	0.1934	0.6632	-0.521
Mof_O 	O 	0.62399	0.7262	0.9667	-0.354
Mof_O 	O 	0.63628	0.8052	0.8105	-0.294
Mof_C 	C 	0.7545	0.8747	0.8631	0.465
Mof_C 	C 	0.7824	0.9394	0.8315	-0.243
Mof_C 	C 	0.7667	0.0046	0.7683	0.167
Mof_H 	H 	0.7389	0.0071	0.7422	-0.019
Mof_C 	C 	0.792	0.0661	0.7436	-0.239
Mof_C 	C 	0.7741	0.1376	0.6766	0.524
Mof_C 	C 	0.8327	0.0637	0.7826	0.127
Mof_H 	H 	0.8492	0.1061	0.7658	0.005
Mof_C 	C 	0.8501	0.0003	0.8461	-0.165
Mof_C 	C 	0.8229	0.938	0.8728	0.131
Mof_H 	H 	0.8331	0.8952	0.9199	-0.041
Mof_C 	C 	0.8941	0.9952	0.8893	0.214
Mof_C 	C 	0.9209	0.0448	0.845	-0.204
Mof_H 	H 	0.9121	0.0816	0.7824	0.119
Mof_C 	C 	0.9625	0.0432	0.89	0.057
Mof_H 	H 	0.9802	0.0785	0.8532	0.022
Mof_C 	C 	0.9776	0.9972	0.9768	-0.053
Mof_C 	C 	0.9508	0.9433	0.998	0.084
Mof_H 	H 	0.9604	0.8996	0.0438	0.017
Mof_C 	C 	0.9107	0.9448	0.9589	-0.251
Mof_H 	H 	0.8944	0.9046	0.987	0.132
Mof_N 	N 	0.6133	0.7539	0.8541	0.073
Mof_O 	O 	0.5834	0.7297	0.7885	-0.132
Mof_Eu	Eu	0.19174	0.29044	0.99829	2.105
Mof_O 	O 	0.21608	0.3861	0.8487	-0.505
Mof_O 	O 	0.26792	0.31	0.9062	-0.636
Mof_O 	O 	0.23664	0.6392	0.645	-0.584
Mof_O 	O 	0.2987	0.6934	0.6632	-0.522
Mof_O 	O 	0.12399	0.2262	0.9667	-0.353
Mof_O 	O 	0.13628	0.3052	0.8105	-0.294
Mof_C 	C 	0.2545	0.3747	0.8631	0.465
Mof_C 	C 	0.2824	0.4394	0.8315	-0.244
Mof_C 	C 	0.2667	0.5046	0.7683	0.168
Mof_H 	H 	0.2389	0.5071	0.7422	-0.019
Mof_C 	C 	0.292	0.5661	0.7436	-0.241
Mof_C 	C 	0.2741	0.6376	0.6766	0.524
Mof_C 	C 	0.3327	0.5637	0.7826	0.13
Mof_H 	H 	0.3492	0.6061	0.7658	0.003
Mof_C 	C 	0.3501	0.5003	0.8461	-0.17
Mof_C 	C 	0.3229	0.438	0.8728	0.134
Mof_H 	H 	0.3331	0.3952	0.9199	-0.042
Mof_C 	C 	0.3941	0.4952	0.8893	0.222
Mof_C 	C 	0.4209	0.5448	0.845	-0.209
Mof_H 	H 	0.4121	0.5816	0.7824	0.121
Mof_C 	C 	0.4625	0.5432	0.89	0.06
Mof_H 	H 	0.4802	0.5785	0.8532	0.022
Mof_C 	C 	0.4776	0.4972	0.9768	-0.055
Mof_C 	C 	0.4508	0.4433	0.998	0.09
Mof_H 	H 	0.4604	0.3996	0.0438	0.014
Mof_C 	C 	0.4107	0.4448	0.9589	-0.258
Mof_H 	H 	0.3944	0.4046	0.987	0.134
Mof_N 	N 	0.1133	0.2539	0.8541	0.073
Mof_O 	O 	0.0834	0.2297	0.7885	-0.132
Mof_Eu	Eu	0.30826	0.79044	0.50171	2.103
Mof_O 	O 	0.28392	0.8861	0.6513	-0.505
Mof_O 	O 	0.23208	0.81	0.5938	-0.636
Mof_O 	O 	0.26336	0.1392	0.855	-0.584
Mof_O 	O 	0.2013	0.1934	0.8368	-0.522
Mof_O 	O 	0.37601	0.7262	0.5333	-0.354
Mof_O 	O 	0.36372	0.8052	0.6895	-0.294
Mof_C 	C 	0.2455	0.8747	0.6369	0.465
Mof_C 	C 	0.2176	0.9394	0.6685	-0.244
Mof_C 	C 	0.2333	0.0046	0.7317	0.167
Mof_H 	H 	0.2611	0.0071	0.7578	-0.019
Mof_C 	C 	0.208	0.0661	0.7564	-0.24
Mof_C 	C 	0.2259	0.1376	0.8234	0.524
Mof_C 	C 	0.1673	0.0637	0.7174	0.128
Mof_H 	H 	0.1508	0.1061	0.7342	0.004
Mof_C 	C 	0.1499	0.0003	0.6539	-0.168
Mof_C 	C 	0.1771	0.938	0.6272	0.133
Mof_H 	H 	0.1669	0.8952	0.5801	-0.041
Mof_C 	C 	0.1059	0.9952	0.6107	0.218
Mof_C 	C 	0.0791	0.0448	0.655	-0.207
Mof_H 	H 	0.0879	0.0816	0.7176	0.12
Mof_C 	C 	0.0375	0.0432	0.61	0.059
Mof_H 	H 	0.0198	0.0785	0.6468	0.022
Mof_C 	C 	0.0224	0.9972	0.5232	-0.054
Mof_C 	C 	0.0492	0.9433	0.502	0.087
Mof_H 	H 	0.0396	0.8996	0.4562	0.015
Mof_C 	C 	0.0893	0.9448	0.5411	-0.255
Mof_H 	H 	0.1056	0.9046	0.513	0.133
Mof_N 	N 	0.3867	0.7539	0.6459	0.073
Mof_O 	O 	0.4166	0.7297	0.7115	-0.132
Mof_Eu	Eu	0.80826	0.29044	0.50171	2.103
Mof_O 	O 	0.78392	0.3861	0.6513	-0.505
Mof_O 	O 	0.73208	0.31	0.5938	-0.636
Mof_O 	O 	0.76336	0.6392	0.855	-0.584
Mof_O 	O 	0.7013	0.6934	0.8368	-0.522
Mof_O 	O 	0.87601	0.2262	0.5333	-0.354
Mof_O 	O 	0.86372	0.3052	0.6895	-0.293
Mof_C 	C 	0.7455	0.3747	0.6369	0.465
Mof_C 	C 	0.7176	0.4394	0.6685	-0.243
Mof_C 	C 	0.7333	0.5046	0.7317	0.168
Mof_H 	H 	0.7611	0.5071	0.7578	-0.019
Mof_C 	C 	0.708	0.5661	0.7564	-0.241
Mof_C 	C 	0.7259	0.6376	0.8234	0.524
Mof_C 	C 	0.6673	0.5637	0.7174	0.129
Mof_H 	H 	0.6508	0.6061	0.7342	0.004
Mof_C 	C 	0.6499	0.5003	0.6539	-0.169
Mof_C 	C 	0.6771	0.438	0.6272	0.134
Mof_H 	H 	0.6669	0.3952	0.5801	-0.042
Mof_C 	C 	0.6059	0.4952	0.6107	0.221
Mof_C 	C 	0.5791	0.5448	0.655	-0.208
Mof_H 	H 	0.5879	0.5816	0.7176	0.121
Mof_C 	C 	0.5375	0.5432	0.61	0.06
Mof_H 	H 	0.5198	0.5785	0.6468	0.022
Mof_C 	C 	0.5224	0.4972	0.5232	-0.054
Mof_C 	C 	0.5492	0.4433	0.502	0.088
Mof_H 	H 	0.5396	0.3996	0.4562	0.015
Mof_C 	C 	0.5893	0.4448	0.5411	-0.257
Mof_H 	H 	0.6056	0.4046	0.513	0.134
Mof_N 	N 	0.8867	0.2539	0.6459	0.073
Mof_O 	O 	0.9166	0.2297	0.7115	-0.132
_end
