# CIF file generated by openbabel 3.1.0, see https://openbabel.org
data_I
_chemical_name_common 'image0'
_cell_length_a 6.907
_cell_length_b 21.897
_cell_length_c 23.151
_cell_angle_alpha 90
_cell_angle_beta 90
_cell_angle_gamma 90
_space_group_name_H-M_alt 'P 1'
_space_group_name_Hall 'P 1'
loop_
    _symmetry_equiv_pos_as_xyz
    x,y,z
loop_
    _atom_site_label
    _atom_site_type_symbol
    _atom_site_fract_x
    _atom_site_fract_y
    _atom_site_fract_z
    _atom_site_occupancy
    Nd1      Nd       0.57830    0.26843    0.44936    1.000
    O1       O        0.60060    0.31026    0.34950    1.000
    O2       O        0.56640    0.21088    0.35873    1.000
    O3       O        0.79820    0.35142    0.46075    1.000
    O4       O        0.41500    0.22452    0.05241    1.000
    O5       O        0.72840    0.23946    0.05149    1.000
    O6       O        0.04940    0.33625    0.52031    1.000
    C1       C        0.58240    0.25770    0.32740    1.000
    C2       C        0.57950    0.24970    0.26340    1.000
    C3       C        0.57070    0.19180    0.23980    1.000
    H1       H        0.56460    0.15760    0.26360    1.000
    C4       C        0.58680    0.30020    0.22710    1.000
    H2       H        0.59280    0.33920    0.24290    1.000
    C5       C        0.57300    0.23150    0.07850    1.000
    C6       C        0.57650    0.23470    0.14380    1.000
    C7       C        0.58530    0.29310    0.16750    1.000
    H3       H        0.59010    0.32710    0.14360    1.000
    C8       C        0.57100    0.18540    0.18040    1.000
    O7       O        0.60210    0.11700    0.10500    1.000
    O8       O        0.53500    0.08260    0.18870    1.000
    N1       N        0.56830    0.12390    0.15620    1.000
    N2       N        0.09760    0.43080    0.59950    1.000
    O9       O        0.96100    0.41370    0.62970    1.000
    O10      O        0.26300    0.42450    0.61070    1.000
    C9       C        0.93130    0.36970    0.49320    1.000
    C10      C        0.89800    0.47500    0.45340    1.000
    C11      C        0.06280    0.46270    0.54410    1.000
    C12      C        0.96410    0.43740    0.49800    1.000
    Nd2      Nd       0.92170    0.73157    0.94936    1.000
    O11      O        0.89940    0.68974    0.84950    1.000
    O12      O        0.93360    0.78912    0.85873    1.000
    O13      O        0.70180    0.64858    0.96075    1.000
    O14      O        0.08500    0.77548    0.55241    1.000
    O15      O        0.77160    0.76054    0.55149    1.000
    O16      O        0.45060    0.66375    0.02031    1.000
    C13      C        0.91760    0.74230    0.82740    1.000
    C14      C        0.92050    0.75030    0.76340    1.000
    C15      C        0.92930    0.80820    0.73980    1.000
    H4       H        0.93540    0.84240    0.76360    1.000
    C16      C        0.91320    0.69980    0.72710    1.000
    H5       H        0.90720    0.66080    0.74290    1.000
    C17      C        0.92700    0.76850    0.57850    1.000
    C18      C        0.92350    0.76530    0.64380    1.000
    C19      C        0.91470    0.70690    0.66750    1.000
    H6       H        0.90990    0.67290    0.64360    1.000
    C20      C        0.92900    0.81460    0.68040    1.000
    O17      O        0.89790    0.88300    0.60500    1.000
    O18      O        0.96500    0.91740    0.68870    1.000
    N3       N        0.93170    0.87610    0.65620    1.000
    N4       N        0.40240    0.56920    0.09950    1.000
    O19      O        0.53900    0.58630    0.12970    1.000
    O20      O        0.23700    0.57550    0.11070    1.000
    C21      C        0.56870    0.63030    0.99320    1.000
    C22      C        0.60200    0.52500    0.95340    1.000
    C23      C        0.43720    0.53730    0.04410    1.000
    C24      C        0.53590    0.56260    0.99800    1.000
    Nd3      Nd       0.42170    0.76843    0.05064    1.000
    O21      O        0.39940    0.81026    0.15050    1.000
    O22      O        0.43360    0.71088    0.14127    1.000
    O23      O        0.20180    0.85142    0.03925    1.000
    O24      O        0.58500    0.72452    0.44759    1.000
    O25      O        0.27160    0.73946    0.44851    1.000
    O26      O        0.95060    0.83625    0.97969    1.000
    C25      C        0.41760    0.75770    0.17260    1.000
    C26      C        0.42050    0.74970    0.23660    1.000
    C27      C        0.42930    0.69180    0.26020    1.000
    H7       H        0.43540    0.65760    0.23640    1.000
    C28      C        0.41320    0.80020    0.27290    1.000
    H8       H        0.40720    0.83920    0.25710    1.000
    C29      C        0.42700    0.73150    0.42150    1.000
    C30      C        0.42350    0.73470    0.35620    1.000
    C31      C        0.41470    0.79310    0.33250    1.000
    H9       H        0.40990    0.82710    0.35640    1.000
    C32      C        0.42900    0.68540    0.31960    1.000
    O27      O        0.39790    0.61700    0.39500    1.000
    O28      O        0.46500    0.58260    0.31130    1.000
    N5       N        0.43170    0.62390    0.34380    1.000
    N6       N        0.90240    0.93080    0.90050    1.000
    O29      O        0.03900    0.91370    0.87030    1.000
    O30      O        0.73700    0.92450    0.88930    1.000
    C33      C        0.06870    0.86970    0.00680    1.000
    C34      C        0.10200    0.97500    0.04660    1.000
    C35      C        0.93720    0.96270    0.95590    1.000
    C36      C        0.03590    0.93740    0.00200    1.000
    Nd4      Nd       0.07830    0.23157    0.55064    1.000
    O31      O        0.10060    0.18974    0.65050    1.000
    O32      O        0.06640    0.28912    0.64127    1.000
    O33      O        0.29820    0.14858    0.53925    1.000
    O34      O        0.91500    0.27548    0.94759    1.000
    O35      O        0.22840    0.26054    0.94851    1.000
    O36      O        0.54940    0.16375    0.47969    1.000
    C37      C        0.08240    0.24230    0.67260    1.000
    C38      C        0.07950    0.25030    0.73660    1.000
    C39      C        0.07070    0.30820    0.76020    1.000
    H10      H        0.06460    0.34240    0.73640    1.000
    C40      C        0.08680    0.19980    0.77290    1.000
    H11      H        0.09280    0.16080    0.75710    1.000
    C41      C        0.07300    0.26850    0.92150    1.000
    C42      C        0.07650    0.26530    0.85620    1.000
    C43      C        0.08530    0.20690    0.83250    1.000
    H12      H        0.09010    0.17290    0.85640    1.000
    C44      C        0.07100    0.31460    0.81960    1.000
    O37      O        0.10210    0.38300    0.89500    1.000
    O38      O        0.03500    0.41740    0.81130    1.000
    N7       N        0.06830    0.37610    0.84380    1.000
    N8       N        0.59760    0.06920    0.40050    1.000
    O39      O        0.46100    0.08630    0.37030    1.000
    O40      O        0.76300    0.07550    0.38930    1.000
    C45      C        0.43130    0.13030    0.50680    1.000
    C46      C        0.39800    0.02500    0.54660    1.000
    C47      C        0.56280    0.03730    0.45590    1.000
    C48      C        0.46410    0.06260    0.50200    1.000
    Nd5      Nd       0.42170    0.73157    0.55064    1.000
    O41      O        0.39940    0.68974    0.65050    1.000
    O42      O        0.43360    0.78912    0.64127    1.000
    O43      O        0.20180    0.64858    0.53925    1.000
    O44      O        0.58500    0.77548    0.94759    1.000
    O45      O        0.27160    0.76054    0.94851    1.000
    O46      O        0.95060    0.66375    0.47969    1.000
    C49      C        0.41760    0.74230    0.67260    1.000
    C50      C        0.42050    0.75030    0.73660    1.000
    C51      C        0.42930    0.80820    0.76020    1.000
    H13      H        0.43540    0.84240    0.73640    1.000
    C52      C        0.41320    0.69980    0.77290    1.000
    H14      H        0.40720    0.66080    0.75710    1.000
    C53      C        0.42700    0.76850    0.92150    1.000
    C54      C        0.42350    0.76530    0.85620    1.000
    C55      C        0.41470    0.70690    0.83250    1.000
    H15      H        0.40990    0.67290    0.85640    1.000
    C56      C        0.42900    0.81460    0.81960    1.000
    O47      O        0.39790    0.88300    0.89500    1.000
    O48      O        0.46500    0.91740    0.81130    1.000
    N9       N        0.43170    0.87610    0.84380    1.000
    N10      N        0.90240    0.56920    0.40050    1.000
    O49      O        0.03900    0.58630    0.37030    1.000
    O50      O        0.73700    0.57550    0.38930    1.000
    C57      C        0.06870    0.63030    0.50680    1.000
    C58      C        0.10200    0.52500    0.54660    1.000
    C59      C        0.93720    0.53730    0.45590    1.000
    C60      C        0.03590    0.56260    0.50200    1.000
    Nd6      Nd       0.07830    0.26843    0.05064    1.000
    O51      O        0.10060    0.31026    0.15050    1.000
    O52      O        0.06640    0.21088    0.14127    1.000
    O53      O        0.29820    0.35142    0.03925    1.000
    O54      O        0.91500    0.22452    0.44759    1.000
    O55      O        0.22840    0.23946    0.44851    1.000
    O56      O        0.54940    0.33625    0.97969    1.000
    C61      C        0.08240    0.25770    0.17260    1.000
    C62      C        0.07950    0.24970    0.23660    1.000
    C63      C        0.07070    0.19180    0.26020    1.000
    H16      H        0.06460    0.15760    0.23640    1.000
    C64      C        0.08680    0.30020    0.27290    1.000
    H17      H        0.09280    0.33920    0.25710    1.000
    C65      C        0.07300    0.23150    0.42150    1.000
    C66      C        0.07650    0.23470    0.35620    1.000
    C67      C        0.08530    0.29310    0.33250    1.000
    H18      H        0.09010    0.32710    0.35640    1.000
    C68      C        0.07100    0.18540    0.31960    1.000
    O57      O        0.10210    0.11700    0.39500    1.000
    O58      O        0.03500    0.08260    0.31130    1.000
    N11      N        0.06830    0.12390    0.34380    1.000
    N12      N        0.59760    0.43080    0.90050    1.000
    O59      O        0.46100    0.41370    0.87030    1.000
    O60      O        0.76300    0.42450    0.88930    1.000
    C69      C        0.43130    0.36970    0.00680    1.000
    C70      C        0.39800    0.47500    0.04660    1.000
    C71      C        0.56280    0.46270    0.95590    1.000
    C72      C        0.46410    0.43740    0.00200    1.000
    Nd7      Nd       0.57830    0.23157    0.94936    1.000
    O61      O        0.60060    0.18974    0.84950    1.000
    O62      O        0.56640    0.28912    0.85873    1.000
    O63      O        0.79820    0.14858    0.96075    1.000
    O64      O        0.41500    0.27548    0.55241    1.000
    O65      O        0.72840    0.26054    0.55149    1.000
    O66      O        0.04940    0.16375    0.02031    1.000
    C73      C        0.58240    0.24230    0.82740    1.000
    C74      C        0.57950    0.25030    0.76340    1.000
    C75      C        0.57070    0.30820    0.73980    1.000
    H19      H        0.56460    0.34240    0.76360    1.000
    C76      C        0.58680    0.19980    0.72710    1.000
    H20      H        0.59280    0.16080    0.74290    1.000
    C77      C        0.57300    0.26850    0.57850    1.000
    C78      C        0.57650    0.26530    0.64380    1.000
    C79      C        0.58530    0.20690    0.66750    1.000
    H21      H        0.59010    0.17290    0.64360    1.000
    C80      C        0.57100    0.31460    0.68040    1.000
    O67      O        0.60210    0.38300    0.60500    1.000
    O68      O        0.53500    0.41740    0.68870    1.000
    N13      N        0.56830    0.37610    0.65620    1.000
    N14      N        0.09760    0.06920    0.09950    1.000
    O69      O        0.96100    0.08630    0.12970    1.000
    O70      O        0.26300    0.07550    0.11070    1.000
    C81      C        0.93130    0.13030    0.99320    1.000
    C82      C        0.89800    0.02500    0.95340    1.000
    C83      C        0.06280    0.03730    0.04410    1.000
    C84      C        0.96410    0.06260    0.99800    1.000
    Nd8      Nd       0.92170    0.76843    0.44936    1.000
    O71      O        0.89940    0.81026    0.34950    1.000
    O72      O        0.93360    0.71088    0.35873    1.000
    O73      O        0.70180    0.85142    0.46075    1.000
    O74      O        0.08500    0.72452    0.05241    1.000
    O75      O        0.77160    0.73946    0.05149    1.000
    O76      O        0.45060    0.83625    0.52031    1.000
    C85      C        0.91760    0.75770    0.32740    1.000
    C86      C        0.92050    0.74970    0.26340    1.000
    C87      C        0.92930    0.69180    0.23980    1.000
    H22      H        0.93540    0.65760    0.26360    1.000
    C88      C        0.91320    0.80020    0.22710    1.000
    H23      H        0.90720    0.83920    0.24290    1.000
    C89      C        0.92700    0.73150    0.07850    1.000
    C90      C        0.92350    0.73470    0.14380    1.000
    C91      C        0.91470    0.79310    0.16750    1.000
    H24      H        0.90990    0.82710    0.14360    1.000
    C92      C        0.92900    0.68540    0.18040    1.000
    O77      O        0.89790    0.61700    0.10500    1.000
    O78      O        0.96500    0.58260    0.18870    1.000
    N15      N        0.93170    0.62390    0.15620    1.000
    N16      N        0.40240    0.93080    0.59950    1.000
    O79      O        0.53900    0.91370    0.62970    1.000
    O80      O        0.23700    0.92450    0.61070    1.000
    C93      C        0.56870    0.86970    0.49320    1.000
    C94      C        0.60200    0.97500    0.45340    1.000
    C95      C        0.43720    0.96270    0.54410    1.000
    C96      C        0.53590    0.93740    0.49800    1.000
