data_functionalizedCrystal
_audit_creation_method	'EQeq! by Chris Wilmer'
_symmetry_space_group_name_H-M	'P1'
_symmetry_Int_Tables_number	1
_symmetry_cell_setting	triclinic
loop_
_symmetry_equiv_pos_as_xyz
  x,y,z
_cell_length_a	13.4418
_cell_length_b	13.4418
_cell_length_c	13.4418
_cell_angle_alpha	94.7747
_cell_angle_beta	117.283
_cell_angle_gamma	117.283
loop_
_atom_site_label
_atom_site_type_symbol
_atom_site_fract_x
_atom_site_fract_y
_atom_site_fract_z
_atom_site_charge
Mof_La	La	0.736	0.875	0.111	1.955
Mof_La	La	0.264	0.375	0.139	2.097
Mof_La	La	0.764	0.889	0.625	2.057
Mof_La	La	0.236	0.861	0.125	1.999
Mof_H 	H 	0.1149	0.9328	0.3591	0.133
Mof_H 	H 	0.1039	0.0021	0.4498	0.209
Mof_H 	H 	0.5477	0.9696	0.8125	0.095
Mof_H 	H 	0.4759	0.8317	0.7448	0.098
Mof_H 	H 	0.8851	0.2442	0.8179	0.11
Mof_H 	H 	0.8961	0.3459	0.8982	0.12
Mof_H 	H 	0.4523	0.2648	0.4219	0.124
Mof_H 	H 	0.5241	0.2689	0.3558	0.104
Mof_H 	H 	0.5737	0.6409	0.7558	0.092
Mof_H 	H 	0.5523	0.5502	0.6541	0.088
Mof_H 	H 	0.1571	0.1875	0.7352	0.124
Mof_H 	H 	0.0869	0.2552	0.7311	0.104
Mof_H 	H 	0.4263	0.1821	0.0672	0.155
Mof_H 	H 	0.4477	0.1018	0.9979	0.247
Mof_H 	H 	0.8429	0.5781	0.0304	0.094
Mof_H 	H 	0.9131	0.6442	0.1683	0.097
Mof_H 	H 	0.0737	0.5058	0.8909	0.12
Mof_H 	H 	0.0523	0.4041	0.8002	0.107
Mof_H 	H 	0.6571	0.4852	0.4375	0.115
Mof_H 	H 	0.5869	0.4811	0.5052	0.107
Mof_H 	H 	0.9263	0.8172	0.4321	0.065
Mof_H 	H 	0.9477	0.7479	0.3518	0.076
Mof_H 	H 	0.3429	0.7804	0.8281	0.088
Mof_H 	H 	0.4131	0.9183	0.8942	0.06
Mof_H 	H 	0.3851	0.5679	0.4942	0.079
Mof_H 	H 	0.3961	0.6482	0.5959	0.084
Mof_H 	H 	0.9523	0.1719	0.5148	0.09
Mof_H 	H 	0.0241	0.1058	0.5189	0.082
Mof_H 	H 	0.6149	0.1091	0.1828	0.112
Mof_H 	H 	0.6039	0.1998	0.2521	0.105
Mof_H 	H 	0.0477	0.5625	0.2196	0.107
Mof_H 	H 	0.9759	0.4948	0.0817	0.068
Mof_C 	C 	0.0831	0.0618	0.3097	0.496
Mof_C 	C 	0.0669	0.9666	0.3653	-0.418
Mof_C 	C 	0.6833	0.9245	0.8426	0.485
Mof_C 	C 	0.5511	0.8999	0.8198	-0.238
Mof_C 	C 	0.9169	0.2266	0.9787	0.494
Mof_C 	C 	0.9331	0.2984	0.8997	-0.246
Mof_C 	C 	0.3167	0.1593	0.2412	0.493
Mof_C 	C 	0.4489	0.2687	0.3488	-0.255
Mof_C 	C 	0.7521	0.6903	0.7734	0.386
Mof_C 	C 	0.6013	0.6347	0.7016	-0.178
Mof_C 	C 	0.0819	0.1574	0.8407	0.486
Mof_C 	C 	0.0801	0.1802	0.7313	-0.246
Mof_C 	C 	0.2479	0.0213	0.9382	0.601
Mof_C 	C 	0.3987	0.1003	0.0334	-0.507
Mof_C 	C 	0.9181	0.7588	0.0755	0.469
Mof_C 	C 	0.9199	0.6512	0.1001	-0.252
Mof_C 	C 	0.2521	0.5234	0.9403	0.503
Mof_C 	C 	0.1013	0.4516	0.8847	-0.246
Mof_C 	C 	0.5819	0.5907	0.4074	0.502
Mof_C 	C 	0.5801	0.4813	0.4302	-0.259
Mof_C 	C 	0.7479	0.6882	0.2713	0.378
Mof_C 	C 	0.8987	0.7834	0.3503	-0.183
Mof_C 	C 	0.4181	0.8255	0.0088	0.382
Mof_C 	C 	0.4199	0.8501	0.9012	-0.124
Mof_C 	C 	0.4169	0.7287	0.4766	0.379
Mof_C 	C 	0.4331	0.6497	0.5484	-0.173
Mof_C 	C 	0.8167	0.9912	0.4093	0.395
Mof_C 	C 	0.9489	0.0988	0.5187	-0.13
Mof_C 	C 	0.5831	0.0597	0.3118	0.509
Mof_C 	C 	0.5669	0.1153	0.2166	-0.266
Mof_C 	C 	0.1833	0.5926	0.1745	0.481
Mof_C 	C 	0.0511	0.5698	0.1499	-0.227
Mof_O 	O 	0.1907	0.1611	0.372	-0.321
Mof_O 	O 	0.9874	0.0299	0.2029	-0.387
Mof_O 	O 	0.7593	0.9213	0.9402	-0.422
Mof_O 	O 	0.7039	0.9446	0.7643	-0.508
Mof_O 	O 	0.8093	0.1813	0.9704	-0.274
Mof_O 	O 	0.0126	0.2155	0.0425	-0.487
Mof_O 	O 	0.2407	0.1809	0.162	-0.459
Mof_O 	O 	0.2961	0.0604	0.2407	-0.451
Mof_O 	O 	0.7891	0.628	0.8187	-0.273
Mof_O 	O 	0.827	0.7971	0.7845	-0.411
Mof_O 	O 	0.9811	0.0598	0.8191	-0.396
Mof_O 	O 	0.1803	0.2357	0.9396	-0.448
Mof_O 	O 	0.2109	0.0296	0.8389	-0.324
Mof_O 	O 	0.173	0.9575	0.9701	-0.462
Mof_O 	O 	0.0189	0.838	0.0787	-0.471
Mof_O 	O 	0.8197	0.7593	0.0554	-0.508
Mof_O 	O 	0.2891	0.5687	0.878	-0.302
Mof_O 	O 	0.327	0.5345	0.0471	-0.496
Mof_O 	O 	0.4811	0.5691	0.3098	-0.455
Mof_O 	O 	0.6803	0.6896	0.4857	-0.493
Mof_O 	O 	0.7109	0.5889	0.2796	-0.308
Mof_O 	O 	0.673	0.7201	0.2075	-0.407
Mof_O 	O 	0.5189	0.8287	0.088	-0.443
Mof_O 	O 	0.3197	0.8054	0.0093	-0.5
Mof_O 	O 	0.3093	0.7204	0.4313	-0.303
Mof_O 	O 	0.5126	0.7925	0.4655	-0.414
Mof_O 	O 	0.7407	0.912	0.4309	-0.446
Mof_O 	O 	0.7961	0.9907	0.3104	-0.496
Mof_O 	O 	0.6907	0.122	0.4111	-0.307
Mof_O 	O 	0.4874	0.9529	0.2799	-0.495
Mof_O 	O 	0.2593	0.6902	0.1713	-0.451
Mof_O 	O 	0.2039	0.5143	0.1946	-0.497
Mof_O 	O 	0.9279	0.875	0.3029	-0.212
Mof_O 	O 	0.5402	0.875	0.9152	-0.218
Mof_O 	O 	0.0721	0.375	0.9471	-0.178
Mof_O 	O 	0.4598	0.375	0.3348	-0.222
Mof_O 	O 	0.5721	0.6971	0.625	-0.237
Mof_O 	O 	0.9598	0.0848	0.625	-0.212
Mof_O 	O 	0.4279	0.0529	0.125	-0.138
Mof_O 	O 	0.0402	0.6652	0.125	-0.226
_end
