# CIF file generated by openbabel 3.1.0, see https://openbabel.org
data_I
_chemical_name_common 'image0'
_cell_length_a 28.52
_cell_length_b 9.9297
_cell_length_c 30.044
_cell_angle_alpha 90
_cell_angle_beta 116.466
_cell_angle_gamma 90
_space_group_name_H-M_alt 'P 1'
_space_group_name_Hall 'P 1'
loop_
    _symmetry_equiv_pos_as_xyz
    x,y,z
loop_
    _atom_site_label
    _atom_site_type_symbol
    _atom_site_fract_x
    _atom_site_fract_y
    _atom_site_fract_z
    _atom_site_occupancy
    C1       C        0.28334    0.46280    0.40617    1.000
    C2       C        0.25889    0.48190    0.35141    1.000
    C3       C        0.28932    0.51030    0.32739    1.000
    H1       H        0.32560    0.51250    0.34560    1.000
    C4       C        0.26711    0.53530    0.27714    1.000
    H2       H        0.28840    0.55450    0.26180    1.000
    C5       C        0.21359    0.53210    0.24944    1.000
    C6       C        0.18297    0.50010    0.27299    1.000
    H3       H        0.14680    0.49520    0.25470    1.000
    C7       C        0.20576    0.47580    0.32310    1.000
    H4       H        0.18460    0.45460    0.33830    1.000
    C8       C        0.28665    0.43630    0.07315    1.000
    C9       C        0.26388    0.47110    0.10787    1.000
    C10      C        0.24531    0.59780    0.10900    1.000
    H5       H        0.24850    0.66480    0.08890    1.000
    C11      C        0.22222    0.62760    0.13892    1.000
    H6       H        0.20990    0.71430    0.13890    1.000
    C12      C        0.21702    0.53080    0.16900    1.000
    C13      C        0.23678    0.40310    0.16928    1.000
    H7       H        0.23450    0.33710    0.19020    1.000
    C14      C        0.25956    0.37390    0.13913    1.000
    H8       H        0.27240    0.28760    0.13940    1.000
    C15      C        0.92141    0.95060    0.09156    1.000
    H9       H        0.90360    0.98610    0.10840    1.000
    C16      C        0.96854    0.88940    0.11945    1.000
    H10      H        0.98100    0.88200    0.15370    1.000
    C17      C        0.99707    0.83950    0.09704    1.000
    C18      C        0.97512    0.85440    0.04650    1.000
    H11      H        0.99250    0.82210    0.02890    1.000
    C19      C        0.92720    0.91740    0.02155    1.000
    H12      H        0.91380    0.92790    0.98730    1.000
    C20      C        0.04752    0.76860    0.12490    1.000
    C21      C        0.06122    0.66500    0.10218    1.000
    H13      H        0.03860    0.64180    0.06960    1.000
    C22      C        0.10787    0.59510    0.12690    1.000
    H14      H        0.11590    0.52420    0.11120    1.000
    C23      C        0.14249    0.63100    0.17495    1.000
    C24      C        0.12938    0.73350    0.19777    1.000
    H15      H        0.15210    0.75810    0.23020    1.000
    C25      C        0.08236    0.80010    0.17252    1.000
    H16      H        0.07410    0.86940    0.18860    1.000
    C26      C        0.33487    0.17820    0.53840    1.000
    H17      H        0.31360    0.19460    0.55400    1.000
    C27      C        0.37631    0.20120    0.49519    1.000
    H18      H        0.38950    0.23830    0.47460    1.000
    C28      C        0.38649    0.07660    0.51421    1.000
    H19      H        0.40760    0.01260    0.50940    1.000
    C29      C        0.36255    0.94960    0.57323    1.000
    H20      H        0.36670    0.86870    0.55720    1.000
    H21      H        0.32880    0.94310    0.57370    1.000
    C30      C        0.40295    0.94720    0.62487    1.000
    C31      C        0.40070    0.86830    0.65807    1.000
    H22      H        0.37230    0.81030    0.64860    1.000
    C32      C        0.43870    0.86620    0.70712    1.000
    H23      H        0.43440    0.80760    0.72920    1.000
    C33      C        0.48024    0.94270    0.72364    1.000
    C34      C        0.49170    0.98820    0.68660    1.000
    H24      H        0.52570    0.01430    0.69410    1.000
    C35      C        0.45340    0.99550    0.63860    1.000
    H25      H        0.46130    0.03380    0.61450    1.000
    Co1      Co       0.32232    0.46816    0.49798    1.000
    N1       N        0.34360    0.26610    0.51052    1.000
    N2       N        0.35999    0.06200    0.54189    1.000
    N3       N        0.89940    0.96310    0.04316    1.000
    N4       N        0.19058    0.56180    0.19829    1.000
    O1       O        0.33198    0.46840    0.43055    1.000
    O2       O        0.25431    0.44500    0.42734    1.000
    O3       O        0.29513    0.31500    0.06827    1.000
    O4       O        0.29621    0.53350    0.05103    1.000
    C36      C        0.46620    0.07090    0.69450    1.000
    H26      H        0.48500    0.14930    0.70810    1.000
    C37      C        0.42510    0.07160    0.64730    1.000
    H27      H        0.41220    0.15230    0.63050    1.000
    C38      C        0.78334    0.96280    0.40617    1.000
    C39      C        0.75889    0.98190    0.35141    1.000
    C40      C        0.78932    0.01030    0.32739    1.000
    H28      H        0.82560    0.01250    0.34560    1.000
    C41      C        0.76711    0.03530    0.27714    1.000
    H29      H        0.78840    0.05450    0.26180    1.000
    C42      C        0.71359    0.03210    0.24944    1.000
    C43      C        0.68297    0.00010    0.27299    1.000
    H30      H        0.64680    0.99520    0.25470    1.000
    C44      C        0.70576    0.97580    0.32310    1.000
    H31      H        0.68460    0.95460    0.33830    1.000
    C45      C        0.78665    0.93630    0.07315    1.000
    C46      C        0.76388    0.97110    0.10787    1.000
    C47      C        0.74531    0.09780    0.10900    1.000
    H32      H        0.74850    0.16480    0.08890    1.000
    C48      C        0.72222    0.12760    0.13892    1.000
    H33      H        0.70990    0.21430    0.13890    1.000
    C49      C        0.71702    0.03080    0.16900    1.000
    C50      C        0.73678    0.90310    0.16928    1.000
    H34      H        0.73450    0.83710    0.19020    1.000
    C51      C        0.75956    0.87390    0.13913    1.000
    H35      H        0.77240    0.78760    0.13940    1.000
    C52      C        0.42141    0.45060    0.09156    1.000
    H36      H        0.40360    0.48610    0.10840    1.000
    C53      C        0.46854    0.38940    0.11945    1.000
    H37      H        0.48100    0.38200    0.15370    1.000
    C54      C        0.49707    0.33950    0.09704    1.000
    C55      C        0.47512    0.35440    0.04650    1.000
    H38      H        0.49250    0.32210    0.02890    1.000
    C56      C        0.42720    0.41740    0.02155    1.000
    H39      H        0.41380    0.42790    0.98730    1.000
    C57      C        0.54752    0.26860    0.12490    1.000
    C58      C        0.56122    0.16500    0.10218    1.000
    H40      H        0.53860    0.14180    0.06960    1.000
    C59      C        0.60787    0.09510    0.12690    1.000
    H41      H        0.61590    0.02420    0.11120    1.000
    C60      C        0.64249    0.13100    0.17495    1.000
    C61      C        0.62938    0.23350    0.19777    1.000
    H42      H        0.65210    0.25810    0.23020    1.000
    C62      C        0.58236    0.30010    0.17252    1.000
    H43      H        0.57410    0.36940    0.18860    1.000
    C63      C        0.83487    0.67820    0.53840    1.000
    H44      H        0.81360    0.69460    0.55400    1.000
    C64      C        0.87631    0.70120    0.49519    1.000
    H45      H        0.88950    0.73830    0.47460    1.000
    C65      C        0.88649    0.57660    0.51421    1.000
    H46      H        0.90760    0.51260    0.50940    1.000
    C66      C        0.86255    0.44960    0.57323    1.000
    H47      H        0.86670    0.36870    0.55720    1.000
    H48      H        0.82880    0.44310    0.57370    1.000
    C67      C        0.90295    0.44720    0.62487    1.000
    C68      C        0.90070    0.36830    0.65807    1.000
    H49      H        0.87230    0.31030    0.64860    1.000
    C69      C        0.93870    0.36620    0.70712    1.000
    H50      H        0.93440    0.30760    0.72920    1.000
    C70      C        0.98024    0.44270    0.72364    1.000
    C71      C        0.99170    0.48820    0.68660    1.000
    H51      H        0.02570    0.51430    0.69410    1.000
    C72      C        0.95340    0.49550    0.63860    1.000
    H52      H        0.96130    0.53380    0.61450    1.000
    Co2      Co       0.82232    0.96816    0.49798    1.000
    N5       N        0.84360    0.76610    0.51052    1.000
    N6       N        0.85999    0.56200    0.54189    1.000
    N7       N        0.39940    0.46310    0.04316    1.000
    N8       N        0.69058    0.06180    0.19829    1.000
    O5       O        0.83198    0.96840    0.43055    1.000
    O6       O        0.75431    0.94500    0.42734    1.000
    O7       O        0.79513    0.81500    0.06827    1.000
    O8       O        0.79621    0.03350    0.05103    1.000
    C73      C        0.96620    0.57090    0.69450    1.000
    H53      H        0.98500    0.64930    0.70810    1.000
    C74      C        0.92510    0.57160    0.64730    1.000
    H54      H        0.91220    0.65230    0.63050    1.000
    C75      C        0.71666    0.46280    0.09383    1.000
    C76      C        0.74111    0.48190    0.14859    1.000
    C77      C        0.71068    0.51030    0.17261    1.000
    H55      H        0.67440    0.51250    0.15440    1.000
    C78      C        0.73289    0.53530    0.22286    1.000
    H56      H        0.71160    0.55450    0.23820    1.000
    C79      C        0.78641    0.53210    0.25056    1.000
    C80      C        0.81703    0.50010    0.22701    1.000
    H57      H        0.85320    0.49520    0.24530    1.000
    C81      C        0.79424    0.47580    0.17690    1.000
    H58      H        0.81540    0.45460    0.16170    1.000
    C82      C        0.71335    0.43630    0.42685    1.000
    C83      C        0.73612    0.47110    0.39213    1.000
    C84      C        0.75469    0.59780    0.39100    1.000
    H59      H        0.75150    0.66480    0.41110    1.000
    C85      C        0.77778    0.62760    0.36108    1.000
    H60      H        0.79010    0.71430    0.36110    1.000
    C86      C        0.78298    0.53080    0.33100    1.000
    C87      C        0.76322    0.40310    0.33072    1.000
    H61      H        0.76550    0.33710    0.30980    1.000
    C88      C        0.74044    0.37390    0.36087    1.000
    H62      H        0.72760    0.28760    0.36060    1.000
    C89      C        0.07859    0.95060    0.40844    1.000
    H63      H        0.09640    0.98610    0.39160    1.000
    C90      C        0.03146    0.88940    0.38055    1.000
    H64      H        0.01900    0.88200    0.34630    1.000
    C91      C        0.00293    0.83950    0.40296    1.000
    C92      C        0.02488    0.85440    0.45350    1.000
    H65      H        0.00750    0.82210    0.47110    1.000
    C93      C        0.07280    0.91740    0.47845    1.000
    H66      H        0.08620    0.92790    0.51270    1.000
    C94      C        0.95248    0.76860    0.37510    1.000
    C95      C        0.93878    0.66500    0.39782    1.000
    H67      H        0.96140    0.64180    0.43040    1.000
    C96      C        0.89213    0.59510    0.37310    1.000
    H68      H        0.88410    0.52420    0.38880    1.000
    C97      C        0.85751    0.63100    0.32505    1.000
    C98      C        0.87062    0.73350    0.30223    1.000
    H69      H        0.84790    0.75810    0.26980    1.000
    C99      C        0.91764    0.80010    0.32748    1.000
    H70      H        0.92590    0.86940    0.31140    1.000
    C100     C        0.66513    0.17820    0.96160    1.000
    H71      H        0.68640    0.19460    0.94600    1.000
    C101     C        0.62369    0.20120    0.00481    1.000
    H72      H        0.61050    0.23830    0.02540    1.000
    C102     C        0.61351    0.07660    0.98579    1.000
    H73      H        0.59240    0.01260    0.99060    1.000
    C103     C        0.63745    0.94960    0.92677    1.000
    H74      H        0.63330    0.86870    0.94280    1.000
    H75      H        0.67120    0.94310    0.92630    1.000
    C104     C        0.59705    0.94720    0.87513    1.000
    C105     C        0.59930    0.86830    0.84193    1.000
    H76      H        0.62770    0.81030    0.85140    1.000
    C106     C        0.56130    0.86620    0.79288    1.000
    H77      H        0.56560    0.80760    0.77080    1.000
    C107     C        0.51976    0.94270    0.77636    1.000
    C108     C        0.50830    0.98820    0.81340    1.000
    H78      H        0.47430    0.01430    0.80590    1.000
    C109     C        0.54660    0.99550    0.86140    1.000
    H79      H        0.53870    0.03380    0.88550    1.000
    Co3      Co       0.67768    0.46816    0.00202    1.000
    N9       N        0.65640    0.26610    0.98948    1.000
    N10      N        0.64001    0.06200    0.95811    1.000
    N11      N        0.10060    0.96310    0.45684    1.000
    N12      N        0.80942    0.56180    0.30171    1.000
    O9       O        0.66802    0.46840    0.06945    1.000
    O10      O        0.74569    0.44500    0.07266    1.000
    O11      O        0.70487    0.31500    0.43173    1.000
    O12      O        0.70379    0.53350    0.44897    1.000
    C110     C        0.53380    0.07090    0.80550    1.000
    H80      H        0.51500    0.14930    0.79190    1.000
    C111     C        0.57490    0.07160    0.85270    1.000
    H81      H        0.58780    0.15230    0.86950    1.000
    C112     C        0.21666    0.96280    0.09383    1.000
    C113     C        0.24111    0.98190    0.14859    1.000
    C114     C        0.21068    0.01030    0.17261    1.000
    H82      H        0.17440    0.01250    0.15440    1.000
    C115     C        0.23289    0.03530    0.22286    1.000
    H83      H        0.21160    0.05450    0.23820    1.000
    C116     C        0.28641    0.03210    0.25056    1.000
    C117     C        0.31703    0.00010    0.22701    1.000
    H84      H        0.35320    0.99520    0.24530    1.000
    C118     C        0.29424    0.97580    0.17690    1.000
    H85      H        0.31540    0.95460    0.16170    1.000
    C119     C        0.21335    0.93630    0.42685    1.000
    C120     C        0.23612    0.97110    0.39213    1.000
    C121     C        0.25469    0.09780    0.39100    1.000
    H86      H        0.25150    0.16480    0.41110    1.000
    C122     C        0.27778    0.12760    0.36108    1.000
    H87      H        0.29010    0.21430    0.36110    1.000
    C123     C        0.28298    0.03080    0.33100    1.000
    C124     C        0.26322    0.90310    0.33072    1.000
    H88      H        0.26550    0.83710    0.30980    1.000
    C125     C        0.24044    0.87390    0.36087    1.000
    H89      H        0.22760    0.78760    0.36060    1.000
    C126     C        0.57859    0.45060    0.40844    1.000
    H90      H        0.59640    0.48610    0.39160    1.000
    C127     C        0.53146    0.38940    0.38055    1.000
    H91      H        0.51900    0.38200    0.34630    1.000
    C128     C        0.50293    0.33950    0.40296    1.000
    C129     C        0.52488    0.35440    0.45350    1.000
    H92      H        0.50750    0.32210    0.47110    1.000
    C130     C        0.57280    0.41740    0.47845    1.000
    H93      H        0.58620    0.42790    0.51270    1.000
    C131     C        0.45248    0.26860    0.37510    1.000
    C132     C        0.43878    0.16500    0.39782    1.000
    H94      H        0.46140    0.14180    0.43040    1.000
    C133     C        0.39213    0.09510    0.37310    1.000
    H95      H        0.38410    0.02420    0.38880    1.000
    C134     C        0.35751    0.13100    0.32505    1.000
    C135     C        0.37062    0.23350    0.30223    1.000
    H96      H        0.34790    0.25810    0.26980    1.000
    C136     C        0.41764    0.30010    0.32748    1.000
    H97      H        0.42590    0.36940    0.31140    1.000
    C137     C        0.16513    0.67820    0.96160    1.000
    H98      H        0.18640    0.69460    0.94600    1.000
    C138     C        0.12369    0.70120    0.00481    1.000
    H99      H        0.11050    0.73830    0.02540    1.000
    C139     C        0.11351    0.57660    0.98579    1.000
    H100     H        0.09240    0.51260    0.99060    1.000
    C140     C        0.13745    0.44960    0.92677    1.000
    H101     H        0.13330    0.36870    0.94280    1.000
    H102     H        0.17120    0.44310    0.92630    1.000
    C141     C        0.09705    0.44720    0.87513    1.000
    C142     C        0.09930    0.36830    0.84193    1.000
    H103     H        0.12770    0.31030    0.85140    1.000
    C143     C        0.06130    0.36620    0.79288    1.000
    H104     H        0.06560    0.30760    0.77080    1.000
    C144     C        0.01976    0.44270    0.77636    1.000
    C145     C        0.00830    0.48820    0.81340    1.000
    H105     H        0.97430    0.51430    0.80590    1.000
    C146     C        0.04660    0.49550    0.86140    1.000
    H106     H        0.03870    0.53380    0.88550    1.000
    Co4      Co       0.17768    0.96816    0.00202    1.000
    N13      N        0.15640    0.76610    0.98948    1.000
    N14      N        0.14001    0.56200    0.95811    1.000
    N15      N        0.60060    0.46310    0.45684    1.000
    N16      N        0.30942    0.06180    0.30171    1.000
    O13      O        0.16802    0.96840    0.06945    1.000
    O14      O        0.24569    0.94500    0.07266    1.000
    O15      O        0.20487    0.81500    0.43173    1.000
    O16      O        0.20379    0.03350    0.44897    1.000
    C147     C        0.03380    0.57090    0.80550    1.000
    H107     H        0.01500    0.64930    0.79190    1.000
    C148     C        0.07490    0.57160    0.85270    1.000
    H108     H        0.08780    0.65230    0.86950    1.000
    C149     C        0.71666    0.53720    0.59383    1.000
    C150     C        0.74111    0.51810    0.64859    1.000
    C151     C        0.71068    0.48970    0.67261    1.000
    H109     H        0.67440    0.48750    0.65440    1.000
    C152     C        0.73289    0.46470    0.72286    1.000
    H110     H        0.71160    0.44550    0.73820    1.000
    C153     C        0.78641    0.46790    0.75056    1.000
    C154     C        0.81703    0.49990    0.72701    1.000
    H111     H        0.85320    0.50480    0.74530    1.000
    C155     C        0.79424    0.52420    0.67690    1.000
    H112     H        0.81540    0.54540    0.66170    1.000
    C156     C        0.71335    0.56370    0.92685    1.000
    C157     C        0.73612    0.52890    0.89213    1.000
    C158     C        0.75469    0.40220    0.89100    1.000
    H113     H        0.75150    0.33520    0.91110    1.000
    C159     C        0.77778    0.37240    0.86108    1.000
    H114     H        0.79010    0.28570    0.86110    1.000
    C160     C        0.78298    0.46920    0.83100    1.000
    C161     C        0.76322    0.59690    0.83072    1.000
    H115     H        0.76550    0.66290    0.80980    1.000
    C162     C        0.74044    0.62610    0.86087    1.000
    H116     H        0.72760    0.71240    0.86060    1.000
    C163     C        0.07859    0.04940    0.90844    1.000
    H117     H        0.09640    0.01390    0.89160    1.000
    C164     C        0.03146    0.11060    0.88055    1.000
    H118     H        0.01900    0.11800    0.84630    1.000
    C165     C        0.00293    0.16050    0.90296    1.000
    C166     C        0.02488    0.14560    0.95350    1.000
    H119     H        0.00750    0.17790    0.97110    1.000
    C167     C        0.07280    0.08260    0.97845    1.000
    H120     H        0.08620    0.07210    0.01270    1.000
    C168     C        0.95248    0.23140    0.87510    1.000
    C169     C        0.93878    0.33500    0.89782    1.000
    H121     H        0.96140    0.35820    0.93040    1.000
    C170     C        0.89213    0.40490    0.87310    1.000
    H122     H        0.88410    0.47580    0.88880    1.000
    C171     C        0.85751    0.36900    0.82505    1.000
    C172     C        0.87062    0.26650    0.80223    1.000
    H123     H        0.84790    0.24190    0.76980    1.000
    C173     C        0.91764    0.19990    0.82748    1.000
    H124     H        0.92590    0.13060    0.81140    1.000
    C174     C        0.66513    0.82180    0.46160    1.000
    H125     H        0.68640    0.80540    0.44600    1.000
    C175     C        0.62369    0.79880    0.50481    1.000
    H126     H        0.61050    0.76170    0.52540    1.000
    C176     C        0.61351    0.92340    0.48579    1.000
    H127     H        0.59240    0.98740    0.49060    1.000
    C177     C        0.63745    0.05040    0.42677    1.000
    H128     H        0.63330    0.13130    0.44280    1.000
    H129     H        0.67120    0.05690    0.42630    1.000
    C178     C        0.59705    0.05280    0.37513    1.000
    C179     C        0.59930    0.13170    0.34193    1.000
    H130     H        0.62770    0.18970    0.35140    1.000
    C180     C        0.56130    0.13380    0.29288    1.000
    H131     H        0.56560    0.19240    0.27080    1.000
    C181     C        0.51976    0.05730    0.27636    1.000
    C182     C        0.50830    0.01180    0.31340    1.000
    H132     H        0.47430    0.98570    0.30590    1.000
    C183     C        0.54660    0.00450    0.36140    1.000
    H133     H        0.53870    0.96620    0.38550    1.000
    Co5      Co       0.67768    0.53184    0.50202    1.000
    N17      N        0.65640    0.73390    0.48948    1.000
    N18      N        0.64001    0.93800    0.45811    1.000
    N19      N        0.10060    0.03690    0.95684    1.000
    N20      N        0.80942    0.43820    0.80171    1.000
    O17      O        0.66802    0.53160    0.56945    1.000
    O18      O        0.74569    0.55500    0.57266    1.000
    O19      O        0.70487    0.68500    0.93173    1.000
    O20      O        0.70379    0.46650    0.94897    1.000
    C184     C        0.53380    0.92910    0.30550    1.000
    H134     H        0.51500    0.85070    0.29190    1.000
    C185     C        0.57490    0.92840    0.35270    1.000
    H135     H        0.58780    0.84770    0.36950    1.000
    C186     C        0.21666    0.03720    0.59383    1.000
    C187     C        0.24111    0.01810    0.64859    1.000
    C188     C        0.21068    0.98970    0.67261    1.000
    H136     H        0.17440    0.98750    0.65440    1.000
    C189     C        0.23289    0.96470    0.72286    1.000
    H137     H        0.21160    0.94550    0.73820    1.000
    C190     C        0.28641    0.96790    0.75056    1.000
    C191     C        0.31703    0.99990    0.72701    1.000
    H138     H        0.35320    0.00480    0.74530    1.000
    C192     C        0.29424    0.02420    0.67690    1.000
    H139     H        0.31540    0.04540    0.66170    1.000
    C193     C        0.21335    0.06370    0.92685    1.000
    C194     C        0.23612    0.02890    0.89213    1.000
    C195     C        0.25469    0.90220    0.89100    1.000
    H140     H        0.25150    0.83520    0.91110    1.000
    C196     C        0.27778    0.87240    0.86108    1.000
    H141     H        0.29010    0.78570    0.86110    1.000
    C197     C        0.28298    0.96920    0.83100    1.000
    C198     C        0.26322    0.09690    0.83072    1.000
    H142     H        0.26550    0.16290    0.80980    1.000
    C199     C        0.24044    0.12610    0.86087    1.000
    H143     H        0.22760    0.21240    0.86060    1.000
    C200     C        0.57859    0.54940    0.90844    1.000
    H144     H        0.59640    0.51390    0.89160    1.000
    C201     C        0.53146    0.61060    0.88055    1.000
    H145     H        0.51900    0.61800    0.84630    1.000
    C202     C        0.50293    0.66050    0.90296    1.000
    C203     C        0.52488    0.64560    0.95350    1.000
    H146     H        0.50750    0.67790    0.97110    1.000
    C204     C        0.57280    0.58260    0.97845    1.000
    H147     H        0.58620    0.57210    0.01270    1.000
    C205     C        0.45248    0.73140    0.87510    1.000
    C206     C        0.43878    0.83500    0.89782    1.000
    H148     H        0.46140    0.85820    0.93040    1.000
    C207     C        0.39213    0.90490    0.87310    1.000
    H149     H        0.38410    0.97580    0.88880    1.000
    C208     C        0.35751    0.86900    0.82505    1.000
    C209     C        0.37062    0.76650    0.80223    1.000
    H150     H        0.34790    0.74190    0.76980    1.000
    C210     C        0.41764    0.69990    0.82748    1.000
    H151     H        0.42590    0.63060    0.81140    1.000
    C211     C        0.16513    0.32180    0.46160    1.000
    H152     H        0.18640    0.30540    0.44600    1.000
    C212     C        0.12369    0.29880    0.50481    1.000
    H153     H        0.11050    0.26170    0.52540    1.000
    C213     C        0.11351    0.42340    0.48579    1.000
    H154     H        0.09240    0.48740    0.49060    1.000
    C214     C        0.13745    0.55040    0.42677    1.000
    H155     H        0.13330    0.63130    0.44280    1.000
    H156     H        0.17120    0.55690    0.42630    1.000
    C215     C        0.09705    0.55280    0.37513    1.000
    C216     C        0.09930    0.63170    0.34193    1.000
    H157     H        0.12770    0.68970    0.35140    1.000
    C217     C        0.06130    0.63380    0.29288    1.000
    H158     H        0.06560    0.69240    0.27080    1.000
    C218     C        0.01976    0.55730    0.27636    1.000
    C219     C        0.00830    0.51180    0.31340    1.000
    H159     H        0.97430    0.48570    0.30590    1.000
    C220     C        0.04660    0.50450    0.36140    1.000
    H160     H        0.03870    0.46620    0.38550    1.000
    Co6      Co       0.17768    0.03184    0.50202    1.000
    N21      N        0.15640    0.23390    0.48948    1.000
    N22      N        0.14001    0.43800    0.45811    1.000
    N23      N        0.60060    0.53690    0.95684    1.000
    N24      N        0.30942    0.93820    0.80171    1.000
    O21      O        0.16802    0.03160    0.56945    1.000
    O22      O        0.24569    0.05500    0.57266    1.000
    O23      O        0.20487    0.18500    0.93173    1.000
    O24      O        0.20379    0.96650    0.94897    1.000
    C221     C        0.03380    0.42910    0.30550    1.000
    H161     H        0.01500    0.35070    0.29190    1.000
    C222     C        0.07490    0.42840    0.35270    1.000
    H162     H        0.08780    0.34770    0.36950    1.000
    C223     C        0.28334    0.53720    0.90617    1.000
    C224     C        0.25889    0.51810    0.85141    1.000
    C225     C        0.28932    0.48970    0.82739    1.000
    H163     H        0.32560    0.48750    0.84560    1.000
    C226     C        0.26711    0.46470    0.77714    1.000
    H164     H        0.28840    0.44550    0.76180    1.000
    C227     C        0.21359    0.46790    0.74944    1.000
    C228     C        0.18297    0.49990    0.77299    1.000
    H165     H        0.14680    0.50480    0.75470    1.000
    C229     C        0.20576    0.52420    0.82310    1.000
    H166     H        0.18460    0.54540    0.83830    1.000
    C230     C        0.28665    0.56370    0.57315    1.000
    C231     C        0.26388    0.52890    0.60787    1.000
    C232     C        0.24531    0.40220    0.60900    1.000
    H167     H        0.24850    0.33520    0.58890    1.000
    C233     C        0.22222    0.37240    0.63892    1.000
    H168     H        0.20990    0.28570    0.63890    1.000
    C234     C        0.21702    0.46920    0.66900    1.000
    C235     C        0.23678    0.59690    0.66928    1.000
    H169     H        0.23450    0.66290    0.69020    1.000
    C236     C        0.25956    0.62610    0.63913    1.000
    H170     H        0.27240    0.71240    0.63940    1.000
    C237     C        0.92141    0.04940    0.59156    1.000
    H171     H        0.90360    0.01390    0.60840    1.000
    C238     C        0.96854    0.11060    0.61945    1.000
    H172     H        0.98100    0.11800    0.65370    1.000
    C239     C        0.99707    0.16050    0.59704    1.000
    C240     C        0.97512    0.14560    0.54650    1.000
    H173     H        0.99250    0.17790    0.52890    1.000
    C241     C        0.92720    0.08260    0.52155    1.000
    H174     H        0.91380    0.07210    0.48730    1.000
    C242     C        0.04752    0.23140    0.62490    1.000
    C243     C        0.06122    0.33500    0.60218    1.000
    H175     H        0.03860    0.35820    0.56960    1.000
    C244     C        0.10787    0.40490    0.62690    1.000
    H176     H        0.11590    0.47580    0.61120    1.000
    C245     C        0.14249    0.36900    0.67495    1.000
    C246     C        0.12938    0.26650    0.69777    1.000
    H177     H        0.15210    0.24190    0.73020    1.000
    C247     C        0.08236    0.19990    0.67252    1.000
    H178     H        0.07410    0.13060    0.68860    1.000
    C248     C        0.33487    0.82180    0.03840    1.000
    H179     H        0.31360    0.80540    0.05400    1.000
    C249     C        0.37631    0.79880    0.99519    1.000
    H180     H        0.38950    0.76170    0.97460    1.000
    C250     C        0.38649    0.92340    0.01421    1.000
    H181     H        0.40760    0.98740    0.00940    1.000
    C251     C        0.36255    0.05040    0.07323    1.000
    H182     H        0.36670    0.13130    0.05720    1.000
    H183     H        0.32880    0.05690    0.07370    1.000
    C252     C        0.40295    0.05280    0.12487    1.000
    C253     C        0.40070    0.13170    0.15807    1.000
    H184     H        0.37230    0.18970    0.14860    1.000
    C254     C        0.43870    0.13380    0.20712    1.000
    H185     H        0.43440    0.19240    0.22920    1.000
    C255     C        0.48024    0.05730    0.22364    1.000
    C256     C        0.49170    0.01180    0.18660    1.000
    H186     H        0.52570    0.98570    0.19410    1.000
    C257     C        0.45340    0.00450    0.13860    1.000
    H187     H        0.46130    0.96620    0.11450    1.000
    Co7      Co       0.32232    0.53184    0.99798    1.000
    N25      N        0.34360    0.73390    0.01052    1.000
    N26      N        0.35999    0.93800    0.04189    1.000
    N27      N        0.89940    0.03690    0.54316    1.000
    N28      N        0.19058    0.43820    0.69829    1.000
    O25      O        0.33198    0.53160    0.93055    1.000
    O26      O        0.25431    0.55500    0.92734    1.000
    O27      O        0.29513    0.68500    0.56827    1.000
    O28      O        0.29621    0.46650    0.55103    1.000
    C258     C        0.46620    0.92910    0.19450    1.000
    H188     H        0.48500    0.85070    0.20810    1.000
    C259     C        0.42510    0.92840    0.14730    1.000
    H189     H        0.41220    0.84770    0.13050    1.000
    C260     C        0.78334    0.03720    0.90617    1.000
    C261     C        0.75889    0.01810    0.85141    1.000
    C262     C        0.78932    0.98970    0.82739    1.000
    H190     H        0.82560    0.98750    0.84560    1.000
    C263     C        0.76711    0.96470    0.77714    1.000
    H191     H        0.78840    0.94550    0.76180    1.000
    C264     C        0.71359    0.96790    0.74944    1.000
    C265     C        0.68297    0.99990    0.77299    1.000
    H192     H        0.64680    0.00480    0.75470    1.000
    C266     C        0.70576    0.02420    0.82310    1.000
    H193     H        0.68460    0.04540    0.83830    1.000
    C267     C        0.78665    0.06370    0.57315    1.000
    C268     C        0.76388    0.02890    0.60787    1.000
    C269     C        0.74531    0.90220    0.60900    1.000
    H194     H        0.74850    0.83520    0.58890    1.000
    C270     C        0.72222    0.87240    0.63892    1.000
    H195     H        0.70990    0.78570    0.63890    1.000
    C271     C        0.71702    0.96920    0.66900    1.000
    C272     C        0.73678    0.09690    0.66928    1.000
    H196     H        0.73450    0.16290    0.69020    1.000
    C273     C        0.75956    0.12610    0.63913    1.000
    H197     H        0.77240    0.21240    0.63940    1.000
    C274     C        0.42141    0.54940    0.59156    1.000
    H198     H        0.40360    0.51390    0.60840    1.000
    C275     C        0.46854    0.61060    0.61945    1.000
    H199     H        0.48100    0.61800    0.65370    1.000
    C276     C        0.49707    0.66050    0.59704    1.000
    C277     C        0.47512    0.64560    0.54650    1.000
    H200     H        0.49250    0.67790    0.52890    1.000
    C278     C        0.42720    0.58260    0.52155    1.000
    H201     H        0.41380    0.57210    0.48730    1.000
    C279     C        0.54752    0.73140    0.62490    1.000
    C280     C        0.56122    0.83500    0.60218    1.000
    H202     H        0.53860    0.85820    0.56960    1.000
    C281     C        0.60787    0.90490    0.62690    1.000
    H203     H        0.61590    0.97580    0.61120    1.000
    C282     C        0.64249    0.86900    0.67495    1.000
    C283     C        0.62938    0.76650    0.69777    1.000
    H204     H        0.65210    0.74190    0.73020    1.000
    C284     C        0.58236    0.69990    0.67252    1.000
    H205     H        0.57410    0.63060    0.68860    1.000
    C285     C        0.83487    0.32180    0.03840    1.000
    H206     H        0.81360    0.30540    0.05400    1.000
    C286     C        0.87631    0.29880    0.99519    1.000
    H207     H        0.88950    0.26170    0.97460    1.000
    C287     C        0.88649    0.42340    0.01421    1.000
    H208     H        0.90760    0.48740    0.00940    1.000
    C288     C        0.86255    0.55040    0.07323    1.000
    H209     H        0.86670    0.63130    0.05720    1.000
    H210     H        0.82880    0.55690    0.07370    1.000
    C289     C        0.90295    0.55280    0.12487    1.000
    C290     C        0.90070    0.63170    0.15807    1.000
    H211     H        0.87230    0.68970    0.14860    1.000
    C291     C        0.93870    0.63380    0.20712    1.000
    H212     H        0.93440    0.69240    0.22920    1.000
    C292     C        0.98024    0.55730    0.22364    1.000
    C293     C        0.99170    0.51180    0.18660    1.000
    H213     H        0.02570    0.48570    0.19410    1.000
    C294     C        0.95340    0.50450    0.13860    1.000
    H214     H        0.96130    0.46620    0.11450    1.000
    Co8      Co       0.82232    0.03184    0.99798    1.000
    N29      N        0.84360    0.23390    0.01052    1.000
    N30      N        0.85999    0.43800    0.04189    1.000
    N31      N        0.39940    0.53690    0.54316    1.000
    N32      N        0.69058    0.93820    0.69829    1.000
    O29      O        0.83198    0.03160    0.93055    1.000
    O30      O        0.75431    0.05500    0.92734    1.000
    O31      O        0.79513    0.18500    0.56827    1.000
    O32      O        0.79621    0.96650    0.55103    1.000
    C295     C        0.96620    0.42910    0.19450    1.000
    H215     H        0.98500    0.35070    0.20810    1.000
    C296     C        0.92510    0.42840    0.14730    1.000
    H216     H        0.91220    0.34770    0.13050    1.000
