data_functionalizedCrystal
_audit_creation_method	'EQeq! by Chris Wilmer'
_symmetry_space_group_name_H-M	'P1'
_symmetry_Int_Tables_number	1
_symmetry_cell_setting	triclinic
loop_
_symmetry_equiv_pos_as_xyz
  x,y,z
_cell_length_a	9.1314
_cell_length_b	12.7496
_cell_length_c	14.7479
_cell_angle_alpha	89.48
_cell_angle_beta	86.249
_cell_angle_gamma	72.419
loop_
_atom_site_label
_atom_site_type_symbol
_atom_site_fract_x
_atom_site_fract_y
_atom_site_fract_z
_atom_site_charge
Mof_Ga	Ga	0.95703	0.13329	0.38984	4.003
Mof_Ga	Ga	0.94281	0.12796	0.1399	3.477
Mof_Ga	Ga	0.31459	0.30723	0.24511	4.146
Mof_Ga	Ga	0.94357	0.64475	0.38006	4.551
Mof_Ga	Ga	0.32004	0.80991	0.23424	4.444
Mof_Mn	Mn	0.81969	0.43532	0.25679	1.065
Mof_Mn	Mn	0.03684	0.29938	0.89313	1.202
Mof_P 	P 	0.67311	0.26447	0.28271	0.897
Mof_P 	P 	0.22023	0.07464	0.28312	0.962
Mof_P 	P 	0.04257	0.36938	0.39916	1.178
Mof_P 	P 	0.0921	0.32687	0.09304	0.831
Mof_P 	P 	0.68608	0.6928	0.24489	0.931
Mof_P 	P 	0.23305	0.57554	0.23019	1.041
Mof_P 	P 	0.03712	0.8659	0.39481	1.201
Mof_P 	P 	0.8568	0.12092	0.93723	0.889
Mof_O 	O 	0.6462	0.3825	0.3166	-0.481
Mof_O 	O 	0.7442	0.1799	0.3553	-0.976
Mof_O 	O 	0.5234	0.2473	0.2589	-1.086
Mof_O 	O 	0.7867	0.2514	0.199	-0.989
Mof_O 	O 	0.0514	0.1065	0.2538	-1.36
Mof_O 	O 	0.3173	0.9641	0.2452	-1.01
Mof_O 	O 	0.1894	0.0764	0.3876	-0.906
Mof_O 	O 	0.3016	0.1574	0.2499	-0.975
Mof_O 	O 	0.9395	0.4782	0.3602	-1.019
Mof_O 	O 	0.9546	0.6166	0.5001	-1.305
Mof_O 	O 	0.969	0.2839	0.372	-1.113
Mof_O 	O 	0.209	0.3451	0.3589	-1.166
Mof_O 	O 	0.9751	0.4087	0.1528	-0.597
Mof_O 	O 	0.2555	0.3109	0.1229	-0.998
Mof_O 	O 	0.065	0.2154	0.0881	-0.889
Mof_O 	O 	0.0928	0.3697	0.9945	-0.461
Mof_O 	O 	0.6936	0.582	0.2049	-0.497
Mof_O 	O 	0.2132	0.2534	0.8145	-0.608
Mof_O 	O 	0.747	0.6772	0.3397	-1.192
Mof_O 	O 	0.5254	0.7723	0.2558	-1.134
Mof_O 	O 	0.331	0.4568	0.2272	-0.959
Mof_O 	O 	0.862	0.4027	0.8533	-0.62
Mof_O 	O 	0.1353	0.5974	0.3195	-1.283
Mof_O 	O 	0.3386	0.6486	0.2277	-0.949
Mof_O 	O 	0.9299	0.7948	0.3885	-1.186
Mof_O 	O 	0.1698	0.8287	0.3242	-1.332
Mof_O 	O 	0.8938	0.1457	0.5141	-1.146
Mof_O 	O 	0.9377	0.9833	0.3791	-0.997
Mof_O 	O 	0.9898	0.1641	0.9	-0.638
Mof_O 	O 	0.2905	0.8213	0.1113	-1.137
Mof_O 	O 	0.8165	0.1484	0.0371	-0.915
Mof_O 	O 	0.0988	0.0018	0.0812	-0.895
Mof_Ga	Ga	0.04297	0.86671	0.61016	4.004
Mof_Ga	Ga	0.05719	0.87204	0.8601	3.478
Mof_Ga	Ga	0.68541	0.69277	0.75489	4.146
Mof_Ga	Ga	0.05643	0.35525	0.61994	4.551
Mof_Ga	Ga	0.67996	0.19009	0.76576	4.444
Mof_Mn	Mn	0.18031	0.56468	0.74321	1.065
Mof_Mn	Mn	0.96316	0.70062	0.10687	1.202
Mof_P 	P 	0.32689	0.73553	0.71729	0.897
Mof_P 	P 	0.77977	0.92536	0.71688	0.962
Mof_P 	P 	0.95743	0.63062	0.60084	1.178
Mof_P 	P 	0.9079	0.67313	0.90696	0.831
Mof_P 	P 	0.31392	0.3072	0.75511	0.931
Mof_P 	P 	0.76695	0.42446	0.76981	1.041
Mof_P 	P 	0.96288	0.1341	0.60519	1.201
Mof_P 	P 	0.1432	0.87908	0.06277	0.889
Mof_O 	O 	0.3538	0.6175	0.6834	-0.481
Mof_O 	O 	0.2558	0.8201	0.6447	-0.976
Mof_O 	O 	0.4766	0.7527	0.7411	-1.086
Mof_O 	O 	0.2133	0.7486	0.801	-0.989
Mof_O 	O 	0.9486	0.8935	0.7462	-1.36
Mof_O 	O 	0.6827	0.0359	0.7548	-1.01
Mof_O 	O 	0.8106	0.9236	0.6124	-0.906
Mof_O 	O 	0.6984	0.8426	0.7501	-0.975
Mof_O 	O 	0.0605	0.5218	0.6398	-1.019
Mof_O 	O 	0.0454	0.3834	0.4999	-1.305
Mof_O 	O 	0.031	0.7161	0.628	-1.113
Mof_O 	O 	0.791	0.6549	0.6411	-1.166
Mof_O 	O 	0.0249	0.5913	0.8472	-0.597
Mof_O 	O 	0.7445	0.6891	0.8771	-0.998
Mof_O 	O 	0.935	0.7846	0.9119	-0.889
Mof_O 	O 	0.9072	0.6303	0.0055	-0.461
Mof_O 	O 	0.3064	0.418	0.7951	-0.497
Mof_O 	O 	0.7868	0.7466	0.1855	-0.608
Mof_O 	O 	0.253	0.3228	0.6603	-1.192
Mof_O 	O 	0.4746	0.2277	0.7442	-1.134
Mof_O 	O 	0.669	0.5432	0.7728	-0.959
Mof_O 	O 	0.138	0.5973	0.1467	-0.62
Mof_O 	O 	0.8647	0.4026	0.6805	-1.283
Mof_O 	O 	0.6614	0.3514	0.7723	-0.949
Mof_O 	O 	0.0701	0.2052	0.6115	-1.186
Mof_O 	O 	0.8302	0.1713	0.6758	-1.332
Mof_O 	O 	0.1062	0.8543	0.4859	-1.146
Mof_O 	O 	0.0623	0.0167	0.6209	-0.997
Mof_O 	O 	0.0102	0.8359	0.1	-0.638
Mof_O 	O 	0.7095	0.1787	0.8887	-1.137
Mof_O 	O 	0.1835	0.8516	0.9629	-0.915
Mof_O 	O 	0.9012	0.9982	0.9188	-0.895
_end
