data_functionalizedCrystal
_audit_creation_method	'EQeq! by Chris Wilmer'
_symmetry_space_group_name_H-M	'P1'
_symmetry_Int_Tables_number	1
_symmetry_cell_setting	triclinic
loop_
_symmetry_equiv_pos_as_xyz
  x,y,z
_cell_length_a	18.6759
_cell_length_b	18.6759
_cell_length_c	18.6759
_cell_angle_alpha	60
_cell_angle_beta	60
_cell_angle_gamma	60
loop_
_atom_site_label
_atom_site_type_symbol
_atom_site_fract_x
_atom_site_fract_y
_atom_site_fract_z
_atom_site_charge
Mof_Ca	Ca	0.5	0.5	0.5	1.627
Mof_Ca	Ca	-0	0	0.5	0.994
Mof_Ca	Ca	-0	0.5	-0	0.994
Mof_Ca	Ca	-4.9364e-17	0.5	0.5	1.308
Mof_Ca	Ca	0.5	0.5	-0	1.316
Mof_Ca	Ca	-0	0	-0	0.68
Mof_Ca	Ca	0.5	0	0.5	1.316
Mof_Ca	Ca	0.5	0	-0	1.001
Mof_Tm	Tm	0.75	0.25	0.25	1.981
Mof_Tm	Tm	0.75	0.25	0.75	1.992
Mof_Tm	Tm	0.75	0.75	0.25	1.992
Mof_Tm	Tm	0.25	0.25	0.25	1.968
Mof_Tm	Tm	0.25	0.75	0.75	1.991
Mof_Tm	Tm	0.25	0.75	0.25	1.979
Mof_Tm	Tm	0.25	0.25	0.75	1.979
Mof_Tm	Tm	0.75	0.75	0.75	2.002
Mof_H 	H 	0.5165	0.4163	0.3441	0.097
Mof_H 	H 	0.5775	0.4735	0.2943	0.095
Mof_H 	H 	0.9163	0.0165	0.7231	0.088
Mof_H 	H 	0.9735	0.0775	0.6547	0.129
Mof_H 	H 	0.8441	0.7231	0.0165	0.063
Mof_H 	H 	0.7943	0.6547	0.0775	0.065
Mof_H 	H 	0.2231	0.3441	0.4163	0.097
Mof_H 	H 	0.1547	0.2943	0.4735	0.078
Mof_H 	H 	0.5165	0.3441	0.7231	0.103
Mof_H 	H 	0.5775	0.2943	0.6547	0.096
Mof_H 	H 	0.9163	0.7231	0.3441	0.151
Mof_H 	H 	0.9735	0.6547	0.2943	0.165
Mof_H 	H 	0.8441	0.0165	0.4163	0.056
Mof_H 	H 	0.7943	0.0775	0.4735	0.064
Mof_H 	H 	0.2231	0.4163	0.0165	0.031
Mof_H 	H 	0.1547	0.4735	0.0775	0.04
Mof_H 	H 	0.5165	0.7231	0.4163	0.105
Mof_H 	H 	0.5775	0.6547	0.4735	0.101
Mof_H 	H 	0.9163	0.3441	0.0165	0.08
Mof_H 	H 	0.9735	0.2943	0.0775	0.122
Mof_H 	H 	0.8441	0.4163	0.7231	0.126
Mof_H 	H 	0.7943	0.4735	0.6547	0.107
Mof_H 	H 	0.2231	0.0165	0.3441	0.029
Mof_H 	H 	0.1547	0.0775	0.2943	0.034
Mof_H 	H 	0.5837	0.4835	0.1559	0.081
Mof_H 	H 	0.5265	0.4225	0.2057	0.099
Mof_H 	H 	0.9835	0.0837	0.7769	0.13
Mof_H 	H 	0.9225	0.0265	0.8453	0.111
Mof_H 	H 	0.2769	0.1559	0.4835	0.074
Mof_H 	H 	0.3453	0.2057	0.4225	0.097
Mof_H 	H 	0.6559	0.7769	0.0837	0.061
Mof_H 	H 	0.7057	0.8453	0.0265	0.067
Mof_H 	H 	0.6559	0.4835	0.7769	0.103
Mof_H 	H 	0.7057	0.4225	0.8453	0.126
Mof_H 	H 	0.2769	0.0837	0.1559	0.029
Mof_H 	H 	0.3453	0.0265	0.2057	0.035
Mof_H 	H 	0.9835	0.1559	0.0837	0.109
Mof_H 	H 	0.9225	0.2057	0.0265	0.089
Mof_H 	H 	0.5837	0.7769	0.4835	0.102
Mof_H 	H 	0.5265	0.8453	0.4225	0.121
Mof_H 	H 	0.2769	0.4835	0.0837	0.049
Mof_H 	H 	0.3453	0.4225	0.0265	0.035
Mof_H 	H 	0.6559	0.0837	0.4835	0.057
Mof_H 	H 	0.7057	0.0265	0.4225	0.043
Mof_H 	H 	0.5837	0.1559	0.7769	0.085
Mof_H 	H 	0.5265	0.2057	0.8453	0.122
Mof_H 	H 	0.9835	0.7769	0.1559	0.155
Mof_H 	H 	0.9225	0.8453	0.2057	0.171
Mof_H 	H 	0.4835	0.5837	0.6559	0.101
Mof_H 	H 	0.4225	0.5265	0.7057	0.104
Mof_H 	H 	0.0837	0.9835	0.2769	0.119
Mof_H 	H 	0.0265	0.9225	0.3453	0.085
Mof_H 	H 	0.1559	0.2769	0.9835	0.145
Mof_H 	H 	0.2057	0.3453	0.9225	0.148
Mof_H 	H 	0.7769	0.6559	0.5837	0.103
Mof_H 	H 	0.8453	0.7057	0.5265	0.126
Mof_H 	H 	0.4835	0.6559	0.2769	0.095
Mof_H 	H 	0.4225	0.7057	0.3453	0.102
Mof_H 	H 	0.0837	0.2769	0.6559	0.049
Mof_H 	H 	0.0265	0.3453	0.7057	0.04
Mof_H 	H 	0.1559	0.9835	0.5837	0.151
Mof_H 	H 	0.2057	0.9225	0.5265	0.15
Mof_H 	H 	0.7769	0.5837	0.9835	0.169
Mof_H 	H 	0.8453	0.5265	0.9225	0.169
Mof_H 	H 	0.4835	0.2769	0.5837	0.093
Mof_H 	H 	0.4225	0.3453	0.5265	0.097
Mof_H 	H 	0.0837	0.6559	0.9835	0.126
Mof_H 	H 	0.0265	0.7057	0.9225	0.092
Mof_H 	H 	0.1559	0.5837	0.2769	0.074
Mof_H 	H 	0.2057	0.5265	0.3453	0.097
Mof_H 	H 	0.7769	0.9835	0.6559	0.169
Mof_H 	H 	0.8453	0.9225	0.7057	0.172
Mof_H 	H 	0.4163	0.5165	0.8441	0.12
Mof_H 	H 	0.4735	0.5775	0.7943	0.106
Mof_H 	H 	0.0165	0.9163	0.2231	0.078
Mof_H 	H 	0.0775	0.9735	0.1547	0.11
Mof_H 	H 	0.7231	0.8441	0.5165	0.126
Mof_H 	H 	0.6547	0.7943	0.5775	0.107
Mof_H 	H 	0.3441	0.2231	0.9163	0.145
Mof_H 	H 	0.2943	0.1547	0.9735	0.149
Mof_H 	H 	0.3441	0.5165	0.2231	0.096
Mof_H 	H 	0.2943	0.5775	0.1547	0.079
Mof_H 	H 	0.7231	0.9163	0.8441	0.169
Mof_H 	H 	0.6547	0.9735	0.7943	0.171
Mof_H 	H 	0.0165	0.8441	0.9163	0.1
Mof_H 	H 	0.0775	0.7943	0.9735	0.13
Mof_H 	H 	0.4163	0.2231	0.5165	0.098
Mof_H 	H 	0.4735	0.1547	0.5775	0.085
Mof_H 	H 	0.7231	0.5165	0.9163	0.151
Mof_H 	H 	0.6547	0.5775	0.9735	0.168
Mof_H 	H 	0.3441	0.9163	0.5165	0.145
Mof_H 	H 	0.2943	0.9735	0.5775	0.163
Mof_H 	H 	0.4163	0.8441	0.2231	0.12
Mof_H 	H 	0.4735	0.7943	0.1547	0.091
Mof_H 	H 	0.0165	0.2231	0.8441	0.053
Mof_H 	H 	0.0775	0.1547	0.7943	0.046
Mof_C 	C 	0.57722	0.41418	0.31748	-0.228
Mof_C 	C 	0.6214	0.3586	0.3856	0.467
Mof_C 	C 	0.91418	0.07722	0.69112	-0.223
Mof_C 	C 	0.8586	0.1214	0.6344	0.443
Mof_C 	C 	0.81748	0.69112	0.07722	-0.168
Mof_C 	C 	0.8856	0.6344	0.1214	0.415
Mof_C 	C 	0.19112	0.31748	0.41418	-0.219
Mof_C 	C 	0.1344	0.3856	0.3586	0.451
Mof_C 	C 	0.57722	0.31748	0.69112	-0.232
Mof_C 	C 	0.6214	0.3856	0.6344	0.471
Mof_C 	C 	0.91418	0.69112	0.31748	-0.28
Mof_C 	C 	0.8586	0.6344	0.3856	0.484
Mof_C 	C 	0.81748	0.07722	0.41418	-0.164
Mof_C 	C 	0.8856	0.1214	0.3586	0.412
Mof_C 	C 	0.19112	0.41418	0.07722	-0.16
Mof_C 	C 	0.1344	0.3586	0.1214	0.409
Mof_C 	C 	0.57722	0.69112	0.41418	-0.236
Mof_C 	C 	0.6214	0.6344	0.3586	0.472
Mof_C 	C 	0.91418	0.31748	0.07722	-0.215
Mof_C 	C 	0.8586	0.3856	0.1214	0.438
Mof_C 	C 	0.81748	0.41418	0.69112	-0.229
Mof_C 	C 	0.8856	0.3586	0.6344	0.458
Mof_C 	C 	0.19112	0.07722	0.31748	-0.155
Mof_C 	C 	0.1344	0.1214	0.3856	0.407
Mof_C 	C 	0.58582	0.42278	0.18252	-0.225
Mof_C 	C 	0.6414	0.3786	0.1144	0.453
Mof_C 	C 	0.92278	0.08582	0.80888	-0.212
Mof_C 	C 	0.8786	0.1414	0.8656	0.429
Mof_C 	C 	0.30888	0.18252	0.42278	-0.219
Mof_C 	C 	0.3656	0.1144	0.3786	0.45
Mof_C 	C 	0.68252	0.80888	0.08582	-0.169
Mof_C 	C 	0.6144	0.8656	0.1414	0.416
Mof_C 	C 	0.68252	0.42278	0.80888	-0.23
Mof_C 	C 	0.6144	0.3786	0.8656	0.457
Mof_C 	C 	0.30888	0.08582	0.18252	-0.155
Mof_C 	C 	0.3656	0.1414	0.1144	0.407
Mof_C 	C 	0.92278	0.18252	0.08582	-0.21
Mof_C 	C 	0.8786	0.1144	0.1414	0.427
Mof_C 	C 	0.58582	0.80888	0.42278	-0.227
Mof_C 	C 	0.6414	0.8656	0.3786	0.456
Mof_C 	C 	0.30888	0.42278	0.08582	-0.164
Mof_C 	C 	0.3656	0.3786	0.1414	0.424
Mof_C 	C 	0.68252	0.08582	0.42278	-0.175
Mof_C 	C 	0.6144	0.1414	0.3786	0.429
Mof_C 	C 	0.58582	0.18252	0.80888	-0.218
Mof_C 	C 	0.6414	0.1144	0.8656	0.441
Mof_C 	C 	0.92278	0.80888	0.18252	-0.265
Mof_C 	C 	0.8786	0.8656	0.1144	0.455
Mof_C 	C 	0.42278	0.58582	0.68252	-0.237
Mof_C 	C 	0.3786	0.6414	0.6144	0.472
Mof_C 	C 	0.08582	0.92278	0.30888	-0.211
Mof_C 	C 	0.1414	0.8786	0.3656	0.439
Mof_C 	C 	0.18252	0.30888	0.92278	-0.267
Mof_C 	C 	0.1144	0.3656	0.8786	0.466
Mof_C 	C 	0.80888	0.68252	0.58582	-0.23
Mof_C 	C 	0.8656	0.6144	0.6414	0.458
Mof_C 	C 	0.42278	0.68252	0.30888	-0.232
Mof_C 	C 	0.3786	0.6144	0.3656	0.469
Mof_C 	C 	0.08582	0.30888	0.68252	-0.167
Mof_C 	C 	0.1414	0.3656	0.6144	0.426
Mof_C 	C 	0.18252	0.92278	0.58582	-0.271
Mof_C 	C 	0.1144	0.8786	0.6414	0.468
Mof_C 	C 	0.80888	0.58582	0.92278	-0.271
Mof_C 	C 	0.8656	0.6414	0.8786	0.47
Mof_C 	C 	0.42278	0.30888	0.58582	-0.228
Mof_C 	C 	0.3786	0.3656	0.6414	0.467
Mof_C 	C 	0.08582	0.68252	0.92278	-0.219
Mof_C 	C 	0.1414	0.6144	0.8786	0.444
Mof_C 	C 	0.18252	0.58582	0.30888	-0.219
Mof_C 	C 	0.1144	0.6414	0.3656	0.451
Mof_C 	C 	0.80888	0.92278	0.68252	-0.273
Mof_C 	C 	0.8656	0.8786	0.6144	0.471
Mof_C 	C 	0.41418	0.57722	0.81748	-0.226
Mof_C 	C 	0.3586	0.6214	0.8856	0.457
Mof_C 	C 	0.07722	0.91418	0.19112	-0.208
Mof_C 	C 	0.1214	0.8586	0.1344	0.423
Mof_C 	C 	0.69112	0.81748	0.57722	-0.229
Mof_C 	C 	0.6344	0.8856	0.6214	0.46
Mof_C 	C 	0.31748	0.19112	0.91418	-0.267
Mof_C 	C 	0.3856	0.1344	0.8586	0.466
Mof_C 	C 	0.31748	0.57722	0.19112	-0.218
Mof_C 	C 	0.3856	0.6214	0.1344	0.452
Mof_C 	C 	0.69112	0.91418	0.81748	-0.273
Mof_C 	C 	0.6344	0.8586	0.8856	0.471
Mof_C 	C 	0.07722	0.81748	0.91418	-0.209
Mof_C 	C 	0.1214	0.8856	0.8586	0.425
Mof_C 	C 	0.41418	0.19112	0.57722	-0.223
Mof_C 	C 	0.3586	0.1344	0.6214	0.455
Mof_C 	C 	0.69112	0.57722	0.91418	-0.282
Mof_C 	C 	0.6344	0.6214	0.8586	0.486
Mof_C 	C 	0.31748	0.91418	0.57722	-0.275
Mof_C 	C 	0.3856	0.8586	0.6214	0.482
Mof_C 	C 	0.41418	0.81748	0.19112	-0.217
Mof_C 	C 	0.3586	0.8856	0.1344	0.441
Mof_C 	C 	0.07722	0.19112	0.81748	-0.153
Mof_C 	C 	0.1214	0.1344	0.8856	0.396
Mof_O 	O 	0.68812	0.29406	0.37178	-0.451
Mof_O 	O 	0.5902	0.38044	0.45134	-0.466
Mof_O 	O 	0.79406	0.18812	0.64604	-0.447
Mof_O 	O 	0.88044	0.0902	0.57802	-0.387
Mof_O 	O 	0.87178	0.64604	0.18812	-0.42
Mof_O 	O 	0.95134	0.57802	0.0902	-0.339
Mof_O 	O 	0.14604	0.37178	0.29406	-0.472
Mof_O 	O 	0.07802	0.45134	0.38044	-0.481
Mof_O 	O 	0.68812	0.37178	0.64604	-0.452
Mof_O 	O 	0.5902	0.45134	0.57802	-0.465
Mof_O 	O 	0.79406	0.64604	0.37178	-0.451
Mof_O 	O 	0.88044	0.57802	0.45134	-0.393
Mof_O 	O 	0.87178	0.18812	0.29406	-0.418
Mof_O 	O 	0.95134	0.0902	0.38044	-0.339
Mof_O 	O 	0.14604	0.29406	0.18812	-0.469
Mof_O 	O 	0.07802	0.38044	0.0902	-0.478
Mof_O 	O 	0.68812	0.64604	0.29406	-0.453
Mof_O 	O 	0.5902	0.57802	0.38044	-0.467
Mof_O 	O 	0.79406	0.37178	0.18812	-0.445
Mof_O 	O 	0.88044	0.45134	0.0902	-0.386
Mof_O 	O 	0.87178	0.29406	0.64604	-0.424
Mof_O 	O 	0.95134	0.38044	0.57802	-0.346
Mof_O 	O 	0.14604	0.18812	0.37178	-0.467
Mof_O 	O 	0.07802	0.0902	0.45134	-0.475
Mof_O 	O 	0.70594	0.31188	0.12822	-0.474
Mof_O 	O 	0.61956	0.4098	0.04866	-0.494
Mof_O 	O 	0.81188	0.20594	0.85396	-0.411
Mof_O 	O 	0.9098	0.11956	0.92198	-0.253
Mof_O 	O 	0.35396	0.12822	0.31188	-0.474
Mof_O 	O 	0.42198	0.04866	0.4098	-0.496
Mof_O 	O 	0.62822	0.85396	0.20594	-0.419
Mof_O 	O 	0.54866	0.92198	0.11956	-0.342
Mof_O 	O 	0.62822	0.31188	0.85396	-0.428
Mof_O 	O 	0.54866	0.4098	0.92198	-0.364
Mof_O 	O 	0.35396	0.20594	0.12822	-0.465
Mof_O 	O 	0.42198	0.11956	0.04866	-0.475
Mof_O 	O 	0.81188	0.12822	0.20594	-0.459
Mof_O 	O 	0.9098	0.04866	0.11956	-0.382
Mof_O 	O 	0.70594	0.85396	0.31188	-0.426
Mof_O 	O 	0.61956	0.92198	0.4098	-0.363
Mof_O 	O 	0.35396	0.31188	0.20594	-0.449
Mof_O 	O 	0.42198	0.4098	0.11956	-0.449
Mof_O 	O 	0.62822	0.20594	0.31188	-0.451
Mof_O 	O 	0.54866	0.11956	0.4098	-0.45
Mof_O 	O 	0.70594	0.12822	0.85396	-0.441
Mof_O 	O 	0.61956	0.04866	0.92198	-0.385
Mof_O 	O 	0.81188	0.85396	0.12822	-0.436
Mof_O 	O 	0.9098	0.92198	0.04866	-0.299
Mof_O 	O 	0.31188	0.70594	0.62822	-0.456
Mof_O 	O 	0.4098	0.61956	0.54866	-0.467
Mof_O 	O 	0.20594	0.81188	0.35396	-0.439
Mof_O 	O 	0.11956	0.9098	0.42198	-0.357
Mof_O 	O 	0.12822	0.35396	0.81188	-0.465
Mof_O 	O 	0.04866	0.42198	0.9098	-0.404
Mof_O 	O 	0.85396	0.62822	0.70594	-0.424
Mof_O 	O 	0.92198	0.54866	0.61956	-0.359
Mof_O 	O 	0.31188	0.62822	0.35396	-0.457
Mof_O 	O 	0.4098	0.54866	0.42198	-0.469
Mof_O 	O 	0.20594	0.35396	0.62822	-0.447
Mof_O 	O 	0.11956	0.42198	0.54866	-0.447
Mof_O 	O 	0.12822	0.81188	0.70594	-0.464
Mof_O 	O 	0.04866	0.9098	0.61956	-0.402
Mof_O 	O 	0.85396	0.70594	0.81188	-0.417
Mof_O 	O 	0.92198	0.61956	0.9098	-0.276
Mof_O 	O 	0.31188	0.35396	0.70594	-0.454
Mof_O 	O 	0.4098	0.42198	0.61956	-0.467
Mof_O 	O 	0.20594	0.62822	0.81188	-0.441
Mof_O 	O 	0.11956	0.54866	0.9098	-0.358
Mof_O 	O 	0.12822	0.70594	0.35396	-0.47
Mof_O 	O 	0.04866	0.61956	0.42198	-0.492
Mof_O 	O 	0.85396	0.81188	0.62822	-0.419
Mof_O 	O 	0.92198	0.9098	0.54866	-0.276
Mof_O 	O 	0.29406	0.68812	0.87178	-0.42
Mof_O 	O 	0.38044	0.5902	0.95134	-0.346
Mof_O 	O 	0.18812	0.79406	0.14604	-0.463
Mof_O 	O 	0.0902	0.88044	0.07802	-0.4
Mof_O 	O 	0.64604	0.87178	0.68812	-0.422
Mof_O 	O 	0.57802	0.95134	0.5902	-0.347
Mof_O 	O 	0.37178	0.14604	0.79406	-0.466
Mof_O 	O 	0.45134	0.07802	0.88044	-0.404
Mof_O 	O 	0.37178	0.68812	0.14604	-0.467
Mof_O 	O 	0.45134	0.5902	0.07802	-0.476
Mof_O 	O 	0.64604	0.79406	0.87178	-0.421
Mof_O 	O 	0.57802	0.88044	0.95134	-0.28
Mof_O 	O 	0.18812	0.87178	0.79406	-0.415
Mof_O 	O 	0.0902	0.95134	0.88044	-0.271
Mof_O 	O 	0.29406	0.14604	0.68812	-0.468
Mof_O 	O 	0.38044	0.07802	0.5902	-0.478
Mof_O 	O 	0.64604	0.68812	0.79406	-0.448
Mof_O 	O 	0.57802	0.5902	0.88044	-0.393
Mof_O 	O 	0.37178	0.79406	0.68812	-0.446
Mof_O 	O 	0.45134	0.88044	0.5902	-0.392
Mof_O 	O 	0.29406	0.87178	0.14604	-0.44
Mof_O 	O 	0.38044	0.95134	0.07802	-0.358
Mof_O 	O 	0.18812	0.14604	0.87178	-0.435
Mof_O 	O 	0.0902	0.07802	0.95134	-0.353
Mof_O 	O 	0.62018	0.37982	0.25	-0.23
Mof_O 	O 	0.87982	0.12018	0.75	-0.225
Mof_O 	O 	0.75	0.75	0.12018	-0.252
Mof_O 	O 	0.25	0.25	0.37982	-0.235
Mof_O 	O 	0.62018	0.25	0.75	-0.227
Mof_O 	O 	0.87982	0.75	0.25	-0.196
Mof_O 	O 	0.75	0.12018	0.37982	-0.255
Mof_O 	O 	0.25	0.37982	0.12018	-0.264
Mof_O 	O 	0.62018	0.75	0.37982	-0.222
Mof_O 	O 	0.87982	0.25	0.12018	-0.233
Mof_O 	O 	0.75	0.37982	0.75	-0.219
Mof_O 	O 	0.25	0.12018	0.25	-0.271
Mof_O 	O 	0.37982	0.62018	0.75	-0.221
Mof_O 	O 	0.12018	0.87982	0.25	-0.234
Mof_O 	O 	0.25	0.25	0.87982	-0.204
Mof_O 	O 	0.75	0.75	0.62018	-0.219
Mof_O 	O 	0.37982	0.75	0.25	-0.226
Mof_O 	O 	0.12018	0.25	0.75	-0.262
Mof_O 	O 	0.25	0.87982	0.62018	-0.199
Mof_O 	O 	0.75	0.62018	0.87982	-0.192
Mof_O 	O 	0.37982	0.25	0.62018	-0.229
Mof_O 	O 	0.12018	0.75	0.87982	-0.226
Mof_O 	O 	0.25	0.62018	0.25	-0.235
Mof_O 	O 	0.75	0.87982	0.75	-0.19
_end
