data_functionalizedCrystal
_audit_creation_method	'EQeq! by Chris Wilmer'
_symmetry_space_group_name_H-M	'P1'
_symmetry_Int_Tables_number	1
_symmetry_cell_setting	triclinic
loop_
_symmetry_equiv_pos_as_xyz
  x,y,z
_cell_length_a	13.542
_cell_length_b	13.542
_cell_length_c	15.192
_cell_angle_alpha	90
_cell_angle_beta	90
_cell_angle_gamma	120
loop_
_atom_site_label
_atom_site_type_symbol
_atom_site_fract_x
_atom_site_fract_y
_atom_site_fract_z
_atom_site_charge
Mof_Si	Si	0.23319	0.9999	0.10023	59.993
Mof_Al	Al	0.23342	0.00057	0.89956	119.746
Mof_O 	O 	0.2739	0.0003	0.9992	-45.677
Mof_O 	O 	0.3344	0.0151	0.1669	-52.416
Mof_O 	O 	0.2053	0.1037	0.1133	-53.935
Mof_O 	O 	0.12	0.8788	0.1237	-45.556
Mof_P 	P 	0.33343	0.89996	0.7669	23.378
Mof_Si	Si	0.89986	0.33323	0.43356	69.943
Mof_Al	Al	0.90009	0.3339	0.23289	134.424
Mof_O 	O 	0.94057	0.33363	0.33253	-51.297
Mof_O 	O 	0.00107	0.34843	0.50023	-56.872
Mof_O 	O 	0.87197	0.43703	0.44663	-59.695
Mof_O 	O 	0.78667	0.21213	0.45703	-52.92
Mof_P 	P 	0.0001	0.23329	0.10023	22.022
Mof_Si	Si	0.56652	0.66657	0.7669	67.498
Mof_Al	Al	0.56675	0.66724	0.56623	137.561
Mof_O 	O 	0.60723	0.66697	0.66587	-51.564
Mof_O 	O 	0.66773	0.68177	0.83357	-53.276
Mof_O 	O 	0.53863	0.77037	0.77997	-56.948
Mof_O 	O 	0.45333	0.54547	0.79037	-51.324
Mof_P 	P 	0.66677	0.56662	0.43356	24.446
Mof_Al	Al	0.99943	0.23285	0.89956	121.007
Mof_O 	O 	0.9997	0.2736	0.9992	-37.305
Mof_O 	O 	0.9849	0.3193	0.1669	-37.57
Mof_O 	O 	0.8963	0.1016	0.1133	-36.481
Mof_O 	O 	0.1212	0.2412	0.1237	-43.126
Mof_P 	P 	0.10004	0.43348	0.7669	23.406
Mof_Al	Al	0.6661	0.56618	0.23289	139.952
Mof_O 	O 	0.66637	0.60693	0.33253	-41.621
Mof_O 	O 	0.65157	0.65263	0.50023	-39.055
Mof_O 	O 	0.56297	0.43493	0.44663	-42.114
Mof_O 	O 	0.78787	0.57453	0.45703	-46.579
Mof_P 	P 	0.76671	0.76681	0.10023	22.212
Mof_Al	Al	0.33276	0.89952	0.56623	144.161
Mof_O 	O 	0.33303	0.94027	0.66587	-42.42
Mof_O 	O 	0.31823	0.98597	0.83357	-34.211
Mof_O 	O 	0.22963	0.76827	0.77997	-40.929
Mof_O 	O 	0.45453	0.90787	0.79037	-44.335
Mof_P 	P 	0.43338	0.10014	0.43356	24.428
Mof_Al	Al	0.76715	0.76658	0.89956	152.192
Mof_O 	O 	0.7264	0.7261	0.9992	-43.93
Mof_O 	O 	0.6807	0.6656	0.1669	-39.325
Mof_O 	O 	0.8984	0.7947	0.1133	-37.133
Mof_O 	O 	0.7588	0.88	0.1237	-35.847
Mof_Al	Al	0.43382	0.09991	0.23289	156.375
Mof_O 	O 	0.39307	0.05943	0.33253	-45.479
Mof_O 	O 	0.34737	0.99893	0.50023	-40.786
Mof_O 	O 	0.56507	0.12803	0.44663	-43.593
Mof_O 	O 	0.42547	0.21333	0.45703	-40.487
Mof_Al	Al	0.10048	0.43325	0.56623	164.574
Mof_O 	O 	0.05973	0.39277	0.66587	-47.329
Mof_O 	O 	0.01403	0.33227	0.83357	-34.524
Mof_O 	O 	0.23173	0.46137	0.77997	-42.186
Mof_O 	O 	0.09213	0.54667	0.79037	-39.475
Mof_Si	Si	0.76681	0.0001	0.89977	59.994
Mof_Al	Al	0.76658	0.99943	0.10044	119.747
Mof_O 	O 	0.7261	0.9997	0.0008	-45.676
Mof_O 	O 	0.6656	0.9849	0.8331	-52.415
Mof_O 	O 	0.7947	0.8963	0.8867	-53.935
Mof_O 	O 	0.88	0.1212	0.8763	-45.556
Mof_P 	P 	0.66657	0.10004	0.2331	23.378
Mof_Si	Si	0.43348	0.33343	0.2331	67.498
Mof_Al	Al	0.43325	0.33276	0.43377	137.561
Mof_O 	O 	0.39277	0.33303	0.33413	-51.564
Mof_O 	O 	0.33227	0.31823	0.16643	-53.276
Mof_O 	O 	0.46137	0.22963	0.22003	-56.948
Mof_O 	O 	0.54667	0.45453	0.20963	-51.324
Mof_P 	P 	0.33323	0.43338	0.56644	24.446
Mof_Si	Si	0.10014	0.66677	0.56644	69.943
Mof_Al	Al	0.09991	0.6661	0.76711	134.424
Mof_O 	O 	0.05943	0.66637	0.66747	-51.297
Mof_O 	O 	0.99893	0.65157	0.49977	-56.872
Mof_O 	O 	0.12803	0.56297	0.55337	-59.695
Mof_O 	O 	0.21333	0.78787	0.54297	-52.92
Mof_P 	P 	0.9999	0.76671	0.89977	22.022
Mof_Al	Al	0.00057	0.76715	0.10044	121.007
Mof_O 	O 	0.0003	0.7264	0.0008	-37.305
Mof_O 	O 	0.0151	0.6807	0.8331	-37.57
Mof_O 	O 	0.1037	0.8984	0.8867	-36.481
Mof_O 	O 	0.8788	0.7588	0.8763	-43.126
Mof_P 	P 	0.89996	0.56652	0.2331	23.406
Mof_Al	Al	0.66724	0.10048	0.43377	144.161
Mof_O 	O 	0.66697	0.05973	0.33413	-42.42
Mof_O 	O 	0.68177	0.01403	0.16643	-34.211
Mof_O 	O 	0.77037	0.23173	0.22003	-40.929
Mof_O 	O 	0.54547	0.09213	0.20963	-44.335
Mof_P 	P 	0.56662	0.89986	0.56644	24.428
Mof_Al	Al	0.3339	0.43382	0.76711	139.952
Mof_O 	O 	0.33363	0.39307	0.66747	-41.621
Mof_O 	O 	0.34843	0.34737	0.49977	-39.055
Mof_O 	O 	0.43703	0.56507	0.55337	-42.114
Mof_O 	O 	0.21213	0.42547	0.54297	-46.579
Mof_P 	P 	0.23329	0.23319	0.89977	22.212
Mof_Al	Al	0.23285	0.23342	0.10044	152.192
Mof_O 	O 	0.2736	0.2739	0.0008	-43.93
Mof_O 	O 	0.3193	0.3344	0.8331	-39.325
Mof_O 	O 	0.1016	0.2053	0.8867	-37.133
Mof_O 	O 	0.2412	0.12	0.8763	-35.847
Mof_Al	Al	0.89952	0.56675	0.43377	164.574
Mof_O 	O 	0.94027	0.60723	0.33413	-47.329
Mof_O 	O 	0.98597	0.66773	0.16643	-34.524
Mof_O 	O 	0.76827	0.53863	0.22003	-42.186
Mof_O 	O 	0.90787	0.45333	0.20963	-39.475
Mof_Al	Al	0.56618	0.90009	0.76711	156.375
Mof_O 	O 	0.60693	0.94057	0.66747	-45.479
Mof_O 	O 	0.65263	0.00107	0.49977	-40.786
Mof_O 	O 	0.43493	0.87197	0.55337	-43.593
Mof_O 	O 	0.57453	0.78667	0.54297	-40.487
_end
