data_functionalizedCrystal
_audit_creation_method	'EQeq! by Chris Wilmer'
_symmetry_space_group_name_H-M	'P1'
_symmetry_Int_Tables_number	1
_symmetry_cell_setting	triclinic
loop_
_symmetry_equiv_pos_as_xyz
  x,y,z
_cell_length_a	8.6084
_cell_length_b	9.0362
_cell_length_c	9.0362
_cell_angle_alpha	76.8859
_cell_angle_beta	61.554
_cell_angle_gamma	61.554
loop_
_atom_site_label
_atom_site_type_symbol
_atom_site_fract_x
_atom_site_fract_y
_atom_site_fract_z
_atom_site_charge
Mof_Sr	Sr	0.5	0	-0	0.959
Mof_Zr	Zr	0.75	0.5	0.5	3.201
Mof_Cd	Cd	-0	0	-0	0.282
Mof_C 	C 	0.7699	0.2767	0.2767	0.271
Mof_C 	C 	0.9827	0.2313	0.2313	0.067
Mof_C 	C 	0.3233	0.7233	0.7233	0.248
Mof_C 	C 	0.4453	0.7687	0.7687	0.286
Mof_C 	C 	0.9534	0.2767	0.7233	0.13
Mof_C 	C 	0.786	0.2313	0.7687	0.295
Mof_C 	C 	0.9534	0.7233	0.2767	0.13
Mof_C 	C 	0.786	0.7687	0.2313	0.295
Mof_O 	O 	0.1211	0.1229	0.1229	-0.298
Mof_O 	O 	0.0009	0.3143	0.3143	-0.512
Mof_O 	O 	0.7346	0.2032	0.2032	-0.305
Mof_O 	O 	0.6488	0.3883	0.3883	-0.549
Mof_O 	O 	0.3669	0.8771	0.8771	-0.174
Mof_O 	O 	0.6295	0.6857	0.6857	-0.587
Mof_O 	O 	0.141	0.7968	0.7968	-0.095
Mof_O 	O 	0.4254	0.6117	0.6117	-0.502
Mof_O 	O 	0.756	0.1229	0.8771	-0.306
Mof_O 	O 	0.6848	0.3143	0.6857	-0.621
Mof_O 	O 	0.0622	0.2032	0.7968	-0.111
Mof_O 	O 	0.9629	0.3883	0.6117	-0.533
Mof_O 	O 	0.756	0.8771	0.1229	-0.306
Mof_O 	O 	0.6848	0.6857	0.3143	-0.621
Mof_O 	O 	0.0622	0.7968	0.2032	-0.111
Mof_O 	O 	0.9629	0.6117	0.3883	-0.533
_end
