data_functionalizedCrystal
_audit_creation_method	'EQeq! by Chris Wilmer'
_symmetry_space_group_name_H-M	'P1'
_symmetry_Int_Tables_number	1
_symmetry_cell_setting	triclinic
loop_
_symmetry_equiv_pos_as_xyz
  x,y,z
_cell_length_a	7.252
_cell_length_b	10.23
_cell_length_c	18.068
_cell_angle_alpha	90
_cell_angle_beta	90
_cell_angle_gamma	94.216
loop_
_atom_site_label
_atom_site_type_symbol
_atom_site_fract_x
_atom_site_fract_y
_atom_site_fract_z
_atom_site_charge
Mof_Cu	Cu	0.86222	0.21401	0.90587	0.922
Mof_Cu	Cu	0.03628	0.92958	0.93149	0.941
Mof_Cu	Cu	0.63778	0.28599	0.40587	0.922
Mof_Cu	Cu	0.46372	0.57042	0.43149	0.946
Mof_Cu	Cu	0.13778	0.78599	0.09413	0.922
Mof_Cu	Cu	0.96372	0.07042	0.06851	0.941
Mof_Cu	Cu	0.36222	0.71401	0.59413	0.921
Mof_Cu	Cu	0.53628	0.42958	0.56851	0.945
Mof_H 	H 	0.7787	0.165	0.6915	0.042
Mof_H 	H 	0.9329	0.7997	0.7073	0.03
Mof_H 	H 	0.7705	0.9383	0.5118	0.024
Mof_H 	H 	0.7213	0.335	0.1915	0.039
Mof_H 	H 	0.5671	0.7003	0.2073	0.027
Mof_H 	H 	0.7295	0.5617	0.0118	0.024
Mof_H 	H 	0.2213	0.835	0.3085	0.042
Mof_H 	H 	0.0671	0.2003	0.2927	0.03
Mof_H 	H 	0.2295	0.0617	0.4882	0.024
Mof_H 	H 	0.2787	0.665	0.8085	0.039
Mof_H 	H 	0.4329	0.2997	0.7927	0.027
Mof_H 	H 	0.2705	0.4383	0.9882	0.024
Mof_C 	C 	0.8525	0.8492	0.6039	-0.169
Mof_C 	C 	0.764	0.0707	0.5948	-0.148
Mof_C 	C 	0.7979	0.0852	0.6693	0.082
Mof_C 	C 	0.8594	0.9861	0.7122	-0.138
Mof_C 	C 	0.8953	0.008	0.7925	0.391
Mof_C 	C 	0.889	0.8672	0.6794	0.081
Mof_C 	C 	0.7924	0.9504	0.5622	0.086
Mof_C 	C 	0.69	0.1824	0.5531	0.413
Mof_C 	C 	0.6475	0.6508	0.1039	-0.17
Mof_C 	C 	0.736	0.4293	0.0948	-0.146
Mof_C 	C 	0.7021	0.4148	0.1693	0.09
Mof_C 	C 	0.6406	0.5139	0.2122	-0.149
Mof_C 	C 	0.6047	0.492	0.2925	0.402
Mof_C 	C 	0.611	0.6328	0.1794	0.085
Mof_C 	C 	0.7076	0.5496	0.0622	0.083
Mof_C 	C 	0.81	0.3176	0.0531	0.409
Mof_C 	C 	0.1475	0.1508	0.3961	-0.169
Mof_C 	C 	0.236	0.9293	0.4052	-0.148
Mof_C 	C 	0.2021	0.9148	0.3307	0.082
Mof_C 	C 	0.1406	0.0139	0.2878	-0.138
Mof_C 	C 	0.1047	0.992	0.2075	0.391
Mof_C 	C 	0.111	0.1328	0.3206	0.081
Mof_C 	C 	0.2076	0.0496	0.4378	0.086
Mof_C 	C 	0.31	0.8176	0.4469	0.413
Mof_C 	C 	0.3525	0.3492	0.8961	-0.17
Mof_C 	C 	0.264	0.5707	0.9052	-0.146
Mof_C 	C 	0.2979	0.5852	0.8307	0.09
Mof_C 	C 	0.3594	0.4861	0.7878	-0.149
Mof_C 	C 	0.3953	0.508	0.7075	0.402
Mof_C 	C 	0.389	0.3672	0.8206	0.085
Mof_C 	C 	0.2924	0.4504	0.9378	0.083
Mof_C 	C 	0.19	0.6824	0.9469	0.409
Mof_S 	S 	0.8707	0.6932	0.56476	0.569
Mof_S 	S 	0.6293	0.8068	0.06476	0.566
Mof_S 	S 	0.1293	0.3068	0.43524	0.569
Mof_S 	S 	0.3707	0.1932	0.93524	0.566
Mof_O 	O 	0.9407	0.9156	0.8329	-0.382
Mof_O 	O 	0.8685	0.0576	0.9664	-0.488
Mof_O 	O 	0.6562	0.1632	0.4864	-0.437
Mof_O 	O 	0.8739	0.1234	0.814	-0.414
Mof_O 	O 	0.8501	0.7026	0.4875	-0.299
Mof_O 	O 	0.6713	0.2841	0.5899	-0.406
Mof_O 	O 	0.7223	0.6119	0.5998	-0.375
Mof_O 	O 	0.0431	0.6493	0.59	-0.325
Mof_O 	O 	0.5593	0.5844	0.3329	-0.389
Mof_O 	O 	0.6315	0.4424	0.4664	-0.489
Mof_O 	O 	0.8438	0.3368	0.9864	-0.432
Mof_O 	O 	0.6261	0.3766	0.314	-0.417
Mof_O 	O 	0.6499	0.7974	0.9875	-0.299
Mof_O 	O 	0.8287	0.2159	0.0899	-0.407
Mof_O 	O 	0.7777	0.8881	0.0998	-0.372
Mof_O 	O 	0.4569	0.8507	0.09	-0.322
Mof_O 	O 	0.0593	0.0844	0.1671	-0.382
Mof_O 	O 	0.1315	0.9424	0.0336	-0.488
Mof_O 	O 	0.3438	0.8368	0.5136	-0.437
Mof_O 	O 	0.1261	0.8766	0.186	-0.414
Mof_O 	O 	0.1499	0.2974	0.5125	-0.299
Mof_O 	O 	0.3287	0.7159	0.4101	-0.406
Mof_O 	O 	0.2777	0.3881	0.4002	-0.375
Mof_O 	O 	0.9569	0.3507	0.41	-0.325
Mof_O 	O 	0.4407	0.4156	0.6671	-0.389
Mof_O 	O 	0.3685	0.5576	0.5336	-0.489
Mof_O 	O 	0.1562	0.6632	0.0136	-0.432
Mof_O 	O 	0.3739	0.6234	0.686	-0.417
Mof_O 	O 	0.3501	0.2026	0.0125	-0.299
Mof_O 	O 	0.1713	0.7841	0.9101	-0.407
Mof_O 	O 	0.2223	0.1119	0.9002	-0.372
Mof_O 	O 	0.5431	0.1493	0.91	-0.322
_end
