data_functionalizedCrystal
_audit_creation_method	'EQeq! by Chris Wilmer'
_symmetry_space_group_name_H-M	'P1'
_symmetry_Int_Tables_number	1
_symmetry_cell_setting	triclinic
loop_
_symmetry_equiv_pos_as_xyz
  x,y,z
_cell_length_a	7.6493
_cell_length_b	21.925
_cell_length_c	19.6691
_cell_angle_alpha	90
_cell_angle_beta	90
_cell_angle_gamma	90
loop_
_atom_site_label
_atom_site_type_symbol
_atom_site_fract_x
_atom_site_fract_y
_atom_site_fract_z
_atom_site_charge
Mof_Eu	Eu	0.57508	0.28059	0.55354	2.347
Mof_Eu	Eu	0.42492	0.71941	0.44646	2.347
Mof_Eu	Eu	0.07508	0.21941	0.55354	2.346
Mof_Eu	Eu	0.92492	0.78059	0.44646	2.346
Mof_Eu	Eu	0.92492	0.21941	0.05355	2.34
Mof_Eu	Eu	0.57508	0.71941	0.94646	2.343
Mof_Eu	Eu	0.07508	0.78059	0.94646	2.339
Mof_Eu	Eu	0.42492	0.28059	0.05355	2.343
Mof_H 	H 	0.122	0.6727	0.7897	-0.003
Mof_H 	H 	0.8438	0.2596	0.226	0.008
Mof_H 	H 	0.5423	0.8166	0.0933	0.121
Mof_H 	H 	0.6994	0.2315	0.796	-0
Mof_H 	H 	0.878	0.3273	0.2103	-0.003
Mof_H 	H 	0.962	0.2663	0.3597	0.134
Mof_H 	H 	0.3438	0.2404	0.226	0.008
Mof_H 	H 	0.388	0.1792	0.206	0.104
Mof_H 	H 	0.17	0.1151	0.2862	0.043
Mof_H 	H 	0.6659	0.3192	0.2831	-0.022
Mof_H 	H 	0.538	0.7663	0.6403	0.134
Mof_H 	H 	0.112	0.3208	0.706	0.104
Mof_H 	H 	0.1621	0.8147	0.2024	0.068
Mof_H 	H 	0.3341	0.6808	0.7169	-0.022
Mof_H 	H 	0.6473	0.9635	0.5146	0.009
Mof_H 	H 	0.1994	0.7315	0.704	-0
Mof_H 	H 	0.038	0.2663	0.8597	0.135
Mof_H 	H 	0.9238	0.5429	0.8982	0.16
Mof_H 	H 	0.6348	0.111	0.8585	0.017
Mof_H 	H 	0.5097	0.8596	0.6943	0.008
Mof_H 	H 	0.5097	0.1404	0.8057	0.009
Mof_H 	H 	0.8851	0.4377	0.0825	0.148
Mof_H 	H 	0.6562	0.7596	0.774	0.008
Mof_H 	H 	0.8341	0.1808	0.7831	-0.022
Mof_H 	H 	0.6348	0.889	0.6415	0.016
Mof_H 	H 	0.17	0.8849	0.2138	0.044
Mof_H 	H 	0.388	0.8208	0.294	0.104
Mof_H 	H 	0.8341	0.8192	0.7169	-0.022
Mof_H 	H 	0.3652	0.111	0.3585	0.016
Mof_H 	H 	0.462	0.2337	0.3597	0.134
Mof_H 	H 	0.3527	0.0365	0.4854	0.009
Mof_H 	H 	0.3379	0.6853	0.7024	0.068
Mof_H 	H 	0.038	0.7337	0.6403	0.134
Mof_H 	H 	0.0423	0.3166	0.4067	0.12
Mof_H 	H 	0.538	0.2337	0.8597	0.134
Mof_H 	H 	0.6621	0.6853	0.2024	0.068
Mof_H 	H 	0.9238	0.4571	0.6018	0.161
Mof_H 	H 	0.1659	0.8192	0.2169	-0.022
Mof_H 	H 	0.4238	0.9571	0.8982	0.161
Mof_H 	H 	0.8652	0.611	0.1415	0.016
Mof_H 	H 	0.888	0.3208	0.206	0.104
Mof_H 	H 	0.3652	0.889	0.1415	0.017
Mof_H 	H 	0.6621	0.3147	0.2976	0.068
Mof_H 	H 	0.612	0.1792	0.706	0.104
Mof_H 	H 	0.7738	0.6225	0.3117	0.104
Mof_H 	H 	0.1473	0.5365	0.5146	0.009
Mof_H 	H 	0.67	0.6151	0.2138	0.044
Mof_H 	H 	0.1348	0.389	0.8585	0.016
Mof_H 	H 	0.0762	0.4571	0.1018	0.16
Mof_H 	H 	0.83	0.8849	0.7138	0.043
Mof_H 	H 	0.67	0.3849	0.2862	0.044
Mof_H 	H 	0.962	0.7337	0.1403	0.135
Mof_H 	H 	0.2738	0.8775	0.3117	0.104
Mof_H 	H 	0.7738	0.3775	0.1883	0.104
Mof_H 	H 	0.8652	0.389	0.3585	0.016
Mof_H 	H 	0.112	0.6792	0.794	0.104
Mof_H 	H 	0.4554	0.9452	0.5334	0.006
Mof_H 	H 	0.1659	0.1808	0.2831	-0.022
Mof_H 	H 	0.1621	0.1853	0.2976	0.068
Mof_H 	H 	0.8379	0.8147	0.7024	0.068
Mof_H 	H 	0.6562	0.2404	0.726	0.008
Mof_H 	H 	0.0097	0.6404	0.6943	0.008
Mof_H 	H 	0.3006	0.2315	0.296	-0
Mof_H 	H 	0.33	0.6151	0.7138	0.044
Mof_H 	H 	0.9554	0.4452	0.9666	0.007
Mof_H 	H 	0.888	0.6792	0.294	0.104
Mof_H 	H 	0.7262	0.1225	0.6883	0.104
Mof_H 	H 	0.2738	0.1225	0.1883	0.104
Mof_H 	H 	0.2262	0.3775	0.6883	0.104
Mof_H 	H 	0.5762	0.0429	0.1018	0.161
Mof_H 	H 	0.8851	0.5623	0.4175	0.149
Mof_H 	H 	0.4903	0.8596	0.1943	0.009
Mof_H 	H 	0.5423	0.1834	0.4067	0.121
Mof_H 	H 	0.3341	0.3192	0.7831	-0.022
Mof_H 	H 	0.0423	0.6834	0.0933	0.122
Mof_H 	H 	0.6659	0.6808	0.2169	-0.022
Mof_H 	H 	0.1562	0.2596	0.726	0.008
Mof_H 	H 	0.1562	0.7404	0.774	0.008
Mof_H 	H 	0.1994	0.2685	0.796	0
Mof_H 	H 	0.4577	0.1834	0.9067	0.121
Mof_H 	H 	0.6473	0.0365	0.9854	0.009
Mof_H 	H 	0.9577	0.6834	0.5933	0.12
Mof_H 	H 	0.1149	0.5623	0.9175	0.148
Mof_H 	H 	0.3438	0.7596	0.274	0.008
Mof_H 	H 	0.6149	0.9377	0.9175	0.15
Mof_H 	H 	0.378	0.8273	0.2897	-0.003
Mof_H 	H 	0.122	0.3273	0.7103	-0.003
Mof_H 	H 	0.83	0.1151	0.7862	0.044
Mof_H 	H 	0.0097	0.3596	0.8057	0.008
Mof_H 	H 	0.8527	0.4635	0.4854	0.009
Mof_H 	H 	0.378	0.1727	0.2103	-0.003
Mof_H 	H 	0.8006	0.2685	0.296	-0
Mof_H 	H 	0.8006	0.7315	0.204	0
Mof_H 	H 	0.0446	0.5548	0.0334	0.007
Mof_H 	H 	0.7262	0.8775	0.8117	0.104
Mof_H 	H 	0.462	0.7663	0.1403	0.134
Mof_H 	H 	0.5446	0.9452	0.0334	0.006
Mof_H 	H 	0.3527	0.9635	0.0146	0.009
Mof_H 	H 	0.3851	0.0623	0.0825	0.15
Mof_H 	H 	0.6994	0.7685	0.704	-0
Mof_H 	H 	0.9577	0.3166	0.9067	0.122
Mof_H 	H 	0.3006	0.7685	0.204	-0
Mof_H 	H 	0.9554	0.5548	0.5334	0.006
Mof_H 	H 	0.612	0.8208	0.794	0.104
Mof_H 	H 	0.878	0.6727	0.2897	-0.003
Mof_H 	H 	0.8527	0.5365	0.0146	0.01
Mof_H 	H 	0.3851	0.9377	0.4175	0.15
Mof_H 	H 	0.622	0.1727	0.7103	-0.003
Mof_H 	H 	0.9903	0.6404	0.1943	0.008
Mof_H 	H 	0.622	0.8273	0.7897	-0.003
Mof_H 	H 	0.6149	0.0623	0.5825	0.15
Mof_H 	H 	0.8438	0.7404	0.274	0.008
Mof_H 	H 	0.5446	0.0548	0.4666	0.006
Mof_H 	H 	0.4577	0.8166	0.5933	0.121
Mof_H 	H 	0.1348	0.611	0.6415	0.016
Mof_H 	H 	0.8379	0.1853	0.7976	0.068
Mof_H 	H 	0.2262	0.6225	0.8117	0.104
Mof_H 	H 	0.4903	0.1404	0.3057	0.008
Mof_H 	H 	0.4238	0.0429	0.6018	0.161
Mof_H 	H 	0.1149	0.4377	0.5825	0.149
Mof_H 	H 	0.1473	0.4635	0.9854	0.01
Mof_H 	H 	0.9903	0.3596	0.3057	0.008
Mof_H 	H 	0.5762	0.9571	0.3982	0.161
Mof_H 	H 	0.33	0.3849	0.7862	0.044
Mof_H 	H 	0.0762	0.5429	0.3982	0.161
Mof_H 	H 	0.3379	0.3147	0.7976	0.068
Mof_H 	H 	0.0446	0.4452	0.4666	0.006
Mof_H 	H 	0.4554	0.0548	0.9666	0.006
Mof_C 	C 	0.4361	0.8038	0.1161	-0.383
Mof_C 	C 	0.0264	0.5334	0.5002	0.028
Mof_C 	C 	0.21	0.7004	0.7723	-0.002
Mof_C 	C 	0.71	0.2004	0.7277	-0.001
Mof_C 	C 	0.1139	0.6479	0.6674	0.025
Mof_C 	C 	0.788	0.3088	0.276	0.025
Mof_C 	C 	0.4361	0.1962	0.3839	-0.384
Mof_C 	C 	0.237	0.1524	0.2824	-0.054
Mof_C 	C 	0.771	0.338	0.2099	-0.317
Mof_C 	C 	0.0639	0.3038	0.8839	-0.384
Mof_C 	C 	0.6489	0.2969	0.167	0.456
Mof_C 	C 	0.5264	0.0334	0.9998	0.032
Mof_C 	C 	0.737	0.6524	0.2176	-0.055
Mof_C 	C 	0.1139	0.3521	0.8326	0.026
Mof_C 	C 	0.5064	0.0644	0.0683	-0.478
Mof_C 	C 	0.9736	0.4666	0.4998	0.028
Mof_C 	C 	0.8861	0.6479	0.1674	0.026
Mof_C 	C 	0.212	0.3088	0.776	0.025
Mof_C 	C 	0.212	0.6912	0.724	0.025
Mof_C 	C 	0.0264	0.4666	0.9998	0.026
Mof_C 	C 	0.0064	0.4356	0.0683	-0.469
Mof_C 	C 	0.9361	0.3038	0.3839	-0.382
Mof_C 	C 	0.5639	0.1962	0.8839	-0.383
Mof_C 	C 	0.29	0.2004	0.2277	-0.002
Mof_C 	C 	0.729	0.162	0.7099	-0.317
Mof_C 	C 	0.712	0.1912	0.776	0.025
Mof_C 	C 	0.0064	0.5644	0.4317	-0.472
Mof_C 	C 	0.21	0.2996	0.7277	-0.001
Mof_C 	C 	0.798	0.2902	0.4377	0.481
Mof_C 	C 	0.29	0.7996	0.2723	-0.001
Mof_C 	C 	0.229	0.662	0.7901	-0.317
Mof_C 	C 	0.4736	0.0334	0.4998	0.028
Mof_C 	C 	0.71	0.7996	0.7723	-0.002
Mof_C 	C 	0.737	0.3476	0.2824	-0.054
Mof_C 	C 	0.202	0.7098	0.5623	0.481
Mof_C 	C 	0.3861	0.1479	0.3326	0.025
Mof_C 	C 	0.298	0.7902	0.0623	0.481
Mof_C 	C 	0.3861	0.8521	0.1674	0.025
Mof_C 	C 	0.712	0.8088	0.724	0.025
Mof_C 	C 	0.202	0.2902	0.9377	0.481
Mof_C 	C 	0.0626	0.3704	0.0655	0.584
Mof_C 	C 	0.8511	0.7969	0.833	0.457
Mof_C 	C 	0.5626	0.8704	0.4345	0.584
Mof_C 	C 	0.9736	0.5334	0.0002	0.026
Mof_C 	C 	0.0639	0.6962	0.6161	-0.382
Mof_C 	C 	0.1489	0.7969	0.333	0.457
Mof_C 	C 	0.6139	0.1479	0.8326	0.025
Mof_C 	C 	0.263	0.6524	0.7176	-0.054
Mof_C 	C 	0.271	0.838	0.2901	-0.317
Mof_C 	C 	0.6489	0.7031	0.333	0.456
Mof_C 	C 	0.763	0.1524	0.7824	-0.054
Mof_C 	C 	0.4936	0.0644	0.5683	-0.473
Mof_C 	C 	0.1489	0.2031	0.167	0.457
Mof_C 	C 	0.5639	0.8038	0.6161	-0.384
Mof_C 	C 	0.263	0.3476	0.7824	-0.055
Mof_C 	C 	0.9936	0.4356	0.5683	-0.472
Mof_C 	C 	0.729	0.838	0.7901	-0.317
Mof_C 	C 	0.288	0.1912	0.276	0.025
Mof_C 	C 	0.4374	0.1296	0.5655	0.584
Mof_C 	C 	0.298	0.2098	0.4377	0.481
Mof_C 	C 	0.0626	0.6296	0.4345	0.585
Mof_C 	C 	0.5064	0.9356	0.4317	-0.473
Mof_C 	C 	0.5626	0.1296	0.0655	0.585
Mof_C 	C 	0.788	0.6912	0.224	0.025
Mof_C 	C 	0.79	0.7004	0.2723	-0.001
Mof_C 	C 	0.9374	0.3704	0.5655	0.585
Mof_C 	C 	0.702	0.7902	0.5623	0.481
Mof_C 	C 	0.763	0.8476	0.7176	-0.054
Mof_C 	C 	0.5264	0.9666	0.5002	0.028
Mof_C 	C 	0.4936	0.9356	0.9317	-0.478
Mof_C 	C 	0.3511	0.2969	0.667	0.456
Mof_C 	C 	0.8511	0.2031	0.667	0.457
Mof_C 	C 	0.4374	0.8704	0.9345	0.585
Mof_C 	C 	0.771	0.662	0.2901	-0.317
Mof_C 	C 	0.702	0.2098	0.9377	0.481
Mof_C 	C 	0.8861	0.3521	0.3326	0.025
Mof_C 	C 	0.79	0.2996	0.2277	-0.002
Mof_C 	C 	0.9374	0.6296	0.9345	0.584
Mof_C 	C 	0.4736	0.9666	0.0002	0.032
Mof_C 	C 	0.9936	0.5644	0.9317	-0.469
Mof_C 	C 	0.6139	0.8521	0.6674	0.025
Mof_C 	C 	0.9361	0.6962	0.1161	-0.384
Mof_C 	C 	0.798	0.7098	0.0623	0.481
Mof_C 	C 	0.229	0.338	0.7099	-0.317
Mof_C 	C 	0.3511	0.7031	0.833	0.456
Mof_C 	C 	0.271	0.162	0.2099	-0.317
Mof_C 	C 	0.237	0.8476	0.2176	-0.054
Mof_C 	C 	0.288	0.8088	0.224	0.025
Mof_O 	O 	0.2242	0.3594	0.0719	-0.605
Mof_O 	O 	0.1601	0.1808	0.439	-0.521
Mof_O 	O 	0.9989	0.8173	0.3282	-0.494
Mof_O 	O 	0.3399	0.3192	0.939	-0.52
Mof_O 	O 	0.0529	0.3304	0.5548	-0.588
Mof_O 	O 	0.4989	0.6827	0.3282	-0.494
Mof_O 	O 	0.3308	0.2516	0.4812	-0.7
Mof_O 	O 	0.1692	0.2484	0.9812	-0.698
Mof_O 	O 	0.9989	0.1827	0.1718	-0.495
Mof_O 	O 	0.6948	0.7392	0.3794	-0.717
Mof_O 	O 	0.3052	0.7392	0.8794	-0.717
Mof_O 	O 	0.8399	0.8192	0.561	-0.521
Mof_O 	O 	0.3399	0.6808	0.561	-0.521
Mof_O 	O 	0.0529	0.6696	0.9452	-0.588
Mof_O 	O 	0.5011	0.3173	0.6718	-0.494
Mof_O 	O 	0.8052	0.2392	0.6206	-0.717
Mof_O 	O 	0.3308	0.7484	0.0188	-0.698
Mof_O 	O 	0.8052	0.7608	0.8794	-0.717
Mof_O 	O 	0.4989	0.3173	0.1718	-0.494
Mof_O 	O 	0.1601	0.8192	0.061	-0.519
Mof_O 	O 	0.8308	0.2484	0.4812	-0.7
Mof_O 	O 	0.2758	0.1406	0.5719	-0.605
Mof_O 	O 	0.4471	0.1696	0.0548	-0.588
Mof_O 	O 	0.6948	0.2608	0.1206	-0.717
Mof_O 	O 	0.2242	0.6406	0.4281	-0.605
Mof_O 	O 	0.4471	0.8304	0.4452	-0.588
Mof_O 	O 	0.8399	0.1808	0.939	-0.519
Mof_O 	O 	0.8308	0.7516	0.0188	-0.698
Mof_O 	O 	0.7242	0.1406	0.0719	-0.606
Mof_O 	O 	0.6601	0.3192	0.439	-0.521
Mof_O 	O 	0.6601	0.6808	0.061	-0.52
Mof_O 	O 	0.0011	0.8173	0.8282	-0.494
Mof_O 	O 	0.3052	0.2608	0.6206	-0.717
Mof_O 	O 	0.1948	0.7608	0.3794	-0.717
Mof_O 	O 	0.9471	0.3304	0.0548	-0.588
Mof_O 	O 	0.7242	0.8594	0.4281	-0.605
Mof_O 	O 	0.6692	0.2516	0.9812	-0.698
Mof_O 	O 	0.2758	0.8594	0.9281	-0.606
Mof_O 	O 	0.7758	0.3594	0.5719	-0.605
Mof_O 	O 	0.0011	0.1827	0.6718	-0.494
Mof_O 	O 	0.7758	0.6406	0.9281	-0.605
Mof_O 	O 	0.5529	0.8304	0.9452	-0.588
Mof_O 	O 	0.5011	0.6827	0.8282	-0.494
Mof_O 	O 	0.9471	0.6696	0.4452	-0.588
Mof_O 	O 	0.5529	0.1696	0.5548	-0.588
Mof_O 	O 	0.1948	0.2392	0.1206	-0.717
Mof_O 	O 	0.6692	0.7484	0.5188	-0.7
Mof_O 	O 	0.1692	0.7516	0.5188	-0.7
_end
