data_functionalizedCrystal
_audit_creation_method	'EQeq! by Chris Wilmer'
_symmetry_space_group_name_H-M	'P1'
_symmetry_Int_Tables_number	1
_symmetry_cell_setting	triclinic
loop_
_symmetry_equiv_pos_as_xyz
  x,y,z
_cell_length_a	14.741
_cell_length_b	14.741
_cell_length_c	17.135
_cell_angle_alpha	90
_cell_angle_beta	90
_cell_angle_gamma	120
loop_
_atom_site_label
_atom_site_type_symbol
_atom_site_fract_x
_atom_site_fract_y
_atom_site_fract_z
_atom_site_charge
Mof_O 	O 	0.5034	0.1572	0.1662	-0.428
Mof_C 	C 	0.374	0.929	0.143	-0.543
Mof_H 	H 	0.3715	0.8665	0.1605	0.165
Mof_H 	H 	0.3038	0.9156	0.1335	0.174
Mof_H 	H 	0.4062	0.9827	0.1821	0.188
Mof_C 	C 	0.5905	0.097	0.9983	0.037
Mof_C 	C 	0.438	0.967	0.0668	0.113
Mof_H 	H 	0.703	0.237	0.0479	0.103
Mof_H 	H 	0.752	0.1897	0.9911	0.086
Mof_H 	H 	0.6945	0.2463	0.9574	0.078
Mof_C 	C 	0.695	0.203	0.999	-0.268
Mof_O 	O 	0.8428	0.3462	0.1662	-0.428
Mof_C 	C 	0.071	0.445	0.143	-0.544
Mof_H 	H 	0.1335	0.505	0.1605	0.165
Mof_H 	H 	0.0844	0.3882	0.1335	0.174
Mof_H 	H 	0.0173	0.4235	0.1821	0.188
Mof_C 	C 	0.903	0.4935	0.9983	0.037
Mof_C 	C 	0.033	0.471	0.0668	0.113
Mof_H 	H 	0.763	0.466	0.0479	0.103
Mof_H 	H 	0.8103	0.5623	0.9911	0.086
Mof_H 	H 	0.7537	0.4482	0.9574	0.078
Mof_C 	C 	0.797	0.492	0.999	-0.268
Mof_O 	O 	0.6538	0.4966	0.1662	-0.428
Mof_C 	C 	0.555	0.626	0.143	-0.544
Mof_H 	H 	0.495	0.6285	0.1605	0.165
Mof_H 	H 	0.6118	0.6962	0.1335	0.174
Mof_H 	H 	0.5765	0.5938	0.1821	0.187
Mof_C 	C 	0.5065	0.4095	0.9983	0.036
Mof_C 	C 	0.529	0.562	0.0668	0.113
Mof_H 	H 	0.534	0.297	0.0479	0.102
Mof_H 	H 	0.4377	0.248	0.9911	0.085
Mof_H 	H 	0.5518	0.3055	0.9574	0.077
Mof_C 	C 	0.508	0.305	0.999	-0.269
Mof_O 	O 	0.4966	0.8428	0.6662	-0.429
Mof_C 	C 	0.626	0.071	0.643	-0.545
Mof_H 	H 	0.6285	0.1335	0.6605	0.164
Mof_H 	H 	0.6962	0.0844	0.6335	0.173
Mof_H 	H 	0.5938	0.0173	0.6821	0.187
Mof_C 	C 	0.4095	0.903	0.4983	0.036
Mof_C 	C 	0.562	0.033	0.5668	0.113
Mof_H 	H 	0.297	0.763	0.5479	0.102
Mof_H 	H 	0.248	0.8103	0.4911	0.085
Mof_H 	H 	0.3055	0.7537	0.4574	0.077
Mof_C 	C 	0.305	0.797	0.499	-0.268
Mof_O 	O 	0.1572	0.6538	0.6662	-0.429
Mof_C 	C 	0.929	0.555	0.643	-0.545
Mof_H 	H 	0.8665	0.495	0.6605	0.164
Mof_H 	H 	0.9156	0.6118	0.6335	0.173
Mof_H 	H 	0.9827	0.5765	0.6821	0.187
Mof_C 	C 	0.097	0.5065	0.4983	0.036
Mof_C 	C 	0.967	0.529	0.5668	0.113
Mof_H 	H 	0.237	0.534	0.5479	0.102
Mof_H 	H 	0.1897	0.4377	0.4911	0.085
Mof_H 	H 	0.2463	0.5518	0.4574	0.077
Mof_C 	C 	0.203	0.508	0.499	-0.268
Mof_O 	O 	0.3462	0.5034	0.6662	-0.429
Mof_C 	C 	0.445	0.374	0.643	-0.545
Mof_H 	H 	0.505	0.3715	0.6605	0.164
Mof_H 	H 	0.3882	0.3038	0.6335	0.173
Mof_H 	H 	0.4235	0.4062	0.6821	0.187
Mof_C 	C 	0.4935	0.5905	0.4983	0.036
Mof_C 	C 	0.471	0.438	0.5668	0.113
Mof_H 	H 	0.466	0.703	0.5479	0.102
Mof_H 	H 	0.5623	0.752	0.4911	0.085
Mof_H 	H 	0.4482	0.6945	0.4574	0.077
Mof_C 	C 	0.492	0.695	0.499	-0.268
Mof_O 	O 	0.1572	0.5034	0.8338	-0.429
Mof_C 	C 	0.929	0.374	0.857	-0.544
Mof_H 	H 	0.8665	0.3715	0.8395	0.164
Mof_H 	H 	0.9156	0.3038	0.8665	0.173
Mof_H 	H 	0.9827	0.4062	0.8179	0.187
Mof_C 	C 	0.097	0.5905	0.0017	0.036
Mof_C 	C 	0.967	0.438	0.9332	0.112
Mof_H 	H 	0.237	0.703	0.9521	0.102
Mof_H 	H 	0.1897	0.752	0.0089	0.085
Mof_H 	H 	0.2463	0.6945	0.0426	0.077
Mof_C 	C 	0.203	0.695	0.001	-0.269
Mof_O 	O 	0.3462	0.8428	0.8338	-0.429
Mof_C 	C 	0.445	0.071	0.857	-0.545
Mof_H 	H 	0.505	0.1335	0.8395	0.164
Mof_H 	H 	0.3882	0.0844	0.8665	0.173
Mof_H 	H 	0.4235	0.0173	0.8179	0.187
Mof_C 	C 	0.4935	0.903	0.0017	0.036
Mof_C 	C 	0.471	0.033	0.9332	0.112
Mof_H 	H 	0.466	0.763	0.9521	0.102
Mof_H 	H 	0.5623	0.8103	0.0089	0.085
Mof_H 	H 	0.4482	0.7537	0.0426	0.077
Mof_C 	C 	0.492	0.797	0.001	-0.269
Mof_O 	O 	0.4966	0.6538	0.8338	-0.429
Mof_C 	C 	0.626	0.555	0.857	-0.545
Mof_H 	H 	0.6285	0.495	0.8395	0.164
Mof_H 	H 	0.6962	0.6118	0.8665	0.173
Mof_H 	H 	0.5938	0.5765	0.8179	0.187
Mof_C 	C 	0.4095	0.5065	0.0017	0.036
Mof_C 	C 	0.562	0.529	0.9332	0.113
Mof_H 	H 	0.297	0.534	0.9521	0.102
Mof_H 	H 	0.248	0.4377	0.0089	0.085
Mof_H 	H 	0.3055	0.5518	0.0426	0.077
Mof_C 	C 	0.305	0.508	0.001	-0.269
Mof_O 	O 	0.8428	0.4966	0.3338	-0.429
Mof_C 	C 	0.071	0.626	0.357	-0.545
Mof_H 	H 	0.1335	0.6285	0.3395	0.164
Mof_H 	H 	0.0844	0.6962	0.3665	0.173
Mof_H 	H 	0.0173	0.5938	0.3179	0.187
Mof_C 	C 	0.903	0.4095	0.5017	0.036
Mof_C 	C 	0.033	0.562	0.4332	0.113
Mof_H 	H 	0.763	0.297	0.4521	0.102
Mof_H 	H 	0.8103	0.248	0.5089	0.085
Mof_H 	H 	0.7537	0.3055	0.5426	0.077
Mof_C 	C 	0.797	0.305	0.501	-0.268
Mof_O 	O 	0.6538	0.1572	0.3338	-0.429
Mof_C 	C 	0.555	0.929	0.357	-0.545
Mof_H 	H 	0.495	0.8665	0.3395	0.164
Mof_H 	H 	0.6118	0.9156	0.3665	0.173
Mof_H 	H 	0.5765	0.9827	0.3179	0.187
Mof_C 	C 	0.5065	0.097	0.5017	0.036
Mof_C 	C 	0.529	0.967	0.4332	0.113
Mof_H 	H 	0.534	0.237	0.4521	0.102
Mof_H 	H 	0.4377	0.1897	0.5089	0.085
Mof_H 	H 	0.5518	0.2463	0.5426	0.077
Mof_C 	C 	0.508	0.203	0.501	-0.268
Mof_O 	O 	0.5034	0.3462	0.3338	-0.429
Mof_C 	C 	0.374	0.445	0.357	-0.545
Mof_H 	H 	0.3715	0.505	0.3395	0.164
Mof_H 	H 	0.3038	0.3882	0.3665	0.173
Mof_H 	H 	0.4062	0.4235	0.3179	0.187
Mof_C 	C 	0.5905	0.4935	0.5017	0.036
Mof_C 	C 	0.438	0.471	0.4332	0.113
Mof_H 	H 	0.703	0.466	0.4521	0.102
Mof_H 	H 	0.752	0.5623	0.5089	0.085
Mof_H 	H 	0.6945	0.4482	0.5426	0.077
Mof_C 	C 	0.695	0.492	0.501	-0.268
Mof_O 	O 	0.4966	0.8428	0.8338	-0.429
Mof_C 	C 	0.626	0.071	0.857	-0.544
Mof_H 	H 	0.6285	0.1335	0.8395	0.164
Mof_H 	H 	0.6962	0.0844	0.8665	0.173
Mof_H 	H 	0.5938	0.0173	0.8179	0.187
Mof_C 	C 	0.4095	0.903	0.0017	0.036
Mof_C 	C 	0.562	0.033	0.9332	0.112
Mof_H 	H 	0.297	0.763	0.9521	0.102
Mof_H 	H 	0.248	0.8103	0.0089	0.085
Mof_H 	H 	0.3055	0.7537	0.0426	0.077
Mof_C 	C 	0.305	0.797	0.001	-0.269
Mof_O 	O 	0.1572	0.6538	0.8338	-0.429
Mof_C 	C 	0.929	0.555	0.857	-0.545
Mof_H 	H 	0.8665	0.495	0.8395	0.164
Mof_H 	H 	0.9156	0.6118	0.8665	0.173
Mof_H 	H 	0.9827	0.5765	0.8179	0.187
Mof_C 	C 	0.097	0.5065	0.0017	0.036
Mof_C 	C 	0.967	0.529	0.9332	0.112
Mof_H 	H 	0.237	0.534	0.9521	0.102
Mof_H 	H 	0.1897	0.4377	0.0089	0.085
Mof_H 	H 	0.2463	0.5518	0.0426	0.077
Mof_C 	C 	0.203	0.508	0.001	-0.269
Mof_O 	O 	0.3462	0.5034	0.8338	-0.429
Mof_C 	C 	0.445	0.374	0.857	-0.545
Mof_H 	H 	0.505	0.3715	0.8395	0.164
Mof_H 	H 	0.3882	0.3038	0.8665	0.173
Mof_H 	H 	0.4235	0.4062	0.8179	0.187
Mof_C 	C 	0.4935	0.5905	0.0017	0.036
Mof_C 	C 	0.471	0.438	0.9332	0.113
Mof_H 	H 	0.466	0.703	0.9521	0.102
Mof_H 	H 	0.5623	0.752	0.0089	0.085
Mof_H 	H 	0.4482	0.6945	0.0426	0.077
Mof_C 	C 	0.492	0.695	0.001	-0.269
Mof_O 	O 	0.5034	0.1572	0.3338	-0.429
Mof_C 	C 	0.374	0.929	0.357	-0.545
Mof_H 	H 	0.3715	0.8665	0.3395	0.164
Mof_H 	H 	0.3038	0.9156	0.3665	0.173
Mof_H 	H 	0.4062	0.9827	0.3179	0.187
Mof_C 	C 	0.5905	0.097	0.5017	0.036
Mof_C 	C 	0.438	0.967	0.4332	0.113
Mof_H 	H 	0.703	0.237	0.4521	0.102
Mof_H 	H 	0.752	0.1897	0.5089	0.085
Mof_H 	H 	0.6945	0.2463	0.5426	0.077
Mof_C 	C 	0.695	0.203	0.501	-0.268
Mof_O 	O 	0.8428	0.3462	0.3338	-0.429
Mof_C 	C 	0.071	0.445	0.357	-0.545
Mof_H 	H 	0.1335	0.505	0.3395	0.164
Mof_H 	H 	0.0844	0.3882	0.3665	0.173
Mof_H 	H 	0.0173	0.4235	0.3179	0.187
Mof_C 	C 	0.903	0.4935	0.5017	0.036
Mof_C 	C 	0.033	0.471	0.4332	0.113
Mof_H 	H 	0.763	0.466	0.4521	0.102
Mof_H 	H 	0.8103	0.5623	0.5089	0.085
Mof_H 	H 	0.7537	0.4482	0.5426	0.077
Mof_C 	C 	0.797	0.492	0.501	-0.268
Mof_O 	O 	0.6538	0.4966	0.3338	-0.429
Mof_C 	C 	0.555	0.626	0.357	-0.545
Mof_H 	H 	0.495	0.6285	0.3395	0.164
Mof_H 	H 	0.6118	0.6962	0.3665	0.173
Mof_H 	H 	0.5765	0.5938	0.3179	0.187
Mof_C 	C 	0.5065	0.4095	0.5017	0.036
Mof_C 	C 	0.529	0.562	0.4332	0.113
Mof_H 	H 	0.534	0.297	0.4521	0.102
Mof_H 	H 	0.4377	0.248	0.5089	0.085
Mof_H 	H 	0.5518	0.3055	0.5426	0.077
Mof_C 	C 	0.508	0.305	0.501	-0.268
Mof_O 	O 	0.8428	0.4966	0.1662	-0.429
Mof_C 	C 	0.071	0.626	0.143	-0.544
Mof_H 	H 	0.1335	0.6285	0.1605	0.164
Mof_H 	H 	0.0844	0.6962	0.1335	0.173
Mof_H 	H 	0.0173	0.5938	0.1821	0.187
Mof_C 	C 	0.903	0.4095	0.9983	0.036
Mof_C 	C 	0.033	0.562	0.0668	0.112
Mof_H 	H 	0.763	0.297	0.0479	0.102
Mof_H 	H 	0.8103	0.248	0.9911	0.085
Mof_H 	H 	0.7537	0.3055	0.9574	0.077
Mof_C 	C 	0.797	0.305	0.999	-0.269
Mof_O 	O 	0.6538	0.1572	0.1662	-0.429
Mof_C 	C 	0.555	0.929	0.143	-0.545
Mof_H 	H 	0.495	0.8665	0.1605	0.164
Mof_H 	H 	0.6118	0.9156	0.1335	0.173
Mof_H 	H 	0.5765	0.9827	0.1821	0.187
Mof_C 	C 	0.5065	0.097	0.9983	0.036
Mof_C 	C 	0.529	0.967	0.0668	0.112
Mof_H 	H 	0.534	0.237	0.0479	0.102
Mof_H 	H 	0.4377	0.1897	0.9911	0.085
Mof_H 	H 	0.5518	0.2463	0.9574	0.077
Mof_C 	C 	0.508	0.203	0.999	-0.269
Mof_O 	O 	0.5034	0.3462	0.1662	-0.429
Mof_C 	C 	0.374	0.445	0.143	-0.545
Mof_H 	H 	0.3715	0.505	0.1605	0.164
Mof_H 	H 	0.3038	0.3882	0.1335	0.173
Mof_H 	H 	0.4062	0.4235	0.1821	0.187
Mof_C 	C 	0.5905	0.4935	0.9983	0.036
Mof_C 	C 	0.438	0.471	0.0668	0.113
Mof_H 	H 	0.703	0.466	0.0479	0.102
Mof_H 	H 	0.752	0.5623	0.9911	0.085
Mof_H 	H 	0.6945	0.4482	0.9574	0.077
Mof_C 	C 	0.695	0.492	0.999	-0.269
Mof_O 	O 	0.1572	0.5034	0.6662	-0.429
Mof_C 	C 	0.929	0.374	0.643	-0.545
Mof_H 	H 	0.8665	0.3715	0.6605	0.164
Mof_H 	H 	0.9156	0.3038	0.6335	0.173
Mof_H 	H 	0.9827	0.4062	0.6821	0.187
Mof_C 	C 	0.097	0.5905	0.4983	0.036
Mof_C 	C 	0.967	0.438	0.5668	0.113
Mof_H 	H 	0.237	0.703	0.5479	0.102
Mof_H 	H 	0.1897	0.752	0.4911	0.085
Mof_H 	H 	0.2463	0.6945	0.4574	0.077
Mof_C 	C 	0.203	0.695	0.499	-0.268
Mof_O 	O 	0.3462	0.8428	0.6662	-0.429
Mof_C 	C 	0.445	0.071	0.643	-0.545
Mof_H 	H 	0.505	0.1335	0.6605	0.164
Mof_H 	H 	0.3882	0.0844	0.6335	0.173
Mof_H 	H 	0.4235	0.0173	0.6821	0.187
Mof_C 	C 	0.4935	0.903	0.4983	0.036
Mof_C 	C 	0.471	0.033	0.5668	0.113
Mof_H 	H 	0.466	0.763	0.5479	0.102
Mof_H 	H 	0.5623	0.8103	0.4911	0.085
Mof_H 	H 	0.4482	0.7537	0.4574	0.077
Mof_C 	C 	0.492	0.797	0.499	-0.268
Mof_O 	O 	0.4966	0.6538	0.6662	-0.429
Mof_C 	C 	0.626	0.555	0.643	-0.545
Mof_H 	H 	0.6285	0.495	0.6605	0.164
Mof_H 	H 	0.6962	0.6118	0.6335	0.173
Mof_H 	H 	0.5938	0.5765	0.6821	0.187
Mof_C 	C 	0.4095	0.5065	0.4983	0.036
Mof_C 	C 	0.562	0.529	0.5668	0.113
Mof_H 	H 	0.297	0.534	0.5479	0.102
Mof_H 	H 	0.248	0.4377	0.4911	0.085
Mof_H 	H 	0.3055	0.5518	0.4574	0.077
Mof_C 	C 	0.305	0.508	0.499	-0.268
Mof_Fe	Fe	0.5166	0.2583	0.25	0.953
Mof_Fe	Fe	0.7417	0.2583	0.25	0.953
Mof_Fe	Fe	0.7417	0.4834	0.25	0.953
Mof_Fe	Fe	0.4834	0.7417	0.75	0.953
Mof_Fe	Fe	0.2583	0.7417	0.75	0.953
Mof_Fe	Fe	0.2583	0.5166	0.75	0.953
Mof_O 	O 	0.66667	0.33333	0.25	-0.532
Mof_O 	O 	0.33333	0.66667	0.75	-0.532
Mof_C 	C 	0.56545	0.1309	0.1392	0.429
Mof_C 	C 	0.5315	0.063	0.0657	-0.207
Mof_C 	C 	0.8691	0.43455	0.1392	0.429
Mof_C 	C 	0.937	0.4685	0.0657	-0.207
Mof_C 	C 	0.56545	0.43455	0.1392	0.429
Mof_C 	C 	0.5315	0.4685	0.0657	-0.208
Mof_C 	C 	0.43455	0.8691	0.6392	0.429
Mof_C 	C 	0.4685	0.937	0.5657	-0.208
Mof_C 	C 	0.1309	0.56545	0.6392	0.429
Mof_C 	C 	0.063	0.5315	0.5657	-0.208
Mof_C 	C 	0.43455	0.56545	0.6392	0.429
Mof_C 	C 	0.4685	0.5315	0.5657	-0.208
Mof_C 	C 	0.1309	0.56545	0.8608	0.429
Mof_C 	C 	0.063	0.5315	0.9343	-0.207
Mof_C 	C 	0.43455	0.8691	0.8608	0.429
Mof_C 	C 	0.4685	0.937	0.9343	-0.207
Mof_C 	C 	0.43455	0.56545	0.8608	0.429
Mof_C 	C 	0.4685	0.5315	0.9343	-0.208
Mof_C 	C 	0.8691	0.43455	0.3608	0.429
Mof_C 	C 	0.937	0.4685	0.4343	-0.208
Mof_C 	C 	0.56545	0.1309	0.3608	0.429
Mof_C 	C 	0.5315	0.063	0.4343	-0.208
Mof_C 	C 	0.56545	0.43455	0.3608	0.429
Mof_C 	C 	0.5315	0.4685	0.4343	-0.208
_end
