# CIF file generated by openbabel 3.1.0, see https://openbabel.org
data_I
_chemical_name_common 'YIWMEW_clean'
_cell_length_a 8.694
_cell_length_b 11.212
_cell_length_c 13.483
_cell_angle_alpha 90
_cell_angle_beta 90
_cell_angle_gamma 90
_space_group_name_H-M_alt 'P 1'
_space_group_name_Hall 'P 1'
loop_
    _symmetry_equiv_pos_as_xyz
    x,y,z
loop_
    _atom_site_label
    _atom_site_type_symbol
    _atom_site_fract_x
    _atom_site_fract_y
    _atom_site_fract_z
    _atom_site_occupancy
    Cd1      Cd       0.00000    0.76624    0.00000    1.000
    Cd2      Cd       0.50000    0.23376    0.50000    1.000
    Cd3      Cd       0.50000    0.06788    0.10077    1.000
    Cd4      Cd       0.50000    0.48572    0.86754    1.000
    Cd5      Cd       0.00000    0.93212    0.60077    1.000
    Cd6      Cd       0.00000    0.51428    0.36754    1.000
    C1       C        0.70730    0.96080    0.06120    1.000
    C2       C        0.70670    0.58000    0.91830    1.000
    C3       C        0.79270    0.03920    0.56120    1.000
    C4       C        0.79330    0.42000    0.41830    1.000
    C5       C        0.20730    0.03920    0.56120    1.000
    C6       C        0.20670    0.42000    0.41830    1.000
    C7       C        0.29270    0.96080    0.06120    1.000
    C8       C        0.29330    0.58000    0.91830    1.000
    C9       C        0.00000    0.87650    0.75800    1.000
    C10      C        0.00000    0.62350    0.23090    1.000
    C11      C        0.50000    0.12350    0.25800    1.000
    C12      C        0.50000    0.37650    0.73090    1.000
    C13      C        0.50000    0.23910    0.01730    1.000
    C14      C        0.50000    0.32720    0.97570    1.000
    C15      C        0.00000    0.76090    0.51730    1.000
    C16      C        0.00000    0.67280    0.47570    1.000
    N1       N        0.80770    0.89920    0.04190    1.000
    N2       N        0.80750    0.63210    0.94930    1.000
    N3       N        0.69230    0.10080    0.54190    1.000
    N4       N        0.69250    0.36790    0.44930    1.000
    N5       N        0.30770    0.10080    0.54190    1.000
    N6       N        0.30750    0.36790    0.44930    1.000
    N7       N        0.19230    0.89920    0.04190    1.000
    N8       N        0.19250    0.63210    0.94930    1.000
    N9       N        0.00000    0.84210    0.83830    1.000
    N10      N        0.00000    0.67750    0.15830    1.000
    N11      N        0.50000    0.15790    0.33830    1.000
    N12      N        0.50000    0.32250    0.65830    1.000
