# CIF file generated by openbabel 3.1.0, see https://openbabel.org
data_I
_chemical_name_common 'FERVIJ_clean'
_cell_length_a 9.7512
_cell_length_b 15.8547
_cell_length_c 15.8547
_cell_angle_alpha 64.0902
_cell_angle_beta 78.1698
_cell_angle_gamma 101.83
_space_group_name_H-M_alt 'P 1'
_space_group_name_Hall 'P 1'
loop_
    _symmetry_equiv_pos_as_xyz
    x,y,z
loop_
    _atom_site_label
    _atom_site_type_symbol
    _atom_site_fract_x
    _atom_site_fract_y
    _atom_site_fract_z
    _atom_site_occupancy
    Fe1      Fe       0.00000    0.50000    0.00000    1.000
    Fe2      Fe       0.00000    0.00000    0.50000    1.000
    Fe3      Fe       0.50000    0.50000    0.50000    1.000
    H1       H        0.97600    0.58380    0.14420    1.000
    H2       H        0.02420    0.72890    0.14890    1.000
    H3       H        0.12020    0.14420    0.27200    1.000
    H4       H        0.17310    0.14890    0.12220    1.000
    H5       H        0.39220    0.27200    0.58380    1.000
    H6       H        0.29530    0.12220    0.72890    1.000
    H7       H        0.87980    0.27200    0.14420    1.000
    H8       H        0.82690    0.12220    0.14890    1.000
    H9       H        0.60780    0.58380    0.27200    1.000
    H10      H        0.70470    0.72890    0.12220    1.000
    H11      H        0.02400    0.14420    0.58380    1.000
    H12      H        0.97580    0.14890    0.72890    1.000
    H13      H        0.02400    0.41620    0.85580    1.000
    H14      H        0.97580    0.27110    0.85110    1.000
    H15      H        0.87980    0.85580    0.72800    1.000
    H16      H        0.82690    0.85110    0.87780    1.000
    H17      H        0.60780    0.72800    0.41620    1.000
    H18      H        0.70470    0.87780    0.27110    1.000
    H19      H        0.12020    0.72800    0.85580    1.000
    H20      H        0.17310    0.87780    0.85110    1.000
    H21      H        0.39220    0.41620    0.72800    1.000
    H22      H        0.29530    0.27110    0.87780    1.000
    H23      H        0.97600    0.85580    0.41620    1.000
    H24      H        0.02420    0.85110    0.27110    1.000
    Au1      Au       0.20784    0.41568    0.29216    1.000
    Au2      Au       0.50000    0.29216    0.29216    1.000
    Au3      Au       0.79216    0.29216    0.41568    1.000
    Au4      Au       0.79216    0.58432    0.70784    1.000
    Au5      Au       0.50000    0.70784    0.70784    1.000
    Au6      Au       0.20784    0.70784    0.58432    1.000
    C1       C        0.01530    0.64390    0.08460    1.000
    C2       C        0.04480    0.73060    0.08820    1.000
    C3       C        0.13300    0.42420    0.18260    1.000
    C4       C        0.09990    0.08460    0.27150    1.000
    C5       C        0.13300    0.08820    0.18120    1.000
    C6       C        0.31560    0.18260    0.39320    1.000
    C7       C        0.37140    0.27150    0.64390    1.000
    C8       C        0.31420    0.18120    0.73060    1.000
    C9       C        0.70880    0.39320    0.42420    1.000
    C10      C        0.90010    0.27150    0.08460    1.000
    C11      C        0.86700    0.18120    0.08820    1.000
    C12      C        0.68440    0.39320    0.18260    1.000
    C13      C        0.62860    0.64390    0.27150    1.000
    C14      C        0.68580    0.73060    0.18120    1.000
    C15      C        0.29120    0.42420    0.39320    1.000
    C16      C        0.98470    0.08460    0.64390    1.000
    C17      C        0.95520    0.08820    0.73060    1.000
    C18      C        0.86700    0.18260    0.42420    1.000
    C19      C        0.98470    0.35610    0.91540    1.000
    C20      C        0.95520    0.26940    0.91180    1.000
    C21      C        0.86700    0.57580    0.81740    1.000
    C22      C        0.90010    0.91540    0.72850    1.000
    C23      C        0.86700    0.91180    0.81880    1.000
    C24      C        0.68440    0.81740    0.60680    1.000
    C25      C        0.62860    0.72850    0.35610    1.000
    C26      C        0.68580    0.81880    0.26940    1.000
    C27      C        0.29120    0.60680    0.57580    1.000
    C28      C        0.09990    0.72850    0.91540    1.000
    C29      C        0.13300    0.81880    0.91180    1.000
    C30      C        0.31560    0.60680    0.81740    1.000
    C31      C        0.37140    0.35610    0.72850    1.000
    C32      C        0.31420    0.26940    0.81880    1.000
    C33      C        0.70880    0.57580    0.60680    1.000
    C34      C        0.01530    0.91540    0.35610    1.000
    C35      C        0.04480    0.91180    0.26940    1.000
    C36      C        0.13300    0.81740    0.57580    1.000
    C37      C        0.10585    0.82015    0.00000    1.000
    C38      C        0.13995    0.91675    0.00000    1.000
    C39      C        0.10585    0.00000    0.17985    1.000
    C40      C        0.13995    0.00000    0.08325    1.000
    C41      C        0.28570    0.17985    0.82015    1.000
    C42      C        0.22320    0.08325    0.91675    1.000
    C43      C        0.89415    0.17985    0.00000    1.000
    C44      C        0.86005    0.08325    0.00000    1.000
    C45      C        0.71430    0.82015    0.17985    1.000
    C46      C        0.77680    0.91675    0.08325    1.000
    C47      C        0.89415    0.00000    0.82015    1.000
    C48      C        0.86005    0.00000    0.91675    1.000
    N1       N        0.09060    0.44190    0.11750    1.000
    N2       N        0.20810    0.11750    0.44060    1.000
    N3       N        0.64870    0.44060    0.44190    1.000
    N4       N        0.79190    0.44060    0.11750    1.000
    N5       N        0.35130    0.44190    0.44060    1.000
    N6       N        0.90940    0.11750    0.44190    1.000
    N7       N        0.90940    0.55810    0.88250    1.000
    N8       N        0.79190    0.88250    0.55940    1.000
    N9       N        0.35130    0.55940    0.55810    1.000
    N10      N        0.20810    0.55940    0.88250    1.000
    N11      N        0.64870    0.55810    0.55940    1.000
    N12      N        0.09060    0.88250    0.55810    1.000
    N13      N        0.04020    0.64180    0.00000    1.000
    N14      N        0.04020    0.00000    0.35820    1.000
    N15      N        0.39840    0.35820    0.64180    1.000
    N16      N        0.95980    0.35820    0.00000    1.000
    N17      N        0.60160    0.64180    0.35820    1.000
    N18      N        0.95980    0.00000    0.64180    1.000
    N19      N        0.10860    0.91210    0.08790    1.000
    N20      N        0.19650    0.08790    0.00000    1.000
    N21      N        0.19650    0.00000    0.91210    1.000
    N22      N        0.80350    0.00000    0.08790    1.000
    N23      N        0.80350    0.91210    0.00000    1.000
    N24      N        0.89140    0.08790    0.91210    1.000
