data_functionalizedCrystal
_audit_creation_method	'EQeq! by Chris Wilmer'
_symmetry_space_group_name_H-M	'P1'
_symmetry_Int_Tables_number	1
_symmetry_cell_setting	triclinic
loop_
_symmetry_equiv_pos_as_xyz
  x,y,z
_cell_length_a	11.431
_cell_length_b	11.431
_cell_length_c	46.6
_cell_angle_alpha	90
_cell_angle_beta	90
_cell_angle_gamma	120
loop_
_atom_site_label
_atom_site_type_symbol
_atom_site_fract_x
_atom_site_fract_y
_atom_site_fract_z
_atom_site_charge
Mof_Co	Co	0.01001	0.99939	-0	1.141
Mof_Co	Co	0.34068	0.65979	0.92076	1.151
Mof_Co	Co	0.98938	0.98999	0.66667	1.149
Mof_Co	Co	0.31911	0.65932	0.58743	1.151
Mof_Co	Co	0.00061	0.01062	0.33333	1.141
Mof_Co	Co	0.34021	0.68089	0.25409	1.151
Mof_Co	Co	0.98999	0.00061	0.5	1.142
Mof_Co	Co	0.65932	0.34021	0.42076	1.151
Mof_Co	Co	0.01062	0.01001	0.16667	1.149
Mof_Co	Co	0.68089	0.34068	0.08743	1.151
Mof_Co	Co	0.99939	0.98938	0.83333	1.141
Mof_Co	Co	0.65979	0.31911	0.75409	1.151
Mof_P 	P 	0.0106	0.0017	0.94873	-0.003
Mof_P 	P 	0.3322	0.6521	0.86941	-0.038
Mof_P 	P 	0.9911	0.9894	0.6154	-0.042
Mof_P 	P 	0.3199	0.6678	0.53608	-0.038
Mof_P 	P 	0.9983	0.0089	0.28206	-0.021
Mof_P 	P 	0.3479	0.6801	0.20274	-0.039
Mof_P 	P 	0.9894	0.9983	0.44873	-0.003
Mof_P 	P 	0.6678	0.3479	0.36941	-0.038
Mof_P 	P 	0.0089	0.0106	0.1154	-0.042
Mof_P 	P 	0.6801	0.3322	0.03608	-0.036
Mof_P 	P 	0.0017	0.9911	0.78206	-0.021
Mof_P 	P 	0.6521	0.3199	0.70274	-0.039
Mof_H 	H 	0.8054	0.9805	0.9343	0.059
Mof_H 	H 	0.852	0.9103	0.9118	0.064
Mof_H 	H 	0.7838	0.7251	0.9439	0.139
Mof_H 	H 	0.732	0.7947	0.9655	0.132
Mof_H 	H 	0.0258	0.8177	0.9312	0.064
Mof_H 	H 	0.1119	0.9446	0.9118	0.063
Mof_H 	H 	0.2831	0.0365	0.948	0.166
Mof_H 	H 	0.1972	0.9081	0.967	0.145
Mof_H 	H 	0.1938	0.2055	0.9333	0.067
Mof_H 	H 	0.0725	0.1614	0.9121	0.064
Mof_H 	H 	0.9682	0.2375	0.944	0.145
Mof_H 	H 	0.0822	0.2733	0.9667	0.136
Mof_H 	H 	0.1247	0.4613	0.8607	0.064
Mof_H 	H 	0.2139	0.5003	0.833	0.065
Mof_H 	H 	0.2481	0.3684	0.8804	0.13
Mof_H 	H 	0.3357	0.4061	0.8524	0.134
Mof_H 	H 	0.5209	0.6326	0.8587	0.068
Mof_H 	H 	0.475	0.678	0.8312	0.064
Mof_H 	H 	0.6103	0.8547	0.8773	0.128
Mof_H 	H 	0.5739	0.8978	0.8482	0.129
Mof_H 	H 	0.3534	0.8584	0.8567	0.062
Mof_H 	H 	0.297	0.7586	0.8307	0.064
Mof_H 	H 	0.081	0.6495	0.8511	0.139
Mof_H 	H 	0.1358	0.7415	0.8784	0.136
Mof_H 	H 	0.1751	0.1946	0.60097	0.062
Mof_H 	H 	0.0583	0.148	0.57847	0.065
Mof_H 	H 	0.9413	0.2162	0.61057	0.119
Mof_H 	H 	0.0627	0.268	0.63217	0.132
Mof_H 	H 	0.7919	0.9742	0.59787	0.064
Mof_H 	H 	0.8327	0.8881	0.57847	0.065
Mof_H 	H 	0.7534	0.7169	0.61467	0.139
Mof_H 	H 	0.7109	0.8028	0.63367	0.138
Mof_H 	H 	0.0117	0.8062	0.59997	0.068
Mof_H 	H 	0.0889	0.9275	0.57877	0.059
Mof_H 	H 	0.2693	0.0318	0.61067	0.138
Mof_H 	H 	0.1911	0.9178	0.63337	0.139
Mof_H 	H 	0.3366	0.8753	0.52737	0.062
Mof_H 	H 	0.2864	0.7861	0.49967	0.063
Mof_H 	H 	0.1203	0.7519	0.54707	0.133
Mof_H 	H 	0.0704	0.6643	0.51907	0.137
Mof_H 	H 	0.1117	0.4791	0.52537	0.068
Mof_H 	H 	0.203	0.525	0.49787	0.064
Mof_H 	H 	0.2444	0.3897	0.54397	0.13
Mof_H 	H 	0.3239	0.4261	0.51487	0.132
Mof_H 	H 	0.505	0.6466	0.52337	0.065
Mof_H 	H 	0.4616	0.703	0.49737	0.065
Mof_H 	H 	0.5685	0.919	0.51777	0.138
Mof_H 	H 	0.6057	0.8642	0.54507	0.135
Mof_H 	H 	0.0195	0.8249	0.26763	0.059
Mof_H 	H 	0.0897	0.9417	0.24513	0.067
Mof_H 	H 	0.2749	0.0587	0.27723	0.123
Mof_H 	H 	0.2053	0.9373	0.29883	0.13
Mof_H 	H 	0.1823	0.2081	0.26453	0.062
Mof_H 	H 	0.0554	0.1673	0.24513	0.059
Mof_H 	H 	0.9635	0.2466	0.28133	0.164
Mof_H 	H 	0.0919	0.2891	0.30033	0.146
Mof_H 	H 	0.7945	0.9883	0.26663	0.068
Mof_H 	H 	0.8386	0.9111	0.24543	0.059
Mof_H 	H 	0.7625	0.7307	0.27733	0.151
Mof_H 	H 	0.7267	0.8089	0.30003	0.143
Mof_H 	H 	0.5387	0.6634	0.19403	0.061
Mof_H 	H 	0.4997	0.7136	0.16633	0.061
Mof_H 	H 	0.6316	0.8797	0.21373	0.133
Mof_H 	H 	0.5939	0.9296	0.18573	0.137
Mof_H 	H 	0.3674	0.8883	0.19203	0.068
Mof_H 	H 	0.322	0.797	0.16453	0.063
Mof_H 	H 	0.1453	0.7556	0.21063	0.128
Mof_H 	H 	0.1022	0.6761	0.18153	0.129
Mof_H 	H 	0.1416	0.495	0.19003	0.062
Mof_H 	H 	0.2414	0.5384	0.16403	0.062
Mof_H 	H 	0.3505	0.4315	0.18443	0.137
Mof_H 	H 	0.2585	0.3943	0.21173	0.135
Mof_H 	H 	0.1946	0.0195	0.4343	0.059
Mof_H 	H 	0.148	0.0897	0.4118	0.064
Mof_H 	H 	0.2162	0.2749	0.4439	0.138
Mof_H 	H 	0.268	0.2053	0.4655	0.131
Mof_H 	H 	0.9742	0.1823	0.4312	0.064
Mof_H 	H 	0.8881	0.0554	0.4118	0.063
Mof_H 	H 	0.7169	0.9635	0.448	0.166
Mof_H 	H 	0.8028	0.0919	0.467	0.144
Mof_H 	H 	0.8062	0.7945	0.4333	0.068
Mof_H 	H 	0.9275	0.8386	0.4121	0.064
Mof_H 	H 	0.0318	0.7625	0.444	0.145
Mof_H 	H 	0.9178	0.7267	0.4667	0.136
Mof_H 	H 	0.8753	0.5387	0.3607	0.064
Mof_H 	H 	0.7861	0.4997	0.333	0.065
Mof_H 	H 	0.7519	0.6316	0.3804	0.13
Mof_H 	H 	0.6643	0.5939	0.3524	0.134
Mof_H 	H 	0.4791	0.3674	0.3587	0.068
Mof_H 	H 	0.525	0.322	0.3312	0.064
Mof_H 	H 	0.3897	0.1453	0.3773	0.128
Mof_H 	H 	0.4261	0.1022	0.3482	0.129
Mof_H 	H 	0.6466	0.1416	0.3567	0.062
Mof_H 	H 	0.703	0.2414	0.3307	0.064
Mof_H 	H 	0.919	0.3505	0.3511	0.139
Mof_H 	H 	0.8642	0.2585	0.3784	0.136
Mof_H 	H 	0.8249	0.8054	0.10097	0.062
Mof_H 	H 	0.9417	0.852	0.07847	0.064
Mof_H 	H 	0.0587	0.7838	0.11057	0.119
Mof_H 	H 	0.9373	0.732	0.13217	0.132
Mof_H 	H 	0.2081	0.0258	0.09787	0.064
Mof_H 	H 	0.1673	0.1119	0.07847	0.065
Mof_H 	H 	0.2466	0.2831	0.11467	0.139
Mof_H 	H 	0.2891	0.1972	0.13367	0.138
Mof_H 	H 	0.9883	0.1938	0.09997	0.068
Mof_H 	H 	0.9111	0.0725	0.07877	0.059
Mof_H 	H 	0.7307	0.9682	0.11067	0.138
Mof_H 	H 	0.8089	0.0822	0.13337	0.139
Mof_H 	H 	0.6634	0.1247	0.02737	0.064
Mof_H 	H 	0.7136	0.2139	0.99967	0.067
Mof_H 	H 	0.8797	0.2481	0.04707	0.132
Mof_H 	H 	0.9296	0.3357	0.01907	0.135
Mof_H 	H 	0.8883	0.5209	0.02537	0.069
Mof_H 	H 	0.797	0.475	0.99787	0.068
Mof_H 	H 	0.7556	0.6103	0.04397	0.128
Mof_H 	H 	0.6761	0.5739	0.01487	0.13
Mof_H 	H 	0.495	0.3534	0.02337	0.067
Mof_H 	H 	0.5384	0.297	0.99737	0.069
Mof_H 	H 	0.4315	0.081	0.01777	0.136
Mof_H 	H 	0.3943	0.1358	0.04507	0.134
Mof_H 	H 	0.9805	0.1751	0.76763	0.059
Mof_H 	H 	0.9103	0.0583	0.74513	0.067
Mof_H 	H 	0.7251	0.9413	0.77723	0.123
Mof_H 	H 	0.7947	0.0627	0.79883	0.13
Mof_H 	H 	0.8177	0.7919	0.76453	0.062
Mof_H 	H 	0.9446	0.8327	0.74513	0.059
Mof_H 	H 	0.0365	0.7534	0.78133	0.164
Mof_H 	H 	0.9081	0.7109	0.80033	0.146
Mof_H 	H 	0.2055	0.0117	0.76663	0.067
Mof_H 	H 	0.1614	0.0889	0.74543	0.059
Mof_H 	H 	0.2375	0.2693	0.77733	0.151
Mof_H 	H 	0.2733	0.1911	0.80003	0.143
Mof_H 	H 	0.4613	0.3366	0.69403	0.061
Mof_H 	H 	0.5003	0.2864	0.66633	0.061
Mof_H 	H 	0.3684	0.1203	0.71373	0.133
Mof_H 	H 	0.4061	0.0704	0.68573	0.137
Mof_H 	H 	0.6326	0.1117	0.69203	0.068
Mof_H 	H 	0.678	0.203	0.66453	0.063
Mof_H 	H 	0.8547	0.2444	0.71063	0.128
Mof_H 	H 	0.8978	0.3239	0.68153	0.129
Mof_H 	H 	0.8584	0.505	0.69003	0.062
Mof_H 	H 	0.7586	0.4616	0.66403	0.062
Mof_H 	H 	0.6495	0.5685	0.68443	0.137
Mof_H 	H 	0.7415	0.6057	0.71173	0.135
Mof_C 	C 	0.8431	0.9216	0.9322	-0.092
Mof_C 	C 	0.7452	0.7836	0.9453	-0.323
Mof_C 	C 	0.6097	0.7184	0.9299	0.394
Mof_C 	C 	0.0896	0.914	0.9315	-0.081
Mof_C 	C 	0.2194	0.9401	0.9474	-0.364
Mof_C 	C 	0.2848	0.8676	0.9324	0.393
Mof_C 	C 	0.0971	0.1699	0.9323	-0.068
Mof_C 	C 	0.0639	0.2698	0.9463	-0.341
Mof_C 	C 	0.1423	0.4094	0.9342	0.397
Mof_C 	C 	0.2148	0.4894	0.8536	-0.072
Mof_C 	C 	0.2464	0.3793	0.8597	-0.318
Mof_C 	C 	0.1464	0.2452	0.8467	0.371
Mof_C 	C 	0.4907	0.693	0.8517	-0.075
Mof_C 	C 	0.6005	0.8373	0.8568	-0.317
Mof_C 	C 	0.7353	0.8675	0.8445	0.384
Mof_C 	C 	0.2888	0.7663	0.8512	-0.072
Mof_C 	C 	0.1463	0.7391	0.8578	-0.324
Mof_C 	C 	0.1174	0.8417	0.8438	0.383
Mof_C 	C 	0.0785	0.1569	0.59887	-0.075
Mof_C 	C 	0.0384	0.2548	0.61197	-0.296
Mof_C 	C 	0.1087	0.3903	0.59657	0.388
Mof_C 	C 	0.8244	0.9104	0.59817	-0.077
Mof_C 	C 	0.7207	0.7806	0.61407	-0.323
Mof_C 	C 	0.5828	0.7152	0.59907	0.383
Mof_C 	C 	0.0728	0.9029	0.59897	-0.053
Mof_C 	C 	0.2059	0.9361	0.61297	-0.336
Mof_C 	C 	0.2671	0.8577	0.60087	0.396
Mof_C 	C 	0.2746	0.7852	0.52027	-0.067
Mof_C 	C 	0.1329	0.7536	0.52637	-0.327
Mof_C 	C 	0.0988	0.8536	0.51337	0.384
Mof_C 	C 	0.2023	0.5093	0.51837	-0.075
Mof_C 	C 	0.2368	0.3995	0.52347	-0.319
Mof_C 	C 	0.1322	0.2647	0.51117	0.385
Mof_C 	C 	0.4775	0.7112	0.51787	-0.075
Mof_C 	C 	0.5928	0.8537	0.52447	-0.321
Mof_C 	C 	0.7243	0.8826	0.51047	0.383
Mof_C 	C 	0.0784	0.9215	0.26553	-0.087
Mof_C 	C 	0.2164	0.9616	0.27863	-0.297
Mof_C 	C 	0.2816	0.8913	0.26323	0.388
Mof_C 	C 	0.086	0.1756	0.26483	-0.077
Mof_C 	C 	0.0599	0.2793	0.28073	-0.363
Mof_C 	C 	0.1324	0.4172	0.26573	0.393
Mof_C 	C 	0.8301	0.9272	0.26563	-0.051
Mof_C 	C 	0.7302	0.7941	0.27963	-0.354
Mof_C 	C 	0.5906	0.7329	0.26753	0.401
Mof_C 	C 	0.5106	0.7254	0.18693	-0.067
Mof_C 	C 	0.6207	0.8671	0.19303	-0.325
Mof_C 	C 	0.7548	0.9012	0.18003	0.377
Mof_C 	C 	0.307	0.7977	0.18503	-0.075
Mof_C 	C 	0.1627	0.7632	0.19013	-0.317
Mof_C 	C 	0.1325	0.8678	0.17783	0.384
Mof_C 	C 	0.2337	0.5225	0.18453	-0.072
Mof_C 	C 	0.2609	0.4072	0.19113	-0.324
Mof_C 	C 	0.1583	0.2757	0.17713	0.384
Mof_C 	C 	0.1569	0.0784	0.4322	-0.092
Mof_C 	C 	0.2548	0.2164	0.4453	-0.323
Mof_C 	C 	0.3903	0.2816	0.4299	0.394
Mof_C 	C 	0.9104	0.086	0.4315	-0.081
Mof_C 	C 	0.7806	0.0599	0.4474	-0.364
Mof_C 	C 	0.7152	0.1324	0.4324	0.393
Mof_C 	C 	0.9029	0.8301	0.4323	-0.068
Mof_C 	C 	0.9361	0.7302	0.4463	-0.34
Mof_C 	C 	0.8577	0.5906	0.4342	0.397
Mof_C 	C 	0.7852	0.5106	0.3536	-0.072
Mof_C 	C 	0.7536	0.6207	0.3597	-0.318
Mof_C 	C 	0.8536	0.7548	0.3467	0.371
Mof_C 	C 	0.5093	0.307	0.3517	-0.075
Mof_C 	C 	0.3995	0.1627	0.3568	-0.317
Mof_C 	C 	0.2647	0.1325	0.3445	0.384
Mof_C 	C 	0.7112	0.2337	0.3512	-0.072
Mof_C 	C 	0.8537	0.2609	0.3578	-0.324
Mof_C 	C 	0.8826	0.1583	0.3438	0.383
Mof_C 	C 	0.9215	0.8431	0.09887	-0.075
Mof_C 	C 	0.9616	0.7452	0.11197	-0.296
Mof_C 	C 	0.8913	0.6097	0.09657	0.388
Mof_C 	C 	0.1756	0.0896	0.09817	-0.077
Mof_C 	C 	0.2793	0.2194	0.11407	-0.323
Mof_C 	C 	0.4172	0.2848	0.09907	0.383
Mof_C 	C 	0.9272	0.0971	0.09897	-0.053
Mof_C 	C 	0.7941	0.0639	0.11297	-0.336
Mof_C 	C 	0.7329	0.1423	0.10087	0.396
Mof_C 	C 	0.7254	0.2148	0.02027	-0.074
Mof_C 	C 	0.8671	0.2464	0.02637	-0.322
Mof_C 	C 	0.9012	0.1464	0.01337	0.379
Mof_C 	C 	0.7977	0.4907	0.01837	-0.082
Mof_C 	C 	0.7632	0.6005	0.02347	-0.314
Mof_C 	C 	0.8678	0.7353	0.01117	0.381
Mof_C 	C 	0.5225	0.2888	0.01787	-0.081
Mof_C 	C 	0.4072	0.1463	0.02447	-0.317
Mof_C 	C 	0.2757	0.1174	0.01047	0.378
Mof_C 	C 	0.9216	0.0785	0.76553	-0.087
Mof_C 	C 	0.7836	0.0384	0.77863	-0.297
Mof_C 	C 	0.7184	0.1087	0.76323	0.388
Mof_C 	C 	0.914	0.8244	0.76483	-0.077
Mof_C 	C 	0.9401	0.7207	0.78073	-0.363
Mof_C 	C 	0.8676	0.5828	0.76573	0.393
Mof_C 	C 	0.1699	0.0728	0.76563	-0.051
Mof_C 	C 	0.2698	0.2059	0.77963	-0.354
Mof_C 	C 	0.4094	0.2671	0.76753	0.401
Mof_C 	C 	0.4894	0.2746	0.68693	-0.067
Mof_C 	C 	0.3793	0.1329	0.69303	-0.325
Mof_C 	C 	0.2452	0.0988	0.68003	0.377
Mof_C 	C 	0.693	0.2023	0.68503	-0.075
Mof_C 	C 	0.8373	0.2368	0.69013	-0.317
Mof_C 	C 	0.8675	0.1322	0.67783	0.384
Mof_C 	C 	0.7663	0.4775	0.68453	-0.072
Mof_C 	C 	0.7391	0.5928	0.69113	-0.324
Mof_C 	C 	0.8417	0.7243	0.67713	0.384
Mof_O 	O 	0.5253	0.7555	0.9379	-0.43
Mof_O 	O 	0.5832	0.635	0.911	-0.323
Mof_O 	O 	0.2561	0.7513	0.9421	-0.422
Mof_O 	O 	0.3616	0.9202	0.9118	-0.332
Mof_O 	O 	0.2695	0.4773	0.9384	-0.427
Mof_O 	O 	0.0873	0.4607	0.9204	-0.343
Mof_O 	O 	0.1559	0.1429	0.8541	-0.408
Mof_O 	O 	0.0572	0.2337	0.83	-0.336
Mof_O 	O 	0.8374	0.9769	0.8533	-0.435
Mof_O 	O 	0.7464	0.7948	0.8267	-0.346
Mof_O 	O 	0.0125	0.8419	0.853	-0.424
Mof_O 	O 	0.1878	0.9172	0.8242	-0.339
Mof_O 	O 	0.2302	0.4747	0.60457	-0.425
Mof_O 	O 	0.0518	0.4168	0.57767	-0.317
Mof_O 	O 	0.4952	0.7439	0.60877	-0.417
Mof_O 	O 	0.5586	0.6384	0.57847	-0.324
Mof_O 	O 	0.2078	0.7305	0.60507	-0.424
Mof_O 	O 	0.3734	0.9127	0.58707	-0.342
Mof_O 	O 	0.987	0.8441	0.52077	-0.426
Mof_O 	O 	0.1765	0.9428	0.49667	-0.342
Mof_O 	O 	0.1395	0.1626	0.51997	-0.427
Mof_O 	O 	0.0484	0.2536	0.49337	-0.345
Mof_O 	O 	0.8294	0.9875	0.51967	-0.422
Mof_O 	O 	0.7294	0.8122	0.49087	-0.333
Mof_O 	O 	0.2445	0.7698	0.27123	-0.426
Mof_O 	O 	0.365	0.9482	0.24433	-0.316
Mof_O 	O 	0.2487	0.5048	0.27543	-0.421
Mof_O 	O 	0.0798	0.4414	0.24513	-0.332
Mof_O 	O 	0.5227	0.7922	0.27173	-0.425
Mof_O 	O 	0.5393	0.6266	0.25373	-0.345
Mof_O 	O 	0.8571	0.013	0.18743	-0.414
Mof_O 	O 	0.7663	0.8235	0.16333	-0.345
Mof_O 	O 	0.0231	0.8605	0.18663	-0.431
Mof_O 	O 	0.2052	0.9516	0.16003	-0.345
Mof_O 	O 	0.1581	0.1706	0.18633	-0.432
Mof_O 	O 	0.0828	0.2706	0.15753	-0.342
Mof_O 	O 	0.4747	0.2445	0.4379	-0.43
Mof_O 	O 	0.4168	0.365	0.411	-0.323
Mof_O 	O 	0.7439	0.2487	0.4421	-0.422
Mof_O 	O 	0.6384	0.0798	0.4118	-0.332
Mof_O 	O 	0.7305	0.5227	0.4384	-0.427
Mof_O 	O 	0.9127	0.5393	0.4204	-0.343
Mof_O 	O 	0.8441	0.8571	0.3541	-0.408
Mof_O 	O 	0.9428	0.7663	0.33	-0.336
Mof_O 	O 	0.1626	0.0231	0.3533	-0.435
Mof_O 	O 	0.2536	0.2052	0.3267	-0.346
Mof_O 	O 	0.9875	0.1581	0.353	-0.424
Mof_O 	O 	0.8122	0.0828	0.3242	-0.339
Mof_O 	O 	0.7698	0.5253	0.10457	-0.425
Mof_O 	O 	0.9482	0.5832	0.07767	-0.317
Mof_O 	O 	0.5048	0.2561	0.10877	-0.417
Mof_O 	O 	0.4414	0.3616	0.07847	-0.324
Mof_O 	O 	0.7922	0.2695	0.10507	-0.424
Mof_O 	O 	0.6266	0.0873	0.08707	-0.342
Mof_O 	O 	0.013	0.1559	0.02077	-0.426
Mof_O 	O 	0.8235	0.0572	0.99667	-0.339
Mof_O 	O 	0.8605	0.8374	0.01997	-0.427
Mof_O 	O 	0.9516	0.7464	0.99337	-0.342
Mof_O 	O 	0.1706	0.0125	0.01967	-0.422
Mof_O 	O 	0.2706	0.1878	0.99087	-0.33
Mof_O 	O 	0.7555	0.2302	0.77123	-0.426
Mof_O 	O 	0.635	0.0518	0.74433	-0.316
Mof_O 	O 	0.7513	0.4952	0.77543	-0.421
Mof_O 	O 	0.9202	0.5586	0.74513	-0.332
Mof_O 	O 	0.4773	0.2078	0.77173	-0.425
Mof_O 	O 	0.4607	0.3734	0.75373	-0.345
Mof_O 	O 	0.1429	0.987	0.68743	-0.414
Mof_O 	O 	0.2337	0.1765	0.66333	-0.345
Mof_O 	O 	0.9769	0.1395	0.68663	-0.431
Mof_O 	O 	0.7948	0.0484	0.66003	-0.345
Mof_O 	O 	0.8419	0.8294	0.68633	-0.432
Mof_O 	O 	0.9172	0.7294	0.65753	-0.342
_end
