data_functionalizedCrystal
_audit_creation_method	'EQeq! by Chris Wilmer'
_symmetry_space_group_name_H-M	'P1'
_symmetry_Int_Tables_number	1
_symmetry_cell_setting	triclinic
loop_
_symmetry_equiv_pos_as_xyz
  x,y,z
_cell_length_a	13.5739
_cell_length_b	13.5739
_cell_length_c	8.1156
_cell_angle_alpha	90
_cell_angle_beta	90
_cell_angle_gamma	120
loop_
_atom_site_label
_atom_site_type_symbol
_atom_site_fract_x
_atom_site_fract_y
_atom_site_fract_z
_atom_site_charge
Mof_Mn	Mn	0.2954	0.33182	0.54438	0.782
Mof_O 	O 	0.2272	0.1775	0.4064	-0.352
Mof_C 	C 	0.5307	0.3208	0.5591	-0.266
Mof_C 	C 	0.3524	0.5542	0.7733	-0.253
Mof_O 	O 	0.2393	0.055	0.2464	-0.345
Mof_C 	C 	0.2625	0.1555	0.2808	0.356
Mof_N 	N 	0.3398	0.2072	0.0008	-0.246
Mof_H 	H 	0.4034	0.2551	0.9452	0.081
Mof_H 	H 	0.2791	0.1972	0.9423	0.123
Mof_C 	C 	0.3399	0.2529	0.1651	-0.114
Mof_H 	H 	0.4174	0.2848	0.2082	0.048
Mof_N 	N 	0.3626	0.4235	0.3049	-0.294
Mof_H 	H 	0.3466	0.4802	0.298	0.1
Mof_H 	H 	0.4388	0.455	0.3039	0.104
Mof_C 	C 	0.3151	0.3493	0.1593	-0.011
Mof_H 	H 	0.3478	0.3937	0.06	0.029
Mof_H 	H 	0.2334	0.3188	0.1555	0.04
Mof_N 	N 	0.4518	0.3189	0.6113	-0.113
Mof_N 	N 	0.3631	0.4938	0.691	-0.121
Mof_Mn	Mn	0.66818	0.96358	0.54438	0.783
Mof_O 	O 	0.8225	0.0497	0.4064	-0.352
Mof_C 	C 	0.6792	0.2099	0.5591	-0.265
Mof_C 	C 	0.4458	0.7982	0.7733	-0.252
Mof_O 	O 	0.945	0.1843	0.2464	-0.345
Mof_C 	C 	0.8445	0.107	0.2808	0.357
Mof_N 	N 	0.7928	0.1326	0.0008	-0.248
Mof_H 	H 	0.7449	0.1483	0.9452	0.082
Mof_H 	H 	0.8028	0.0819	0.9423	0.125
Mof_C 	C 	0.7471	0.087	0.1651	-0.116
Mof_H 	H 	0.7152	0.1326	0.2082	0.048
Mof_N 	N 	0.5765	0.9391	0.3049	-0.294
Mof_H 	H 	0.5198	0.8664	0.298	0.1
Mof_H 	H 	0.545	0.9838	0.3039	0.104
Mof_C 	C 	0.6507	0.9658	0.1593	-0.009
Mof_H 	H 	0.6063	0.9541	0.06	0.029
Mof_H 	H 	0.6812	0.9146	0.1555	0.04
Mof_N 	N 	0.6811	0.1329	0.6113	-0.113
Mof_N 	N 	0.5062	0.8693	0.691	-0.121
Mof_Mn	Mn	0.03642	0.7046	0.54438	0.783
Mof_O 	O 	0.9503	0.7728	0.4064	-0.351
Mof_C 	C 	0.7901	0.4693	0.5591	-0.265
Mof_C 	C 	0.2018	0.6476	0.7733	-0.252
Mof_O 	O 	0.8157	0.7607	0.2464	-0.344
Mof_C 	C 	0.893	0.7375	0.2808	0.357
Mof_N 	N 	0.8674	0.6602	0.0008	-0.246
Mof_H 	H 	0.8517	0.5966	0.9452	0.081
Mof_H 	H 	0.9181	0.7209	0.9423	0.124
Mof_C 	C 	0.913	0.6601	0.1651	-0.115
Mof_H 	H 	0.8674	0.5826	0.2082	0.048
Mof_N 	N 	0.0609	0.6374	0.3049	-0.294
Mof_H 	H 	0.1336	0.6534	0.298	0.1
Mof_H 	H 	0.0162	0.5612	0.3039	0.104
Mof_C 	C 	0.0342	0.6849	0.1593	-0.01
Mof_H 	H 	0.0459	0.6522	0.06	0.029
Mof_H 	H 	0.0854	0.7666	0.1555	0.04
Mof_N 	N 	0.8671	0.5482	0.6113	-0.113
Mof_N 	N 	0.1307	0.6369	0.691	-0.121
Mof_Mn	Mn	0.7046	0.66818	0.04438	0.807
Mof_O 	O 	0.7728	0.8225	0.9064	-0.363
Mof_C 	C 	0.4693	0.6792	0.0591	-0.236
Mof_C 	C 	0.6476	0.4458	0.2733	-0.257
Mof_O 	O 	0.7607	0.945	0.7464	-0.347
Mof_C 	C 	0.7375	0.8445	0.7808	0.356
Mof_N 	N 	0.6602	0.7928	0.5008	-0.275
Mof_H 	H 	0.5966	0.7449	0.4452	0.101
Mof_H 	H 	0.7209	0.8028	0.4423	0.143
Mof_C 	C 	0.6601	0.7471	0.6651	-0.115
Mof_H 	H 	0.5826	0.7152	0.7082	0.045
Mof_N 	N 	0.6374	0.5765	0.8049	-0.298
Mof_H 	H 	0.6534	0.5198	0.798	0.097
Mof_H 	H 	0.5612	0.545	0.8039	0.1
Mof_C 	C 	0.6849	0.6507	0.6593	-0.01
Mof_H 	H 	0.6522	0.6063	0.56	0.022
Mof_H 	H 	0.7666	0.6812	0.6555	0.036
Mof_N 	N 	0.5482	0.6811	0.1113	-0.118
Mof_N 	N 	0.6369	0.5062	0.191	-0.116
Mof_Mn	Mn	0.33182	0.03642	0.04438	0.805
Mof_O 	O 	0.1775	0.9503	0.9064	-0.364
Mof_C 	C 	0.3208	0.7901	0.0591	-0.236
Mof_C 	C 	0.5542	0.2018	0.2733	-0.257
Mof_O 	O 	0.055	0.8157	0.7464	-0.347
Mof_C 	C 	0.1555	0.893	0.7808	0.356
Mof_N 	N 	0.2072	0.8674	0.5008	-0.275
Mof_H 	H 	0.2551	0.8517	0.4452	0.101
Mof_H 	H 	0.1972	0.9181	0.4423	0.143
Mof_C 	C 	0.2529	0.913	0.6651	-0.116
Mof_H 	H 	0.2848	0.8674	0.7082	0.045
Mof_N 	N 	0.4235	0.0609	0.8049	-0.298
Mof_H 	H 	0.4802	0.1336	0.798	0.097
Mof_H 	H 	0.455	0.0162	0.8039	0.1
Mof_C 	C 	0.3493	0.0342	0.6593	-0.01
Mof_H 	H 	0.3937	0.0459	0.56	0.022
Mof_H 	H 	0.3188	0.0854	0.6555	0.035
Mof_N 	N 	0.3189	0.8671	0.1113	-0.118
Mof_N 	N 	0.4938	0.1307	0.191	-0.116
Mof_Mn	Mn	0.96358	0.2954	0.04438	0.804
Mof_O 	O 	0.0497	0.2272	0.9064	-0.363
Mof_C 	C 	0.2099	0.5307	0.0591	-0.236
Mof_C 	C 	0.7982	0.3524	0.2733	-0.257
Mof_O 	O 	0.1843	0.2393	0.7464	-0.346
Mof_C 	C 	0.107	0.2625	0.7808	0.356
Mof_N 	N 	0.1326	0.3398	0.5008	-0.275
Mof_H 	H 	0.1483	0.4034	0.4452	0.101
Mof_H 	H 	0.0819	0.2791	0.4423	0.143
Mof_C 	C 	0.087	0.3399	0.6651	-0.115
Mof_H 	H 	0.1326	0.4174	0.7082	0.045
Mof_N 	N 	0.9391	0.3626	0.8049	-0.297
Mof_H 	H 	0.8664	0.3466	0.798	0.097
Mof_H 	H 	0.9838	0.4388	0.8039	0.1
Mof_C 	C 	0.9658	0.3151	0.6593	-0.01
Mof_H 	H 	0.9541	0.3478	0.56	0.022
Mof_H 	H 	0.9146	0.2334	0.6555	0.036
Mof_N 	N 	0.1329	0.4518	0.1113	-0.118
Mof_N 	N 	0.8693	0.3631	0.191	-0.116
Mof_Cr	Cr	0.33333	0.66667	0.9233	1.279
Mof_Cr	Cr	0.66667	0.33333	0.4233	1.355
_end
