data_functionalizedCrystal
_audit_creation_method	'EQeq! by Chris Wilmer'
_symmetry_space_group_name_H-M	'P1'
_symmetry_Int_Tables_number	1
_symmetry_cell_setting	triclinic
loop_
_symmetry_equiv_pos_as_xyz
  x,y,z
_cell_length_a	7.433
_cell_length_b	9.3673
_cell_length_c	12.4478
_cell_angle_alpha	112.102
_cell_angle_beta	107.371
_cell_angle_gamma	90.0001
loop_
_atom_site_label
_atom_site_type_symbol
_atom_site_fract_x
_atom_site_fract_y
_atom_site_fract_z
_atom_site_charge
Mof_V 	V 	0.53794	0.24417	0.48834	1.735
Mof_V 	V 	0.9504	0.24417	0.48834	1.729
Mof_V 	V 	0.46206	0.75583	0.51166	1.735
Mof_V 	V 	0.0496	0.75583	0.51166	1.737
Mof_P 	P 	0.81145	0.57929	0.6229	0.466
Mof_P 	P 	0.81145	0.04361	0.6229	0.449
Mof_P 	P 	0.18855	0.95639	0.3771	0.461
Mof_P 	P 	0.18855	0.42071	0.3771	0.469
Mof_H 	H 	0.9975	0.5212	0.7806	0.044
Mof_H 	H 	0.831	0.7969	0.878	-0.012
Mof_H 	H 	0.7831	0.2594	0.7806	0.04
Mof_H 	H 	0.047	0.0811	0.878	0.016
Mof_H 	H 	0.0025	0.7406	0.2194	0.054
Mof_H 	H 	0.169	0.9189	0.122	-0.015
Mof_H 	H 	0.2169	0.4788	0.2194	0.053
Mof_H 	H 	0.953	0.2031	0.122	-0.032
Mof_H 	H 	0.0025	0.4788	0.2194	0.056
Mof_H 	H 	0.169	0.2031	0.122	-0.016
Mof_H 	H 	0.2169	0.7406	0.2194	0.052
Mof_H 	H 	0.953	0.9189	0.122	-0.017
Mof_H 	H 	0.9975	0.2594	0.7806	0.035
Mof_H 	H 	0.831	0.0811	0.878	0.001
Mof_H 	H 	0.7831	0.5212	0.7806	0.047
Mof_H 	H 	0.047	0.7969	0.878	-0.011
Mof_H 	H 	0.6469	0.2099	0.2938	1.16
Mof_H 	H 	0.6469	0.0839	0.2938	1.159
Mof_H 	H 	0.3531	0.9161	0.7062	1.158
Mof_H 	H 	0.3531	0.7901	0.7062	1.158
Mof_H 	H 	0.8927	0.6477	-0	0.043
Mof_H 	H 	0.1073	0.3523	-0	0.039
Mof_H 	H 	0.1073	0.6477	-0	0.051
Mof_H 	H 	0.8927	0.3523	-0	0.026
Mof_C 	C 	0.88649	0.57949	0.77298	-0.29
Mof_C 	C 	0.94068	0.73688	0.88136	0.027
Mof_C 	C 	0.88649	0.19349	0.77298	-0.265
Mof_C 	C 	0.94068	0.14448	0.88136	-0.034
Mof_C 	C 	0.11351	0.80651	0.22702	-0.301
Mof_C 	C 	0.05932	0.85552	0.11864	0.056
Mof_C 	C 	0.11351	0.42051	0.22702	-0.304
Mof_C 	C 	0.05932	0.26312	0.11864	0.066
Mof_C 	C 	-0	0.7103	-0	-0.174
Mof_C 	C 	-0	0.2897	-0	-0.131
Mof_O 	O 	0.63088	0.65487	0.607	-0.579
Mof_O 	O 	0.97612	0.95213	0.607	-0.574
Mof_O 	O 	0.36912	0.04787	0.393	-0.575
Mof_O 	O 	0.02388	0.34513	0.393	-0.57
Mof_O 	O 	0.36912	0.34513	0.393	-0.578
Mof_O 	O 	0.02388	0.04787	0.393	-0.564
Mof_O 	O 	0.63088	0.95213	0.607	-0.573
Mof_O 	O 	0.97612	0.65487	0.607	-0.583
Mof_O 	O 	0.76565	0.4047	0.5313	-0.692
Mof_O 	O 	0.76565	0.1266	0.5313	-0.692
Mof_O 	O 	0.23435	0.8734	0.4687	-0.69
Mof_O 	O 	0.23435	0.5953	0.4687	-0.69
Mof_O 	O 	0.66605	0.16605	0.3321	-2.583
Mof_O 	O 	0.33395	0.83395	0.6679	-2.577
_end
