# CIF file generated by openbabel 3.1.0, see https://openbabel.org
data_I
_chemical_name_common 'image0'
_cell_length_a 41.288
_cell_length_b 41.288
_cell_length_c 17.5402
_cell_angle_alpha 90
_cell_angle_beta 90
_cell_angle_gamma 120
_space_group_name_H-M_alt 'P 1'
_space_group_name_Hall 'P 1'
loop_
    _symmetry_equiv_pos_as_xyz
    x,y,z
loop_
    _atom_site_label
    _atom_site_type_symbol
    _atom_site_fract_x
    _atom_site_fract_y
    _atom_site_fract_z
    _atom_site_occupancy
    Zn1      Zn       0.37192    0.40083    0.33952    1.000
    O1       O        0.29345    0.40343    0.15747    1.000
    O2       O        0.33008    0.38716    0.09355    1.000
    O3       O        0.01710    0.37344    0.68648    1.000
    O4       O        0.41707    0.43327    0.39620    1.000
    O5       O        0.43983    0.48791    0.33840    1.000
    C1       C        0.30262    0.39241    0.09961    1.000
    C2       C        0.28082    0.38738    0.02766    1.000
    C3       C        0.28678    0.37039    0.96460    1.000
    C4       C        0.26682    0.36715    0.89670    1.000
    C5       C        0.24268    0.38030    0.89244    1.000
    C6       C        0.23655    0.39614    0.95640    1.000
    C7       C        0.25451    0.39862    0.02380    1.000
    C8       C        0.22318    0.37755    0.81905    1.000
    C9       C        0.18839    0.37533    0.82020    1.000
    C10      C        0.12330    0.38660    0.68560    1.000
    C11      C        0.08920    0.38730    0.68640    1.000
    C12      C        0.11070    0.35790    0.81210    1.000
    C13      C        0.07740    0.36010    0.81310    1.000
    C14      C        0.32251    0.53734    0.28859    1.000
    C15      C        0.31823    0.56853    0.29560    1.000
    C16      C        0.34463    0.60246    0.26390    1.000
    C17      C        0.37531    0.60521    0.22530    1.000
    C18      C        0.37959    0.57402    0.21836    1.000
    C19      C        0.43980    0.46676    0.38940    1.000
    C20      C        0.47180    0.48443    0.44760    1.000
    C21      C        0.47410    0.46640    0.49850    1.000
    C22      C        0.49730    0.51870    0.43870    1.000
    Zn2      Zn       0.59917    0.97109    0.33952    1.000
    O6       O        0.59657    0.89002    0.15747    1.000
    O7       O        0.61284    0.94292    0.09355    1.000
    O8       O        0.62656    0.64366    0.68648    1.000
    O9       O        0.56673    0.98380    0.39620    1.000
    O10      O        0.51209    0.95192    0.33840    1.000
    C23      C        0.60759    0.91021    0.09961    1.000
    C24      C        0.61262    0.89344    0.02766    1.000
    C25      C        0.62961    0.91639    0.96460    1.000
    C26      C        0.63285    0.89967    0.89670    1.000
    C27      C        0.61970    0.86238    0.89244    1.000
    C28      C        0.60386    0.84041    0.95640    1.000
    C29      C        0.60138    0.85589    0.02380    1.000
    C30      C        0.62245    0.84563    0.81905    1.000
    C31      C        0.62467    0.81306    0.82020    1.000
    C32      C        0.61340    0.73670    0.68560    1.000
    C33      C        0.61270    0.70190    0.68640    1.000
    C34      C        0.64210    0.75280    0.81210    1.000
    C35      C        0.63990    0.71730    0.81310    1.000
    C36      C        0.46266    0.78517    0.28859    1.000
    C37      C        0.43147    0.74970    0.29560    1.000
    C38      C        0.39754    0.74217    0.26390    1.000
    C39      C        0.39479    0.77010    0.22530    1.000
    C40      C        0.42598    0.80557    0.21836    1.000
    C41      C        0.53324    0.97304    0.38940    1.000
    C42      C        0.51557    0.98737    0.44760    1.000
    C43      C        0.53360    0.00770    0.49850    1.000
    C44      C        0.48130    0.97860    0.43870    1.000
    Zn3      Zn       0.02891    0.62808    0.33952    1.000
    O11      O        0.10998    0.70655    0.15747    1.000
    O12      O        0.05708    0.66992    0.09355    1.000
    O13      O        0.35634    0.98290    0.68648    1.000
    O14      O        0.01620    0.58293    0.39620    1.000
    O15      O        0.04808    0.56017    0.33840    1.000
    C45      C        0.08979    0.69738    0.09961    1.000
    C46      C        0.10656    0.71918    0.02766    1.000
    C47      C        0.08361    0.71322    0.96460    1.000
    C48      C        0.10033    0.73318    0.89670    1.000
    C49      C        0.13762    0.75732    0.89244    1.000
    C50      C        0.15959    0.76345    0.95640    1.000
    C51      C        0.14411    0.74549    0.02380    1.000
    C52      C        0.15437    0.77682    0.81905    1.000
    C53      C        0.18694    0.81161    0.82020    1.000
    C54      C        0.26330    0.87670    0.68560    1.000
    C55      C        0.29810    0.91080    0.68640    1.000
    C56      C        0.24720    0.88930    0.81210    1.000
    C57      C        0.28270    0.92260    0.81310    1.000
    C58      C        0.21483    0.67749    0.28859    1.000
    C59      C        0.25030    0.68177    0.29560    1.000
    C60      C        0.25783    0.65537    0.26390    1.000
    C61      C        0.22990    0.62469    0.22530    1.000
    C62      C        0.19443    0.62041    0.21836    1.000
    C63      C        0.02696    0.56020    0.38940    1.000
    C64      C        0.01263    0.52820    0.44760    1.000
    C65      C        0.99230    0.52590    0.49850    1.000
    C66      C        0.02140    0.50270    0.43870    1.000
    Zn4      Zn       0.62808    0.59917    0.83952    1.000
    O16      O        0.70655    0.59657    0.65747    1.000
    O17      O        0.66992    0.61284    0.59355    1.000
    O18      O        0.98290    0.62656    0.18648    1.000
    O19      O        0.58293    0.56673    0.89620    1.000
    O20      O        0.56017    0.51209    0.83840    1.000
    C67      C        0.69738    0.60759    0.59961    1.000
    C68      C        0.71918    0.61262    0.52766    1.000
    C69      C        0.71322    0.62961    0.46460    1.000
    C70      C        0.73318    0.63285    0.39670    1.000
    C71      C        0.75732    0.61970    0.39244    1.000
    C72      C        0.76345    0.60386    0.45640    1.000
    C73      C        0.74549    0.60138    0.52380    1.000
    C74      C        0.77682    0.62245    0.31905    1.000
    C75      C        0.81161    0.62467    0.32020    1.000
    C76      C        0.87670    0.61340    0.18560    1.000
    C77      C        0.91080    0.61270    0.18640    1.000
    C78      C        0.88930    0.64210    0.31210    1.000
    C79      C        0.92260    0.63990    0.31310    1.000
    C80      C        0.67749    0.46266    0.78859    1.000
    C81      C        0.68177    0.43147    0.79560    1.000
    C82      C        0.65537    0.39754    0.76390    1.000
    C83      C        0.62469    0.39479    0.72530    1.000
    C84      C        0.62041    0.42598    0.71836    1.000
    C85      C        0.56020    0.53324    0.88940    1.000
    C86      C        0.52820    0.51557    0.94760    1.000
    C87      C        0.52590    0.53360    0.99850    1.000
    C88      C        0.50270    0.48130    0.93870    1.000
    Zn5      Zn       0.40083    0.02891    0.83952    1.000
    O21      O        0.40343    0.10998    0.65747    1.000
    O22      O        0.38716    0.05708    0.59355    1.000
    O23      O        0.37344    0.35634    0.18648    1.000
    O24      O        0.43327    0.01620    0.89620    1.000
    O25      O        0.48791    0.04808    0.83840    1.000
    C89      C        0.39241    0.08979    0.59961    1.000
    C90      C        0.38738    0.10656    0.52766    1.000
    C91      C        0.37039    0.08361    0.46460    1.000
    C92      C        0.36715    0.10033    0.39670    1.000
    C93      C        0.38030    0.13762    0.39244    1.000
    C94      C        0.39614    0.15959    0.45640    1.000
    C95      C        0.39862    0.14411    0.52380    1.000
    C96      C        0.37755    0.15437    0.31905    1.000
    C97      C        0.37533    0.18694    0.32020    1.000
    C98      C        0.38660    0.26330    0.18560    1.000
    C99      C        0.38730    0.29810    0.18640    1.000
    C100     C        0.35790    0.24720    0.31210    1.000
    C101     C        0.36010    0.28270    0.31310    1.000
    C102     C        0.53734    0.21483    0.78859    1.000
    C103     C        0.56853    0.25030    0.79560    1.000
    C104     C        0.60246    0.25783    0.76390    1.000
    C105     C        0.60521    0.22990    0.72530    1.000
    C106     C        0.57402    0.19443    0.71836    1.000
    C107     C        0.46676    0.02696    0.88940    1.000
    C108     C        0.48443    0.01263    0.94760    1.000
    C109     C        0.46640    0.99230    0.99850    1.000
    C110     C        0.51870    0.02140    0.93870    1.000
    Zn6      Zn       0.97109    0.37192    0.83952    1.000
    O26      O        0.89002    0.29345    0.65747    1.000
    O27      O        0.94292    0.33008    0.59355    1.000
    O28      O        0.64366    0.01710    0.18648    1.000
    O29      O        0.98380    0.41707    0.89620    1.000
    O30      O        0.95192    0.43983    0.83840    1.000
    C111     C        0.91021    0.30262    0.59961    1.000
    C112     C        0.89344    0.28082    0.52766    1.000
    C113     C        0.91639    0.28678    0.46460    1.000
    C114     C        0.89967    0.26682    0.39670    1.000
    C115     C        0.86238    0.24268    0.39244    1.000
    C116     C        0.84041    0.23655    0.45640    1.000
    C117     C        0.85589    0.25451    0.52380    1.000
    C118     C        0.84563    0.22318    0.31905    1.000
    C119     C        0.81306    0.18839    0.32020    1.000
    C120     C        0.73670    0.12330    0.18560    1.000
    C121     C        0.70190    0.08920    0.18640    1.000
    C122     C        0.75280    0.11070    0.31210    1.000
    C123     C        0.71730    0.07740    0.31310    1.000
    C124     C        0.78517    0.32251    0.78859    1.000
    C125     C        0.74970    0.31823    0.79560    1.000
    C126     C        0.74217    0.34463    0.76390    1.000
    C127     C        0.77010    0.37531    0.72530    1.000
    C128     C        0.80557    0.37959    0.71836    1.000
    C129     C        0.97304    0.43980    0.88940    1.000
    C130     C        0.98737    0.47180    0.94760    1.000
    C131     C        0.00770    0.47410    0.99850    1.000
    C132     C        0.97860    0.49730    0.93870    1.000
    Zn7      Zn       0.62808    0.59917    0.66048    1.000
    O31      O        0.70655    0.59657    0.84253    1.000
    O32      O        0.66992    0.61284    0.90645    1.000
    O33      O        0.98290    0.62656    0.31352    1.000
    O34      O        0.58293    0.56673    0.60380    1.000
    O35      O        0.56017    0.51209    0.66160    1.000
    C133     C        0.69738    0.60759    0.90039    1.000
    C134     C        0.71918    0.61262    0.97234    1.000
    C135     C        0.71322    0.62961    0.03540    1.000
    C136     C        0.73318    0.63285    0.10330    1.000
    C137     C        0.75732    0.61970    0.10756    1.000
    C138     C        0.76345    0.60386    0.04360    1.000
    C139     C        0.74549    0.60138    0.97620    1.000
    C140     C        0.77682    0.62245    0.18095    1.000
    C141     C        0.81161    0.62467    0.17980    1.000
    C142     C        0.87670    0.61340    0.31440    1.000
    C143     C        0.91080    0.61270    0.31360    1.000
    C144     C        0.88930    0.64210    0.18790    1.000
    C145     C        0.92260    0.63990    0.18690    1.000
    C146     C        0.67749    0.46266    0.71141    1.000
    C147     C        0.68177    0.43147    0.70440    1.000
    C148     C        0.65537    0.39754    0.73610    1.000
    C149     C        0.62469    0.39479    0.77470    1.000
    C150     C        0.62041    0.42598    0.78164    1.000
    C151     C        0.56020    0.53324    0.61060    1.000
    C152     C        0.52820    0.51557    0.55240    1.000
    C153     C        0.52590    0.53360    0.50150    1.000
    C154     C        0.50270    0.48130    0.56130    1.000
    Zn8      Zn       0.40083    0.02891    0.66048    1.000
    O36      O        0.40343    0.10998    0.84253    1.000
    O37      O        0.38716    0.05708    0.90645    1.000
    O38      O        0.37344    0.35634    0.31352    1.000
    O39      O        0.43327    0.01620    0.60380    1.000
    O40      O        0.48791    0.04808    0.66160    1.000
    C155     C        0.39241    0.08979    0.90039    1.000
    C156     C        0.38738    0.10656    0.97234    1.000
    C157     C        0.37039    0.08361    0.03540    1.000
    C158     C        0.36715    0.10033    0.10330    1.000
    C159     C        0.38030    0.13762    0.10756    1.000
    C160     C        0.39614    0.15959    0.04360    1.000
    C161     C        0.39862    0.14411    0.97620    1.000
    C162     C        0.37755    0.15437    0.18095    1.000
    C163     C        0.37533    0.18694    0.17980    1.000
    C164     C        0.38660    0.26330    0.31440    1.000
    C165     C        0.38730    0.29810    0.31360    1.000
    C166     C        0.35790    0.24720    0.18790    1.000
    C167     C        0.36010    0.28270    0.18690    1.000
    C168     C        0.53734    0.21483    0.71141    1.000
    C169     C        0.56853    0.25030    0.70440    1.000
    C170     C        0.60246    0.25783    0.73610    1.000
    C171     C        0.60521    0.22990    0.77470    1.000
    C172     C        0.57402    0.19443    0.78164    1.000
    C173     C        0.46676    0.02696    0.61060    1.000
    C174     C        0.48443    0.01263    0.55240    1.000
    C175     C        0.46640    0.99230    0.50150    1.000
    C176     C        0.51870    0.02140    0.56130    1.000
    Zn9      Zn       0.97109    0.37192    0.66048    1.000
    O41      O        0.89002    0.29345    0.84253    1.000
    O42      O        0.94292    0.33008    0.90645    1.000
    O43      O        0.64366    0.01710    0.31352    1.000
    O44      O        0.98380    0.41707    0.60380    1.000
    O45      O        0.95192    0.43983    0.66160    1.000
    C177     C        0.91021    0.30262    0.90039    1.000
    C178     C        0.89344    0.28082    0.97234    1.000
    C179     C        0.91639    0.28678    0.03540    1.000
    C180     C        0.89967    0.26682    0.10330    1.000
    C181     C        0.86238    0.24268    0.10756    1.000
    C182     C        0.84041    0.23655    0.04360    1.000
    C183     C        0.85589    0.25451    0.97620    1.000
    C184     C        0.84563    0.22318    0.18095    1.000
    C185     C        0.81306    0.18839    0.17980    1.000
    C186     C        0.73670    0.12330    0.31440    1.000
    C187     C        0.70190    0.08920    0.31360    1.000
    C188     C        0.75280    0.11070    0.18790    1.000
    C189     C        0.71730    0.07740    0.18690    1.000
    C190     C        0.78517    0.32251    0.71141    1.000
    C191     C        0.74970    0.31823    0.70440    1.000
    C192     C        0.74217    0.34463    0.73610    1.000
    C193     C        0.77010    0.37531    0.77470    1.000
    C194     C        0.80557    0.37959    0.78164    1.000
    C195     C        0.97304    0.43980    0.61060    1.000
    C196     C        0.98737    0.47180    0.55240    1.000
    C197     C        0.00770    0.47410    0.50150    1.000
    C198     C        0.97860    0.49730    0.56130    1.000
    Zn10     Zn       0.37192    0.40083    0.16048    1.000
    O46      O        0.29345    0.40343    0.34253    1.000
    O47      O        0.33008    0.38716    0.40645    1.000
    O48      O        0.01710    0.37344    0.81352    1.000
    O49      O        0.41707    0.43327    0.10380    1.000
    O50      O        0.43983    0.48791    0.16160    1.000
    C199     C        0.30262    0.39241    0.40039    1.000
    C200     C        0.28082    0.38738    0.47234    1.000
    C201     C        0.28678    0.37039    0.53540    1.000
    C202     C        0.26682    0.36715    0.60330    1.000
    C203     C        0.24268    0.38030    0.60756    1.000
    C204     C        0.23655    0.39614    0.54360    1.000
    C205     C        0.25451    0.39862    0.47620    1.000
    C206     C        0.22318    0.37755    0.68095    1.000
    C207     C        0.18839    0.37533    0.67980    1.000
    C208     C        0.12330    0.38660    0.81440    1.000
    C209     C        0.08920    0.38730    0.81360    1.000
    C210     C        0.11070    0.35790    0.68790    1.000
    C211     C        0.07740    0.36010    0.68690    1.000
    C212     C        0.32251    0.53734    0.21141    1.000
    C213     C        0.31823    0.56853    0.20440    1.000
    C214     C        0.34463    0.60246    0.23610    1.000
    C215     C        0.37531    0.60521    0.27470    1.000
    C216     C        0.37959    0.57402    0.28164    1.000
    C217     C        0.43980    0.46676    0.11060    1.000
    C218     C        0.47180    0.48443    0.05240    1.000
    C219     C        0.47410    0.46640    0.00150    1.000
    C220     C        0.49730    0.51870    0.06130    1.000
    Zn11     Zn       0.59917    0.97109    0.16048    1.000
    O51      O        0.59657    0.89002    0.34253    1.000
    O52      O        0.61284    0.94292    0.40645    1.000
    O53      O        0.62656    0.64366    0.81352    1.000
    O54      O        0.56673    0.98380    0.10380    1.000
    O55      O        0.51209    0.95192    0.16160    1.000
    C221     C        0.60759    0.91021    0.40039    1.000
    C222     C        0.61262    0.89344    0.47234    1.000
    C223     C        0.62961    0.91639    0.53540    1.000
    C224     C        0.63285    0.89967    0.60330    1.000
    C225     C        0.61970    0.86238    0.60756    1.000
    C226     C        0.60386    0.84041    0.54360    1.000
    C227     C        0.60138    0.85589    0.47620    1.000
    C228     C        0.62245    0.84563    0.68095    1.000
    C229     C        0.62467    0.81306    0.67980    1.000
    C230     C        0.61340    0.73670    0.81440    1.000
    C231     C        0.61270    0.70190    0.81360    1.000
    C232     C        0.64210    0.75280    0.68790    1.000
    C233     C        0.63990    0.71730    0.68690    1.000
    C234     C        0.46266    0.78517    0.21141    1.000
    C235     C        0.43147    0.74970    0.20440    1.000
    C236     C        0.39754    0.74217    0.23610    1.000
    C237     C        0.39479    0.77010    0.27470    1.000
    C238     C        0.42598    0.80557    0.28164    1.000
    C239     C        0.53324    0.97304    0.11060    1.000
    C240     C        0.51557    0.98737    0.05240    1.000
    C241     C        0.53360    0.00770    0.00150    1.000
    C242     C        0.48130    0.97860    0.06130    1.000
    Zn12     Zn       0.02891    0.62808    0.16048    1.000
    O56      O        0.10998    0.70655    0.34253    1.000
    O57      O        0.05708    0.66992    0.40645    1.000
    O58      O        0.35634    0.98290    0.81352    1.000
    O59      O        0.01620    0.58293    0.10380    1.000
    O60      O        0.04808    0.56017    0.16160    1.000
    C243     C        0.08979    0.69738    0.40039    1.000
    C244     C        0.10656    0.71918    0.47234    1.000
    C245     C        0.08361    0.71322    0.53540    1.000
    C246     C        0.10033    0.73318    0.60330    1.000
    C247     C        0.13762    0.75732    0.60756    1.000
    C248     C        0.15959    0.76345    0.54360    1.000
    C249     C        0.14411    0.74549    0.47620    1.000
    C250     C        0.15437    0.77682    0.68095    1.000
    C251     C        0.18694    0.81161    0.67980    1.000
    C252     C        0.26330    0.87670    0.81440    1.000
    C253     C        0.29810    0.91080    0.81360    1.000
    C254     C        0.24720    0.88930    0.68790    1.000
    C255     C        0.28270    0.92260    0.68690    1.000
    C256     C        0.21483    0.67749    0.21141    1.000
    C257     C        0.25030    0.68177    0.20440    1.000
    C258     C        0.25783    0.65537    0.23610    1.000
    C259     C        0.22990    0.62469    0.27470    1.000
    C260     C        0.19443    0.62041    0.28164    1.000
    C261     C        0.02696    0.56020    0.11060    1.000
    C262     C        0.01263    0.52820    0.05240    1.000
    C263     C        0.99230    0.52590    0.00150    1.000
    C264     C        0.02140    0.50270    0.06130    1.000
    Zn13     Zn       0.32064    0.42520    0.25000    1.000
    Zn14     Zn       0.40834    0.47783    0.25000    1.000
    O61      O        0.36846    0.42670    0.25000    1.000
    O62      O        0.38963    0.51209    0.25000    1.000
    O63      O        0.32935    0.47526    0.25000    1.000
    C265     C        0.35736    0.50678    0.25000    1.000
    C266     C        0.35319    0.54008    0.25000    1.000
    C267     C        0.33820    0.63564    0.25000    1.000
    C268     C        0.36833    0.67092    0.25000    1.000
    Zn15     Zn       0.57480    0.89544    0.25000    1.000
    Zn16     Zn       0.52217    0.93051    0.25000    1.000
    O64      O        0.57330    0.94176    0.25000    1.000
    O65      O        0.48791    0.87754    0.25000    1.000
    O66      O        0.52474    0.85409    0.25000    1.000
    C269     C        0.49322    0.85058    0.25000    1.000
    C270     C        0.45992    0.81311    0.25000    1.000
    C271     C        0.36436    0.70256    0.25000    1.000
    C272     C        0.32908    0.69741    0.25000    1.000
    Zn17     Zn       0.10456    0.67936    0.25000    1.000
    Zn18     Zn       0.06949    0.59166    0.25000    1.000
    O67      O        0.05824    0.63154    0.25000    1.000
    O68      O        0.12246    0.61037    0.25000    1.000
    O69      O        0.14591    0.67065    0.25000    1.000
    C273     C        0.14942    0.64264    0.25000    1.000
    C274     C        0.18689    0.64681    0.25000    1.000
    C275     C        0.29744    0.66180    0.25000    1.000
    C276     C        0.30259    0.63167    0.25000    1.000
    Zn19     Zn       0.67936    0.57480    0.75000    1.000
    Zn20     Zn       0.59166    0.52217    0.75000    1.000
    O70      O        0.63154    0.57330    0.75000    1.000
    O71      O        0.61037    0.48791    0.75000    1.000
    O72      O        0.67065    0.52474    0.75000    1.000
    C277     C        0.64264    0.49322    0.75000    1.000
    C278     C        0.64681    0.45992    0.75000    1.000
    C279     C        0.66180    0.36436    0.75000    1.000
    C280     C        0.63167    0.32908    0.75000    1.000
    Zn21     Zn       0.42520    0.10456    0.75000    1.000
    Zn22     Zn       0.47783    0.06949    0.75000    1.000
    O73      O        0.42670    0.05824    0.75000    1.000
    O74      O        0.51209    0.12246    0.75000    1.000
    O75      O        0.47526    0.14591    0.75000    1.000
    C281     C        0.50678    0.14942    0.75000    1.000
    C282     C        0.54008    0.18689    0.75000    1.000
    C283     C        0.63564    0.29744    0.75000    1.000
    C284     C        0.67092    0.30259    0.75000    1.000
    Zn23     Zn       0.89544    0.32064    0.75000    1.000
    Zn24     Zn       0.93051    0.40834    0.75000    1.000
    O76      O        0.94176    0.36846    0.75000    1.000
    O77      O        0.87754    0.38963    0.75000    1.000
    O78      O        0.85409    0.32935    0.75000    1.000
    C285     C        0.85058    0.35736    0.75000    1.000
    C286     C        0.81311    0.35319    0.75000    1.000
    C287     C        0.70256    0.33820    0.75000    1.000
    C288     C        0.69741    0.36833    0.75000    1.000
    C289     C        0.23994    0.37760    0.75000    1.000
    C290     C        0.17087    0.37470    0.75000    1.000
    C291     C        0.13424    0.37300    0.75000    1.000
    C292     C        0.06619    0.37285    0.75000    1.000
    C293     C        0.03139    0.37381    0.75000    1.000
    C294     C        0.62240    0.86234    0.75000    1.000
    C295     C        0.62530    0.79617    0.75000    1.000
    C296     C        0.62700    0.76124    0.75000    1.000
    C297     C        0.62715    0.69334    0.75000    1.000
    C298     C        0.62619    0.65758    0.75000    1.000
    C299     C        0.13766    0.76006    0.75000    1.000
    C300     C        0.20383    0.82913    0.75000    1.000
    C301     C        0.23876    0.86576    0.75000    1.000
    C302     C        0.30666    0.93381    0.75000    1.000
    C303     C        0.34242    0.96861    0.75000    1.000
    C304     C        0.76006    0.62240    0.25000    1.000
    C305     C        0.82913    0.62530    0.25000    1.000
    C306     C        0.86576    0.62700    0.25000    1.000
    C307     C        0.93381    0.62715    0.25000    1.000
    C308     C        0.96861    0.62619    0.25000    1.000
    C309     C        0.37760    0.13766    0.25000    1.000
    C310     C        0.37470    0.20383    0.25000    1.000
    C311     C        0.37300    0.23876    0.25000    1.000
    C312     C        0.37285    0.30666    0.25000    1.000
    C313     C        0.37381    0.34242    0.25000    1.000
    C314     C        0.86234    0.23994    0.25000    1.000
    C315     C        0.79617    0.17087    0.25000    1.000
    C316     C        0.76124    0.13424    0.25000    1.000
    C317     C        0.69334    0.06619    0.25000    1.000
    C318     C        0.65758    0.03139    0.25000    1.000
