data_functionalizedCrystal
_audit_creation_method	'EQeq! by Chris Wilmer'
_symmetry_space_group_name_H-M	'P1'
_symmetry_Int_Tables_number	1
_symmetry_cell_setting	triclinic
loop_
_symmetry_equiv_pos_as_xyz
  x,y,z
_cell_length_a	7.8398
_cell_length_b	14.425
_cell_length_c	14.4884
_cell_angle_alpha	90.76
_cell_angle_beta	97.907
_cell_angle_gamma	105.506
loop_
_atom_site_label
_atom_site_type_symbol
_atom_site_fract_x
_atom_site_fract_y
_atom_site_fract_z
_atom_site_charge
Mof_Cd	Cd	0.72442	0.96382	0.99341	0.315
Mof_Cd	Cd	0.55861	0.47297	0.64643	0.498
Mof_Cd	Cd	0.27558	0.03618	0.00659	0.315
Mof_Cd	Cd	0.44139	0.52703	0.35357	0.498
Mof_H 	H 	0.6192	0.7592	0.8544	0.008
Mof_H 	H 	0.0112	0.6312	0.9044	0.012
Mof_H 	H 	0.1522	0.7491	0.0196	0.087
Mof_H 	H 	0.6433	0.7797	0.1405	0.016
Mof_H 	H 	0.433	0.8666	0.3483	0.008
Mof_H 	H 	0.467	0.0149	0.2834	0.081
Mof_H 	H 	0.3808	0.2408	0.1456	0.008
Mof_H 	H 	0.9888	0.3688	0.0956	0.012
Mof_H 	H 	0.8478	0.2509	0.9804	0.087
Mof_H 	H 	0.3567	0.2203	0.8595	0.016
Mof_H 	H 	0.567	0.1334	0.6517	0.008
Mof_H 	H 	0.533	0.9851	0.7166	0.081
Mof_C 	C 	0.7281	0.7569	0.8877	0.087
Mof_C 	C 	0.7964	0.6831	0.866	-0.139
Mof_C 	C 	0.9598	0.6803	0.9168	0.072
Mof_C 	C 	0.0437	0.7506	0.9852	-0.162
Mof_C 	C 	0.9671	0.8241	0.0033	0.105
Mof_C 	C 	0.7011	0.6078	0.7892	0.335
Mof_C 	C 	0.6045	0.8269	0.1692	0.083
Mof_C 	C 	0.5325	0.8057	0.2502	-0.143
Mof_C 	C 	0.4809	0.8777	0.293	0.072
Mof_C 	C 	0.4999	0.966	0.2541	-0.16
Mof_C 	C 	0.5695	0.9809	0.1699	0.1
Mof_C 	C 	0.5066	0.7068	0.2873	0.329
Mof_C 	C 	0.2719	0.2431	0.1123	0.087
Mof_C 	C 	0.2036	0.3169	0.134	-0.139
Mof_C 	C 	0.0402	0.3197	0.0832	0.072
Mof_C 	C 	0.9563	0.2494	0.0148	-0.162
Mof_C 	C 	0.0329	0.1759	0.9967	0.105
Mof_C 	C 	0.2989	0.3922	0.2108	0.335
Mof_C 	C 	0.3955	0.1731	0.8308	0.083
Mof_C 	C 	0.4675	0.1943	0.7498	-0.143
Mof_C 	C 	0.5191	0.1223	0.707	0.072
Mof_C 	C 	0.5001	0.034	0.7459	-0.16
Mof_C 	C 	0.4305	0.0191	0.8301	0.1
Mof_C 	C 	0.4934	0.2932	0.7127	0.329
Mof_S 	S 	0.06364	0.91431	0.09086	-0.118
Mof_S 	S 	0.59361	0.08717	0.11109	-0.12
Mof_S 	S 	0.78248	0.56658	0.50273	0.647
Mof_S 	S 	0.93636	0.08569	0.90914	-0.118
Mof_S 	S 	0.40639	0.91283	0.88891	-0.12
Mof_S 	S 	0.21752	0.43342	0.49727	0.647
Mof_N 	N 	0.809	0.8264	0.9543	-0.166
Mof_N 	N 	0.6219	0.9111	0.1292	-0.167
Mof_N 	N 	0.191	0.1736	0.0457	-0.166
Mof_N 	N 	0.3781	0.0889	0.8708	-0.167
Mof_O 	O 	0.7733	0.5447	0.7703	-0.296
Mof_O 	O 	0.5543	0.612	0.7473	-0.28
Mof_O 	O 	0.5814	0.6512	0.2548	-0.284
Mof_O 	O 	0.411	0.6845	0.35	-0.292
Mof_O 	O 	0.6308	0.5965	0.5309	-0.307
Mof_O 	O 	0.8132	0.4897	0.5616	-0.3
Mof_O 	O 	0.7307	0.5288	0.40359	-0.308
Mof_O 	O 	0.9418	0.6479	0.5083	-0.298
Mof_O 	O 	0.2267	0.4553	0.2297	-0.296
Mof_O 	O 	0.4457	0.388	0.2527	-0.28
Mof_O 	O 	0.4186	0.3488	0.7452	-0.284
Mof_O 	O 	0.589	0.3155	0.65	-0.292
Mof_O 	O 	0.3692	0.4035	0.4691	-0.307
Mof_O 	O 	0.1868	0.5103	0.4384	-0.3
Mof_O 	O 	0.2693	0.4712	0.59641	-0.308
Mof_O 	O 	0.0582	0.3521	0.4917	-0.298
Mof_H 	H 	0.8972	0.7531	0.3081	0.153
Mof_H 	H 	0.0801	0.7895	0.3744	0.141
Mof_H 	H 	0.0765	0.785	0.2659	0.14
Mof_H 	H 	0.0647	0.6321	0.1916	0.151
Mof_H 	H 	0.9884	0.5387	0.2435	0.162
Mof_H 	H 	0.8652	0.6048	0.2097	0.164
Mof_H 	H 	0.97	0.6261	0.3618	0.145
Mof_H 	H 	0.1518	0.6592	0.3409	0.138
Mof_C 	C 	0.0214	0.7543	0.3169	-0.344
Mof_C 	C 	0.9848	0.604	0.2345	-0.365
Mof_N 	N 	0.0372	0.6571	0.3202	-0.143
Mof_H 	H 	0.7032	0.3046	0.2382	0.152
Mof_H 	H 	0.899	0.366	0.2745	0.153
Mof_H 	H 	0.8408	0.2557	0.2921	0.147
Mof_H 	H 	0.679	0.2062	0.4281	0.141
Mof_H 	H 	0.5857	0.2785	0.4677	0.164
Mof_H 	H 	0.519	0.2319	0.3663	0.149
Mof_H 	H 	0.6956	0.3845	0.3689	0.147
Mof_H 	H 	0.8444	0.3557	0.4197	0.152
Mof_C 	C 	0.8022	0.3135	0.2876	-0.355
Mof_C 	C 	0.6221	0.2564	0.4127	-0.352
Mof_N 	N 	0.7461	0.3355	0.3767	-0.155
Mof_H 	H 	0.1028	0.2469	0.6919	0.153
Mof_H 	H 	0.9199	0.2105	0.6256	0.141
Mof_H 	H 	0.9235	0.215	0.7341	0.14
Mof_H 	H 	0.9353	0.3679	0.8084	0.151
Mof_H 	H 	0.0116	0.4613	0.7565	0.162
Mof_H 	H 	0.1348	0.3952	0.7903	0.164
Mof_H 	H 	0.03	0.3739	0.6382	0.145
Mof_H 	H 	0.8482	0.3408	0.6591	0.138
Mof_C 	C 	0.9786	0.2457	0.6831	-0.344
Mof_C 	C 	0.0152	0.396	0.7655	-0.365
Mof_N 	N 	0.9628	0.3429	0.6798	-0.143
Mof_H 	H 	0.2968	0.6954	0.7618	0.152
Mof_H 	H 	0.101	0.634	0.7255	0.153
Mof_H 	H 	0.1592	0.7443	0.7079	0.147
Mof_H 	H 	0.321	0.7938	0.5719	0.141
Mof_H 	H 	0.4143	0.7215	0.5323	0.164
Mof_H 	H 	0.481	0.7681	0.6337	0.149
Mof_H 	H 	0.3044	0.6155	0.6311	0.147
Mof_H 	H 	0.1556	0.6443	0.5803	0.152
Mof_C 	C 	0.1978	0.6865	0.7124	-0.355
Mof_C 	C 	0.3779	0.7436	0.5873	-0.352
Mof_N 	N 	0.2539	0.6645	0.6233	-0.155
_end
