# CIF file generated by openbabel 3.1.0, see https://openbabel.org
data_I
_chemical_name_common 'image0'
_cell_length_a 11.1813
_cell_length_b 11.1813
_cell_length_c 31.552
_cell_angle_alpha 90
_cell_angle_beta 90
_cell_angle_gamma 90
_space_group_name_H-M_alt 'P 1'
_space_group_name_Hall 'P 1'
loop_
    _symmetry_equiv_pos_as_xyz
    x,y,z
loop_
    _atom_site_label
    _atom_site_type_symbol
    _atom_site_fract_x
    _atom_site_fract_y
    _atom_site_fract_z
    _atom_site_occupancy
    C1       C        0.08804    0.86952    0.65144    1.000
    C2       C        0.10120    0.95329    0.61925    1.000
    H1       H        0.17560    0.98800    0.61460    1.000
    C3       C        0.00444    0.98601    0.59386    1.000
    C4       C        0.89318    0.93447    0.60082    1.000
    H2       H        0.82780    0.95750    0.58460    1.000
    C5       C        0.87993    0.84763    0.63244    1.000
    C6       C        0.97692    0.81608    0.65762    1.000
    H3       H        0.96750    0.75890    0.67880    1.000
    C7       C        0.19298    0.84175    0.68010    1.000
    C8       C        0.02493    0.07796    0.55959    1.000
    C9       C        0.75935    0.79186    0.63906    1.000
    O1       O        0.17961    0.75733    0.70607    1.000
    O2       O        0.28413    0.90650    0.67608    1.000
    O3       O        0.12936    0.08488    0.54518    1.000
    O4       O        0.93786    0.14247    0.54787    1.000
    O5       O        0.67146    0.81857    0.61893    1.000
    O6       O        0.76090    0.71043    0.66939    1.000
    H4       H        0.68600    0.68300    0.67650    1.000
    C10      C        0.91196    0.13048    0.15144    1.000
    C11      C        0.89880    0.04671    0.11925    1.000
    H5       H        0.82440    0.01200    0.11460    1.000
    C12      C        0.99556    0.01399    0.09386    1.000
    C13      C        0.10682    0.06553    0.10082    1.000
    H6       H        0.17220    0.04250    0.08460    1.000
    C14      C        0.12007    0.15237    0.13244    1.000
    C15      C        0.02308    0.18392    0.15762    1.000
    H7       H        0.03250    0.24110    0.17880    1.000
    C16      C        0.80702    0.15825    0.18010    1.000
    C17      C        0.97507    0.92204    0.05959    1.000
    C18      C        0.24065    0.20814    0.13906    1.000
    O7       O        0.82039    0.24267    0.20607    1.000
    O8       O        0.71587    0.09350    0.17608    1.000
    O9       O        0.87064    0.91512    0.04518    1.000
    O10      O        0.06214    0.85753    0.04787    1.000
    O11      O        0.32854    0.18143    0.11893    1.000
    O12      O        0.23910    0.28957    0.16939    1.000
    H8       H        0.31400    0.31700    0.17650    1.000
    C19      C        0.63048    0.58804    0.90144    1.000
    C20      C        0.54671    0.60120    0.86925    1.000
    H9       H        0.51200    0.67560    0.86460    1.000
    C21      C        0.51399    0.50444    0.84386    1.000
    C22      C        0.56553    0.39318    0.85082    1.000
    H10      H        0.54250    0.32780    0.83460    1.000
    C23      C        0.65237    0.37993    0.88244    1.000
    C24      C        0.68392    0.47692    0.90762    1.000
    H11      H        0.74110    0.46750    0.92880    1.000
    C25      C        0.65825    0.69298    0.93010    1.000
    C26      C        0.42204    0.52493    0.80959    1.000
    C27      C        0.70814    0.25935    0.88906    1.000
    O13      O        0.74267    0.67961    0.95607    1.000
    O14      O        0.59350    0.78413    0.92608    1.000
    O15      O        0.41512    0.62936    0.79518    1.000
    O16      O        0.35753    0.43786    0.79787    1.000
    O17      O        0.68143    0.17146    0.86893    1.000
    O18      O        0.78957    0.26090    0.91939    1.000
    H12      H        0.81700    0.18600    0.92650    1.000
    C28      C        0.36952    0.41196    0.40144    1.000
    C29      C        0.45329    0.39880    0.36925    1.000
    H13      H        0.48800    0.32440    0.36460    1.000
    C30      C        0.48601    0.49556    0.34386    1.000
    C31      C        0.43447    0.60682    0.35082    1.000
    H14      H        0.45750    0.67220    0.33460    1.000
    C32      C        0.34763    0.62007    0.38244    1.000
    C33      C        0.31608    0.52308    0.40762    1.000
    H15      H        0.25890    0.53250    0.42880    1.000
    C34      C        0.34175    0.30702    0.43010    1.000
    C35      C        0.57796    0.47507    0.30959    1.000
    C36      C        0.29186    0.74065    0.38906    1.000
    O19      O        0.25733    0.32039    0.45607    1.000
    O20      O        0.40650    0.21587    0.42608    1.000
    O21      O        0.58488    0.37064    0.29518    1.000
    O22      O        0.64247    0.56214    0.29787    1.000
    O23      O        0.31857    0.82854    0.36893    1.000
    O24      O        0.21043    0.73910    0.41939    1.000
    H16      H        0.18300    0.81400    0.42650    1.000
    C37      C        0.41196    0.36952    0.59856    1.000
    C38      C        0.39880    0.45329    0.63075    1.000
    H17      H        0.32440    0.48800    0.63540    1.000
    C39      C        0.49556    0.48601    0.65614    1.000
    C40      C        0.60682    0.43447    0.64918    1.000
    H18      H        0.67220    0.45750    0.66540    1.000
    C41      C        0.62007    0.34763    0.61756    1.000
    C42      C        0.52308    0.31608    0.59238    1.000
    H19      H        0.53250    0.25890    0.57120    1.000
    C43      C        0.30702    0.34175    0.56990    1.000
    C44      C        0.47507    0.57796    0.69041    1.000
    C45      C        0.74065    0.29186    0.61094    1.000
    O25      O        0.32039    0.25733    0.54393    1.000
    O26      O        0.21587    0.40650    0.57392    1.000
    O27      O        0.37064    0.58488    0.70482    1.000
    O28      O        0.56214    0.64247    0.70213    1.000
    O29      O        0.82854    0.31857    0.63107    1.000
    O30      O        0.73910    0.21043    0.58061    1.000
    H20      H        0.81400    0.18300    0.57350    1.000
    C46      C        0.58804    0.63048    0.09856    1.000
    C47      C        0.60120    0.54671    0.13075    1.000
    H21      H        0.67560    0.51200    0.13540    1.000
    C48      C        0.50444    0.51399    0.15614    1.000
    C49      C        0.39318    0.56553    0.14918    1.000
    H22      H        0.32780    0.54250    0.16540    1.000
    C50      C        0.37993    0.65237    0.11756    1.000
    C51      C        0.47692    0.68392    0.09238    1.000
    H23      H        0.46750    0.74110    0.07120    1.000
    C52      C        0.69298    0.65825    0.06990    1.000
    C53      C        0.52493    0.42204    0.19041    1.000
    C54      C        0.25935    0.70814    0.11094    1.000
    O31      O        0.67961    0.74267    0.04393    1.000
    O32      O        0.78413    0.59350    0.07392    1.000
    O33      O        0.62936    0.41512    0.20482    1.000
    O34      O        0.43786    0.35753    0.20213    1.000
    O35      O        0.17146    0.68143    0.13107    1.000
    O36      O        0.26090    0.78957    0.08061    1.000
    H24      H        0.18600    0.81700    0.07350    1.000
    C55      C        0.86952    0.08804    0.34856    1.000
    C56      C        0.95329    0.10120    0.38075    1.000
    H25      H        0.98800    0.17560    0.38540    1.000
    C57      C        0.98601    0.00444    0.40614    1.000
    C58      C        0.93447    0.89318    0.39918    1.000
    H26      H        0.95750    0.82780    0.41540    1.000
    C59      C        0.84763    0.87993    0.36756    1.000
    C60      C        0.81608    0.97692    0.34238    1.000
    H27      H        0.75890    0.96750    0.32120    1.000
    C61      C        0.84175    0.19298    0.31990    1.000
    C62      C        0.07796    0.02493    0.44041    1.000
    C63      C        0.79186    0.75935    0.36094    1.000
    O37      O        0.75733    0.17961    0.29393    1.000
    O38      O        0.90650    0.28413    0.32392    1.000
    O39      O        0.08488    0.12936    0.45482    1.000
    O40      O        0.14247    0.93786    0.45213    1.000
    O41      O        0.81857    0.67146    0.38107    1.000
    O42      O        0.71043    0.76090    0.33061    1.000
    H28      H        0.68300    0.68600    0.32350    1.000
    C64      C        0.13048    0.91196    0.84856    1.000
    C65      C        0.04671    0.89880    0.88075    1.000
    H29      H        0.01200    0.82440    0.88540    1.000
    C66      C        0.01399    0.99556    0.90614    1.000
    C67      C        0.06553    0.10682    0.89918    1.000
    H30      H        0.04250    0.17220    0.91540    1.000
    C68      C        0.15237    0.12007    0.86756    1.000
    C69      C        0.18392    0.02308    0.84238    1.000
    H31      H        0.24110    0.03250    0.82120    1.000
    C70      C        0.15825    0.80702    0.81990    1.000
    C71      C        0.92204    0.97507    0.94041    1.000
    C72      C        0.20814    0.24065    0.86094    1.000
    O43      O        0.24267    0.82039    0.79393    1.000
    O44      O        0.09350    0.71587    0.82392    1.000
    O45      O        0.91512    0.87064    0.95482    1.000
    O46      O        0.85753    0.06214    0.95213    1.000
    O47      O        0.18143    0.32854    0.88107    1.000
    O48      O        0.28957    0.23910    0.83061    1.000
    H32      H        0.31700    0.31400    0.82350    1.000
    Ni1      Ni       0.30051    0.69949    0.75000    1.000
    Ni2      Ni       0.69949    0.30051    0.25000    1.000
    Ni3      Ni       0.80051    0.80051    0.00000    1.000
    Ni4      Ni       0.19949    0.19949    0.50000    1.000
