# CIF file generated by openbabel 3.1.0, see https://openbabel.org
data_I
_chemical_name_common 'BETDEL_clean'
_cell_length_a 13.6093
_cell_length_b 13.9077
_cell_length_c 15.9865
_cell_angle_alpha 115.784
_cell_angle_beta 98.1641
_cell_angle_gamma 90
_space_group_name_H-M_alt 'P 1'
_space_group_name_Hall 'P 1'
loop_
    _symmetry_equiv_pos_as_xyz
    x,y,z
loop_
    _atom_site_label
    _atom_site_type_symbol
    _atom_site_fract_x
    _atom_site_fract_y
    _atom_site_fract_z
    _atom_site_occupancy
    Dy1      Dy       0.45891    0.89317    0.36784    1.000
    Dy2      Dy       0.04109    0.52533    0.63216    1.000
    Dy3      Dy       0.54109    0.10683    0.63216    1.000
    Dy4      Dy       0.95891    0.47467    0.36784    1.000
    H1       H        0.53540    0.97330    0.10780    1.000
    H2       H        0.60590    0.93970    0.96960    1.000
    H3       H        0.64760    0.64180    0.92920    1.000
    H4       H        0.60410    0.68550    0.08360    1.000
    H5       H        0.70270    0.68230    0.46220    1.000
    H6       H        0.77430    0.68070    0.71380    1.000
    H7       H        0.57480    0.87860    0.68500    1.000
    H8       H        0.96460    0.86550    0.89220    1.000
    H9       H        0.89410    0.97010    0.03040    1.000
    H10      H        0.85240    0.71260    0.07080    1.000
    H11      H        0.89590    0.60190    0.91640    1.000
    H12      H        0.79730    0.22010    0.53780    1.000
    H13      H        0.72570    0.96690    0.28620    1.000
    H14      H        0.92520    0.19360    0.31500    1.000
    H15      H        0.46460    0.02670    0.89220    1.000
    H16      H        0.39410    0.06030    0.03040    1.000
    H17      H        0.35240    0.35820    0.07080    1.000
    H18      H        0.39590    0.31450    0.91640    1.000
    H19      H        0.29730    0.31770    0.53780    1.000
    H20      H        0.22570    0.31930    0.28620    1.000
    H21      H        0.42520    0.12140    0.31500    1.000
    H22      H        0.03540    0.13450    0.10780    1.000
    H23      H        0.10590    0.02990    0.96960    1.000
    H24      H        0.14760    0.28740    0.92920    1.000
    H25      H        0.10410    0.39810    0.08360    1.000
    H26      H        0.20270    0.77990    0.46220    1.000
    H27      H        0.27430    0.03310    0.71380    1.000
    H28      H        0.07480    0.80640    0.68500    1.000
    C1       C        0.52350    0.84940    0.19300    1.000
    C2       C        0.55950    0.83100    0.10580    1.000
    C3       C        0.56000    0.90720    0.07420    1.000
    C4       C        0.59850    0.88600    0.98860    1.000
    C5       C        0.62390    0.78410    0.93660    1.000
    C6       C        0.62700    0.70910    0.96580    1.000
    C7       C        0.59700    0.73450    0.05820    1.000
    C8       C        0.65020    0.75210    0.84220    1.000
    C9       C        0.56780    0.83000    0.50320    1.000
    C10      C        0.62750    0.78590    0.56160    1.000
    C11      C        0.69500    0.70810    0.52500    1.000
    C12      C        0.75010    0.66960    0.58180    1.000
    C13      C        0.73660    0.70650    0.67580    1.000
    C14      C        0.67040    0.77810    0.71160    1.000
    C15      C        0.61650    0.82440    0.65820    1.000
    C16      C        0.82900    0.58950    0.54400    1.000
    C17      C        0.97650    0.65640    0.80700    1.000
    C18      C        0.94050    0.72520    0.89420    1.000
    C19      C        0.94000    0.83300    0.92580    1.000
    C20      C        0.90150    0.89740    0.01140    1.000
    C21      C        0.87610    0.84750    0.06340    1.000
    C22      C        0.87300    0.74330    0.03420    1.000
    C23      C        0.90300    0.67630    0.94180    1.000
    C24      C        0.84980    0.90990    0.15780    1.000
    C25      C        0.93220    0.32680    0.49680    1.000
    C26      C        0.87250    0.22430    0.43840    1.000
    C27      C        0.80500    0.18310    0.47500    1.000
    C28      C        0.74990    0.08780    0.41820    1.000
    C29      C        0.76340    0.03070    0.32420    1.000
    C30      C        0.82960    0.06650    0.28840    1.000
    C31      C        0.88350    0.16620    0.34180    1.000
    C32      C        0.67100    0.04550    0.45600    1.000
    C33      C        0.47650    0.15060    0.80700    1.000
    C34      C        0.44050    0.16900    0.89420    1.000
    C35      C        0.44000    0.09280    0.92580    1.000
    C36      C        0.40150    0.11400    0.01140    1.000
    C37      C        0.37610    0.21590    0.06340    1.000
    C38      C        0.37300    0.29090    0.03420    1.000
    C39      C        0.40300    0.26550    0.94180    1.000
    C40      C        0.34980    0.24790    0.15780    1.000
    C41      C        0.43220    0.17000    0.49680    1.000
    C42      C        0.37250    0.21410    0.43840    1.000
    C43      C        0.30500    0.29190    0.47500    1.000
    C44      C        0.24990    0.33040    0.41820    1.000
    C45      C        0.26340    0.29350    0.32420    1.000
    C46      C        0.32960    0.22190    0.28840    1.000
    C47      C        0.38350    0.17560    0.34180    1.000
    C48      C        0.17100    0.41050    0.45600    1.000
    C49      C        0.02350    0.34360    0.19300    1.000
    C50      C        0.05950    0.27480    0.10580    1.000
    C51      C        0.06000    0.16700    0.07420    1.000
    C52      C        0.09850    0.10260    0.98860    1.000
    C53      C        0.12390    0.15250    0.93660    1.000
    C54      C        0.12700    0.25670    0.96580    1.000
    C55      C        0.09700    0.32370    0.05820    1.000
    C56      C        0.15020    0.09010    0.84220    1.000
    C57      C        0.06780    0.67320    0.50320    1.000
    C58      C        0.12750    0.77570    0.56160    1.000
    C59      C        0.19500    0.81690    0.52500    1.000
    C60      C        0.25010    0.91220    0.58180    1.000
    C61      C        0.23660    0.96930    0.67580    1.000
    C62      C        0.17040    0.93350    0.71160    1.000
    C63      C        0.11650    0.83380    0.65820    1.000
    C64      C        0.32900    0.95450    0.54400    1.000
    N1       N        0.64920    0.81500    0.80440    1.000
    N2       N        0.85080    0.01060    0.19560    1.000
    N3       N        0.35080    0.18500    0.19560    1.000
    N4       N        0.14920    0.98940    0.80440    1.000
    O1       O        0.52060    0.78660    0.22440    1.000
    O2       O        0.49330    0.94770    0.24500    1.000
    O3       O        0.55200    0.77390    0.41580    1.000
    O4       O        0.54050    0.92470    0.54020    1.000
    O5       O        0.83840    0.56450    0.46060    1.000
    O6       O        0.87540    0.55740    0.60060    1.000
    O7       O        0.97940    0.56220    0.77560    1.000
    O8       O        0.00670    0.70270    0.75500    1.000
    O9       O        0.94800    0.35810    0.58420    1.000
    O10      O        0.95950    0.38450    0.45980    1.000
    O11      O        0.66160    0.10390    0.53940    1.000
    O12      O        0.62460    0.95680    0.39940    1.000
    O13      O        0.47940    0.21340    0.77560    1.000
    O14      O        0.50670    0.05230    0.75500    1.000
    O15      O        0.44800    0.22610    0.58420    1.000
    O16      O        0.45950    0.07530    0.45980    1.000
    O17      O        0.16160    0.43550    0.53940    1.000
    O18      O        0.12460    0.44260    0.39940    1.000
    O19      O        0.02060    0.43780    0.22440    1.000
    O20      O        0.99330    0.29730    0.24500    1.000
    O21      O        0.05200    0.64190    0.41580    1.000
    O22      O        0.04050    0.61550    0.54020    1.000
    O23      O        0.33840    0.89610    0.46060    1.000
    O24      O        0.37540    0.04320    0.60060    1.000
