# CIF file generated by openbabel 3.1.0, see https://openbabel.org
data_I
_chemical_name_common 'image0'
_cell_length_a 12.743
_cell_length_b 13.9644
_cell_length_c 14.7971
_cell_angle_alpha 84.9842
_cell_angle_beta 83.4508
_cell_angle_gamma 64.4417
_space_group_name_H-M_alt 'P 1'
_space_group_name_Hall 'P 1'
loop_
    _symmetry_equiv_pos_as_xyz
    x,y,z
loop_
    _atom_site_label
    _atom_site_type_symbol
    _atom_site_fract_x
    _atom_site_fract_y
    _atom_site_fract_z
    _atom_site_occupancy
    Cu1      Cu       0.88551    0.46759    0.99259    1.000
    O1       O        0.97673    0.33854    0.06524    1.000
    O2       O        0.88630    0.36682    0.90975    1.000
    O3       O        0.72069    0.40608    0.06639    1.000
    O4       O        0.90187    0.56162    0.07461    1.000
    O5       O        0.77956    0.59512    0.93490    1.000
    C1       C        0.95680    0.26130    0.04550    1.000
    C2       C        0.87860    0.28420    0.96774    1.000
    Cu2      Cu       0.61429    0.53352    0.00890    1.000
    C3       C        0.75280    0.31790    0.01265    1.000
    C4       C        0.82980    0.65840    0.06270    1.000
    C5       C        0.74760    0.68350    0.98837    1.000
    O6       O        0.99250    0.17425    0.08819    1.000
    H1       H        0.90230    0.22010    0.93350    1.000
    O7       O        0.59821    0.43953    0.92669    1.000
    O8       O        0.61345    0.63413    0.09121    1.000
    O9       O        0.52371    0.66266    0.93568    1.000
    H2       H        0.74970    0.25860    0.05170    1.000
    C6       C        0.66970    0.34340    0.93880    1.000
    O10      O        0.82559    0.73135    0.10856    1.000
    H3       H        0.75060    0.74280    0.94930    1.000
    C7       C        0.62160    0.71670    0.03340    1.000
    C8       C        0.54490    0.73930    0.95480    1.000
    O11      O        0.67352    0.27050    0.89255    1.000
    H4       H        0.59720    0.78090    0.06760    1.000
    O12      O        0.50990    0.82620    0.91167    1.000
    C9       C        0.51210    0.27950    0.54060    1.000
    C10      C        0.58740    0.30600    0.46329    1.000
    H5       H        0.61340    0.25220    0.41740    1.000
    O13      O        0.41279    0.35474    0.56385    1.000
    O14      O        0.54915    0.19002    0.57887    1.000
    O15      O        0.52559    0.40664    0.42213    1.000
    C11      C        0.69540    0.30220    0.50540    1.000
    H6       H        0.74200    0.23040    0.52990    1.000
    C12      C        0.76620    0.33310    0.42720    1.000
    O16      O        0.66030    0.37639    0.57450    1.000
    O17      O        0.75044    0.42973    0.42273    1.000
    O18      O        0.83082    0.26669    0.37069    1.000
    C13      C        0.03170    0.26780    0.54230    1.000
    C14      C        0.09940    0.30070    0.46367    1.000
    H7       H        0.13250    0.24470    0.41940    1.000
    O19      O        0.92834    0.33753    0.56545    1.000
    O20      O        0.07769    0.18006    0.58288    1.000
    O21      O        0.02955    0.39627    0.42028    1.000
    C15      C        0.20000    0.31280    0.50436    1.000
    H8       H        0.25300    0.24430    0.53060    1.000
    C16      C        0.26470    0.34860    0.42643    1.000
    O22      O        0.15495    0.38923    0.57207    1.000
    O23      O        0.24056    0.44746    0.41982    1.000
    O24      O        0.33385    0.28339    0.37010    1.000
    Cu3      Cu       0.38380    0.48771    0.49256    1.000
    Cu4      Cu       0.10985    0.52603    0.50706    1.000
    Li1      Li       0.53070    0.42750    0.29280    1.000
    O25      O        0.49689    0.58008    0.27958    1.000
    H9       H        0.45400    0.59900    0.32670    1.000
    H10      H        0.56070    0.57700    0.29100    1.000
    Li2      Li       0.46850    0.68130    0.17220    1.000
    Li3      Li       0.03050    0.42270    0.29210    1.000
    O26      O        0.99732    0.57528    0.27988    1.000
    H11      H        0.95700    0.59300    0.32910    1.000
    H12      H        0.06230    0.57000    0.28900    1.000
    Li4      Li       0.79350    0.33680    0.65080    1.000
    Li5      Li       0.96900    0.67690    0.17230    1.000
    Li6      Li       0.01090    0.03300    0.08030    1.000
    Li7      Li       0.28650    0.34340    0.65180    1.000
    O27      O        0.33850    0.05050    0.92900    1.000
    O28      O        0.40390    0.01440    0.99290    1.000
    O29      O        0.99680    0.99970    0.04430    1.000
    Li8      Li       0.50590    0.96600    0.91970    1.000
    Cu5      Cu       0.11449    0.53241    0.00741    1.000
    O30      O        0.02327    0.66146    0.93476    1.000
    O31      O        0.11370    0.63318    0.09025    1.000
    O32      O        0.27931    0.59392    0.93361    1.000
    O33      O        0.09813    0.43838    0.92539    1.000
    O34      O        0.22044    0.40488    0.06510    1.000
    C17      C        0.04320    0.73870    0.95450    1.000
    C18      C        0.12140    0.71580    0.03226    1.000
    Cu6      Cu       0.38571    0.46648    0.99110    1.000
    C19      C        0.24720    0.68210    0.98735    1.000
    C20      C        0.17020    0.34160    0.93730    1.000
    C21      C        0.25240    0.31650    0.01163    1.000
    O35      O        0.00750    0.82575    0.91181    1.000
    H13      H        0.09770    0.77990    0.06650    1.000
    O36      O        0.40179    0.56047    0.07331    1.000
    O37      O        0.38655    0.36587    0.90879    1.000
    O38      O        0.47629    0.33734    0.06432    1.000
    H14      H        0.25030    0.74140    0.94830    1.000
    C22      C        0.33030    0.65660    0.06120    1.000
    O39      O        0.17441    0.26865    0.89144    1.000
    H15      H        0.24940    0.25720    0.05070    1.000
    C23      C        0.37840    0.28330    0.96660    1.000
    C24      C        0.45510    0.26070    0.04520    1.000
    O40      O        0.32648    0.72950    0.10745    1.000
    H16      H        0.40280    0.21910    0.93240    1.000
    O41      O        0.49010    0.17380    0.08833    1.000
    C25      C        0.48790    0.72050    0.45940    1.000
    C26      C        0.41260    0.69400    0.53671    1.000
    H17      H        0.38660    0.74780    0.58260    1.000
    O42      O        0.58721    0.64526    0.43615    1.000
    O43      O        0.45085    0.80998    0.42113    1.000
    O44      O        0.47441    0.59336    0.57787    1.000
    C27      C        0.30460    0.69780    0.49460    1.000
    H18      H        0.25800    0.76960    0.47010    1.000
    C28      C        0.23380    0.66690    0.57280    1.000
    O45      O        0.33970    0.62361    0.42550    1.000
    O46      O        0.24956    0.57027    0.57727    1.000
    O47      O        0.16918    0.73331    0.62931    1.000
    C29      C        0.96830    0.73220    0.45770    1.000
    C30      C        0.90060    0.69930    0.53633    1.000
    H19      H        0.86750    0.75530    0.58060    1.000
    O48      O        0.07166    0.66247    0.43455    1.000
    O49      O        0.92231    0.81994    0.41712    1.000
    O50      O        0.97045    0.60373    0.57972    1.000
    C31      C        0.80000    0.68720    0.49564    1.000
    H20      H        0.74700    0.75570    0.46940    1.000
    C32      C        0.73530    0.65140    0.57357    1.000
    O51      O        0.84505    0.61077    0.42793    1.000
    O52      O        0.75944    0.55254    0.58018    1.000
    O53      O        0.66615    0.71661    0.62990    1.000
    Cu7      Cu       0.61620    0.51229    0.50744    1.000
    Cu8      Cu       0.89015    0.47397    0.49294    1.000
    Li9      Li       0.46930    0.57250    0.70720    1.000
    O54      O        0.50311    0.41992    0.72042    1.000
    H21      H        0.54600    0.40100    0.67330    1.000
    H22      H        0.43930    0.42300    0.70900    1.000
    Li10     Li       0.53150    0.31870    0.82780    1.000
    Li11     Li       0.96950    0.57730    0.70790    1.000
    O55      O        0.00268    0.42472    0.72012    1.000
    H23      H        0.04300    0.40700    0.67090    1.000
    H24      H        0.93770    0.43000    0.71100    1.000
    Li12     Li       0.20650    0.66320    0.34920    1.000
    Li13     Li       0.03100    0.32310    0.82770    1.000
    Li14     Li       0.98910    0.96700    0.91970    1.000
    Li15     Li       0.71350    0.65660    0.34820    1.000
    O56      O        0.66150    0.94950    0.07100    1.000
    O57      O        0.59610    0.98560    0.00710    1.000
    O58      O        0.00320    0.00030    0.95570    1.000
    Li16     Li       0.49410    0.03400    0.08030    1.000
