# CIF file generated by openbabel 3.1.0, see https://openbabel.org
data_I
_chemical_name_common 'EBEMII_clean'
_cell_length_a 11.215
_cell_length_b 13.983
_cell_length_c 13.9973
_cell_angle_alpha 104.264
_cell_angle_beta 113.617
_cell_angle_gamma 90
_space_group_name_H-M_alt 'P 1'
_space_group_name_Hall 'P 1'
loop_
    _symmetry_equiv_pos_as_xyz
    x,y,z
loop_
    _atom_site_label
    _atom_site_type_symbol
    _atom_site_fract_x
    _atom_site_fract_y
    _atom_site_fract_z
    _atom_site_occupancy
    Cd1      Cd       0.90316    0.36723    0.44852    1.000
    Cd2      Cd       0.45464    0.13277    0.55148    1.000
    H1       H        0.78800    0.78330    0.35900    1.000
    H2       H        0.95100    0.84350    0.32160    1.000
    H3       H        0.08830    0.37030    0.31880    1.000
    H4       H        0.08480    0.38130    0.15640    1.000
    H5       H        0.69050    0.36910    0.04020    1.000
    H6       H        0.70750    0.36110    0.20920    1.000
    H7       H        0.14960    0.37590    0.85900    1.000
    H8       H        0.11450    0.37360    0.68340    1.000
    H9       H        0.73430    0.37180    0.59220    1.000
    H10      H        0.75620    0.37200    0.76340    1.000
    H11      H        0.78800    0.37660    0.92460    1.000
    H12      H        0.05800    0.38040    0.99420    1.000
    H13      H        0.42900    0.71670    0.64100    1.000
    H14      H        0.62940    0.65650    0.67840    1.000
    H15      H        0.76950    0.12970    0.68120    1.000
    H16      H        0.92840    0.11870    0.84360    1.000
    H17      H        0.65030    0.13090    0.95980    1.000
    H18      H        0.49830    0.13890    0.79080    1.000
    H19      H        0.29060    0.12410    0.14100    1.000
    H20      H        0.43110    0.12640    0.31660    1.000
    H21      H        0.14210    0.12820    0.40780    1.000
    H22      H        0.99280    0.12800    0.23660    1.000
    H23      H        0.86340    0.12340    0.07540    1.000
    H24      H        0.06380    0.11960    0.00580    1.000
    C1       C        0.82810    0.04120    0.36820    1.000
    C2       C        0.73970    0.01040    0.40340    1.000
    C3       C        0.80010    0.85200    0.36620    1.000
    C4       C        0.89530    0.88800    0.34060    1.000
    C5       C        0.83950    0.14600    0.36100    1.000
    C6       C        0.66640    0.08300    0.45280    1.000
    C7       C        0.00570    0.37050    0.26140    1.000
    C8       C        0.00530    0.37700    0.16460    1.000
    C9       C        0.88830    0.37800    0.08060    1.000
    C10      C        0.77440    0.37000    0.09680    1.000
    C11      C        0.78510    0.36500    0.19820    1.000
    C12      C        0.95220    0.37540    0.82840    1.000
    C13      C        0.06370    0.37500    0.80540    1.000
    C14      C        0.04180    0.37370    0.70160    1.000
    C15      C        0.81850    0.37200    0.64700    1.000
    C16      C        0.83130    0.37300    0.74860    1.000
    C17      C        0.87430    0.37700    0.97660    1.000
    C18      C        0.97120    0.37800    0.94240    1.000
    C19      C        0.45990    0.45880    0.63180    1.000
    C20      C        0.33630    0.48960    0.59660    1.000
    C21      C        0.43390    0.64800    0.63380    1.000
    C22      C        0.55470    0.61200    0.65940    1.000
    C23      C        0.47850    0.35400    0.63900    1.000
    C24      C        0.21360    0.41700    0.54720    1.000
    C25      C        0.74430    0.12950    0.73860    1.000
    C26      C        0.84070    0.12300    0.83540    1.000
    C27      C        0.80770    0.12200    0.91940    1.000
    C28      C        0.67760    0.13000    0.90320    1.000
    C29      C        0.58690    0.13500    0.80180    1.000
    C30      C        0.12380    0.12460    0.17160    1.000
    C31      C        0.25830    0.12500    0.19460    1.000
    C32      C        0.34020    0.12630    0.29840    1.000
    C33      C        0.17150    0.12800    0.35300    1.000
    C34      C        0.08270    0.12700    0.25140    1.000
    C35      C        0.89770    0.12300    0.02340    1.000
    C36      C        0.02880    0.12200    0.05760    1.000
    N1       N        0.91060    0.98290    0.34120    1.000
    N2       N        0.72320    0.91430    0.40200    1.000
    N3       N        0.89820    0.36430    0.28040    1.000
    N4       N        0.92160    0.37240    0.62400    1.000
    N5       N        0.56940    0.51710    0.65880    1.000
    N6       N        0.32120    0.58570    0.59800    1.000
    N7       N        0.61780    0.13570    0.71960    1.000
    N8       N        0.29760    0.12760    0.37600    1.000
    O1       O        0.92960    0.20510    0.43520    1.000
    O2       O        0.76070    0.16700    0.28340    1.000
    O3       O        0.68340    0.16630    0.46080    1.000
    O4       O        0.58350    0.04360    0.47480    1.000
    O5       O        0.49440    0.29490    0.56480    1.000
    O6       O        0.47730    0.33300    0.71660    1.000
    O7       O        0.22260    0.33370    0.53920    1.000
    O8       O        0.10870    0.45640    0.52520    1.000
    Cd3      Cd       0.09684    0.63277    0.55148    1.000
    Cd4      Cd       0.54536    0.86723    0.44852    1.000
    H25      H        0.21200    0.21670    0.64100    1.000
    H26      H        0.04900    0.15650    0.67840    1.000
    H27      H        0.91170    0.62970    0.68120    1.000
    H28      H        0.91520    0.61870    0.84360    1.000
    H29      H        0.30950    0.63090    0.95980    1.000
    H30      H        0.29250    0.63890    0.79080    1.000
    H31      H        0.85040    0.62410    0.14100    1.000
    H32      H        0.88550    0.62640    0.31660    1.000
    H33      H        0.26570    0.62820    0.40780    1.000
    H34      H        0.24380    0.62800    0.23660    1.000
    H35      H        0.21200    0.62340    0.07540    1.000
    H36      H        0.94200    0.61960    0.00580    1.000
    H37      H        0.57100    0.28330    0.35900    1.000
    H38      H        0.37060    0.34350    0.32160    1.000
    H39      H        0.23050    0.87030    0.31880    1.000
    H40      H        0.07160    0.88130    0.15640    1.000
    H41      H        0.34970    0.86910    0.04020    1.000
    H42      H        0.50170    0.86110    0.20920    1.000
    H43      H        0.70940    0.87590    0.85900    1.000
    H44      H        0.56890    0.87360    0.68340    1.000
    H45      H        0.85790    0.87180    0.59220    1.000
    H46      H        0.00720    0.87200    0.76340    1.000
    H47      H        0.13660    0.87660    0.92460    1.000
    H48      H        0.93620    0.88040    0.99420    1.000
    C37      C        0.17190    0.95880    0.63180    1.000
    C38      C        0.26030    0.98960    0.59660    1.000
    C39      C        0.19990    0.14800    0.63380    1.000
    C40      C        0.10470    0.11200    0.65940    1.000
    C41      C        0.16050    0.85400    0.63900    1.000
    C42      C        0.33360    0.91700    0.54720    1.000
    C43      C        0.99430    0.62950    0.73860    1.000
    C44      C        0.99470    0.62300    0.83540    1.000
    C45      C        0.11170    0.62200    0.91940    1.000
    C46      C        0.22560    0.63000    0.90320    1.000
    C47      C        0.21490    0.63500    0.80180    1.000
    C48      C        0.04780    0.62460    0.17160    1.000
    C49      C        0.93630    0.62500    0.19460    1.000
    C50      C        0.95820    0.62630    0.29840    1.000
    C51      C        0.18150    0.62800    0.35300    1.000
    C52      C        0.16870    0.62700    0.25140    1.000
    C53      C        0.12570    0.62300    0.02340    1.000
    C54      C        0.02880    0.62200    0.05760    1.000
    C55      C        0.54010    0.54120    0.36820    1.000
    C56      C        0.66370    0.51040    0.40340    1.000
    C57      C        0.56610    0.35200    0.36620    1.000
    C58      C        0.44530    0.38800    0.34060    1.000
    C59      C        0.52150    0.64600    0.36100    1.000
    C60      C        0.78640    0.58300    0.45280    1.000
    C61      C        0.25570    0.87050    0.26140    1.000
    C62      C        0.15930    0.87700    0.16460    1.000
    C63      C        0.19230    0.87800    0.08060    1.000
    C64      C        0.32240    0.87000    0.09680    1.000
    C65      C        0.41310    0.86500    0.19820    1.000
    C66      C        0.87620    0.87540    0.82840    1.000
    C67      C        0.74170    0.87500    0.80540    1.000
    C68      C        0.65980    0.87370    0.70160    1.000
    C69      C        0.82850    0.87200    0.64700    1.000
    C70      C        0.91730    0.87300    0.74860    1.000
    C71      C        0.10230    0.87700    0.97660    1.000
    C72      C        0.97120    0.87800    0.94240    1.000
    N9       N        0.08940    0.01710    0.65880    1.000
    N10      N        0.27680    0.08570    0.59800    1.000
    N11      N        0.10180    0.63570    0.71960    1.000
    N12      N        0.07840    0.62760    0.37600    1.000
    N13      N        0.43060    0.48290    0.34120    1.000
    N14      N        0.67880    0.41430    0.40200    1.000
    N15      N        0.38220    0.86430    0.28040    1.000
    N16      N        0.70240    0.87240    0.62400    1.000
    O9       O        0.07040    0.79490    0.56480    1.000
    O10      O        0.23930    0.83300    0.71660    1.000
    O11      O        0.31660    0.83370    0.53920    1.000
    O12      O        0.41650    0.95640    0.52520    1.000
    O13      O        0.50560    0.70510    0.43520    1.000
    O14      O        0.52270    0.66700    0.28340    1.000
    O15      O        0.77740    0.66630    0.46080    1.000
    O16      O        0.89130    0.54360    0.47480    1.000
