data_functionalizedCrystal
_audit_creation_method	'EQeq! by Chris Wilmer'
_symmetry_space_group_name_H-M	'P1'
_symmetry_Int_Tables_number	1
_symmetry_cell_setting	triclinic
loop_
_symmetry_equiv_pos_as_xyz
  x,y,z
_cell_length_a	15.4562
_cell_length_b	16.278
_cell_length_c	18.346
_cell_angle_alpha	108.559
_cell_angle_beta	103.799
_cell_angle_gamma	108.453
loop_
_atom_site_label
_atom_site_type_symbol
_atom_site_fract_x
_atom_site_fract_y
_atom_site_fract_z
_atom_site_charge
Mof_C 	C 	0.554	0.0245	0.6898	0.261
Mof_C 	C 	0.5949	0.1274	0.7448	-0.101
Mof_C 	C 	0.6437	0.193	0.722	0.055
Mof_H 	H 	0.6561	0.1735	0.6736	0.028
Mof_C 	C 	0.6762	0.2916	0.7716	-0.148
Mof_H 	H 	0.7093	0.3368	0.7555	0.091
Mof_C 	C 	0.6589	0.3212	0.8442	0.11
Mof_C 	C 	0.6115	0.2548	0.8678	-0.151
Mof_H 	H 	0.6004	0.2747	0.9167	0.092
Mof_C 	C 	0.5796	0.1581	0.8202	0.048
Mof_H 	H 	0.5482	0.1134	0.8376	0.026
Mof_C 	C 	0.5622	0.7535	0.6811	0.298
Mof_C 	C 	0.5928	0.7073	0.7315	-0.108
Mof_C 	C 	0.5284	0.6136	0.7163	0.055
Mof_H 	H 	0.4664	0.5819	0.6739	0.031
Mof_C 	C 	0.5573	0.5702	0.7635	-0.143
Mof_H 	H 	0.5159	0.5079	0.7514	0.082
Mof_C 	C 	0.6489	0.6183	0.8306	0.099
Mof_C 	C 	0.7129	0.7096	0.8431	-0.141
Mof_H 	H 	0.7752	0.7412	0.885	0.093
Mof_C 	C 	0.6846	0.7526	0.7944	0.057
Mof_H 	H 	0.728	0.813	0.804	0.031
Mof_C 	C 	0.3085	0.8035	0.4763	0.387
Mof_C 	C 	0.2086	0.7721	0.4126	-0.155
Mof_C 	C 	0.1314	0.6991	0.4082	0.085
Mof_H 	H 	0.1402	0.6689	0.4428	0.022
Mof_C 	C 	0.0339	0.6693	0.3478	-0.172
Mof_H 	H 	0.9805	0.6171	0.3415	0.099
Mof_C 	C 	0.0207	0.7178	0.3002	0.153
Mof_C 	C 	0.0933	0.8011	0.3214	-0.196
Mof_H 	H 	0.0809	0.8436	0.3012	0.109
Mof_C 	C 	0.1872	0.8259	0.373	0.106
Mof_H 	H 	0.2381	0.8815	0.3814	0.02
Mof_C 	C 	0.5569	0.8229	0.44	0.33
Mof_C 	C 	0.5966	0.772	0.3802	-0.101
Mof_C 	C 	0.5911	0.784	0.3076	0.053
Mof_H 	H 	0.5562	0.817	0.2924	0.034
Mof_C 	C 	0.6363	0.7479	0.2584	-0.137
Mof_H 	H 	0.6306	0.7559	0.2097	0.092
Mof_C 	C 	0.6911	0.6993	0.2799	0.103
Mof_C 	C 	0.6926	0.6841	0.3523	-0.143
Mof_H 	H 	0.7269	0.6509	0.368	0.086
Mof_C 	C 	0.6441	0.7178	0.399	0.054
Mof_H 	H 	0.6429	0.7041	0.4444	0.033
Mof_C 	C 	0.6591	0.474	0.8451	-0.011
Mof_H 	H 	0.6282	0.4412	0.7877	0.041
Mof_C 	C 	0.6763	0.5708	0.8829	-0.074
Mof_C 	C 	0.7178	0.6158	0.9704	0.108
Mof_C 	C 	0.747	0.5707	0.0166	-0.038
Mof_C 	C 	0.7334	0.4766	0.9759	0.112
Mof_C 	C 	0.6858	0.4259	0.8894	-0.076
Mof_C 	C 	0.7866	0.6186	0.1082	-0.044
Mof_C 	C 	0.7236	0.6316	0.1497	0.122
Mof_C 	C 	0.7538	0.6743	0.2361	-0.079
Mof_C 	C 	0.852	0.7004	0.2811	0.005
Mof_H 	H 	0.8739	0.7276	0.3388	0.038
Mof_C 	C 	0.9188	0.6886	0.2455	-0.091
Mof_C 	C 	0.8852	0.6489	0.1576	0.13
Mof_C 	C 	0.8433	0.4104	0.0111	-0.235
Mof_H 	H 	0.8609	0.3803	0.0459	0.112
Mof_H 	H 	0.8229	0.3675	0.954	0.106
Mof_H 	H 	0.8991	0.4681	0.0251	0.121
Mof_C 	C 	0.6543	0.7322	0.0068	-0.248
Mof_H 	H 	0.6761	0.7996	0.0382	0.119
Mof_H 	H 	0.6175	0.7141	0.9497	0.114
Mof_H 	H 	0.6132	0.6972	0.0285	0.12
Mof_C 	C 	0.5609	0.5123	0.0981	-0.255
Mof_H 	H 	0.4943	0.4939	0.0637	0.122
Mof_H 	H 	0.581	0.4628	0.0757	0.117
Mof_H 	H 	0.5647	0.5215	0.1533	0.114
Mof_C 	C 	0.9918	0.7074	0.0944	-0.211
Mof_H 	H 	0.0355	0.6926	0.0686	0.097
Mof_H 	H 	0.9403	0.7106	0.0557	0.109
Mof_H 	H 	0.0279	0.7681	0.1422	0.102
Mof_Cd	Cd	0.48569	0.83397	0.58842	0.51
Mof_O 	O 	0.5755	0.998	0.625	-0.257
Mof_O 	O 	0.4993	0.9615	0.706	-0.231
Mof_O 	O 	0.4701	0.7183	0.6341	-0.249
Mof_O 	O 	0.6213	0.8297	0.6852	-0.248
Mof_O 	O 	0.3697	0.8832	0.4985	-0.312
Mof_O 	O 	0.3235	0.7494	0.505	-0.295
Mof_O 	O 	0.537	0.7854	0.488	-0.28
Mof_O 	O 	0.549	0.8949	0.4349	-0.279
Mof_O 	O 	0.7643	0.4329	0.0234	-0.155
Mof_O 	O 	0.7371	0.711	0.0128	-0.151
Mof_O 	O 	0.6251	0.6007	0.1004	-0.163
Mof_O 	O 	0.9496	0.6343	0.1195	-0.166
Mof_C 	C 	0.446	0.9755	0.3102	0.348
Mof_C 	C 	0.4051	0.8726	0.2552	-0.134
Mof_C 	C 	0.3563	0.807	0.278	0.083
Mof_H 	H 	0.3439	0.8265	0.3264	0.022
Mof_C 	C 	0.3238	0.7084	0.2284	-0.167
Mof_H 	H 	0.2907	0.6632	0.2445	0.097
Mof_C 	C 	0.3411	0.6788	0.1558	0.125
Mof_C 	C 	0.3885	0.7452	0.1322	-0.17
Mof_H 	H 	0.3996	0.7253	0.0833	0.1
Mof_C 	C 	0.4204	0.8419	0.1798	0.075
Mof_H 	H 	0.4518	0.8866	0.1624	0.025
Mof_C 	C 	0.4378	0.2465	0.3189	0.3
Mof_C 	C 	0.4072	0.2927	0.2685	-0.112
Mof_C 	C 	0.4716	0.3864	0.2837	0.057
Mof_H 	H 	0.5336	0.4181	0.3261	0.03
Mof_C 	C 	0.4427	0.4298	0.2365	-0.146
Mof_H 	H 	0.4841	0.4921	0.2486	0.083
Mof_C 	C 	0.3511	0.3817	0.1694	0.101
Mof_C 	C 	0.2871	0.2904	0.1569	-0.144
Mof_H 	H 	0.2248	0.2588	0.115	0.091
Mof_C 	C 	0.3154	0.2474	0.2056	0.059
Mof_H 	H 	0.272	0.187	0.196	0.025
Mof_C 	C 	0.6915	0.1965	0.5237	0.391
Mof_C 	C 	0.7914	0.2279	0.5874	-0.162
Mof_C 	C 	0.8686	0.3009	0.5918	0.09
Mof_H 	H 	0.8598	0.3311	0.5572	0.02
Mof_C 	C 	0.9661	0.3307	0.6522	-0.179
Mof_H 	H 	0.0195	0.3829	0.6585	0.103
Mof_C 	C 	0.9793	0.2822	0.6998	0.156
Mof_C 	C 	0.9067	0.1989	0.6786	-0.202
Mof_H 	H 	0.9191	0.1564	0.6988	0.105
Mof_C 	C 	0.8128	0.1741	0.627	0.111
Mof_H 	H 	0.7619	0.1185	0.6186	0.01
Mof_C 	C 	0.4431	0.1771	0.56	0.331
Mof_C 	C 	0.4034	0.228	0.6198	-0.105
Mof_C 	C 	0.4089	0.216	0.6924	0.053
Mof_H 	H 	0.4438	0.183	0.7076	0.031
Mof_C 	C 	0.3637	0.2521	0.7416	-0.14
Mof_H 	H 	0.3694	0.2441	0.7903	0.091
Mof_C 	C 	0.3089	0.3007	0.7201	0.104
Mof_C 	C 	0.3074	0.3159	0.6477	-0.145
Mof_H 	H 	0.2731	0.3491	0.632	0.086
Mof_C 	C 	0.3559	0.2822	0.601	0.054
Mof_H 	H 	0.3571	0.2959	0.5556	0.032
Mof_C 	C 	0.3409	0.526	0.1549	-0.006
Mof_H 	H 	0.3718	0.5588	0.2123	0.039
Mof_C 	C 	0.3237	0.4292	0.1171	-0.079
Mof_C 	C 	0.2822	0.3842	0.0296	0.113
Mof_C 	C 	0.253	0.4293	0.9834	-0.042
Mof_C 	C 	0.2666	0.5234	0.0241	0.117
Mof_C 	C 	0.3142	0.5741	0.1106	-0.083
Mof_C 	C 	0.2134	0.3814	0.8918	-0.044
Mof_C 	C 	0.2764	0.3684	0.8503	0.121
Mof_C 	C 	0.2462	0.3257	0.7639	-0.08
Mof_C 	C 	0.148	0.2996	0.7189	0.005
Mof_H 	H 	0.1261	0.2724	0.6612	0.035
Mof_C 	C 	0.0812	0.3114	0.7545	-0.093
Mof_C 	C 	0.1148	0.3511	0.8424	0.131
Mof_C 	C 	0.1567	0.5896	0.9889	-0.242
Mof_H 	H 	0.1391	0.6197	0.9541	0.116
Mof_H 	H 	0.1771	0.6325	0.046	0.11
Mof_H 	H 	0.1009	0.5319	0.9749	0.123
Mof_C 	C 	0.3457	0.2678	0.9932	-0.241
Mof_H 	H 	0.3239	0.2004	0.9618	0.112
Mof_H 	H 	0.3825	0.2859	0.0503	0.11
Mof_H 	H 	0.3868	0.3028	0.9715	0.117
Mof_C 	C 	0.4391	0.4877	0.9019	-0.255
Mof_H 	H 	0.5057	0.5061	0.9363	0.122
Mof_H 	H 	0.419	0.5372	0.9243	0.117
Mof_H 	H 	0.4353	0.4785	0.8467	0.114
Mof_C 	C 	0.0082	0.2926	0.9056	-0.189
Mof_H 	H 	0.9645	0.3074	0.9314	0.088
Mof_H 	H 	0.0597	0.2894	0.9443	0.101
Mof_H 	H 	0.9721	0.2319	0.8578	0.091
Mof_Cd	Cd	0.51431	0.16603	0.41158	0.508
Mof_O 	O 	0.4245	0.002	0.375	-0.306
Mof_O 	O 	0.5007	0.0385	0.294	-0.277
Mof_O 	O 	0.5299	0.2817	0.3659	-0.25
Mof_O 	O 	0.3787	0.1703	0.3148	-0.254
Mof_O 	O 	0.6303	0.1168	0.5015	-0.323
Mof_O 	O 	0.6765	0.2506	0.495	-0.297
Mof_O 	O 	0.463	0.2146	0.512	-0.281
Mof_O 	O 	0.451	0.1051	0.5651	-0.289
Mof_O 	O 	0.2357	0.5671	0.9766	-0.154
Mof_O 	O 	0.2629	0.289	0.9872	-0.156
Mof_O 	O 	0.3749	0.3993	0.8996	-0.164
Mof_O 	O 	0.0504	0.3657	0.8805	-0.17
Mof_Cd	Cd	0.5	0	0.5	0.504
_end
