data_functionalizedCrystal
_audit_creation_method	'EQeq! by Chris Wilmer'
_symmetry_space_group_name_H-M	'P1'
_symmetry_Int_Tables_number	1
_symmetry_cell_setting	triclinic
loop_
_symmetry_equiv_pos_as_xyz
  x,y,z
_cell_length_a	10.509
_cell_length_b	11.48
_cell_length_c	13.426
_cell_angle_alpha	69.137
_cell_angle_beta	78.671
_cell_angle_gamma	63.564
loop_
_atom_site_label
_atom_site_type_symbol
_atom_site_fract_x
_atom_site_fract_y
_atom_site_fract_z
_atom_site_charge
Mof_U 	U 	0.62233	0.714	0.83603	0.006
Mof_Yb	Yb	0.59779	0.23117	0.75074	1.291
Mof_C 	C 	0.997	0.3426	0.8523	-0.017
Mof_C 	C 	0.1096	0.313	0.91	-0.024
Mof_H 	H 	0.0944	0.3591	0.9588	0.079
Mof_C 	C 	0.2457	0.2149	0.8958	-0.063
Mof_C 	C 	0.2656	0.1427	0.8233	-0.071
Mof_C 	C 	0.1467	0.165	0.7732	0.011
Mof_H 	H 	0.1574	0.1121	0.7308	0.05
Mof_C 	C 	0.0123	0.2668	0.7872	-0.054
Mof_C 	C 	0.6287	0.0019	0.448	-0.013
Mof_H 	H 	0.7145	0.0017	0.4133	0.06
Mof_C 	C 	0.6165	0.8762	0.5049	-0.038
Mof_C 	C 	0.4862	0.8768	0.5556	-0.029
Mof_C 	C 	0.8624	0.4625	0.8574	0.267
Mof_C 	C 	0.36	0.1946	0.9566	0.335
Mof_C 	C 	0.4075	0.042	0.795	0.355
Mof_C 	C 	0.8922	0.2929	0.7246	0.35
Mof_C 	C 	0.4655	0.7492	0.6201	0.281
Mof_C 	C 	0.7438	0.7475	0.5061	0.281
Mof_O 	O 	0.8523	0.5344	0.914	-0.192
Mof_O 	O 	0.7614	0.4971	0.7994	-0.186
Mof_O 	O 	0.8121	0.2342	0.7726	-0.41
Mof_O 	O 	0.8854	0.3625	0.6262	-0.218
Mof_O 	O 	0.4153	0.9219	0.817	-0.208
Mof_O 	O 	0.5046	0.0792	0.7553	-0.406
Mof_O 	O 	0.4827	0.1799	0.9154	-0.39
Mof_O 	O 	0.3284	0.1951	0.0512	-0.211
Mof_O 	O 	0.4984	0.6944	0.719	-0.181
Mof_O 	O 	0.4095	0.7026	0.5792	-0.259
Mof_O 	O 	0.7347	0.6341	0.5334	-0.197
Mof_O 	O 	0.8634	0.7483	0.4814	-0.203
Mof_U 	U 	0.37767	0.286	0.16397	0.007
Mof_Yb	Yb	0.40221	0.76883	0.24926	1.292
Mof_C 	C 	0.003	0.6574	0.1477	-0.019
Mof_C 	C 	0.8904	0.687	0.09	-0.022
Mof_H 	H 	0.9056	0.6409	0.0412	0.079
Mof_C 	C 	0.7543	0.7851	0.1042	-0.063
Mof_C 	C 	0.7344	0.8573	0.1767	-0.07
Mof_C 	C 	0.8533	0.835	0.2268	0.01
Mof_H 	H 	0.8426	0.8879	0.2692	0.05
Mof_C 	C 	0.9877	0.7332	0.2128	-0.052
Mof_C 	C 	0.3713	0.9981	0.552	-0.013
Mof_H 	H 	0.2855	0.9983	0.5867	0.06
Mof_C 	C 	0.3835	0.1238	0.4951	-0.039
Mof_C 	C 	0.5138	0.1232	0.4444	-0.029
Mof_C 	C 	0.1376	0.5375	0.1426	0.267
Mof_C 	C 	0.64	0.8054	0.0434	0.336
Mof_C 	C 	0.5925	0.958	0.205	0.355
Mof_C 	C 	0.1078	0.7071	0.2754	0.35
Mof_C 	C 	0.5345	0.2508	0.3799	0.281
Mof_C 	C 	0.2562	0.2525	0.4939	0.281
Mof_O 	O 	0.1477	0.4656	0.086	-0.193
Mof_O 	O 	0.2386	0.5029	0.2006	-0.187
Mof_O 	O 	0.1879	0.7658	0.2274	-0.41
Mof_O 	O 	0.1146	0.6375	0.3738	-0.218
Mof_O 	O 	0.5847	0.0781	0.183	-0.208
Mof_O 	O 	0.4954	0.9208	0.2447	-0.406
Mof_O 	O 	0.5173	0.8201	0.0846	-0.39
Mof_O 	O 	0.6716	0.8049	0.9488	-0.211
Mof_O 	O 	0.5016	0.3056	0.281	-0.181
Mof_O 	O 	0.5905	0.2974	0.4208	-0.259
Mof_O 	O 	0.2653	0.3659	0.4666	-0.197
Mof_O 	O 	0.1366	0.2517	0.5186	-0.203
Mof_U 	U 	-0	0.5	0.5	0.006
_end
