data_functionalizedCrystal
_audit_creation_method	'EQeq! by Chris Wilmer'
_symmetry_space_group_name_H-M	'P1'
_symmetry_Int_Tables_number	1
_symmetry_cell_setting	triclinic
loop_
_symmetry_equiv_pos_as_xyz
  x,y,z
_cell_length_a	10.165
_cell_length_b	11.624
_cell_length_c	14.738
_cell_angle_alpha	91.402
_cell_angle_beta	90
_cell_angle_gamma	90
loop_
_atom_site_label
_atom_site_type_symbol
_atom_site_fract_x
_atom_site_fract_y
_atom_site_fract_z
_atom_site_charge
Mof_Mn	Mn	0.91451	0.74394	0.86828	1.089
Mof_Mn	Mn	0.09925	0.76155	0.68359	0.963
Mof_Mn	Mn	0.41451	0.75606	0.63172	1.018
Mof_Mn	Mn	0.59925	0.73845	0.81641	1.033
Mof_Mn	Mn	0.08549	0.25606	0.13172	0.929
Mof_Mn	Mn	0.90075	0.23845	0.31641	1.086
Mof_Mn	Mn	0.58549	0.24394	0.36828	0.998
Mof_Mn	Mn	0.40075	0.26155	0.18359	1.012
Mof_Mn	Mn	-0	0	-0	0.745
Mof_Mn	Mn	0.5	0.5	0.5	1.053
Mof_Mn	Mn	-0	0.5	-0	0.839
Mof_Mn	Mn	0.5	0	0.5	0.947
Mof_H 	H 	0.0224	0.0239	0.7325	-0.176
Mof_H 	H 	0.6175	0.9437	0.962	-0.057
Mof_H 	H 	0.7479	0.6366	0.6335	-0.107
Mof_H 	H 	0.7023	0.5077	0.9942	-0.065
Mof_H 	H 	0.1785	0.5198	0.7621	-0.118
Mof_H 	H 	0.1602	0.8003	0.0698	-0.058
Mof_H 	H 	0.5224	0.4761	0.7675	-0.107
Mof_H 	H 	0.1175	0.5563	0.538	-0.125
Mof_H 	H 	0.2479	0.8634	0.8665	-0.083
Mof_H 	H 	0.2023	0.9923	0.5058	-0.082
Mof_H 	H 	0.6785	0.9802	0.7379	-0.126
Mof_H 	H 	0.6602	0.6997	0.4302	-0.095
Mof_H 	H 	0.9776	0.9761	0.2675	-0.027
Mof_H 	H 	0.3825	0.0563	0.038	-0.14
Mof_H 	H 	0.2521	0.3634	0.3665	-0.119
Mof_H 	H 	0.2977	0.4923	0.0058	-0.119
Mof_H 	H 	0.8215	0.4802	0.2379	-0.108
Mof_H 	H 	0.8398	0.1997	0.9302	-0.114
Mof_H 	H 	0.4776	0.5239	0.2325	-0.116
Mof_H 	H 	0.8825	0.4437	0.462	-0.087
Mof_H 	H 	0.7521	0.1366	0.1335	-0.13
Mof_H 	H 	0.7977	0.0077	0.4942	-0.112
Mof_H 	H 	0.3215	0.0198	0.2621	-0.105
Mof_H 	H 	0.3398	0.3003	0.5698	-0.115
Mof_C 	C 	0.0056	0.98309	0.78634	0.507
Mof_C 	C 	0.70797	0.92594	0.95334	0.456
Mof_C 	C 	0.81668	0.66939	0.66928	0.489
Mof_C 	C 	0.71762	0.56808	0.9532	0.47
Mof_C 	C 	0.12014	0.54638	0.80847	0.489
Mof_C 	C 	0.10503	0.75744	0.0294	0.368
Mof_C 	C 	0.5056	0.51691	0.71366	0.508
Mof_C 	C 	0.20797	0.57406	0.54666	0.496
Mof_C 	C 	0.31668	0.83061	0.83072	0.485
Mof_C 	C 	0.21762	0.93192	0.5468	0.482
Mof_C 	C 	0.62014	0.95362	0.69153	0.607
Mof_C 	C 	0.60503	0.74256	0.4706	0.496
Mof_C 	C 	0.9944	0.01691	0.21366	0.465
Mof_C 	C 	0.29203	0.07406	0.04666	0.488
Mof_C 	C 	0.18332	0.33061	0.33072	0.497
Mof_C 	C 	0.28238	0.43192	0.0468	0.485
Mof_C 	C 	0.87986	0.45362	0.19153	0.477
Mof_C 	C 	0.89497	0.24256	0.9706	0.577
Mof_C 	C 	0.4944	0.48309	0.28634	0.508
Mof_C 	C 	0.79203	0.42594	0.45334	0.492
Mof_C 	C 	0.68332	0.16939	0.16928	0.494
Mof_C 	C 	0.78238	0.06808	0.4532	0.486
Mof_C 	C 	0.37986	0.04638	0.30847	0.373
Mof_C 	C 	0.39497	0.25744	0.5294	0.515
Mof_O 	O 	0.99823	0.87383	0.77908	-0.422
Mof_O 	O 	0.736	0.84684	0.89442	-0.465
Mof_O 	O 	0.79133	0.69108	0.75264	-0.483
Mof_O 	O 	0.83673	0.60053	0.94275	-0.427
Mof_O 	O 	0.07444	0.64788	0.80131	-0.51
Mof_O 	O 	0.02826	0.8143	0.97809	-0.401
Mof_O 	O 	0.99272	0.04033	0.85731	-0.348
Mof_O 	O 	0.78838	0.98127	0.99991	-0.269
Mof_O 	O 	0.61992	0.60871	0.91429	-0.385
Mof_O 	O 	0.09571	0.47911	0.87011	-0.378
Mof_O 	O 	0.11317	0.65189	0.03067	-0.398
Mof_O 	O 	0.92325	0.68718	0.63019	-0.361
Mof_O 	O 	0.49823	0.62617	0.72092	-0.497
Mof_O 	O 	0.236	0.65316	0.60558	-0.493
Mof_O 	O 	0.29133	0.80892	0.74736	-0.475
Mof_O 	O 	0.33673	0.89947	0.55725	-0.461
Mof_O 	O 	0.57444	0.85212	0.69869	-0.509
Mof_O 	O 	0.52826	0.6857	0.52191	-0.494
Mof_O 	O 	0.49272	0.45967	0.64269	-0.409
Mof_O 	O 	0.28838	0.51873	0.50009	-0.41
Mof_O 	O 	0.11992	0.89129	0.58571	-0.402
Mof_O 	O 	0.59571	0.02089	0.62989	-0.472
Mof_O 	O 	0.61317	0.84811	0.46933	-0.375
Mof_O 	O 	0.42325	0.81282	0.86981	-0.379
Mof_O 	O 	0.00177	0.12617	0.22092	-0.555
Mof_O 	O 	0.264	0.15316	0.10558	-0.494
Mof_O 	O 	0.20867	0.30892	0.24736	-0.491
Mof_O 	O 	0.16327	0.39947	0.05725	-0.495
Mof_O 	O 	0.92556	0.35212	0.19869	-0.453
Mof_O 	O 	0.97174	0.1857	0.02191	-0.485
Mof_O 	O 	0.00728	0.95967	0.14269	-0.371
Mof_O 	O 	0.21162	0.01873	9e-05	-0.443
Mof_O 	O 	0.38008	0.39129	0.08571	-0.419
Mof_O 	O 	0.90429	0.52089	0.12989	-0.364
Mof_O 	O 	0.88683	0.34811	0.96933	-0.358
Mof_O 	O 	0.07675	0.31282	0.36981	-0.453
Mof_O 	O 	0.50177	0.37383	0.27908	-0.499
Mof_O 	O 	0.764	0.34684	0.39442	-0.489
Mof_O 	O 	0.70867	0.19108	0.25264	-0.496
Mof_O 	O 	0.66327	0.10053	0.44275	-0.491
Mof_O 	O 	0.42556	0.14788	0.30131	-0.466
Mof_O 	O 	0.47174	0.3143	0.47809	-0.501
Mof_O 	O 	0.50728	0.54033	0.35731	-0.41
Mof_O 	O 	0.71162	0.48127	0.49991	-0.397
Mof_O 	O 	0.88008	0.10871	0.41429	-0.408
Mof_O 	O 	0.40429	0.97911	0.37011	-0.308
Mof_O 	O 	0.38683	0.15189	0.53067	-0.431
Mof_O 	O 	0.57675	0.18718	0.13019	-0.431
_end
