data_functionalizedCrystal
_audit_creation_method	'EQeq! by Chris Wilmer'
_symmetry_space_group_name_H-M	'P1'
_symmetry_Int_Tables_number	1
_symmetry_cell_setting	triclinic
loop_
_symmetry_equiv_pos_as_xyz
  x,y,z
_cell_length_a	7.3013
_cell_length_b	9.1802
_cell_length_c	19.344
_cell_angle_alpha	90
_cell_angle_beta	90
_cell_angle_gamma	90
loop_
_atom_site_label
_atom_site_type_symbol
_atom_site_fract_x
_atom_site_fract_y
_atom_site_fract_z
_atom_site_charge
Mof_Sc	Sc	0.6461	0.5044	0.4995	1.78
Mof_Sc	Sc	0.1461	0.4956	0.5005	1.792
Mof_Sc	Sc	0.6461	0.9956	0.9995	1.763
Mof_Sc	Sc	0.1461	0.0044	0.0005	1.765
Mof_H 	H 	0.1279	0.239	0.6879	0.054
Mof_H 	H 	0.1319	0.1697	0.8028	0.032
Mof_H 	H 	0.6646	0.2753	0.821	0.028
Mof_H 	H 	0.6632	0.359	0.705	0.048
Mof_H 	H 	0.346	0.662	0.531	0.173
Mof_H 	H 	0.6279	0.761	0.3121	0.052
Mof_H 	H 	0.6319	0.8303	0.1972	0.03
Mof_H 	H 	0.1646	0.7247	0.179	0.026
Mof_H 	H 	0.1632	0.641	0.295	0.047
Mof_H 	H 	0.846	0.338	0.469	0.173
Mof_H 	H 	0.1279	0.261	0.1879	0.054
Mof_H 	H 	0.1319	0.3303	0.3028	0.031
Mof_H 	H 	0.6646	0.2247	0.321	0.027
Mof_H 	H 	0.6632	0.141	0.205	0.05
Mof_H 	H 	0.346	0.838	0.031	0.176
Mof_H 	H 	0.6279	0.739	0.8121	0.052
Mof_H 	H 	0.6319	0.6697	0.6972	0.029
Mof_H 	H 	0.1646	0.7753	0.679	0.025
Mof_H 	H 	0.1632	0.859	0.795	0.047
Mof_H 	H 	0.846	0.162	0.969	0.172
Mof_C 	C 	0.4014	0.3601	0.6123	0.476
Mof_C 	C 	0.3959	0.3095	0.6872	-0.098
Mof_C 	C 	0.2355	0.2497	0.715	-0.025
Mof_C 	C 	0.2404	0.2076	0.7824	0.019
Mof_C 	C 	0.4024	0.2181	0.8241	-0.148
Mof_C 	C 	0.5548	0.2707	0.7948	0.027
Mof_C 	C 	0.5552	0.3198	0.7251	-0.027
Mof_C 	C 	0.4041	0.1705	0.8969	0.493
Mof_C 	C 	0.9014	0.6399	0.3877	0.46
Mof_C 	C 	0.8959	0.6905	0.3128	-0.112
Mof_C 	C 	0.7355	0.7503	0.285	-0.025
Mof_C 	C 	0.7404	0.7924	0.2176	0.019
Mof_C 	C 	0.9024	0.7819	0.1759	-0.163
Mof_C 	C 	0.0548	0.7293	0.2052	0.043
Mof_C 	C 	0.0552	0.6802	0.2749	-0.013
Mof_C 	C 	0.9041	0.8295	0.1031	0.476
Mof_C 	C 	0.4014	0.1399	0.1123	0.473
Mof_C 	C 	0.3959	0.1905	0.1872	-0.097
Mof_C 	C 	0.2355	0.2503	0.215	-0.028
Mof_C 	C 	0.2404	0.2924	0.2824	0.021
Mof_C 	C 	0.4024	0.2819	0.3241	-0.151
Mof_C 	C 	0.5548	0.2293	0.2948	0.028
Mof_C 	C 	0.5552	0.1802	0.2251	-0.029
Mof_C 	C 	0.4041	0.3295	0.3969	0.496
Mof_C 	C 	0.9014	0.8601	0.8877	0.448
Mof_C 	C 	0.8959	0.8095	0.8128	-0.115
Mof_C 	C 	0.7355	0.7497	0.785	-0.026
Mof_C 	C 	0.7404	0.7076	0.7176	0.021
Mof_C 	C 	0.9024	0.7181	0.6759	-0.17
Mof_C 	C 	0.0548	0.7707	0.7052	0.048
Mof_C 	C 	0.0552	0.8198	0.7749	-0.009
Mof_C 	C 	0.9041	0.6705	0.6031	0.479
Mof_O 	O 	0.5514	0.387	0.5855	-0.538
Mof_O 	O 	0.247	0.3723	0.5825	-0.533
Mof_O 	O 	0.2468	0.1549	0.9266	-0.509
Mof_O 	O 	0.5503	0.1503	0.926	-0.543
Mof_O 	O 	0.3901	0.6067	0.4916	-0.695
Mof_O 	O 	0.0514	0.613	0.4145	-0.525
Mof_O 	O 	0.747	0.6277	0.4175	-0.532
Mof_O 	O 	0.7468	0.8451	0.0734	-0.509
Mof_O 	O 	0.0503	0.8497	0.074	-0.527
Mof_O 	O 	0.8901	0.3933	0.5084	-0.702
Mof_O 	O 	0.5514	0.113	0.0855	-0.535
Mof_O 	O 	0.247	0.1277	0.0825	-0.531
Mof_O 	O 	0.2468	0.3451	0.4266	-0.516
Mof_O 	O 	0.5503	0.3497	0.426	-0.549
Mof_O 	O 	0.3901	0.8933	0.9916	-0.691
Mof_O 	O 	0.0514	0.887	0.9145	-0.513
Mof_O 	O 	0.747	0.8723	0.9175	-0.529
Mof_O 	O 	0.7468	0.6549	0.5734	-0.514
Mof_O 	O 	0.0503	0.6503	0.574	-0.534
Mof_O 	O 	0.8901	0.1067	0.0084	-0.692
_end
