data_functionalizedCrystal
_audit_creation_method	'EQeq! by Chris Wilmer'
_symmetry_space_group_name_H-M	'P1'
_symmetry_Int_Tables_number	1
_symmetry_cell_setting	triclinic
loop_
_symmetry_equiv_pos_as_xyz
  x,y,z
_cell_length_a	13.652
_cell_length_b	13.652
_cell_length_c	40.648
_cell_angle_alpha	90
_cell_angle_beta	90
_cell_angle_gamma	120
loop_
_atom_site_label
_atom_site_type_symbol
_atom_site_fract_x
_atom_site_fract_y
_atom_site_fract_z
_atom_site_charge
Mof_N 	N 	0.6991	0.2584	0.429	-0.254
Mof_C 	C 	0.7823	0.2486	0.4154	0.1
Mof_H 	H 	0.8413	0.3109	0.405	-0.028
Mof_C 	C 	0.7826	0.1478	0.4162	-0.174
Mof_H 	H 	0.8423	0.1439	0.4065	0.094
Mof_C 	C 	0.6971	0.0531	0.431	0.107
Mof_C 	C 	0.6091	0.0644	0.4446	-0.185
Mof_H 	H 	0.547	0.0037	0.4545	0.09
Mof_C 	C 	0.6186	0.1698	0.4425	0.122
Mof_H 	H 	0.5605	0.1773	0.4519	-0.035
Mof_C 	C 	0.696	0.9461	0.4317	-0.024
Mof_N 	N 	0.7087	0.5588	0.4291	-0.252
Mof_C 	C 	0.7717	0.6408	0.4513	0.097
Mof_H 	H 	0.8186	0.6288	0.4653	-0.025
Mof_C 	C 	0.7703	0.7391	0.4543	-0.179
Mof_H 	H 	0.8141	0.7927	0.47	0.097
Mof_C 	C 	0.7001	0.7568	0.4326	0.12
Mof_C 	C 	0.6402	0.6772	0.4089	-0.188
Mof_H 	H 	0.5986	0.69	0.3931	0.096
Mof_C 	C 	0.6434	0.5779	0.4092	0.107
Mof_H 	H 	0.5969	0.521	0.3946	-0.03
Mof_C 	C 	0.6957	0.8589	0.4325	-0.042
Mof_N 	N 	0.5871	0.3056	0.7132	-0.262
Mof_C 	C 	0.5198	0.3302	0.697	0.125
Mof_H 	H 	0.4652	0.3373	0.7087	-0.043
Mof_C 	C 	0.5254	0.3467	0.663	-0.215
Mof_H 	H 	0.4778	0.3673	0.6525	0.098
Mof_C 	C 	0.6009	0.3321	0.6458	0.147
Mof_C 	C 	0.6707	0.3063	0.6625	-0.214
Mof_H 	H 	0.7246	0.2969	0.6512	0.105
Mof_C 	C 	0.6628	0.2937	0.6962	0.125
Mof_H 	H 	0.7119	0.2763	0.7072	-0.041
Mof_C 	C 	0.6255	0.3636	0.5814	-0.039
Mof_N 	N 	0.6803	0.3966	0.479	-0.25
Mof_C 	C 	0.5995	0.4118	0.4928	0.097
Mof_H 	H 	0.5538	0.427	0.4792	-0.026
Mof_C 	C 	0.5815	0.4058	0.5265	-0.178
Mof_H 	H 	0.5274	0.4206	0.5354	0.089
Mof_C 	C 	0.6442	0.3777	0.5467	0.119
Mof_C 	C 	0.7268	0.3637	0.532	-0.194
Mof_H 	H 	0.7721	0.3459	0.5449	0.095
Mof_C 	C 	0.7433	0.3752	0.4993	0.116
Mof_H 	H 	0.802	0.3677	0.4904	-0.034
Mof_C 	C 	0.6115	0.3484	0.6109	-0.061
Mof_Cu	Cu	0.70942	0.41237	0.4294	0.851
Mof_N 	N 	0.7416	0.4407	0.76233	-0.258
Mof_C 	C 	0.7514	0.5337	0.74873	0.106
Mof_H 	H 	0.6891	0.5304	0.73833	-0.032
Mof_C 	C 	0.8522	0.6348	0.74953	-0.188
Mof_H 	H 	0.8561	0.6984	0.73983	0.097
Mof_C 	C 	0.9469	0.644	0.76433	0.128
Mof_C 	C 	0.9356	0.5447	0.77793	-0.198
Mof_H 	H 	0.9963	0.5433	0.78783	0.098
Mof_C 	C 	0.8302	0.4488	0.77583	0.129
Mof_H 	H 	0.8227	0.3832	0.78523	-0.037
Mof_C 	C 	0.0539	0.7499	0.76503	-0.048
Mof_N 	N 	0.4412	0.1499	0.76243	-0.252
Mof_C 	C 	0.3592	0.1309	0.78463	0.096
Mof_H 	H 	0.3712	0.1898	0.79863	-0.027
Mof_C 	C 	0.2609	0.0312	0.78763	-0.184
Mof_H 	H 	0.2073	0.0214	0.80333	0.093
Mof_C 	C 	0.2432	0.9433	0.76593	0.117
Mof_C 	C 	0.3228	0.963	0.74223	-0.174
Mof_H 	H 	0.31	0.9086	0.72643	0.092
Mof_C 	C 	0.4221	0.0655	0.74253	0.093
Mof_H 	H 	0.479	0.0759	0.72793	-0.027
Mof_C 	C 	0.1411	0.8368	0.76583	-0.034
Mof_N 	N 	0.6944	0.2815	0.04653	-0.26
Mof_C 	C 	0.6698	0.1896	0.03033	0.121
Mof_H 	H 	0.6627	0.1279	0.04203	-0.042
Mof_C 	C 	0.6533	0.1787	0.99633	-0.209
Mof_H 	H 	0.6327	0.1105	0.98583	0.095
Mof_C 	C 	0.6679	0.2688	0.97913	0.143
Mof_C 	C 	0.6937	0.3644	0.99583	-0.207
Mof_H 	H 	0.7031	0.4277	0.98453	0.103
Mof_C 	C 	0.7063	0.3691	0.02953	0.12
Mof_H 	H 	0.7237	0.4356	0.04053	-0.04
Mof_C 	C 	0.6364	0.2619	0.91473	-0.04
Mof_N 	N 	0.6034	0.2837	0.81233	-0.25
Mof_C 	C 	0.5882	0.1877	0.82613	0.097
Mof_H 	H 	0.573	0.1268	0.81253	-0.026
Mof_C 	C 	0.5942	0.1757	0.85983	-0.179
Mof_H 	H 	0.5794	0.1068	0.86873	0.089
Mof_C 	C 	0.6223	0.2665	0.88003	0.12
Mof_C 	C 	0.6363	0.3631	0.86533	-0.194
Mof_H 	H 	0.6541	0.4262	0.87823	0.094
Mof_C 	C 	0.6248	0.3681	0.83263	0.116
Mof_H 	H 	0.6323	0.4343	0.82373	-0.035
Mof_C 	C 	0.6516	0.2631	0.94423	-0.058
Mof_Cu	Cu	0.58763	0.29705	0.76273	0.851
Mof_N 	N 	0.5593	0.3009	0.09567	-0.257
Mof_C 	C 	0.4663	0.2177	0.08207	0.102
Mof_H 	H 	0.4696	0.1587	0.07167	-0.032
Mof_C 	C 	0.3652	0.2174	0.08287	-0.183
Mof_H 	H 	0.3016	0.1577	0.07317	0.093
Mof_C 	C 	0.356	0.3029	0.09767	0.118
Mof_C 	C 	0.4553	0.3909	0.11127	-0.193
Mof_H 	H 	0.4567	0.453	0.12117	0.094
Mof_C 	C 	0.5512	0.3814	0.10917	0.125
Mof_H 	H 	0.6168	0.4395	0.11857	-0.036
Mof_C 	C 	0.2501	0.304	0.09837	-0.041
Mof_N 	N 	0.8501	0.2913	0.09577	-0.253
Mof_C 	C 	0.8691	0.2283	0.11797	0.092
Mof_H 	H 	0.8102	0.1814	0.13197	-0.025
Mof_C 	C 	0.9688	0.2297	0.12097	-0.168
Mof_H 	H 	0.9786	0.1859	0.13667	0.092
Mof_C 	C 	0.0567	0.2999	0.09927	0.109
Mof_C 	C 	0.037	0.3598	0.07557	-0.191
Mof_H 	H 	0.0914	0.4014	0.05977	0.096
Mof_C 	C 	0.9345	0.3566	0.07587	0.112
Mof_H 	H 	0.9241	0.4031	0.06127	-0.03
Mof_C 	C 	0.1632	0.3043	0.09917	-0.037
Mof_N 	N 	0.7185	0.4129	0.37987	-0.261
Mof_C 	C 	0.8104	0.4802	0.36367	0.126
Mof_H 	H 	0.8721	0.5348	0.37537	-0.041
Mof_C 	C 	0.8213	0.4746	0.32967	-0.215
Mof_H 	H 	0.8895	0.5222	0.31917	0.099
Mof_C 	C 	0.7312	0.3991	0.31247	0.147
Mof_C 	C 	0.6356	0.3293	0.32917	-0.213
Mof_H 	H 	0.5723	0.2754	0.31787	0.104
Mof_C 	C 	0.6309	0.3372	0.36287	0.125
Mof_H 	H 	0.5644	0.2881	0.37387	-0.042
Mof_C 	C 	0.7381	0.3745	0.24807	-0.039
Mof_N 	N 	0.7163	0.3197	0.14567	-0.25
Mof_C 	C 	0.8123	0.4005	0.15947	0.098
Mof_H 	H 	0.8732	0.4462	0.14587	-0.024
Mof_C 	C 	0.8243	0.4185	0.19317	-0.178
Mof_H 	H 	0.8932	0.4726	0.20207	0.091
Mof_C 	C 	0.7335	0.3558	0.21337	0.119
Mof_C 	C 	0.6369	0.2732	0.19867	-0.194
Mof_H 	H 	0.5738	0.2279	0.21157	0.093
Mof_C 	C 	0.6319	0.2567	0.16597	0.115
Mof_H 	H 	0.5657	0.198	0.15707	-0.036
Mof_C 	C 	0.7369	0.3885	0.27757	-0.06
Mof_Cu	Cu	0.70295	0.29058	0.09607	0.851
Mof_C 	C 	0.1072	0.1971	0.0118	0.094
Mof_H 	H 	0.0427	0.193	0.0209	-0.027
Mof_C 	C 	0.2044	0.298	0.0106	-0.17
Mof_H 	H 	0.2042	0.3634	0.0168	0.09
Mof_C 	C 	0.6244	0.6787	0.9752	-0.171
Mof_H 	H 	0.5741	0.6629	0.9579	0.087
Mof_C 	C 	0.7268	0.7823	0.9771	0.087
Mof_H 	H 	0.7403	0.8376	0.9615	-0.021
Mof_N 	N 	0.958	0.9598	0.951	-0.252
Mof_C 	C 	0.967	0.0503	0.9355	0.101
Mof_H 	H 	0.9651	0.1062	0.948	-0.03
Mof_C 	C 	0.9791	0.0653	0.902	-0.182
Mof_H 	H 	0.9894	0.1316	0.8924	0.092
Mof_C 	C 	0.9758	0.9802	0.8829	0.112
Mof_C 	C 	0.9622	0.8833	0.8982	-0.176
Mof_H 	H 	0.9581	0.8235	0.8861	0.088
Mof_C 	C 	0.9549	0.879	0.9328	0.104
Mof_H 	H 	0.9473	0.8151	0.9433	-0.03
Mof_C 	C 	0.9854	0.9935	0.8475	-0.035
Mof_C 	C 	0.8029	0.9101	0.34513	0.098
Mof_H 	H 	0.807	0.8497	0.35423	-0.023
Mof_C 	C 	0.702	0.9064	0.34393	-0.161
Mof_H 	H 	0.6366	0.8408	0.35013	0.088
Mof_C 	C 	0.3213	0.9457	0.30853	-0.163
Mof_H 	H 	0.3371	0.9112	0.29123	0.085
Mof_C 	C 	0.2177	0.9445	0.31043	0.091
Mof_H 	H 	0.1624	0.9027	0.29483	-0.023
Mof_N 	N 	0.0402	0.9982	0.28433	-0.252
Mof_C 	C 	0.9497	0.9167	0.26883	0.109
Mof_H 	H 	0.8938	0.8589	0.28133	-0.033
Mof_C 	C 	0.9347	0.9138	0.23533	-0.183
Mof_H 	H 	0.8684	0.8578	0.22573	0.093
Mof_C 	C 	0.0198	0.9956	0.21623	0.121
Mof_C 	C 	0.1167	0.0789	0.23153	-0.188
Mof_H 	H 	0.1765	0.1346	0.21943	0.09
Mof_C 	C 	0.121	0.0759	0.26613	0.096
Mof_H 	H 	0.1849	0.1322	0.27663	-0.031
Mof_C 	C 	0.0065	0.9919	0.18083	-0.051
Mof_C 	C 	0.0899	0.8928	0.67847	0.093
Mof_H 	H 	0.1503	0.9573	0.68757	-0.021
Mof_C 	C 	0.0936	0.7956	0.67727	-0.166
Mof_H 	H 	0.1592	0.7958	0.68347	0.089
Mof_C 	C 	0.0543	0.3756	0.64187	-0.17
Mof_H 	H 	0.0888	0.4259	0.62457	0.085
Mof_C 	C 	0.0555	0.2732	0.64377	0.082
Mof_H 	H 	0.0973	0.2597	0.62817	-0.021
Mof_N 	N 	0.0018	0.042	0.61767	-0.259
Mof_C 	C 	0.0833	0.033	0.60217	0.096
Mof_H 	H 	0.1411	0.0349	0.61467	-0.032
Mof_C 	C 	0.0862	0.0209	0.56867	-0.176
Mof_H 	H 	0.1422	0.0106	0.55907	0.086
Mof_C 	C 	0.0044	0.0242	0.54957	0.096
Mof_C 	C 	0.9211	0.0378	0.56487	-0.164
Mof_H 	H 	0.8654	0.0419	0.55277	0.084
Mof_C 	C 	0.9241	0.0451	0.59947	0.107
Mof_H 	H 	0.8678	0.0527	0.60997	-0.032
Mof_C 	C 	0.0081	0.0146	0.51417	-0.046
Mof_C 	C 	0.1971	0.1072	0.9882	0.096
Mof_H 	H 	0.193	0.0427	0.9791	-0.027
Mof_C 	C 	0.298	0.2044	0.9894	-0.168
Mof_H 	H 	0.3634	0.2042	0.9832	0.09
Mof_C 	C 	0.6787	0.6244	0.0248	-0.173
Mof_H 	H 	0.6629	0.5741	0.0421	0.087
Mof_C 	C 	0.7823	0.7268	0.0229	0.085
Mof_H 	H 	0.8376	0.7403	0.0385	-0.021
Mof_N 	N 	0.9598	0.958	0.049	-0.253
Mof_C 	C 	0.0503	0.967	0.0645	0.101
Mof_H 	H 	0.1062	0.9651	0.052	-0.031
Mof_C 	C 	0.0653	0.9791	0.098	-0.182
Mof_H 	H 	0.1316	0.9894	0.1076	0.092
Mof_C 	C 	0.9802	0.9758	0.1171	0.112
Mof_C 	C 	0.8833	0.9622	0.1018	-0.176
Mof_H 	H 	0.8235	0.9581	0.1139	0.088
Mof_C 	C 	0.879	0.9549	0.0672	0.104
Mof_H 	H 	0.8151	0.9473	0.0567	-0.031
Mof_C 	C 	0.9935	0.9854	0.1525	-0.035
Mof_C 	C 	0.9101	0.8029	0.65487	0.098
Mof_H 	H 	0.8497	0.807	0.64577	-0.023
Mof_C 	C 	0.9064	0.702	0.65607	-0.161
Mof_H 	H 	0.8408	0.6366	0.64987	0.088
Mof_C 	C 	0.9457	0.3213	0.69147	-0.163
Mof_H 	H 	0.9112	0.3371	0.70877	0.085
Mof_C 	C 	0.9445	0.2177	0.68957	0.091
Mof_H 	H 	0.9027	0.1624	0.70517	-0.023
Mof_N 	N 	0.9982	0.0402	0.71567	-0.252
Mof_C 	C 	0.9167	0.9497	0.73117	0.109
Mof_H 	H 	0.8589	0.8938	0.71867	-0.033
Mof_C 	C 	0.9138	0.9347	0.76467	-0.183
Mof_H 	H 	0.8578	0.8684	0.77427	0.093
Mof_C 	C 	0.9956	0.0198	0.78377	0.121
Mof_C 	C 	0.0789	0.1167	0.76847	-0.189
Mof_H 	H 	0.1346	0.1765	0.78057	0.09
Mof_C 	C 	0.0759	0.121	0.73387	0.096
Mof_H 	H 	0.1322	0.1849	0.72337	-0.031
Mof_C 	C 	0.9919	0.0065	0.81917	-0.051
Mof_C 	C 	0.8928	0.0899	0.32153	0.093
Mof_H 	H 	0.9573	0.1503	0.31243	-0.021
Mof_C 	C 	0.7956	0.0936	0.32273	-0.166
Mof_H 	H 	0.7958	0.1592	0.31653	0.089
Mof_C 	C 	0.3756	0.0543	0.35813	-0.17
Mof_H 	H 	0.4259	0.0888	0.37543	0.085
Mof_C 	C 	0.2732	0.0555	0.35623	0.082
Mof_H 	H 	0.2597	0.0973	0.37183	-0.021
Mof_N 	N 	0.042	0.0018	0.38233	-0.259
Mof_C 	C 	0.033	0.0833	0.39783	0.096
Mof_H 	H 	0.0349	0.1411	0.38533	-0.032
Mof_C 	C 	0.0209	0.0862	0.43133	-0.176
Mof_H 	H 	0.0106	0.1422	0.44093	0.086
Mof_C 	C 	0.0242	0.0044	0.45043	0.096
Mof_C 	C 	0.0378	0.9211	0.43513	-0.164
Mof_H 	H 	0.0419	0.8654	0.44723	0.084
Mof_C 	C 	0.0451	0.9241	0.40053	0.107
Mof_H 	H 	0.0527	0.8678	0.39003	-0.032
Mof_C 	C 	0.0146	0.0081	0.48583	-0.046
Mof_Cu	Cu	0.95251	0.95251	-0	0.855
Mof_N 	N 	0.1026	0.1026	-0	-0.244
Mof_C 	C 	0.3046	0.3046	-0	0.103
Mof_C 	C 	0.4131	0.4131	-0	-0.029
Mof_C 	C 	0.4971	0.4971	-0	-0.044
Mof_C 	C 	0.6016	0.6016	-0	0.107
Mof_N 	N 	0.8054	0.8054	-0	-0.249
Mof_Cu	Cu	0.04749	1.53903e-32	0.33333	0.849
Mof_N 	N 	0.8974	1.53903e-32	0.33333	-0.24
Mof_C 	C 	0.6954	1.53903e-32	0.33333	0.097
Mof_C 	C 	0.5869	1.53903e-32	0.33333	-0.029
Mof_C 	C 	0.5029	1.53903e-32	0.33333	-0.044
Mof_C 	C 	0.3984	1.53903e-32	0.33333	0.099
Mof_N 	N 	0.1946	1.53903e-32	0.33333	-0.253
Mof_Cu	Cu	3.835e-18	0.04749	0.66667	0.849
Mof_N 	N 	1.03471e-16	0.8974	0.66667	-0.24
Mof_C 	C 	1.03471e-16	0.6954	0.66667	0.097
Mof_C 	C 	3.4159e-17	0.5869	0.66667	-0.029
Mof_C 	C 	3.4159e-17	0.5029	0.66667	-0.044
Mof_C 	C 	-4.96991e-19	0.3984	0.66667	0.099
Mof_N 	N 	-1.7825e-17	0.1946	0.66667	-0.253
Mof_N 	N 	0.2584	0.6991	0.571	-0.255
Mof_C 	C 	0.2486	0.7823	0.5846	0.099
Mof_H 	H 	0.3109	0.8413	0.595	-0.029
Mof_C 	C 	0.1478	0.7826	0.5838	-0.175
Mof_H 	H 	0.1439	0.8423	0.5935	0.093
Mof_C 	C 	0.0531	0.6971	0.569	0.106
Mof_C 	C 	0.0644	0.6091	0.5554	-0.186
Mof_H 	H 	0.0037	0.547	0.5455	0.089
Mof_C 	C 	0.1698	0.6186	0.5575	0.121
Mof_H 	H 	0.1773	0.5605	0.5481	-0.036
Mof_C 	C 	0.9461	0.696	0.5683	-0.025
Mof_N 	N 	0.5588	0.7087	0.5709	-0.253
Mof_C 	C 	0.6408	0.7717	0.5487	0.097
Mof_H 	H 	0.6288	0.8186	0.5347	-0.025
Mof_C 	C 	0.7391	0.7703	0.5457	-0.179
Mof_H 	H 	0.7927	0.8141	0.53	0.097
Mof_C 	C 	0.7568	0.7001	0.5674	0.12
Mof_C 	C 	0.6772	0.6402	0.5911	-0.188
Mof_H 	H 	0.69	0.5986	0.6069	0.096
Mof_C 	C 	0.5779	0.6434	0.5908	0.107
Mof_H 	H 	0.521	0.5969	0.6054	-0.03
Mof_C 	C 	0.8589	0.6957	0.5675	-0.042
Mof_N 	N 	0.3056	0.5871	0.2868	-0.262
Mof_C 	C 	0.3302	0.5198	0.303	0.125
Mof_H 	H 	0.3373	0.4652	0.2913	-0.043
Mof_C 	C 	0.3467	0.5254	0.337	-0.215
Mof_H 	H 	0.3673	0.4778	0.3475	0.098
Mof_C 	C 	0.3321	0.6009	0.3542	0.147
Mof_C 	C 	0.3063	0.6707	0.3375	-0.214
Mof_H 	H 	0.2969	0.7246	0.3488	0.105
Mof_C 	C 	0.2937	0.6628	0.3038	0.125
Mof_H 	H 	0.2763	0.7119	0.2928	-0.041
Mof_C 	C 	0.3636	0.6255	0.4186	-0.039
Mof_N 	N 	0.3966	0.6803	0.521	-0.25
Mof_C 	C 	0.4118	0.5995	0.5072	0.097
Mof_H 	H 	0.427	0.5538	0.5208	-0.026
Mof_C 	C 	0.4058	0.5815	0.4735	-0.178
Mof_H 	H 	0.4206	0.5274	0.4646	0.089
Mof_C 	C 	0.3777	0.6442	0.4533	0.119
Mof_C 	C 	0.3637	0.7268	0.468	-0.194
Mof_H 	H 	0.3459	0.7721	0.4551	0.095
Mof_C 	C 	0.3752	0.7433	0.5007	0.116
Mof_H 	H 	0.3677	0.802	0.5096	-0.034
Mof_C 	C 	0.3484	0.6115	0.3891	-0.061
Mof_Cu	Cu	0.41237	0.70942	0.5706	0.851
Mof_N 	N 	0.4407	0.7416	0.23767	-0.258
Mof_C 	C 	0.5337	0.7514	0.25127	0.106
Mof_H 	H 	0.5304	0.6891	0.26167	-0.032
Mof_C 	C 	0.6348	0.8522	0.25047	-0.188
Mof_H 	H 	0.6984	0.8561	0.26017	0.097
Mof_C 	C 	0.644	0.9469	0.23567	0.128
Mof_C 	C 	0.5447	0.9356	0.22207	-0.198
Mof_H 	H 	0.5433	0.9963	0.21217	0.098
Mof_C 	C 	0.4488	0.8302	0.22417	0.129
Mof_H 	H 	0.3832	0.8227	0.21477	-0.037
Mof_C 	C 	0.7499	0.0539	0.23497	-0.048
Mof_N 	N 	0.1499	0.4412	0.23757	-0.252
Mof_C 	C 	0.1309	0.3592	0.21537	0.096
Mof_H 	H 	0.1898	0.3712	0.20137	-0.027
Mof_C 	C 	0.0312	0.2609	0.21237	-0.184
Mof_H 	H 	0.0214	0.2073	0.19667	0.093
Mof_C 	C 	0.9433	0.2432	0.23407	0.117
Mof_C 	C 	0.963	0.3228	0.25777	-0.174
Mof_H 	H 	0.9086	0.31	0.27357	0.092
Mof_C 	C 	0.0655	0.4221	0.25747	0.093
Mof_H 	H 	0.0759	0.479	0.27207	-0.027
Mof_C 	C 	0.8368	0.1411	0.23417	-0.034
Mof_N 	N 	0.2815	0.6944	0.95347	-0.263
Mof_C 	C 	0.1896	0.6698	0.96967	0.13
Mof_H 	H 	0.1279	0.6627	0.95797	-0.045
Mof_C 	C 	0.1787	0.6533	0.00367	-0.221
Mof_H 	H 	0.1105	0.6327	0.01417	0.099
Mof_C 	C 	0.2688	0.6679	0.02087	0.151
Mof_C 	C 	0.3644	0.6937	0.00417	-0.219
Mof_H 	H 	0.4277	0.7031	0.01547	0.106
Mof_C 	C 	0.3691	0.7063	0.97047	0.13
Mof_H 	H 	0.4356	0.7237	0.95947	-0.042
Mof_C 	C 	0.2619	0.6364	0.08527	-0.038
Mof_N 	N 	0.2837	0.6034	0.18767	-0.25
Mof_C 	C 	0.1877	0.5882	0.17387	0.097
Mof_H 	H 	0.1268	0.573	0.18747	-0.026
Mof_C 	C 	0.1757	0.5942	0.14017	-0.178
Mof_H 	H 	0.1068	0.5794	0.13127	0.088
Mof_C 	C 	0.2665	0.6223	0.11997	0.118
Mof_C 	C 	0.3631	0.6363	0.13467	-0.193
Mof_H 	H 	0.4262	0.6541	0.12177	0.094
Mof_C 	C 	0.3681	0.6248	0.16737	0.115
Mof_H 	H 	0.4343	0.6323	0.17627	-0.035
Mof_C 	C 	0.2631	0.6516	0.05577	-0.062
Mof_Cu	Cu	0.29705	0.58763	0.23727	0.851
Mof_N 	N 	0.3009	0.5593	0.90433	-0.257
Mof_C 	C 	0.2177	0.4663	0.91793	0.103
Mof_H 	H 	0.1587	0.4696	0.92833	-0.032
Mof_C 	C 	0.2174	0.3652	0.91713	-0.183
Mof_H 	H 	0.1577	0.3016	0.92683	0.093
Mof_C 	C 	0.3029	0.356	0.90233	0.118
Mof_C 	C 	0.3909	0.4553	0.88873	-0.193
Mof_H 	H 	0.453	0.4567	0.87883	0.094
Mof_C 	C 	0.3814	0.5512	0.89083	0.125
Mof_H 	H 	0.4395	0.6168	0.88143	-0.036
Mof_C 	C 	0.304	0.2501	0.90163	-0.041
Mof_N 	N 	0.2913	0.8501	0.90423	-0.253
Mof_C 	C 	0.2283	0.8691	0.88203	0.092
Mof_H 	H 	0.1814	0.8102	0.86803	-0.025
Mof_C 	C 	0.2297	0.9688	0.87903	-0.168
Mof_H 	H 	0.1859	0.9786	0.86333	0.092
Mof_C 	C 	0.2999	0.0567	0.90073	0.109
Mof_C 	C 	0.3598	0.037	0.92443	-0.191
Mof_H 	H 	0.4014	0.0914	0.94023	0.096
Mof_C 	C 	0.3566	0.9345	0.92413	0.112
Mof_H 	H 	0.4031	0.9241	0.93873	-0.03
Mof_C 	C 	0.3043	0.1632	0.90083	-0.037
Mof_N 	N 	0.4129	0.7185	0.62013	-0.261
Mof_C 	C 	0.4802	0.8104	0.63633	0.126
Mof_H 	H 	0.5348	0.8721	0.62463	-0.041
Mof_C 	C 	0.4746	0.8213	0.67033	-0.215
Mof_H 	H 	0.5222	0.8895	0.68083	0.099
Mof_C 	C 	0.3991	0.7312	0.68753	0.147
Mof_C 	C 	0.3293	0.6356	0.67083	-0.213
Mof_H 	H 	0.2754	0.5723	0.68213	0.104
Mof_C 	C 	0.3372	0.6309	0.63713	0.125
Mof_H 	H 	0.2881	0.5644	0.62613	-0.042
Mof_C 	C 	0.3745	0.7381	0.75193	-0.039
Mof_N 	N 	0.3197	0.7163	0.85433	-0.25
Mof_C 	C 	0.4005	0.8123	0.84053	0.098
Mof_H 	H 	0.4462	0.8732	0.85413	-0.024
Mof_C 	C 	0.4185	0.8243	0.80683	-0.178
Mof_H 	H 	0.4726	0.8932	0.79793	0.091
Mof_C 	C 	0.3558	0.7335	0.78663	0.119
Mof_C 	C 	0.2732	0.6369	0.80133	-0.194
Mof_H 	H 	0.2279	0.5738	0.78843	0.093
Mof_C 	C 	0.2567	0.6319	0.83403	0.115
Mof_H 	H 	0.198	0.5657	0.84293	-0.036
Mof_C 	C 	0.3885	0.7369	0.72243	-0.06
Mof_Cu	Cu	0.29058	0.70295	0.90393	0.851
_end
