data_functionalizedCrystal
_audit_creation_method	'EQeq! by Chris Wilmer'
_symmetry_space_group_name_H-M	'P1'
_symmetry_Int_Tables_number	1
_symmetry_cell_setting	triclinic
loop_
_symmetry_equiv_pos_as_xyz
  x,y,z
_cell_length_a	8.907
_cell_length_b	18.932
_cell_length_c	28.644
_cell_angle_alpha	90
_cell_angle_beta	98.641
_cell_angle_gamma	90
loop_
_atom_site_label
_atom_site_type_symbol
_atom_site_fract_x
_atom_site_fract_y
_atom_site_fract_z
_atom_site_charge
Mof_Co	Co	0.32436	0.0387	0.78048	1.118
Mof_Co	Co	0.90996	0.77687	0.03806	1.075
Mof_Co	Co	0.17564	0.5387	0.71952	1.117
Mof_Co	Co	0.59004	0.27687	0.46194	1.075
Mof_Co	Co	0.67564	0.9613	0.21952	1.117
Mof_Co	Co	0.09004	0.22313	0.96194	1.074
Mof_Co	Co	0.82436	0.4613	0.28048	1.117
Mof_Co	Co	0.40996	0.72313	0.53806	1.075
Mof_Mo	Mo	0.39731	0.905	0.86421	1.511
Mof_Mo	Mo	0.56773	0.81771	0.95874	1.556
Mof_Mo	Mo	0.53242	0.62953	0.92639	1.097
Mof_Mo	Mo	0.46338	0.63066	0.8076	1.554
Mof_Mo	Mo	0.35676	0.79255	0.77051	1.125
Mof_Mo	Mo	0.10269	0.405	0.63579	1.508
Mof_Mo	Mo	0.93227	0.31771	0.54126	1.558
Mof_Mo	Mo	0.96758	0.12953	0.57361	1.101
Mof_Mo	Mo	0.03662	0.13066	0.6924	1.551
Mof_Mo	Mo	0.14324	0.29255	0.72949	1.124
Mof_Mo	Mo	0.60269	0.095	0.13579	1.511
Mof_Mo	Mo	0.43227	0.18229	0.04126	1.556
Mof_Mo	Mo	0.46758	0.37047	0.07361	1.097
Mof_Mo	Mo	0.53662	0.36934	0.1924	1.554
Mof_Mo	Mo	0.64324	0.20745	0.22949	1.125
Mof_Mo	Mo	0.89731	0.595	0.36421	1.508
Mof_Mo	Mo	0.06773	0.68229	0.45874	1.558
Mof_Mo	Mo	0.03242	0.87047	0.42639	1.101
Mof_Mo	Mo	0.96338	0.86934	0.3076	1.551
Mof_Mo	Mo	0.85676	0.70745	0.27051	1.124
Mof_P 	P 	0.26717	0.73915	0.87771	0.534
Mof_P 	P 	0.67097	0.77011	0.85694	0.526
Mof_P 	P 	0.23283	0.23915	0.62229	0.533
Mof_P 	P 	0.82903	0.27011	0.64306	0.526
Mof_P 	P 	0.73283	0.26085	0.12229	0.534
Mof_P 	P 	0.32903	0.22989	0.14306	0.526
Mof_P 	P 	0.76717	0.76085	0.37771	0.533
Mof_P 	P 	0.17097	0.72989	0.35694	0.526
Mof_H 	H 	0.0956	0.9254	0.7333	-0.066
Mof_H 	H 	0.8473	0.8916	0.7326	0.06
Mof_H 	H 	0.7068	0.9437	0.7858	-0.018
Mof_H 	H 	0.8235	0.0275	0.8388	0.086
Mof_H 	H 	0.5841	0.224	0.8838	0.055
Mof_H 	H 	0.8042	0.2318	0.8497	-0.034
Mof_H 	H 	0.819	0.1717	0.7798	0.065
Mof_H 	H 	0.6192	0.0996	0.7486	-0.05
Mof_H 	H 	0.2222	0.3746	0.9755	-0.083
Mof_H 	H 	0.3461	0.4559	0.9348	0.027
Mof_H 	H 	0.4242	0.4223	0.8648	-0.018
Mof_H 	H 	0.39	0.3066	0.8391	0.04
Mof_H 	H 	0.9636	0.9787	0.906	0.055
Mof_H 	H 	0.8025	0.9489	0.9599	0.028
Mof_H 	H 	0.7346	0.0352	0.0103	0.032
Mof_H 	H 	0.8416	0.1464	0.0093	-0.063
Mof_H 	H 	0.0705	0.8158	0.8559	0.135
Mof_H 	H 	0.0461	0.7753	0.9019	0.129
Mof_H 	H 	0.8452	0.8075	0.8116	0.149
Mof_H 	H 	0.7724	0.7365	0.7919	0.138
Mof_H 	H 	0.0077	0.7004	0.8162	-0.061
Mof_H 	H 	0.9349	0.6827	0.8614	-0.072
Mof_H 	H 	0.4044	0.4254	0.7667	-0.067
Mof_H 	H 	0.6527	0.3916	0.7674	0.063
Mof_H 	H 	0.7932	0.4437	0.7142	-0.021
Mof_H 	H 	0.6765	0.5275	0.6612	0.09
Mof_H 	H 	0.9159	0.724	0.6162	0.054
Mof_H 	H 	0.6958	0.7318	0.6503	-0.034
Mof_H 	H 	0.681	0.6717	0.7202	0.064
Mof_H 	H 	0.8808	0.5996	0.7514	-0.05
Mof_H 	H 	0.2778	0.8746	0.5245	-0.083
Mof_H 	H 	0.1539	0.9559	0.5652	0.027
Mof_H 	H 	0.0758	0.9223	0.6352	-0.018
Mof_H 	H 	0.11	0.8066	0.6609	0.04
Mof_H 	H 	0.5364	0.4787	0.594	0.055
Mof_H 	H 	0.6975	0.4489	0.5401	0.028
Mof_H 	H 	0.7654	0.5352	0.4897	0.031
Mof_H 	H 	0.6584	0.6464	0.4907	-0.063
Mof_H 	H 	0.4295	0.3158	0.6441	0.134
Mof_H 	H 	0.4539	0.2753	0.5981	0.129
Mof_H 	H 	0.6548	0.3075	0.6884	0.148
Mof_H 	H 	0.7276	0.2365	0.7081	0.138
Mof_H 	H 	0.4923	0.2004	0.6838	-0.058
Mof_H 	H 	0.5651	0.1827	0.6386	-0.071
Mof_H 	H 	0.9044	0.0746	0.2667	-0.066
Mof_H 	H 	0.1527	0.1084	0.2674	0.06
Mof_H 	H 	0.2932	0.0563	0.2142	-0.018
Mof_H 	H 	0.1765	0.9725	0.1612	0.086
Mof_H 	H 	0.4159	0.776	0.1162	0.055
Mof_H 	H 	0.1958	0.7682	0.1503	-0.034
Mof_H 	H 	0.181	0.8283	0.2202	0.065
Mof_H 	H 	0.3808	0.9004	0.2514	-0.05
Mof_H 	H 	0.7778	0.6254	0.0245	-0.083
Mof_H 	H 	0.6539	0.5441	0.0652	0.027
Mof_H 	H 	0.5758	0.5777	0.1352	-0.018
Mof_H 	H 	0.61	0.6934	0.1609	0.04
Mof_H 	H 	0.0364	0.0213	0.094	0.055
Mof_H 	H 	0.1975	0.0511	0.0401	0.028
Mof_H 	H 	0.2654	0.9648	0.9897	0.032
Mof_H 	H 	0.1584	0.8536	0.9907	-0.063
Mof_H 	H 	0.9295	0.1842	0.1441	0.135
Mof_H 	H 	0.9539	0.2247	0.0981	0.129
Mof_H 	H 	0.1548	0.1925	0.1884	0.149
Mof_H 	H 	0.2276	0.2635	0.2081	0.138
Mof_H 	H 	0.9923	0.2996	0.1838	-0.061
Mof_H 	H 	0.0651	0.3173	0.1386	-0.072
Mof_H 	H 	0.5956	0.5746	0.2333	-0.067
Mof_H 	H 	0.3473	0.6084	0.2326	0.063
Mof_H 	H 	0.2068	0.5563	0.2858	-0.021
Mof_H 	H 	0.3235	0.4725	0.3388	0.09
Mof_H 	H 	0.0841	0.276	0.3838	0.054
Mof_H 	H 	0.3042	0.2682	0.3497	-0.034
Mof_H 	H 	0.319	0.3283	0.2798	0.064
Mof_H 	H 	0.1192	0.4004	0.2486	-0.05
Mof_H 	H 	0.7222	0.1254	0.4755	-0.083
Mof_H 	H 	0.8461	0.0441	0.4348	0.027
Mof_H 	H 	0.9242	0.0777	0.3648	-0.018
Mof_H 	H 	0.89	0.1934	0.3391	0.04
Mof_H 	H 	0.4636	0.5213	0.406	0.055
Mof_H 	H 	0.3025	0.5511	0.4599	0.028
Mof_H 	H 	0.2346	0.4648	0.5103	0.031
Mof_H 	H 	0.3416	0.3536	0.5093	-0.063
Mof_H 	H 	0.5705	0.6842	0.3559	0.134
Mof_H 	H 	0.5461	0.7247	0.4019	0.129
Mof_H 	H 	0.3452	0.6925	0.3116	0.148
Mof_H 	H 	0.2724	0.7635	0.2919	0.138
Mof_H 	H 	0.5077	0.7996	0.3162	-0.058
Mof_H 	H 	0.4349	0.8173	0.3614	-0.071
Mof_C 	C 	0.0404	0.94537	0.75509	0.09
Mof_C 	C 	0.8911	0.92524	0.75417	-0.19
Mof_C 	C 	0.8079	0.956	0.78586	0.059
Mof_C 	C 	0.8779	0.0053	0.81771	-0.16
Mof_C 	C 	0.0296	0.02121	0.81773	0.049
Mof_C 	C 	0.1162	0.0756	0.84887	-0.018
Mof_C 	C 	0.3229	0.15412	0.85013	-0.01
Mof_C 	C 	0.4712	0.16093	0.83307	0.062
Mof_C 	C 	0.5916	0.2006	0.85565	-0.156
Mof_C 	C 	0.7229	0.2046	0.83556	0.064
Mof_C 	C 	0.7329	0.1681	0.79447	-0.167
Mof_C 	C 	0.6115	0.12596	0.77549	0.086
Mof_C 	C 	0.0816	0.1077	0.89026	-0.004
Mof_C 	C 	0.2578	0.36055	0.94808	0.059
Mof_C 	C 	0.3304	0.41004	0.92356	-0.164
Mof_C 	C 	0.3783	0.3897	0.88246	0.029
Mof_C 	C 	0.3586	0.32083	0.86712	-0.151
Mof_C 	C 	0.291	0.27318	0.8943	0.043
Mof_C 	C 	0.2569	0.19827	0.88129	-0.014
Mof_C 	C 	0.9835	0.08183	0.92422	0.062
Mof_C 	C 	0.9339	0.0127	0.92623	-0.121
Mof_C 	C 	0.8394	0.9948	0.95868	0.037
Mof_C 	C 	0.8009	0.0456	0.98905	-0.127
Mof_C 	C 	0.8628	0.1128	0.98752	0.057
Mof_C 	C 	0.0755	0.76965	0.87084	-0.422
Mof_C 	C 	0.8161	0.76065	0.82058	-0.433
Mof_C 	C 	0.9613	0.72092	0.84162	0.238
Mof_C 	C 	0.4596	0.44537	0.74491	0.095
Mof_C 	C 	0.6089	0.42524	0.74583	-0.198
Mof_C 	C 	0.6921	0.456	0.71414	0.068
Mof_C 	C 	0.6221	0.5053	0.68229	-0.171
Mof_C 	C 	0.4704	0.52121	0.68227	0.058
Mof_C 	C 	0.3838	0.5756	0.65113	-0.021
Mof_C 	C 	0.1771	0.65412	0.64987	-0.01
Mof_C 	C 	0.0288	0.66093	0.66693	0.06
Mof_C 	C 	0.9084	0.7006	0.64435	-0.154
Mof_C 	C 	0.7771	0.7046	0.66444	0.064
Mof_C 	C 	0.7671	0.6681	0.70553	-0.168
Mof_C 	C 	0.8885	0.62596	0.72451	0.087
Mof_C 	C 	0.4184	0.6077	0.60974	-0
Mof_C 	C 	0.2422	0.86055	0.55192	0.06
Mof_C 	C 	0.1696	0.91004	0.57644	-0.164
Mof_C 	C 	0.1217	0.8897	0.61754	0.03
Mof_C 	C 	0.1414	0.82083	0.63288	-0.151
Mof_C 	C 	0.209	0.77318	0.6057	0.043
Mof_C 	C 	0.2431	0.69827	0.61871	-0.014
Mof_C 	C 	0.5165	0.58183	0.57578	0.059
Mof_C 	C 	0.5661	0.5127	0.57377	-0.121
Mof_C 	C 	0.6606	0.4948	0.54132	0.038
Mof_C 	C 	0.6991	0.5456	0.51095	-0.126
Mof_C 	C 	0.6372	0.6128	0.51248	0.057
Mof_C 	C 	0.4245	0.26965	0.62916	-0.418
Mof_C 	C 	0.6839	0.26065	0.67942	-0.431
Mof_C 	C 	0.5387	0.22092	0.65838	0.232
Mof_C 	C 	0.9596	0.05463	0.24491	0.09
Mof_C 	C 	0.1089	0.07476	0.24583	-0.19
Mof_C 	C 	0.1921	0.044	0.21414	0.059
Mof_C 	C 	0.1221	0.9947	0.18229	-0.16
Mof_C 	C 	0.9704	0.97879	0.18227	0.049
Mof_C 	C 	0.8838	0.9244	0.15113	-0.018
Mof_C 	C 	0.6771	0.84588	0.14987	-0.01
Mof_C 	C 	0.5288	0.83907	0.16693	0.062
Mof_C 	C 	0.4084	0.7994	0.14435	-0.156
Mof_C 	C 	0.2771	0.7954	0.16444	0.064
Mof_C 	C 	0.2671	0.8319	0.20553	-0.167
Mof_C 	C 	0.3885	0.87404	0.22451	0.086
Mof_C 	C 	0.9184	0.8923	0.10974	-0.004
Mof_C 	C 	0.7422	0.63945	0.05192	0.059
Mof_C 	C 	0.6696	0.58996	0.07644	-0.164
Mof_C 	C 	0.6217	0.6103	0.11754	0.029
Mof_C 	C 	0.6414	0.67917	0.13288	-0.151
Mof_C 	C 	0.709	0.72682	0.1057	0.043
Mof_C 	C 	0.7431	0.80173	0.11871	-0.014
Mof_C 	C 	0.0165	0.91817	0.07578	0.062
Mof_C 	C 	0.0661	0.9873	0.07377	-0.121
Mof_C 	C 	0.1606	0.0052	0.04132	0.037
Mof_C 	C 	0.1991	0.9544	0.01095	-0.127
Mof_C 	C 	0.1372	0.8872	0.01248	0.057
Mof_C 	C 	0.9245	0.23035	0.12916	-0.422
Mof_C 	C 	0.1839	0.23935	0.17942	-0.433
Mof_C 	C 	0.0387	0.27908	0.15838	0.238
Mof_C 	C 	0.5404	0.55463	0.25509	0.095
Mof_C 	C 	0.3911	0.57476	0.25417	-0.198
Mof_C 	C 	0.3079	0.544	0.28586	0.068
Mof_C 	C 	0.3779	0.4947	0.31771	-0.171
Mof_C 	C 	0.5296	0.47879	0.31773	0.058
Mof_C 	C 	0.6162	0.4244	0.34887	-0.021
Mof_C 	C 	0.8229	0.34588	0.35013	-0.01
Mof_C 	C 	0.9712	0.33907	0.33307	0.06
Mof_C 	C 	0.0916	0.2994	0.35565	-0.154
Mof_C 	C 	0.2229	0.2954	0.33556	0.064
Mof_C 	C 	0.2329	0.3319	0.29447	-0.168
Mof_C 	C 	0.1115	0.37404	0.27549	0.087
Mof_C 	C 	0.5816	0.3923	0.39026	-0
Mof_C 	C 	0.7578	0.13945	0.44808	0.06
Mof_C 	C 	0.8304	0.08996	0.42356	-0.164
Mof_C 	C 	0.8783	0.1103	0.38246	0.03
Mof_C 	C 	0.8586	0.17917	0.36712	-0.151
Mof_C 	C 	0.791	0.22682	0.3943	0.043
Mof_C 	C 	0.7569	0.30173	0.38129	-0.014
Mof_C 	C 	0.4835	0.41817	0.42422	0.059
Mof_C 	C 	0.4339	0.4873	0.42623	-0.121
Mof_C 	C 	0.3394	0.5052	0.45868	0.038
Mof_C 	C 	0.3009	0.4544	0.48905	-0.126
Mof_C 	C 	0.3628	0.3872	0.48752	0.057
Mof_C 	C 	0.5755	0.73035	0.37084	-0.418
Mof_C 	C 	0.3161	0.73935	0.32058	-0.431
Mof_C 	C 	0.4613	0.77908	0.34162	0.232
Mof_N 	N 	0.109	0.99243	0.78599	-0.268
Mof_N 	N 	0.2433	0.09731	0.83322	-0.222
Mof_N 	N 	0.4844	0.12194	0.7945	-0.247
Mof_N 	N 	0.2371	0.29373	0.93384	-0.272
Mof_N 	N 	0.1464	0.17026	0.90215	-0.218
Mof_N 	N 	0.952	0.13093	0.95569	-0.252
Mof_N 	N 	0.391	0.49243	0.71401	-0.271
Mof_N 	N 	0.2567	0.59731	0.66678	-0.221
Mof_N 	N 	0.0156	0.62194	0.7055	-0.248
Mof_N 	N 	0.2629	0.79373	0.56616	-0.272
Mof_N 	N 	0.3536	0.67026	0.59785	-0.218
Mof_N 	N 	0.548	0.63093	0.54431	-0.252
Mof_N 	N 	0.891	0.00757	0.21401	-0.268
Mof_N 	N 	0.7567	0.90269	0.16678	-0.222
Mof_N 	N 	0.5156	0.87806	0.2055	-0.247
Mof_N 	N 	0.7629	0.70627	0.06616	-0.272
Mof_N 	N 	0.8536	0.82974	0.09785	-0.218
Mof_N 	N 	0.048	0.86907	0.04431	-0.252
Mof_N 	N 	0.609	0.50757	0.28599	-0.271
Mof_N 	N 	0.7433	0.40269	0.33322	-0.221
Mof_N 	N 	0.9844	0.37806	0.2945	-0.248
Mof_N 	N 	0.7371	0.20627	0.43384	-0.272
Mof_N 	N 	0.6464	0.32974	0.40215	-0.218
Mof_N 	N 	0.452	0.36907	0.45569	-0.252
Mof_O 	O 	0.4614	0.97479	0.83304	-0.644
Mof_O 	O 	0.5456	0.90083	0.91985	-0.659
Mof_O 	O 	0.3695	0.80143	0.89799	-0.549
Mof_O 	O 	0.5548	0.82281	0.83166	-0.447
Mof_O 	O 	0.7333	0.83566	0.99692	-0.651
Mof_O 	O 	0.7345	0.7948	0.90625	-0.397
Mof_O 	O 	0.5659	0.71793	0.95895	-0.661
Mof_O 	O 	0.2932	0.6774	0.91148	-0.398
Mof_O 	O 	0.4495	0.5866	0.8675	-0.627
Mof_O 	O 	0.5989	0.69609	0.86118	-0.508
Mof_O 	O 	0.3045	0.59226	0.77587	-0.671
Mof_O 	O 	0.3024	0.71784	0.82863	-0.457
Mof_O 	O 	0.4814	0.71111	0.76792	-0.637
Mof_O 	O 	0.2806	0.85924	0.81056	-0.644
Mof_O 	O 	0.0386	0.47479	0.66696	-0.645
Mof_O 	O 	0.9544	0.40083	0.58015	-0.657
Mof_O 	O 	0.1305	0.30143	0.60201	-0.55
Mof_O 	O 	0.9452	0.32281	0.66834	-0.445
Mof_O 	O 	0.7667	0.33566	0.50308	-0.652
Mof_O 	O 	0.7655	0.2948	0.59375	-0.397
Mof_O 	O 	0.9341	0.21793	0.54105	-0.661
Mof_O 	O 	0.2068	0.1774	0.58852	-0.399
Mof_O 	O 	0.0505	0.0866	0.6325	-0.628
Mof_O 	O 	0.9011	0.19609	0.63882	-0.507
Mof_O 	O 	0.1955	0.09226	0.72413	-0.671
Mof_O 	O 	0.1976	0.21784	0.67137	-0.456
Mof_O 	O 	0.0186	0.21111	0.73208	-0.638
Mof_O 	O 	0.2194	0.35924	0.68944	-0.643
Mof_O 	O 	0.5386	0.02521	0.16696	-0.644
Mof_O 	O 	0.4544	0.09917	0.08015	-0.659
Mof_O 	O 	0.6305	0.19857	0.10201	-0.549
Mof_O 	O 	0.4452	0.17719	0.16834	-0.447
Mof_O 	O 	0.2667	0.16434	0.00308	-0.651
Mof_O 	O 	0.2655	0.2052	0.09375	-0.397
Mof_O 	O 	0.4341	0.28207	0.04105	-0.661
Mof_O 	O 	0.7068	0.3226	0.08852	-0.398
Mof_O 	O 	0.5505	0.4134	0.1325	-0.627
Mof_O 	O 	0.4011	0.30391	0.13882	-0.508
Mof_O 	O 	0.6955	0.40774	0.22413	-0.671
Mof_O 	O 	0.6976	0.28216	0.17137	-0.457
Mof_O 	O 	0.5186	0.28889	0.23208	-0.637
Mof_O 	O 	0.7194	0.14076	0.18944	-0.644
Mof_O 	O 	0.9614	0.52521	0.33304	-0.645
Mof_O 	O 	0.0456	0.59917	0.41985	-0.657
Mof_O 	O 	0.8695	0.69857	0.39799	-0.55
Mof_O 	O 	0.0548	0.67719	0.33166	-0.445
Mof_O 	O 	0.2333	0.66434	0.49692	-0.652
Mof_O 	O 	0.2345	0.7052	0.40625	-0.397
Mof_O 	O 	0.0659	0.78207	0.45895	-0.661
Mof_O 	O 	0.7932	0.8226	0.41148	-0.399
Mof_O 	O 	0.9495	0.9134	0.3675	-0.628
Mof_O 	O 	0.0989	0.80391	0.36118	-0.507
Mof_O 	O 	0.8045	0.90774	0.27587	-0.671
Mof_O 	O 	0.8024	0.78216	0.32863	-0.456
Mof_O 	O 	0.9814	0.78889	0.26792	-0.638
Mof_O 	O 	0.7806	0.64076	0.31056	-0.643
_end
