data_functionalizedCrystal
_audit_creation_method	'EQeq! by Chris Wilmer'
_symmetry_space_group_name_H-M	'P1'
_symmetry_Int_Tables_number	1
_symmetry_cell_setting	triclinic
loop_
_symmetry_equiv_pos_as_xyz
  x,y,z
_cell_length_a	11.5985
_cell_length_b	13.6479
_cell_length_c	14.2484
_cell_angle_alpha	102.167
_cell_angle_beta	90
_cell_angle_gamma	115.146
loop_
_atom_site_label
_atom_site_type_symbol
_atom_site_fract_x
_atom_site_fract_y
_atom_site_fract_z
_atom_site_charge
Mof_Cd	Cd	0.0011	0.44596	0.86425	0.462
Mof_Cd	Cd	0.44486	0.44596	0.36425	0.464
Mof_H 	H 	0.0166	0.2104	0.586	0.085
Mof_H 	H 	0.1515	0.2396	0.6349	0.097
Mof_H 	H 	0.1586	0.2878	0.4844	0.118
Mof_H 	H 	0.1096	0.3762	0.53	0.127
Mof_H 	H 	0.9208	0.1906	0.8623	0.003
Mof_H 	H 	0.7514	0.0238	0.8672	0.112
Mof_H 	H 	0.5202	0.1748	0.8821	0.113
Mof_H 	H 	0.6956	0.3384	0.8782	0.005
Mof_H 	H 	0.4946	0.7052	0.8798	0.126
Mof_H 	H 	0.3105	0.5452	0.8741	0.012
Mof_H 	H 	0.099	0.6978	0.8511	0.001
Mof_H 	H 	0.2767	0.8634	0.8589	0.117
Mof_H 	H 	0.1938	0.2104	0.086	0.088
Mof_H 	H 	0.0881	0.2396	0.1349	0.1
Mof_H 	H 	0.1292	0.2878	0.9844	0.113
Mof_H 	H 	0.2666	0.3762	0.03	0.124
Mof_H 	H 	0.2698	0.1906	0.3623	0.002
Mof_H 	H 	0.2724	0.0238	0.3672	0.112
Mof_H 	H 	0.6546	0.1748	0.3821	0.113
Mof_H 	H 	0.6428	0.3384	0.3782	0.005
Mof_H 	H 	0.2106	0.7052	0.3798	0.127
Mof_H 	H 	0.2347	0.5452	0.3741	0.012
Mof_H 	H 	0.5988	0.6978	0.3511	0.001
Mof_H 	H 	0.5867	0.8634	0.3589	0.117
Mof_C 	C 	0.07027	0.33574	0.7076	0.335
Mof_C 	C 	0.09685	0.2715	0.6167	-0.186
Mof_C 	C 	0.15942	0.33824	0.5439	-0.258
Mof_C 	C 	0.29534	0.42288	0.5773	0.368
Mof_C 	C 	0.83916	0.18712	0.8665	0.114
Mof_C 	C 	0.73821	0.08682	0.8693	-0.205
Mof_C 	C 	0.61802	0.08224	0.8752	0.188
Mof_C 	C 	0.60111	0.17662	0.8783	-0.205
Mof_C 	C 	0.70693	0.27446	0.8757	0.126
Mof_C 	C 	0.40392	0.80144	0.8696	0.191
Mof_C 	C 	0.41485	0.7055	0.8747	-0.213
Mof_C 	C 	0.30379	0.61018	0.8719	0.132
Mof_C 	C 	0.17971	0.70002	0.8587	0.125
Mof_C 	C 	0.28578	0.79956	0.8619	-0.213
Mof_C 	C 	0.26547	0.33574	0.2076	0.336
Mof_C 	C 	0.17465	0.2715	0.1167	-0.191
Mof_C 	C 	0.17882	0.33824	0.0439	-0.25
Mof_C 	C 	0.12754	0.42288	0.0773	0.365
Mof_C 	C 	0.34796	0.18712	0.3665	0.114
Mof_C 	C 	0.34861	0.08682	0.3693	-0.206
Mof_C 	C 	0.46422	0.08224	0.3752	0.189
Mof_C 	C 	0.57551	0.17662	0.3783	-0.205
Mof_C 	C 	0.56753	0.27446	0.3757	0.126
Mof_C 	C 	0.39752	0.80144	0.3696	0.191
Mof_C 	C 	0.29065	0.7055	0.3747	-0.213
Mof_C 	C 	0.30639	0.61018	0.3719	0.132
Mof_C 	C 	0.52031	0.70002	0.3587	0.125
Mof_C 	C 	0.51378	0.79956	0.3619	-0.212
Mof_N 	N 	0.82355	0.2803	0.8698	-0.16
Mof_N 	N 	0.50378	0.98196	0.8755	-0.098
Mof_N 	N 	0.52071	0.90062	0.8724	-0.099
Mof_N 	N 	0.18721	0.60702	0.8661	-0.16
Mof_N 	N 	0.45675	0.2803	0.3698	-0.161
Mof_N 	N 	0.47818	0.98196	0.3755	-0.098
Mof_N 	N 	0.37991	0.90062	0.3724	-0.099
Mof_N 	N 	0.41981	0.60702	0.3661	-0.16
Mof_O 	O 	0.01751	0.39682	0.69772	-0.28
Mof_O 	O 	0.09565	0.3241	0.7888	-0.282
Mof_O 	O 	0.33289	0.45758	0.66403	-0.284
Mof_O 	O 	0.37085	0.4565	0.51583	-0.317
Mof_O 	O 	0.37931	0.39682	0.19772	-0.28
Mof_O 	O 	0.22845	0.3241	0.2888	-0.282
Mof_O 	O 	0.12469	0.45758	0.16403	-0.283
Mof_O 	O 	0.08565	0.4565	0.01583	-0.314
Mof_Cd	Cd	0.55514	0.55404	0.63575	0.465
Mof_Cd	Cd	0.9989	0.55404	0.13575	0.463
Mof_H 	H 	0.8062	0.7896	0.914	0.088
Mof_H 	H 	0.9119	0.7604	0.8651	0.1
Mof_H 	H 	0.8708	0.7122	0.0156	0.113
Mof_H 	H 	0.7334	0.6238	0.97	0.124
Mof_H 	H 	0.7302	0.8094	0.6377	0.002
Mof_H 	H 	0.7276	0.9762	0.6328	0.112
Mof_H 	H 	0.3454	0.8252	0.6179	0.113
Mof_H 	H 	0.3572	0.6616	0.6218	0.005
Mof_H 	H 	0.7894	0.2948	0.6202	0.127
Mof_H 	H 	0.7653	0.4548	0.6259	0.012
Mof_H 	H 	0.4012	0.3022	0.6489	0.001
Mof_H 	H 	0.4133	0.1366	0.6411	0.117
Mof_H 	H 	0.9834	0.7896	0.414	0.085
Mof_H 	H 	0.8485	0.7604	0.3651	0.097
Mof_H 	H 	0.8414	0.7122	0.5156	0.118
Mof_H 	H 	0.8904	0.6238	0.47	0.127
Mof_H 	H 	0.0792	0.8094	0.1377	0.003
Mof_H 	H 	0.2486	0.9762	0.1328	0.112
Mof_H 	H 	0.4798	0.8252	0.1179	0.113
Mof_H 	H 	0.3044	0.6616	0.1218	0.005
Mof_H 	H 	0.5054	0.2948	0.1202	0.126
Mof_H 	H 	0.6895	0.4548	0.1259	0.012
Mof_H 	H 	0.901	0.3022	0.1489	0.001
Mof_H 	H 	0.7233	0.1366	0.1411	0.117
Mof_C 	C 	0.73453	0.66426	0.7924	0.336
Mof_C 	C 	0.82535	0.7285	0.8833	-0.191
Mof_C 	C 	0.82118	0.66176	0.9561	-0.25
Mof_C 	C 	0.87246	0.57712	0.9227	0.365
Mof_C 	C 	0.65204	0.81288	0.6335	0.114
Mof_C 	C 	0.65139	0.91318	0.6307	-0.206
Mof_C 	C 	0.53578	0.91776	0.6248	0.189
Mof_C 	C 	0.42449	0.82338	0.6217	-0.205
Mof_C 	C 	0.43247	0.72554	0.6243	0.126
Mof_C 	C 	0.60248	0.19856	0.6304	0.191
Mof_C 	C 	0.70935	0.2945	0.6253	-0.213
Mof_C 	C 	0.69361	0.38982	0.6281	0.132
Mof_C 	C 	0.47969	0.29998	0.6413	0.125
Mof_C 	C 	0.48622	0.20044	0.6381	-0.212
Mof_C 	C 	0.92973	0.66426	0.2924	0.335
Mof_C 	C 	0.90315	0.7285	0.3833	-0.186
Mof_C 	C 	0.84058	0.66176	0.4561	-0.258
Mof_C 	C 	0.70466	0.57712	0.4227	0.368
Mof_C 	C 	0.16084	0.81288	0.1335	0.114
Mof_C 	C 	0.26179	0.91318	0.1307	-0.205
Mof_C 	C 	0.38198	0.91776	0.1248	0.188
Mof_C 	C 	0.39889	0.82338	0.1217	-0.205
Mof_C 	C 	0.29307	0.72554	0.1243	0.126
Mof_C 	C 	0.59608	0.19856	0.1304	0.191
Mof_C 	C 	0.58515	0.2945	0.1253	-0.213
Mof_C 	C 	0.69621	0.38982	0.1281	0.132
Mof_C 	C 	0.82029	0.29998	0.1413	0.125
Mof_C 	C 	0.71422	0.20044	0.1381	-0.213
Mof_N 	N 	0.54325	0.7197	0.6302	-0.161
Mof_N 	N 	0.52182	0.01804	0.6245	-0.098
Mof_N 	N 	0.62009	0.09938	0.6276	-0.099
Mof_N 	N 	0.58019	0.39298	0.6339	-0.16
Mof_N 	N 	0.17645	0.7197	0.1302	-0.16
Mof_N 	N 	0.49622	0.01804	0.1245	-0.098
Mof_N 	N 	0.47929	0.09938	0.1276	-0.099
Mof_N 	N 	0.81279	0.39298	0.1339	-0.16
Mof_O 	O 	0.62069	0.60318	0.80228	-0.28
Mof_O 	O 	0.77155	0.6759	0.7112	-0.282
Mof_O 	O 	0.87531	0.54242	0.83597	-0.283
Mof_O 	O 	0.91435	0.5435	0.98417	-0.314
Mof_O 	O 	0.98249	0.60318	0.30228	-0.28
Mof_O 	O 	0.90435	0.6759	0.2112	-0.282
Mof_O 	O 	0.66711	0.54242	0.33597	-0.284
Mof_O 	O 	0.62915	0.5435	0.48417	-0.317
_end
