data_functionalizedCrystal
_audit_creation_method	'EQeq! by Chris Wilmer'
_symmetry_space_group_name_H-M	'P1'
_symmetry_Int_Tables_number	1
_symmetry_cell_setting	triclinic
loop_
_symmetry_equiv_pos_as_xyz
  x,y,z
_cell_length_a	17.5191
_cell_length_b	17.5191
_cell_length_c	15.163
_cell_angle_alpha	90
_cell_angle_beta	90
_cell_angle_gamma	90
loop_
_atom_site_label
_atom_site_type_symbol
_atom_site_fract_x
_atom_site_fract_y
_atom_site_fract_z
_atom_site_charge
Mof_Co	Co	0.90112	0.14164	0.96851	1.179
Mof_C 	C 	0.0526	0.1251	0.9033	0.222
Mof_C 	C 	0.0068	0.1463	0.8217	0.172
Mof_H 	H 	0.0199	0.1102	0.773	-0.026
Mof_C 	C 	0.0292	0.2271	0.7943	-0.562
Mof_H 	H 	0.0018	0.2411	0.7404	0.181
Mof_H 	H 	0.0843	0.2291	0.7834	0.2
Mof_H 	H 	0.0159	0.2629	0.8415	0.187
Mof_C 	C 	0.7369	0.1422	0.8891	0.389
Mof_C 	C 	0.6537	0.1325	0.9117	-0.124
Mof_C 	C 	0.6316	0.1245	0.9993	0.037
Mof_H 	H 	0.6689	0.1266	0.0447	0.025
Mof_C 	C 	0.5551	0.1133	0.0206	-0.097
Mof_H 	H 	0.5405	0.1063	0.0804	0.058
Mof_C 	C 	0.4997	0.1124	0.9543	0.03
Mof_C 	C 	0.5221	0.1212	0.8671	-0.099
Mof_H 	H 	0.4848	0.1209	0.8216	0.059
Mof_C 	C 	0.5987	0.1306	0.8459	0.035
Mof_H 	H 	0.6135	0.1356	0.786	0.025
Mof_C 	C 	0.4171	0.1043	0.9767	0.062
Mof_C 	C 	0.3668	0.0665	0.9211	-0.133
Mof_H 	H 	0.3851	0.0433	0.8686	0.072
Mof_C 	C 	0.2901	0.0627	0.9418	0.078
Mof_H 	H 	0.2568	0.0368	0.9025	-0.014
Mof_C 	C 	0.3091	0.1296	0.0695	0.075
Mof_H 	H 	0.2892	0.1519	0.1217	-0.017
Mof_C 	C 	0.3863	0.1354	0.0538	-0.133
Mof_H 	H 	0.4185	0.1604	0.0951	0.073
Mof_N 	N 	0.26057	0.09398	0.01492	-0.238
Mof_O 	O 	0.12363	0.11371	0.89667	-0.369
Mof_O 	O 	0.01969	0.12207	0.97695	-0.457
Mof_O 	O 	0.92794	0.13972	0.84133	-0.557
Mof_O 	O 	0.75235	0.1461	0.80792	-0.473
Mof_O 	O 	0.78401	0.14492	0.9507	-0.448
Mof_Co	Co	0.09888	0.85836	0.96851	1.179
Mof_C 	C 	0.9474	0.8749	0.9033	0.222
Mof_C 	C 	0.9932	0.8537	0.8217	0.172
Mof_H 	H 	0.9801	0.8898	0.773	-0.026
Mof_C 	C 	0.9708	0.7729	0.7943	-0.562
Mof_H 	H 	0.9982	0.7589	0.7404	0.181
Mof_H 	H 	0.9157	0.7709	0.7834	0.2
Mof_H 	H 	0.9841	0.7371	0.8415	0.187
Mof_C 	C 	0.2631	0.8578	0.8891	0.389
Mof_C 	C 	0.3463	0.8675	0.9117	-0.124
Mof_C 	C 	0.3684	0.8755	0.9993	0.037
Mof_H 	H 	0.3311	0.8734	0.0447	0.025
Mof_C 	C 	0.4449	0.8867	0.0206	-0.097
Mof_H 	H 	0.4595	0.8937	0.0804	0.058
Mof_C 	C 	0.5003	0.8876	0.9543	0.03
Mof_C 	C 	0.4779	0.8788	0.8671	-0.099
Mof_H 	H 	0.5152	0.8791	0.8216	0.059
Mof_C 	C 	0.4013	0.8694	0.8459	0.035
Mof_H 	H 	0.3865	0.8644	0.786	0.025
Mof_C 	C 	0.5829	0.8957	0.9767	0.062
Mof_C 	C 	0.6332	0.9335	0.9211	-0.133
Mof_H 	H 	0.6149	0.9567	0.8686	0.072
Mof_C 	C 	0.7099	0.9373	0.9418	0.078
Mof_H 	H 	0.7432	0.9632	0.9025	-0.014
Mof_C 	C 	0.6909	0.8704	0.0695	0.075
Mof_H 	H 	0.7108	0.8481	0.1217	-0.017
Mof_C 	C 	0.6137	0.8646	0.0538	-0.133
Mof_H 	H 	0.5815	0.8396	0.0951	0.073
Mof_N 	N 	0.73943	0.90602	0.01492	-0.238
Mof_O 	O 	0.87637	0.88629	0.89667	-0.369
Mof_O 	O 	0.98031	0.87793	0.97695	-0.457
Mof_O 	O 	0.07206	0.86028	0.84133	-0.557
Mof_O 	O 	0.24765	0.8539	0.80792	-0.473
Mof_O 	O 	0.21599	0.85508	0.9507	-0.448
Mof_Co	Co	0.14164	0.09888	0.03149	1.179
Mof_C 	C 	0.1251	0.9474	0.0967	0.222
Mof_C 	C 	0.1463	0.9932	0.1783	0.172
Mof_H 	H 	0.1102	0.9801	0.227	-0.026
Mof_C 	C 	0.2271	0.9708	0.2057	-0.562
Mof_H 	H 	0.2411	0.9982	0.2596	0.181
Mof_H 	H 	0.2291	0.9157	0.2166	0.2
Mof_H 	H 	0.2629	0.9841	0.1585	0.187
Mof_C 	C 	0.1422	0.2631	0.1109	0.389
Mof_C 	C 	0.1325	0.3463	0.0883	-0.124
Mof_C 	C 	0.1245	0.3684	0.0007	0.037
Mof_H 	H 	0.1266	0.3311	0.9553	0.025
Mof_C 	C 	0.1133	0.4449	0.9794	-0.097
Mof_H 	H 	0.1063	0.4595	0.9196	0.058
Mof_C 	C 	0.1124	0.5003	0.0457	0.03
Mof_C 	C 	0.1212	0.4779	0.1329	-0.099
Mof_H 	H 	0.1209	0.5152	0.1784	0.059
Mof_C 	C 	0.1306	0.4013	0.1541	0.035
Mof_H 	H 	0.1356	0.3865	0.214	0.025
Mof_C 	C 	0.1043	0.5829	0.0233	0.062
Mof_C 	C 	0.0665	0.6332	0.0789	-0.133
Mof_H 	H 	0.0433	0.6149	0.1314	0.072
Mof_C 	C 	0.0627	0.7099	0.0582	0.078
Mof_H 	H 	0.0368	0.7432	0.0975	-0.014
Mof_C 	C 	0.1296	0.6909	0.9305	0.075
Mof_H 	H 	0.1519	0.7108	0.8783	-0.017
Mof_C 	C 	0.1354	0.6137	0.9462	-0.133
Mof_H 	H 	0.1604	0.5815	0.9049	0.073
Mof_N 	N 	0.09398	0.73943	0.98508	-0.238
Mof_O 	O 	0.11371	0.87637	0.10333	-0.369
Mof_O 	O 	0.12207	0.98031	0.02305	-0.457
Mof_O 	O 	0.13972	0.07206	0.15867	-0.557
Mof_O 	O 	0.1461	0.24765	0.19208	-0.473
Mof_O 	O 	0.14492	0.21599	0.0493	-0.448
Mof_Co	Co	0.85836	0.90112	0.03149	1.179
Mof_C 	C 	0.8749	0.0526	0.0967	0.222
Mof_C 	C 	0.8537	0.0068	0.1783	0.172
Mof_H 	H 	0.8898	0.0199	0.227	-0.026
Mof_C 	C 	0.7729	0.0292	0.2057	-0.562
Mof_H 	H 	0.7589	0.0018	0.2596	0.181
Mof_H 	H 	0.7709	0.0843	0.2166	0.2
Mof_H 	H 	0.7371	0.0159	0.1585	0.187
Mof_C 	C 	0.8578	0.7369	0.1109	0.389
Mof_C 	C 	0.8675	0.6537	0.0883	-0.124
Mof_C 	C 	0.8755	0.6316	0.0007	0.037
Mof_H 	H 	0.8734	0.6689	0.9553	0.025
Mof_C 	C 	0.8867	0.5551	0.9794	-0.097
Mof_H 	H 	0.8937	0.5405	0.9196	0.058
Mof_C 	C 	0.8876	0.4997	0.0457	0.03
Mof_C 	C 	0.8788	0.5221	0.1329	-0.099
Mof_H 	H 	0.8791	0.4848	0.1784	0.059
Mof_C 	C 	0.8694	0.5987	0.1541	0.035
Mof_H 	H 	0.8644	0.6135	0.214	0.025
Mof_C 	C 	0.8957	0.4171	0.0233	0.062
Mof_C 	C 	0.9335	0.3668	0.0789	-0.133
Mof_H 	H 	0.9567	0.3851	0.1314	0.072
Mof_C 	C 	0.9373	0.2901	0.0582	0.078
Mof_H 	H 	0.9632	0.2568	0.0975	-0.014
Mof_C 	C 	0.8704	0.3091	0.9305	0.075
Mof_H 	H 	0.8481	0.2892	0.8783	-0.017
Mof_C 	C 	0.8646	0.3863	0.9462	-0.133
Mof_H 	H 	0.8396	0.4185	0.9049	0.073
Mof_N 	N 	0.90602	0.26057	0.98508	-0.238
Mof_O 	O 	0.88629	0.12363	0.10333	-0.369
Mof_O 	O 	0.87793	0.01969	0.02305	-0.457
Mof_O 	O 	0.86028	0.92794	0.15867	-0.557
Mof_O 	O 	0.8539	0.75235	0.19208	-0.473
Mof_O 	O 	0.85508	0.78401	0.0493	-0.448
Mof_Co	Co	0.90112	0.85836	0.46851	1.179
Mof_C 	C 	0.0526	0.8749	0.4033	0.222
Mof_C 	C 	0.0068	0.8537	0.3217	0.172
Mof_H 	H 	0.0199	0.8898	0.273	-0.026
Mof_C 	C 	0.0292	0.7729	0.2943	-0.561
Mof_H 	H 	0.0018	0.7589	0.2404	0.18
Mof_H 	H 	0.0843	0.7709	0.2834	0.2
Mof_H 	H 	0.0159	0.7371	0.3415	0.187
Mof_C 	C 	0.7369	0.8578	0.3891	0.389
Mof_C 	C 	0.6537	0.8675	0.4117	-0.124
Mof_C 	C 	0.6316	0.8755	0.4993	0.037
Mof_H 	H 	0.6689	0.8734	0.5447	0.025
Mof_C 	C 	0.5551	0.8867	0.5206	-0.097
Mof_H 	H 	0.5405	0.8937	0.5804	0.058
Mof_C 	C 	0.4997	0.8876	0.4543	0.03
Mof_C 	C 	0.5221	0.8788	0.3671	-0.099
Mof_H 	H 	0.4848	0.8791	0.3216	0.059
Mof_C 	C 	0.5987	0.8694	0.3459	0.035
Mof_H 	H 	0.6135	0.8644	0.286	0.025
Mof_C 	C 	0.4171	0.8957	0.4767	0.062
Mof_C 	C 	0.3668	0.9335	0.4211	-0.132
Mof_H 	H 	0.3851	0.9567	0.3686	0.072
Mof_C 	C 	0.2901	0.9373	0.4418	0.078
Mof_H 	H 	0.2568	0.9632	0.4025	-0.014
Mof_C 	C 	0.3091	0.8704	0.5695	0.075
Mof_H 	H 	0.2892	0.8481	0.6217	-0.017
Mof_C 	C 	0.3863	0.8646	0.5538	-0.133
Mof_H 	H 	0.4185	0.8396	0.5951	0.073
Mof_N 	N 	0.26057	0.90602	0.51492	-0.238
Mof_O 	O 	0.12363	0.88629	0.39667	-0.369
Mof_O 	O 	0.01969	0.87793	0.47695	-0.457
Mof_O 	O 	0.92794	0.86028	0.34133	-0.557
Mof_O 	O 	0.75235	0.8539	0.30792	-0.473
Mof_O 	O 	0.78401	0.85508	0.4507	-0.448
Mof_Co	Co	0.09888	0.14164	0.46851	1.179
Mof_C 	C 	0.9474	0.1251	0.4033	0.222
Mof_C 	C 	0.9932	0.1463	0.3217	0.172
Mof_H 	H 	0.9801	0.1102	0.273	-0.026
Mof_C 	C 	0.9708	0.2271	0.2943	-0.561
Mof_H 	H 	0.9982	0.2411	0.2404	0.18
Mof_H 	H 	0.9157	0.2291	0.2834	0.2
Mof_H 	H 	0.9841	0.2629	0.3415	0.187
Mof_C 	C 	0.2631	0.1422	0.3891	0.389
Mof_C 	C 	0.3463	0.1325	0.4117	-0.124
Mof_C 	C 	0.3684	0.1245	0.4993	0.037
Mof_H 	H 	0.3311	0.1266	0.5447	0.025
Mof_C 	C 	0.4449	0.1133	0.5206	-0.097
Mof_H 	H 	0.4595	0.1063	0.5804	0.058
Mof_C 	C 	0.5003	0.1124	0.4543	0.03
Mof_C 	C 	0.4779	0.1212	0.3671	-0.099
Mof_H 	H 	0.5152	0.1209	0.3216	0.059
Mof_C 	C 	0.4013	0.1306	0.3459	0.035
Mof_H 	H 	0.3865	0.1356	0.286	0.025
Mof_C 	C 	0.5829	0.1043	0.4767	0.062
Mof_C 	C 	0.6332	0.0665	0.4211	-0.132
Mof_H 	H 	0.6149	0.0433	0.3686	0.072
Mof_C 	C 	0.7099	0.0627	0.4418	0.078
Mof_H 	H 	0.7432	0.0368	0.4025	-0.014
Mof_C 	C 	0.6909	0.1296	0.5695	0.075
Mof_H 	H 	0.7108	0.1519	0.6217	-0.017
Mof_C 	C 	0.6137	0.1354	0.5538	-0.133
Mof_H 	H 	0.5815	0.1604	0.5951	0.073
Mof_N 	N 	0.73943	0.09398	0.51492	-0.238
Mof_O 	O 	0.87637	0.11371	0.39667	-0.369
Mof_O 	O 	0.98031	0.12207	0.47695	-0.457
Mof_O 	O 	0.07206	0.13972	0.34133	-0.557
Mof_O 	O 	0.24765	0.1461	0.30792	-0.473
Mof_O 	O 	0.21599	0.14492	0.4507	-0.448
Mof_Co	Co	0.14164	0.90112	0.53149	1.179
Mof_C 	C 	0.1251	0.0526	0.5967	0.222
Mof_C 	C 	0.1463	0.0068	0.6783	0.172
Mof_H 	H 	0.1102	0.0199	0.727	-0.026
Mof_C 	C 	0.2271	0.0292	0.7057	-0.561
Mof_H 	H 	0.2411	0.0018	0.7596	0.18
Mof_H 	H 	0.2291	0.0843	0.7166	0.2
Mof_H 	H 	0.2629	0.0159	0.6585	0.187
Mof_C 	C 	0.1422	0.7369	0.6109	0.389
Mof_C 	C 	0.1325	0.6537	0.5883	-0.124
Mof_C 	C 	0.1245	0.6316	0.5007	0.037
Mof_H 	H 	0.1266	0.6689	0.4553	0.025
Mof_C 	C 	0.1133	0.5551	0.4794	-0.097
Mof_H 	H 	0.1063	0.5405	0.4196	0.058
Mof_C 	C 	0.1124	0.4997	0.5457	0.03
Mof_C 	C 	0.1212	0.5221	0.6329	-0.099
Mof_H 	H 	0.1209	0.4848	0.6784	0.059
Mof_C 	C 	0.1306	0.5987	0.6541	0.035
Mof_H 	H 	0.1356	0.6135	0.714	0.025
Mof_C 	C 	0.1043	0.4171	0.5233	0.062
Mof_C 	C 	0.0665	0.3668	0.5789	-0.132
Mof_H 	H 	0.0433	0.3851	0.6314	0.072
Mof_C 	C 	0.0627	0.2901	0.5582	0.078
Mof_H 	H 	0.0368	0.2568	0.5975	-0.014
Mof_C 	C 	0.1296	0.3091	0.4305	0.075
Mof_H 	H 	0.1519	0.2892	0.3783	-0.017
Mof_C 	C 	0.1354	0.3863	0.4462	-0.133
Mof_H 	H 	0.1604	0.4185	0.4049	0.073
Mof_N 	N 	0.09398	0.26057	0.48508	-0.238
Mof_O 	O 	0.11371	0.12363	0.60333	-0.369
Mof_O 	O 	0.12207	0.01969	0.52305	-0.457
Mof_O 	O 	0.13972	0.92794	0.65867	-0.557
Mof_O 	O 	0.1461	0.75235	0.69208	-0.473
Mof_O 	O 	0.14492	0.78401	0.5493	-0.448
Mof_Co	Co	0.85836	0.09888	0.53149	1.179
Mof_C 	C 	0.8749	0.9474	0.5967	0.222
Mof_C 	C 	0.8537	0.9932	0.6783	0.172
Mof_H 	H 	0.8898	0.9801	0.727	-0.026
Mof_C 	C 	0.7729	0.9708	0.7057	-0.561
Mof_H 	H 	0.7589	0.9982	0.7596	0.18
Mof_H 	H 	0.7709	0.9157	0.7166	0.2
Mof_H 	H 	0.7371	0.9841	0.6585	0.187
Mof_C 	C 	0.8578	0.2631	0.6109	0.389
Mof_C 	C 	0.8675	0.3463	0.5883	-0.124
Mof_C 	C 	0.8755	0.3684	0.5007	0.037
Mof_H 	H 	0.8734	0.3311	0.4553	0.025
Mof_C 	C 	0.8867	0.4449	0.4794	-0.097
Mof_H 	H 	0.8937	0.4595	0.4196	0.058
Mof_C 	C 	0.8876	0.5003	0.5457	0.03
Mof_C 	C 	0.8788	0.4779	0.6329	-0.099
Mof_H 	H 	0.8791	0.5152	0.6784	0.059
Mof_C 	C 	0.8694	0.4013	0.6541	0.035
Mof_H 	H 	0.8644	0.3865	0.714	0.025
Mof_C 	C 	0.8957	0.5829	0.5233	0.062
Mof_C 	C 	0.9335	0.6332	0.5789	-0.132
Mof_H 	H 	0.9567	0.6149	0.6314	0.072
Mof_C 	C 	0.9373	0.7099	0.5582	0.078
Mof_H 	H 	0.9632	0.7432	0.5975	-0.014
Mof_C 	C 	0.8704	0.6909	0.4305	0.075
Mof_H 	H 	0.8481	0.7108	0.3783	-0.017
Mof_C 	C 	0.8646	0.6137	0.4462	-0.133
Mof_H 	H 	0.8396	0.5815	0.4049	0.073
Mof_N 	N 	0.90602	0.73943	0.48508	-0.238
Mof_O 	O 	0.88629	0.87637	0.60333	-0.369
Mof_O 	O 	0.87793	0.98031	0.52305	-0.457
Mof_O 	O 	0.86028	0.07206	0.65867	-0.557
Mof_O 	O 	0.8539	0.24765	0.69208	-0.473
Mof_O 	O 	0.85508	0.21599	0.5493	-0.448
Mof_Co	Co	0.8529	0.1471	0.75	1.175
Mof_Co	Co	0.1471	0.8529	0.75	1.175
Mof_Co	Co	0.1471	0.1471	0.25	1.175
Mof_Co	Co	0.8529	0.8529	0.25	1.175
_end
