data_functionalizedCrystal
_audit_creation_method	'EQeq! by Chris Wilmer'
_symmetry_space_group_name_H-M	'P1'
_symmetry_Int_Tables_number	1
_symmetry_cell_setting	triclinic
loop_
_symmetry_equiv_pos_as_xyz
  x,y,z
_cell_length_a	26.093
_cell_length_b	21.58
_cell_length_c	17.238
_cell_angle_alpha	90
_cell_angle_beta	92.593
_cell_angle_gamma	90
loop_
_atom_site_label
_atom_site_type_symbol
_atom_site_fract_x
_atom_site_fract_y
_atom_site_fract_z
_atom_site_charge
Mof_Zn	Zn	0.1335	0.42747	0.30779	1.215
Mof_O 	O 	0.1341	0.5512	0.4191	-0.513
Mof_O 	O 	0.0655	0.3871	0.2944	-0.473
Mof_O 	O 	0.0346	0.4305	0.1845	-0.493
Mof_O 	O 	0.6846	0.1329	0.3025	-0.471
Mof_O 	O 	0.7063	0.0915	0.1875	-0.51
Mof_O 	O 	0.2182	0.4498	0.7919	-0.18
Mof_O 	O 	0.9132	0.2669	0.3854	-0.181
Mof_C 	C 	0.0298	0.3935	0.2423	0.357
Mof_C 	C 	0.9853	0.3533	0.2411	-0.065
Mof_C 	C 	0.9732	0.3224	0.3087	-0.087
Mof_H 	H 	0.9959	0.3244	0.3533	0.088
Mof_C 	C 	0.928	0.2886	0.311	0.133
Mof_C 	C 	0.8948	0.2856	0.2457	-0.069
Mof_C 	C 	0.9069	0.3165	0.1781	-0.027
Mof_H 	H 	0.8842	0.3145	0.1335	0.041
Mof_C 	C 	0.9521	0.3503	0.1758	-0.025
Mof_H 	H 	0.9603	0.3714	0.1297	0.05
Mof_C 	C 	0.8482	0.2444	0.2427	0.109
Mof_C 	C 	0.8139	0.2531	0.301	-0.14
Mof_H 	H 	0.8205	0.2836	0.3399	0.096
Mof_C 	C 	0.7697	0.2171	0.3025	0.07
Mof_H 	H 	0.7463	0.223	0.3424	0.027
Mof_C 	C 	0.76	0.1724	0.2456	-0.144
Mof_C 	C 	0.7943	0.1638	0.1872	0.061
Mof_H 	H 	0.7877	0.1332	0.1484	0.004
Mof_C 	C 	0.8385	0.1998	0.1858	-0.147
Mof_H 	H 	0.8619	0.1938	0.1459	0.079
Mof_C 	C 	0.7152	0.1318	0.2418	0.329
Mof_C 	C 	0.1769	0.4802	0.9136	-0.05
Mof_H 	H 	0.2062	0.4713	0.9463	0.05
Mof_C 	C 	0.1802	0.4724	0.8313	0.109
Mof_C 	C 	0.0982	0.5197	0.8246	-0.011
Mof_H 	H 	0.0699	0.5345	0.7932	0.035
Mof_C 	C 	0.0943	0.5205	0.9008	-0.017
Mof_H 	H 	0.0639	0.5357	0.9226	0.044
Mof_C 	C 	0.1387	0.5523	0.6588	-0.188
Mof_H 	H 	0.1389	0.5904	0.6864	0.109
Mof_C 	C 	0.1388	0.5549	0.5779	0.119
Mof_H 	H 	0.1407	0.5936	0.5517	0.015
Mof_C 	C 	0.2572	0.4108	0.8361	-0.012
Mof_H 	H 	0.2407	0.3733	0.8566	0.042
Mof_H 	H 	0.2727	0.4346	0.8803	0.039
Mof_Zn	Zn	0.6335	0.92747	0.30779	1.219
Mof_O 	O 	0.6341	0.0512	0.4191	-0.509
Mof_O 	O 	0.5655	0.8871	0.2944	-0.468
Mof_O 	O 	0.5346	0.9305	0.1845	-0.479
Mof_O 	O 	0.1846	0.6329	0.3025	-0.468
Mof_O 	O 	0.2063	0.5915	0.1875	-0.508
Mof_O 	O 	0.7182	0.9498	0.7919	-0.194
Mof_O 	O 	0.4132	0.7669	0.3854	-0.179
Mof_C 	C 	0.5298	0.8935	0.2423	0.357
Mof_C 	C 	0.4853	0.8533	0.2411	-0.061
Mof_C 	C 	0.4732	0.8224	0.3087	-0.087
Mof_H 	H 	0.4959	0.8244	0.3533	0.091
Mof_C 	C 	0.428	0.7886	0.311	0.135
Mof_C 	C 	0.3948	0.7856	0.2457	-0.069
Mof_C 	C 	0.4069	0.8165	0.1781	-0.027
Mof_H 	H 	0.3842	0.8145	0.1335	0.041
Mof_C 	C 	0.4521	0.8503	0.1758	-0.026
Mof_H 	H 	0.4603	0.8714	0.1297	0.051
Mof_C 	C 	0.3482	0.7444	0.2427	0.109
Mof_C 	C 	0.3139	0.7531	0.301	-0.139
Mof_H 	H 	0.3205	0.7836	0.3399	0.097
Mof_C 	C 	0.2697	0.7171	0.3025	0.071
Mof_H 	H 	0.2463	0.723	0.3424	0.028
Mof_C 	C 	0.26	0.6724	0.2456	-0.143
Mof_C 	C 	0.2943	0.6638	0.1872	0.062
Mof_H 	H 	0.2877	0.6332	0.1484	0.007
Mof_C 	C 	0.3385	0.6998	0.1858	-0.146
Mof_H 	H 	0.3619	0.6938	0.1459	0.081
Mof_C 	C 	0.2152	0.6318	0.2418	0.33
Mof_C 	C 	0.6769	0.9802	0.9136	-0.18
Mof_H 	H 	0.7062	0.9713	0.9463	0.102
Mof_C 	C 	0.6802	0.9724	0.8313	0.199
Mof_C 	C 	0.5982	0.0197	0.8246	-0.124
Mof_H 	H 	0.5699	0.0345	0.7932	0.065
Mof_C 	C 	0.5943	0.0205	0.9008	-0.111
Mof_H 	H 	0.5639	0.0357	0.9226	0.068
Mof_C 	C 	0.6387	0.0523	0.6588	-0.18
Mof_H 	H 	0.6389	0.0904	0.6864	0.108
Mof_C 	C 	0.6388	0.0549	0.5779	0.115
Mof_H 	H 	0.6407	0.0936	0.5517	0.015
Mof_C 	C 	0.7572	0.9108	0.8361	-0.001
Mof_H 	H 	0.7407	0.8733	0.8566	0.04
Mof_H 	H 	0.7727	0.9346	0.8803	0.042
Mof_Zn	Zn	0.1335	0.57253	0.30779	1.215
Mof_O 	O 	0.1341	0.4488	0.4191	-0.513
Mof_O 	O 	0.0655	0.6129	0.2944	-0.472
Mof_O 	O 	0.0346	0.5695	0.1845	-0.492
Mof_O 	O 	0.6846	0.8671	0.3025	-0.465
Mof_O 	O 	0.7063	0.9085	0.1875	-0.496
Mof_O 	O 	0.2182	0.5502	0.7919	-0.18
Mof_O 	O 	0.9132	0.7331	0.3854	-0.177
Mof_C 	C 	0.0298	0.6065	0.2423	0.357
Mof_C 	C 	0.9853	0.6467	0.2411	-0.064
Mof_C 	C 	0.9732	0.6776	0.3087	-0.086
Mof_H 	H 	0.9959	0.6756	0.3533	0.09
Mof_C 	C 	0.928	0.7114	0.311	0.135
Mof_C 	C 	0.8948	0.7144	0.2457	-0.068
Mof_C 	C 	0.9069	0.6835	0.1781	-0.026
Mof_H 	H 	0.8842	0.6855	0.1335	0.042
Mof_C 	C 	0.9521	0.6497	0.1758	-0.024
Mof_H 	H 	0.9603	0.6286	0.1297	0.05
Mof_C 	C 	0.8482	0.7556	0.2427	0.109
Mof_C 	C 	0.8139	0.7469	0.301	-0.138
Mof_H 	H 	0.8205	0.7164	0.3399	0.096
Mof_C 	C 	0.7697	0.7829	0.3025	0.07
Mof_H 	H 	0.7463	0.777	0.3424	0.028
Mof_C 	C 	0.76	0.8276	0.2456	-0.139
Mof_C 	C 	0.7943	0.8362	0.1872	0.061
Mof_H 	H 	0.7877	0.8668	0.1484	0.01
Mof_C 	C 	0.8385	0.8002	0.1858	-0.144
Mof_H 	H 	0.8619	0.8062	0.1459	0.082
Mof_C 	C 	0.7152	0.8682	0.2418	0.328
Mof_C 	C 	0.1769	0.5198	0.9136	-0.051
Mof_H 	H 	0.2062	0.5287	0.9463	0.05
Mof_C 	C 	0.1802	0.5276	0.8313	0.109
Mof_C 	C 	0.0982	0.4803	0.8246	-0.011
Mof_H 	H 	0.0699	0.4655	0.7932	0.035
Mof_C 	C 	0.0943	0.4795	0.9008	-0.017
Mof_H 	H 	0.0639	0.4643	0.9226	0.043
Mof_C 	C 	0.1387	0.4477	0.6588	-0.188
Mof_H 	H 	0.1389	0.4096	0.6864	0.109
Mof_C 	C 	0.1388	0.4451	0.5779	0.119
Mof_H 	H 	0.1407	0.4064	0.5517	0.014
Mof_C 	C 	0.2572	0.5892	0.8361	-0.012
Mof_H 	H 	0.2407	0.6267	0.8566	0.042
Mof_H 	H 	0.2727	0.5654	0.8803	0.039
Mof_Zn	Zn	0.6335	0.07253	0.30779	1.213
Mof_O 	O 	0.6341	0.9488	0.4191	-0.485
Mof_O 	O 	0.5655	0.1129	0.2944	-0.475
Mof_O 	O 	0.5346	0.0695	0.1845	-0.497
Mof_O 	O 	0.1846	0.3671	0.3025	-0.47
Mof_O 	O 	0.2063	0.4085	0.1875	-0.509
Mof_O 	O 	0.7182	0.0502	0.7919	-0.166
Mof_O 	O 	0.4132	0.2331	0.3854	-0.18
Mof_C 	C 	0.5298	0.1065	0.2423	0.357
Mof_C 	C 	0.4853	0.1467	0.2411	-0.065
Mof_C 	C 	0.4732	0.1776	0.3087	-0.086
Mof_H 	H 	0.4959	0.1756	0.3533	0.088
Mof_C 	C 	0.428	0.2114	0.311	0.134
Mof_C 	C 	0.3948	0.2144	0.2457	-0.069
Mof_C 	C 	0.4069	0.1835	0.1781	-0.025
Mof_H 	H 	0.3842	0.1855	0.1335	0.042
Mof_C 	C 	0.4521	0.1497	0.1758	-0.023
Mof_H 	H 	0.4603	0.1286	0.1297	0.051
Mof_C 	C 	0.3482	0.2556	0.2427	0.109
Mof_C 	C 	0.3139	0.2469	0.301	-0.14
Mof_H 	H 	0.3205	0.2164	0.3399	0.096
Mof_C 	C 	0.2697	0.2829	0.3025	0.07
Mof_H 	H 	0.2463	0.277	0.3424	0.026
Mof_C 	C 	0.26	0.3276	0.2456	-0.143
Mof_C 	C 	0.2943	0.3362	0.1872	0.062
Mof_H 	H 	0.2877	0.3668	0.1484	0.006
Mof_C 	C 	0.3385	0.3002	0.1858	-0.146
Mof_H 	H 	0.3619	0.3062	0.1459	0.08
Mof_C 	C 	0.2152	0.3682	0.2418	0.329
Mof_C 	C 	0.6769	0.0198	0.9136	0.102
Mof_H 	H 	0.7062	0.0287	0.9463	-0.005
Mof_C 	C 	0.6802	0.0276	0.8313	0.03
Mof_C 	C 	0.5982	0.9803	0.8246	0.112
Mof_H 	H 	0.5699	0.9655	0.7932	0.005
Mof_C 	C 	0.5943	0.9795	0.9008	0.101
Mof_H 	H 	0.5639	0.9643	0.9226	0.016
Mof_C 	C 	0.6387	0.9477	0.6588	-0.153
Mof_H 	H 	0.6389	0.9096	0.6864	0.099
Mof_C 	C 	0.6388	0.9451	0.5779	0.139
Mof_H 	H 	0.6407	0.9064	0.5517	0.012
Mof_C 	C 	0.7572	0.0892	0.8361	-0.022
Mof_H 	H 	0.7407	0.1267	0.8566	0.045
Mof_H 	H 	0.7727	0.0654	0.8803	0.037
Mof_Zn	Zn	0.07838	0.5	0.17032	1.223
Mof_Zn	Zn	0.20014	0.5	0.18464	1.195
Mof_O 	O 	0.1364	0.5	0.243	-0.951
Mof_O 	O 	0.0888	0.5	0.0619	-0.523
Mof_O 	O 	0.1716	0.5	0.0715	-0.518
Mof_C 	C 	0.1311	0.5	0.0351	0.447
Mof_C 	C 	0.1327	0.5	0.9468	-0.077
Mof_C 	C 	0.1385	0.5	0.7896	-0.098
Mof_C 	C 	0.1385	0.5	0.7001	0.17
Mof_C 	C 	0.1361	0.5	0.5369	-0.19
Mof_C 	C 	0.1341	0.5	0.4516	0.451
Mof_Zn	Zn	0.57838	0	0.17032	1.218
Mof_Zn	Zn	0.70014	0	0.18464	1.19
Mof_O 	O 	0.6364	-2.60335e-33	0.243	-0.964
Mof_O 	O 	0.5888	-6.50838e-34	0.0619	-0.535
Mof_O 	O 	0.6716	-6.50838e-34	0.0715	-0.531
Mof_C 	C 	0.6311	-3.25419e-34	0.0351	0.459
Mof_C 	C 	0.6327	-1.04134e-32	0.9468	-0.117
Mof_C 	C 	0.6385	-1.04134e-32	0.7896	-0.122
Mof_C 	C 	0.6385	-5.20671e-33	0.7001	0.137
Mof_C 	C 	0.6361	-5.20671e-33	0.5369	-0.209
Mof_C 	C 	0.6341	-2.60335e-33	0.4516	0.421
Mof_Zn	Zn	0.8665	0.42747	0.69221	1.215
Mof_O 	O 	0.8659	0.5512	0.5809	-0.513
Mof_O 	O 	0.9345	0.3871	0.7056	-0.473
Mof_O 	O 	0.9654	0.4305	0.8155	-0.493
Mof_O 	O 	0.3154	0.1329	0.6975	-0.471
Mof_O 	O 	0.2937	0.0915	0.8125	-0.51
Mof_O 	O 	0.7818	0.4498	0.2081	-0.18
Mof_O 	O 	0.0868	0.2669	0.6146	-0.181
Mof_C 	C 	0.9702	0.3935	0.7577	0.357
Mof_C 	C 	0.0147	0.3533	0.7589	-0.065
Mof_C 	C 	0.0268	0.3224	0.6913	-0.087
Mof_H 	H 	0.0041	0.3244	0.6467	0.088
Mof_C 	C 	0.072	0.2886	0.689	0.133
Mof_C 	C 	0.1052	0.2856	0.7543	-0.069
Mof_C 	C 	0.0931	0.3165	0.8219	-0.027
Mof_H 	H 	0.1158	0.3145	0.8665	0.041
Mof_C 	C 	0.0479	0.3503	0.8242	-0.025
Mof_H 	H 	0.0397	0.3714	0.8703	0.05
Mof_C 	C 	0.1518	0.2444	0.7573	0.109
Mof_C 	C 	0.1861	0.2531	0.699	-0.14
Mof_H 	H 	0.1795	0.2836	0.6601	0.096
Mof_C 	C 	0.2303	0.2171	0.6975	0.07
Mof_H 	H 	0.2537	0.223	0.6576	0.027
Mof_C 	C 	0.24	0.1724	0.7544	-0.144
Mof_C 	C 	0.2057	0.1638	0.8128	0.061
Mof_H 	H 	0.2123	0.1332	0.8516	0.004
Mof_C 	C 	0.1615	0.1998	0.8142	-0.147
Mof_H 	H 	0.1381	0.1938	0.8541	0.079
Mof_C 	C 	0.2848	0.1318	0.7582	0.329
Mof_C 	C 	0.8231	0.4802	0.0864	-0.05
Mof_H 	H 	0.7938	0.4713	0.0537	0.05
Mof_C 	C 	0.8198	0.4724	0.1687	0.109
Mof_C 	C 	0.9018	0.5197	0.1754	-0.011
Mof_H 	H 	0.9301	0.5345	0.2068	0.035
Mof_C 	C 	0.9057	0.5205	0.0992	-0.017
Mof_H 	H 	0.9361	0.5357	0.0774	0.044
Mof_C 	C 	0.8613	0.5523	0.3412	-0.188
Mof_H 	H 	0.8611	0.5904	0.3136	0.109
Mof_C 	C 	0.8612	0.5549	0.4221	0.119
Mof_H 	H 	0.8593	0.5936	0.4483	0.015
Mof_C 	C 	0.7428	0.4108	0.1639	-0.012
Mof_H 	H 	0.7593	0.3733	0.1434	0.042
Mof_H 	H 	0.7273	0.4346	0.1197	0.039
Mof_Zn	Zn	0.3665	0.92747	0.69221	1.219
Mof_O 	O 	0.3659	0.0512	0.5809	-0.509
Mof_O 	O 	0.4345	0.8871	0.7056	-0.468
Mof_O 	O 	0.4654	0.9305	0.8155	-0.479
Mof_O 	O 	0.8154	0.6329	0.6975	-0.468
Mof_O 	O 	0.7937	0.5915	0.8125	-0.508
Mof_O 	O 	0.2818	0.9498	0.2081	-0.194
Mof_O 	O 	0.5868	0.7669	0.6146	-0.179
Mof_C 	C 	0.4702	0.8935	0.7577	0.357
Mof_C 	C 	0.5147	0.8533	0.7589	-0.061
Mof_C 	C 	0.5268	0.8224	0.6913	-0.087
Mof_H 	H 	0.5041	0.8244	0.6467	0.091
Mof_C 	C 	0.572	0.7886	0.689	0.135
Mof_C 	C 	0.6052	0.7856	0.7543	-0.069
Mof_C 	C 	0.5931	0.8165	0.8219	-0.027
Mof_H 	H 	0.6158	0.8145	0.8665	0.041
Mof_C 	C 	0.5479	0.8503	0.8242	-0.026
Mof_H 	H 	0.5397	0.8714	0.8703	0.051
Mof_C 	C 	0.6518	0.7444	0.7573	0.109
Mof_C 	C 	0.6861	0.7531	0.699	-0.139
Mof_H 	H 	0.6795	0.7836	0.6601	0.097
Mof_C 	C 	0.7303	0.7171	0.6975	0.071
Mof_H 	H 	0.7537	0.723	0.6576	0.028
Mof_C 	C 	0.74	0.6724	0.7544	-0.143
Mof_C 	C 	0.7057	0.6638	0.8128	0.062
Mof_H 	H 	0.7123	0.6332	0.8516	0.007
Mof_C 	C 	0.6615	0.6998	0.8142	-0.146
Mof_H 	H 	0.6381	0.6938	0.8541	0.081
Mof_C 	C 	0.7848	0.6318	0.7582	0.33
Mof_C 	C 	0.3231	0.9802	0.0864	-0.18
Mof_H 	H 	0.2938	0.9713	0.0537	0.102
Mof_C 	C 	0.3198	0.9724	0.1687	0.199
Mof_C 	C 	0.4018	0.0197	0.1754	-0.124
Mof_H 	H 	0.4301	0.0345	0.2068	0.065
Mof_C 	C 	0.4057	0.0205	0.0992	-0.111
Mof_H 	H 	0.4361	0.0357	0.0774	0.068
Mof_C 	C 	0.3613	0.0523	0.3412	-0.18
Mof_H 	H 	0.3611	0.0904	0.3136	0.108
Mof_C 	C 	0.3612	0.0549	0.4221	0.115
Mof_H 	H 	0.3593	0.0936	0.4483	0.015
Mof_C 	C 	0.2428	0.9108	0.1639	-0.001
Mof_H 	H 	0.2593	0.8733	0.1434	0.04
Mof_H 	H 	0.2273	0.9346	0.1197	0.042
Mof_Zn	Zn	0.8665	0.57253	0.69221	1.215
Mof_O 	O 	0.8659	0.4488	0.5809	-0.513
Mof_O 	O 	0.9345	0.6129	0.7056	-0.472
Mof_O 	O 	0.9654	0.5695	0.8155	-0.492
Mof_O 	O 	0.3154	0.8671	0.6975	-0.465
Mof_O 	O 	0.2937	0.9085	0.8125	-0.496
Mof_O 	O 	0.7818	0.5502	0.2081	-0.18
Mof_O 	O 	0.0868	0.7331	0.6146	-0.177
Mof_C 	C 	0.9702	0.6065	0.7577	0.357
Mof_C 	C 	0.0147	0.6467	0.7589	-0.064
Mof_C 	C 	0.0268	0.6776	0.6913	-0.086
Mof_H 	H 	0.0041	0.6756	0.6467	0.09
Mof_C 	C 	0.072	0.7114	0.689	0.135
Mof_C 	C 	0.1052	0.7144	0.7543	-0.068
Mof_C 	C 	0.0931	0.6835	0.8219	-0.026
Mof_H 	H 	0.1158	0.6855	0.8665	0.042
Mof_C 	C 	0.0479	0.6497	0.8242	-0.024
Mof_H 	H 	0.0397	0.6286	0.8703	0.05
Mof_C 	C 	0.1518	0.7556	0.7573	0.109
Mof_C 	C 	0.1861	0.7469	0.699	-0.138
Mof_H 	H 	0.1795	0.7164	0.6601	0.096
Mof_C 	C 	0.2303	0.7829	0.6975	0.07
Mof_H 	H 	0.2537	0.777	0.6576	0.028
Mof_C 	C 	0.24	0.8276	0.7544	-0.139
Mof_C 	C 	0.2057	0.8362	0.8128	0.061
Mof_H 	H 	0.2123	0.8668	0.8516	0.01
Mof_C 	C 	0.1615	0.8002	0.8142	-0.144
Mof_H 	H 	0.1381	0.8062	0.8541	0.082
Mof_C 	C 	0.2848	0.8682	0.7582	0.328
Mof_C 	C 	0.8231	0.5198	0.0864	-0.051
Mof_H 	H 	0.7938	0.5287	0.0537	0.05
Mof_C 	C 	0.8198	0.5276	0.1687	0.109
Mof_C 	C 	0.9018	0.4803	0.1754	-0.011
Mof_H 	H 	0.9301	0.4655	0.2068	0.035
Mof_C 	C 	0.9057	0.4795	0.0992	-0.017
Mof_H 	H 	0.9361	0.4643	0.0774	0.043
Mof_C 	C 	0.8613	0.4477	0.3412	-0.188
Mof_H 	H 	0.8611	0.4096	0.3136	0.109
Mof_C 	C 	0.8612	0.4451	0.4221	0.119
Mof_H 	H 	0.8593	0.4064	0.4483	0.014
Mof_C 	C 	0.7428	0.5892	0.1639	-0.012
Mof_H 	H 	0.7593	0.6267	0.1434	0.042
Mof_H 	H 	0.7273	0.5654	0.1197	0.039
Mof_Zn	Zn	0.3665	0.07253	0.69221	1.213
Mof_O 	O 	0.3659	0.9488	0.5809	-0.485
Mof_O 	O 	0.4345	0.1129	0.7056	-0.475
Mof_O 	O 	0.4654	0.0695	0.8155	-0.497
Mof_O 	O 	0.8154	0.3671	0.6975	-0.47
Mof_O 	O 	0.7937	0.4085	0.8125	-0.509
Mof_O 	O 	0.2818	0.0502	0.2081	-0.166
Mof_O 	O 	0.5868	0.2331	0.6146	-0.18
Mof_C 	C 	0.4702	0.1065	0.7577	0.357
Mof_C 	C 	0.5147	0.1467	0.7589	-0.065
Mof_C 	C 	0.5268	0.1776	0.6913	-0.086
Mof_H 	H 	0.5041	0.1756	0.6467	0.088
Mof_C 	C 	0.572	0.2114	0.689	0.134
Mof_C 	C 	0.6052	0.2144	0.7543	-0.069
Mof_C 	C 	0.5931	0.1835	0.8219	-0.025
Mof_H 	H 	0.6158	0.1855	0.8665	0.042
Mof_C 	C 	0.5479	0.1497	0.8242	-0.023
Mof_H 	H 	0.5397	0.1286	0.8703	0.051
Mof_C 	C 	0.6518	0.2556	0.7573	0.109
Mof_C 	C 	0.6861	0.2469	0.699	-0.14
Mof_H 	H 	0.6795	0.2164	0.6601	0.096
Mof_C 	C 	0.7303	0.2829	0.6975	0.07
Mof_H 	H 	0.7537	0.277	0.6576	0.026
Mof_C 	C 	0.74	0.3276	0.7544	-0.143
Mof_C 	C 	0.7057	0.3362	0.8128	0.062
Mof_H 	H 	0.7123	0.3668	0.8516	0.006
Mof_C 	C 	0.6615	0.3002	0.8142	-0.146
Mof_H 	H 	0.6381	0.3062	0.8541	0.08
Mof_C 	C 	0.7848	0.3682	0.7582	0.329
Mof_C 	C 	0.3231	0.0198	0.0864	0.102
Mof_H 	H 	0.2938	0.0287	0.0537	-0.005
Mof_C 	C 	0.3198	0.0276	0.1687	0.03
Mof_C 	C 	0.4018	0.9803	0.1754	0.112
Mof_H 	H 	0.4301	0.9655	0.2068	0.005
Mof_C 	C 	0.4057	0.9795	0.0992	0.101
Mof_H 	H 	0.4361	0.9643	0.0774	0.016
Mof_C 	C 	0.3613	0.9477	0.3412	-0.153
Mof_H 	H 	0.3611	0.9096	0.3136	0.099
Mof_C 	C 	0.3612	0.9451	0.4221	0.139
Mof_H 	H 	0.3593	0.9064	0.4483	0.012
Mof_C 	C 	0.2428	0.0892	0.1639	-0.022
Mof_H 	H 	0.2593	0.1267	0.1434	0.045
Mof_H 	H 	0.2273	0.0654	0.1197	0.037
Mof_Zn	Zn	0.92162	0.5	0.82968	1.223
Mof_Zn	Zn	0.79986	0.5	0.81536	1.195
Mof_O 	O 	0.8636	0.5	0.757	-0.951
Mof_O 	O 	0.9112	0.5	0.9381	-0.523
Mof_O 	O 	0.8284	0.5	0.9285	-0.518
Mof_C 	C 	0.8689	0.5	0.9649	0.447
Mof_C 	C 	0.8673	0.5	0.0532	-0.077
Mof_C 	C 	0.8615	0.5	0.2104	-0.098
Mof_C 	C 	0.8615	0.5	0.2999	0.17
Mof_C 	C 	0.8639	0.5	0.4631	-0.19
Mof_C 	C 	0.8659	0.5	0.5484	0.451
Mof_Zn	Zn	0.42162	-5.20671e-33	0.82968	1.218
Mof_Zn	Zn	0.29986	-1.04134e-32	0.81536	1.19
Mof_O 	O 	0.3636	-5.20671e-33	0.757	-0.964
Mof_O 	O 	0.4112	0	0.9381	-0.535
Mof_O 	O 	0.3284	0	0.9285	-0.531
Mof_C 	C 	0.3689	-1.04134e-32	0.9649	0.459
Mof_C 	C 	0.3673	0	0.0532	-0.117
Mof_C 	C 	0.3615	-1.30168e-33	0.2104	-0.122
Mof_C 	C 	0.3615	-2.60335e-33	0.2999	0.137
Mof_C 	C 	0.3639	-5.20671e-33	0.4631	-0.209
Mof_C 	C 	0.3659	0	0.5484	0.421
_end
