data_functionalizedCrystal
_audit_creation_method	'EQeq! by Chris Wilmer'
_symmetry_space_group_name_H-M	'P1'
_symmetry_Int_Tables_number	1
_symmetry_cell_setting	triclinic
loop_
_symmetry_equiv_pos_as_xyz
  x,y,z
_cell_length_a	7.779
_cell_length_b	14.855
_cell_length_c	15.339
_cell_angle_alpha	90
_cell_angle_beta	90
_cell_angle_gamma	98.631
loop_
_atom_site_label
_atom_site_type_symbol
_atom_site_fract_x
_atom_site_fract_y
_atom_site_fract_z
_atom_site_charge
Mof_Ca	Ca	0.54889	0.22053	0.71929	1.264
Mof_Ca	Ca	0.95111	0.77947	0.21929	1.258
Mof_Ca	Ca	0.45111	0.77947	0.28071	1.264
Mof_Ca	Ca	0.04889	0.22053	0.78071	1.258
Mof_H 	H 	0.7725	0.0429	0.9467	0.113
Mof_H 	H 	0.7617	0.139	0.9859	0.108
Mof_H 	H 	0.5387	0.9122	0.9825	0.019
Mof_H 	H 	0.4089	0.9596	0.9272	0.02
Mof_H 	H 	0.3004	0.3789	0.9583	0.112
Mof_H 	H 	0.4617	0.3429	0.9989	0.122
Mof_H 	H 	0.4864	0.5111	0.9087	0.018
Mof_H 	H 	0.6438	0.4755	0.954	0.024
Mof_H 	H 	0.7275	0.9571	0.4467	0.11
Mof_H 	H 	0.7383	0.861	0.4859	0.105
Mof_H 	H 	0.9613	0.0878	0.4825	0.022
Mof_H 	H 	0.0911	0.0404	0.4272	0.021
Mof_H 	H 	0.1996	0.6211	0.4583	0.112
Mof_H 	H 	0.0383	0.6571	0.4989	0.122
Mof_H 	H 	0.0136	0.4889	0.4087	0.019
Mof_H 	H 	0.8562	0.5245	0.454	0.024
Mof_H 	H 	0.2275	0.9571	0.0533	0.113
Mof_H 	H 	0.2383	0.861	0.0141	0.108
Mof_H 	H 	0.4613	0.0878	0.0175	0.019
Mof_H 	H 	0.5911	0.0404	0.0728	0.02
Mof_H 	H 	0.6996	0.6211	0.0417	0.112
Mof_H 	H 	0.5383	0.6571	0.0011	0.122
Mof_H 	H 	0.5136	0.4889	0.0913	0.018
Mof_H 	H 	0.3562	0.5245	0.046	0.024
Mof_H 	H 	0.2725	0.0429	0.5533	0.11
Mof_H 	H 	0.2617	0.139	0.5141	0.105
Mof_H 	H 	0.0387	0.9122	0.5175	0.022
Mof_H 	H 	0.9089	0.9596	0.5728	0.021
Mof_H 	H 	0.8004	0.3789	0.5417	0.112
Mof_H 	H 	0.9617	0.3429	0.5011	0.122
Mof_H 	H 	0.9864	0.5111	0.5913	0.019
Mof_H 	H 	0.1438	0.4755	0.546	0.024
Mof_C 	C 	0.6466	0.12021	0.86813	0.433
Mof_C 	C 	0.6957	0.08792	0.9554	-0.373
Mof_C 	C 	0.546	0.04619	0.01448	-0.001
Mof_C 	C 	0.4541	0.33156	0.86628	0.435
Mof_C 	C 	0.4241	0.37821	0.9513	-0.37
Mof_C 	C 	0.5196	0.47632	0.9578	-0.01
Mof_C 	C 	0.8534	0.87979	0.36813	0.427
Mof_C 	C 	0.8043	0.91208	0.4554	-0.369
Mof_C 	C 	0.954	0.95381	0.51448	-0.005
Mof_C 	C 	0.0459	0.66844	0.36628	0.438
Mof_C 	C 	0.0759	0.62179	0.4513	-0.371
Mof_C 	C 	0.9804	0.52368	0.4578	-0.011
Mof_C 	C 	0.3534	0.87979	0.13187	0.433
Mof_C 	C 	0.3043	0.91208	0.0446	-0.373
Mof_C 	C 	0.454	0.95381	0.98552	-0.001
Mof_C 	C 	0.5459	0.66844	0.13372	0.435
Mof_C 	C 	0.5759	0.62179	0.0487	-0.37
Mof_C 	C 	0.4804	0.52368	0.0422	-0.01
Mof_C 	C 	0.1466	0.12021	0.63187	0.427
Mof_C 	C 	0.1957	0.08792	0.5446	-0.369
Mof_C 	C 	0.046	0.04619	0.48552	-0.005
Mof_C 	C 	0.9541	0.33156	0.63372	0.438
Mof_C 	C 	0.9241	0.37821	0.5487	-0.371
Mof_C 	C 	0.0196	0.47632	0.5422	-0.011
Mof_O 	O 	0.7664	0.15002	0.8153	-0.541
Mof_O 	O 	0.4893	0.11907	0.84772	-0.422
Mof_O 	O 	0.6091	0.3304	0.8418	-0.421
Mof_O 	O 	0.3274	0.29559	0.82138	-0.525
Mof_O 	O 	0.7336	0.84998	0.3153	-0.541
Mof_O 	O 	0.0107	0.88093	0.34772	-0.417
Mof_O 	O 	0.8909	0.6696	0.3418	-0.423
Mof_O 	O 	0.1726	0.70441	0.32138	-0.526
Mof_O 	O 	0.2336	0.84998	0.1847	-0.541
Mof_O 	O 	0.5107	0.88093	0.15228	-0.422
Mof_O 	O 	0.3909	0.6696	0.1582	-0.421
Mof_O 	O 	0.6726	0.70441	0.17862	-0.525
Mof_O 	O 	0.2664	0.15002	0.6847	-0.541
Mof_O 	O 	0.9893	0.11907	0.65228	-0.417
Mof_O 	O 	0.1091	0.3304	0.6582	-0.423
Mof_O 	O 	0.8274	0.29559	0.67862	-0.526
_end
