# CIF file generated by openbabel 3.1.0, see https://openbabel.org
data_I
_chemical_name_common 'image0'
_cell_length_a 9.6859
_cell_length_b 16.914
_cell_length_c 18.412
_cell_angle_alpha 90
_cell_angle_beta 115.16
_cell_angle_gamma 90
_space_group_name_H-M_alt 'P 1'
_space_group_name_Hall 'P 1'
loop_
    _symmetry_equiv_pos_as_xyz
    x,y,z
loop_
    _atom_site_label
    _atom_site_type_symbol
    _atom_site_fract_x
    _atom_site_fract_y
    _atom_site_fract_z
    _atom_site_occupancy
    Co1      Co       0.57640    0.29222    0.70733    1.000
    O1       O        0.82830    0.34830    0.69900    1.000
    O2       O        0.62620    0.28600    0.61330    1.000
    O3       O        0.54340    0.24480    0.33340    1.000
    O4       O        0.72210    0.27780    0.29500    1.000
    O5       O        0.12060    0.42100    0.54270    1.000
    N1       N        0.54960    0.40400    0.73840    1.000
    N2       N        0.46080    0.49840    0.78830    1.000
    N3       N        0.36340    0.24690    0.64640    1.000
    N4       N        0.16260    0.19700    0.54720    1.000
    C1       C        0.75190    0.32190    0.63060    1.000
    C2       C        0.80320    0.33220    0.56520    1.000
    C3       C        0.71620    0.30240    0.48920    1.000
    H1       H        0.62610    0.27560    0.47910    1.000
    C4       C        0.76240    0.31230    0.42820    1.000
    C5       C        0.89800    0.35270    0.44340    1.000
    H2       H        0.92950    0.35990    0.40270    1.000
    C6       C        0.98510    0.38190    0.51990    1.000
    C7       C        0.93670    0.37220    0.58050    1.000
    H3       H        0.99450    0.39260    0.63130    1.000
    C8       C        0.66860    0.27640    0.34730    1.000
    C9       C        0.18670    0.42730    0.48620    1.000
    H4       H        0.12170    0.45860    0.44020    1.000
    H5       H        0.19950    0.37530    0.46770    1.000
    C10      C        0.33890    0.46690    0.52980    1.000
    H6       H        0.40110    0.43510    0.57610    1.000
    H7       H        0.32360    0.51790    0.54920    1.000
    C11      C        0.42390    0.47860    0.47760    1.000
    H8       H        0.36060    0.50890    0.43040    1.000
    H9       H        0.44280    0.42740    0.45970    1.000
    C12      C        0.25040    0.23320    0.67150    1.000
    H10      H        0.25770    0.24400    0.72260    1.000
    C13      C        0.30500    0.22440    0.57030    1.000
    H11      H        0.35580    0.22720    0.53730    1.000
    C14      C        0.12820    0.20220    0.61120    1.000
    H12      H        0.03730    0.18710    0.61280    1.000
    C15      C        0.06650    0.16030    0.46950    1.000
    H13      H        0.11960    0.16080    0.43520    1.000
    H14      H        0.97270    0.19020    0.44310    1.000
    C16      C        0.03040    0.07700    0.48260    1.000
    C17      C        0.14040    0.01900    0.50450    1.000
    H15      H        0.23680    0.03120    0.50830    1.000
    C18      C        0.88970    0.05660    0.47900    1.000
    H16      H        0.81370    0.09490    0.46510    1.000
    C19      C        0.44000    0.42570    0.75830    1.000
    H17      H        0.35750    0.39380    0.75210    1.000
    C20      C        0.64200    0.46830    0.75530    1.000
    H18      H        0.72910    0.47160    0.74620    1.000
    C21      C        0.59040    0.52610    0.78690    1.000
    H19      H        0.63490    0.57540    0.80430    1.000
    C22      C        0.37440    0.53470    0.82840    1.000
    H20      H        0.27000    0.51580    0.80350    1.000
    H21      H        0.37240    0.59160    0.82100    1.000
    C23      C        0.44170    0.51650    0.91760    1.000
    C24      C        0.48830    0.44080    0.94660    1.000
    H22      H        0.48030    0.40050    0.91070    1.000
    C25      C        0.45390    0.57610    0.97270    1.000
    H23      H        0.42280    0.62720    0.95470    1.000
    Co2      Co       0.42360    0.79222    0.79267    1.000
    O6       O        0.17170    0.84830    0.80100    1.000
    O7       O        0.37380    0.78600    0.88670    1.000
    O8       O        0.45660    0.74480    0.16660    1.000
    O9       O        0.27790    0.77780    0.20500    1.000
    O10      O        0.87940    0.92100    0.95730    1.000
    N5       N        0.45040    0.90400    0.76160    1.000
    N6       N        0.53920    0.99840    0.71170    1.000
    N7       N        0.63660    0.74690    0.85360    1.000
    N8       N        0.83740    0.69700    0.95280    1.000
    C26      C        0.24810    0.82190    0.86940    1.000
    C27      C        0.19680    0.83220    0.93480    1.000
    C28      C        0.28380    0.80240    0.01080    1.000
    H24      H        0.37390    0.77560    0.02090    1.000
    C29      C        0.23760    0.81230    0.07180    1.000
    C30      C        0.10200    0.85270    0.05660    1.000
    H25      H        0.07050    0.85990    0.09730    1.000
    C31      C        0.01490    0.88190    0.98010    1.000
    C32      C        0.06330    0.87220    0.91950    1.000
    H26      H        0.00550    0.89260    0.86870    1.000
    C33      C        0.33140    0.77640    0.15270    1.000
    C34      C        0.81330    0.92730    0.01380    1.000
    H27      H        0.87830    0.95860    0.05980    1.000
    H28      H        0.80050    0.87530    0.03230    1.000
    C35      C        0.66110    0.96690    0.97020    1.000
    H29      H        0.59890    0.93510    0.92390    1.000
    H30      H        0.67640    0.01790    0.95080    1.000
    C36      C        0.57610    0.97860    0.02240    1.000
    H31      H        0.63940    0.00890    0.06960    1.000
    H32      H        0.55720    0.92740    0.04030    1.000
    C37      C        0.74960    0.73320    0.82850    1.000
    H33      H        0.74230    0.74400    0.77740    1.000
    C38      C        0.69500    0.72440    0.92970    1.000
    H34      H        0.64420    0.72720    0.96270    1.000
    C39      C        0.87180    0.70220    0.88880    1.000
    H35      H        0.96270    0.68710    0.88720    1.000
    C40      C        0.93350    0.66030    0.03050    1.000
    H36      H        0.88040    0.66080    0.06480    1.000
    H37      H        0.02730    0.69020    0.05690    1.000
    C41      C        0.96960    0.57700    0.01740    1.000
    C42      C        0.85960    0.51900    0.99550    1.000
    H38      H        0.76320    0.53120    0.99170    1.000
    C43      C        0.11030    0.55660    0.02100    1.000
    H39      H        0.18630    0.59490    0.03490    1.000
    C44      C        0.56000    0.92570    0.74170    1.000
    H40      H        0.64250    0.89380    0.74790    1.000
    C45      C        0.35800    0.96830    0.74470    1.000
    H41      H        0.27090    0.97160    0.75380    1.000
    C46      C        0.40960    0.02610    0.71310    1.000
    H42      H        0.36510    0.07540    0.69570    1.000
    C47      C        0.62560    0.03470    0.67160    1.000
    H43      H        0.73000    0.01580    0.69650    1.000
    H44      H        0.62760    0.09160    0.67900    1.000
    C48      C        0.55830    0.01650    0.58240    1.000
    C49      C        0.51170    0.94080    0.55340    1.000
    H45      H        0.51970    0.90050    0.58930    1.000
    C50      C        0.54610    0.07610    0.52730    1.000
    H46      H        0.57720    0.12720    0.54530    1.000
    Co3      Co       0.42360    0.70778    0.29267    1.000
    O11      O        0.17170    0.65170    0.30100    1.000
    O12      O        0.37380    0.71400    0.38670    1.000
    O13      O        0.45660    0.75520    0.66660    1.000
    O14      O        0.27790    0.72220    0.70500    1.000
    O15      O        0.87940    0.57900    0.45730    1.000
    N9       N        0.45040    0.59600    0.26160    1.000
    N10      N        0.53920    0.50160    0.21170    1.000
    N11      N        0.63660    0.75310    0.35360    1.000
    N12      N        0.83740    0.80300    0.45280    1.000
    C51      C        0.24810    0.67810    0.36940    1.000
    C52      C        0.19680    0.66780    0.43480    1.000
    C53      C        0.28380    0.69760    0.51080    1.000
    H47      H        0.37390    0.72440    0.52090    1.000
    C54      C        0.23760    0.68770    0.57180    1.000
    C55      C        0.10200    0.64730    0.55660    1.000
    H48      H        0.07050    0.64010    0.59730    1.000
    C56      C        0.01490    0.61810    0.48010    1.000
    C57      C        0.06330    0.62780    0.41950    1.000
    H49      H        0.00550    0.60740    0.36870    1.000
    C58      C        0.33140    0.72360    0.65270    1.000
    C59      C        0.81330    0.57270    0.51380    1.000
    H50      H        0.87830    0.54140    0.55980    1.000
    H51      H        0.80050    0.62470    0.53230    1.000
    C60      C        0.66110    0.53310    0.47020    1.000
    H52      H        0.59890    0.56490    0.42390    1.000
    H53      H        0.67640    0.48210    0.45080    1.000
    C61      C        0.57610    0.52140    0.52240    1.000
    H54      H        0.63940    0.49110    0.56960    1.000
    H55      H        0.55720    0.57260    0.54030    1.000
    C62      C        0.74960    0.76680    0.32850    1.000
    H56      H        0.74230    0.75600    0.27740    1.000
    C63      C        0.69500    0.77560    0.42970    1.000
    H57      H        0.64420    0.77280    0.46270    1.000
    C64      C        0.87180    0.79780    0.38880    1.000
    H58      H        0.96270    0.81290    0.38720    1.000
    C65      C        0.93350    0.83970    0.53050    1.000
    H59      H        0.88040    0.83920    0.56480    1.000
    H60      H        0.02730    0.80980    0.55690    1.000
    C66      C        0.96960    0.92300    0.51740    1.000
    C67      C        0.85960    0.98100    0.49550    1.000
    H61      H        0.76320    0.96880    0.49170    1.000
    C68      C        0.11030    0.94340    0.52100    1.000
    H62      H        0.18630    0.90510    0.53490    1.000
    C69      C        0.56000    0.57430    0.24170    1.000
    H63      H        0.64250    0.60620    0.24790    1.000
    C70      C        0.35800    0.53170    0.24470    1.000
    H64      H        0.27090    0.52840    0.25380    1.000
    C71      C        0.40960    0.47390    0.21310    1.000
    H65      H        0.36510    0.42460    0.19570    1.000
    C72      C        0.62560    0.46530    0.17160    1.000
    H66      H        0.73000    0.48420    0.19650    1.000
    H67      H        0.62760    0.40840    0.17900    1.000
    C73      C        0.55830    0.48350    0.08240    1.000
    C74      C        0.51170    0.55920    0.05340    1.000
    H68      H        0.51970    0.59950    0.08930    1.000
    C75      C        0.54610    0.42390    0.02730    1.000
    H69      H        0.57720    0.37280    0.04530    1.000
    Co4      Co       0.57640    0.20778    0.20733    1.000
    O16      O        0.82830    0.15170    0.19900    1.000
    O17      O        0.62620    0.21400    0.11330    1.000
    O18      O        0.54340    0.25520    0.83340    1.000
    O19      O        0.72210    0.22220    0.79500    1.000
    O20      O        0.12060    0.07900    0.04270    1.000
    N13      N        0.54960    0.09600    0.23840    1.000
    N14      N        0.46080    0.00160    0.28830    1.000
    N15      N        0.36340    0.25310    0.14640    1.000
    N16      N        0.16260    0.30300    0.04720    1.000
    C76      C        0.75190    0.17810    0.13060    1.000
    C77      C        0.80320    0.16780    0.06520    1.000
    C78      C        0.71620    0.19760    0.98920    1.000
    H70      H        0.62610    0.22440    0.97910    1.000
    C79      C        0.76240    0.18770    0.92820    1.000
    C80      C        0.89800    0.14730    0.94340    1.000
    H71      H        0.92950    0.14010    0.90270    1.000
    C81      C        0.98510    0.11810    0.01990    1.000
    C82      C        0.93670    0.12780    0.08050    1.000
    H72      H        0.99450    0.10740    0.13130    1.000
    C83      C        0.66860    0.22360    0.84730    1.000
    C84      C        0.18670    0.07270    0.98620    1.000
    H73      H        0.12170    0.04140    0.94020    1.000
    H74      H        0.19950    0.12470    0.96770    1.000
    C85      C        0.33890    0.03310    0.02980    1.000
    H75      H        0.40110    0.06490    0.07610    1.000
    H76      H        0.32360    0.98210    0.04920    1.000
    C86      C        0.42390    0.02140    0.97760    1.000
    H77      H        0.36060    0.99110    0.93040    1.000
    H78      H        0.44280    0.07260    0.95970    1.000
    C87      C        0.25040    0.26680    0.17150    1.000
    H79      H        0.25770    0.25600    0.22260    1.000
    C88      C        0.30500    0.27560    0.07030    1.000
    H80      H        0.35580    0.27280    0.03730    1.000
    C89      C        0.12820    0.29780    0.11120    1.000
    H81      H        0.03730    0.31290    0.11280    1.000
    C90      C        0.06650    0.33970    0.96950    1.000
    H82      H        0.11960    0.33920    0.93520    1.000
    H83      H        0.97270    0.30980    0.94310    1.000
    C91      C        0.03040    0.42300    0.98260    1.000
    C92      C        0.14040    0.48100    0.00450    1.000
    H84      H        0.23680    0.46880    0.00830    1.000
    C93      C        0.88970    0.44340    0.97900    1.000
    H85      H        0.81370    0.40510    0.96510    1.000
    C94      C        0.44000    0.07430    0.25830    1.000
    H86      H        0.35750    0.10620    0.25210    1.000
    C95      C        0.64200    0.03170    0.25530    1.000
    H87      H        0.72910    0.02840    0.24620    1.000
    C96      C        0.59040    0.97390    0.28690    1.000
    H88      H        0.63490    0.92460    0.30430    1.000
    C97      C        0.37440    0.96530    0.32840    1.000
    H89      H        0.27000    0.98420    0.30350    1.000
    H90      H        0.37240    0.90840    0.32100    1.000
    C98      C        0.44170    0.98350    0.41760    1.000
    C99      C        0.48830    0.05920    0.44660    1.000
    H91      H        0.48030    0.09950    0.41070    1.000
    C100     C        0.45390    0.92390    0.47270    1.000
    H92      H        0.42280    0.87280    0.45470    1.000
