# CIF file generated by openbabel 3.1.0, see https://openbabel.org
data_I
_chemical_name_common 'image0'
_cell_length_a 18.31
_cell_length_b 18.3527
_cell_length_c 20.2954
_cell_angle_alpha 90
_cell_angle_beta 90
_cell_angle_gamma 90
_space_group_name_H-M_alt 'P 1'
_space_group_name_Hall 'P 1'
loop_
    _symmetry_equiv_pos_as_xyz
    x,y,z
loop_
    _atom_site_label
    _atom_site_type_symbol
    _atom_site_fract_x
    _atom_site_fract_y
    _atom_site_fract_z
    _atom_site_occupancy
    Ag1      Ag       0.15932    0.85647    0.65114    1.000
    Si1      Si       0.53967    0.83228    0.62889    1.000
    Si2      Si       0.03560    0.66895    0.92963    1.000
    N1       N        0.28370    0.85290    0.63790    1.000
    N2       N        0.61090    0.72800    0.42840    1.000
    N3       N        0.12260    0.79590    0.74530    1.000
    N4       N        0.90440    0.46210    0.86280    1.000
    C1       C        0.32620    0.91310    0.63070    1.000
    H1       H        0.30360    0.95960    0.62830    1.000
    C2       C        0.40100    0.90870    0.62700    1.000
    H2       H        0.42840    0.95230    0.62140    1.000
    C3       C        0.43750    0.84370    0.63110    1.000
    C4       C        0.39250    0.78220    0.63680    1.000
    H3       H        0.41380    0.73510    0.63850    1.000
    C5       C        0.31780    0.78930    0.64000    1.000
    H4       H        0.28920    0.74640    0.64400    1.000
    C6       C        0.54170    0.72920    0.44660    1.000
    H5       H        0.50700    0.70600    0.41890    1.000
    C7       C        0.51620    0.76270    0.50470    1.000
    H6       H        0.46550    0.76240    0.51490    1.000
    C8       C        0.56500    0.79580    0.54640    1.000
    C9       C        0.63730    0.79580    0.52480    1.000
    H7       H        0.67350    0.81950    0.55050    1.000
    C10      C        0.65690    0.76260    0.46780    1.000
    H8       H        0.70690    0.76420    0.45540    1.000
    C11      C        0.57300    0.77340    0.69750    1.000
    H9       H        0.53180    0.74930    0.72030    1.000
    H10      H        0.60700    0.73570    0.68100    1.000
    C12      C        0.61130    0.82530    0.74240    1.000
    H11      H        0.57670    0.84100    0.77710    1.000
    H12      H        0.65200    0.79930    0.76430    1.000
    C13      C        0.63980    0.88830    0.71080    1.000
    H13      H        0.68900    0.87700    0.69350    1.000
    H14      H        0.64510    0.92760    0.74380    1.000
    C14      C        0.59190    0.91560    0.65430    1.000
    H15      H        0.62210    0.93430    0.61750    1.000
    H16      H        0.55850    0.95460    0.66930    1.000
    C15      C        0.06040    0.75780    0.74320    1.000
    H17      H        0.03370    0.75690    0.70310    1.000
    C16      C        0.03320    0.71990    0.79620    1.000
    H18      H        0.98880    0.69350    0.79180    1.000
    C17      C        0.06970    0.71980    0.85600    1.000
    C18      C        0.13290    0.76120    0.85850    1.000
    H19      H        0.16020    0.76440    0.89820    1.000
    C19      C        0.15600    0.79770    0.80260    1.000
    H20      H        0.19910    0.82630    0.80590    1.000
    C20      C        0.87250    0.52680    0.86960    1.000
    H21      H        0.82150    0.53040    0.86160    1.000
    C21      C        0.90940    0.58840    0.88770    1.000
    H22      H        0.88360    0.63310    0.89150    1.000
    C22      C        0.98420    0.58680    0.90050    1.000
    C23      C        0.01530    0.52080    0.89280    1.000
    H23      H        0.06630    0.51570    0.90010    1.000
    C24      C        0.97530    0.46020    0.87470    1.000
    H24      H        0.00000    0.41490    0.87060    1.000
    C25      C        0.96580    0.72890    0.98130    1.000
    H25      H        0.96000    0.77830    0.96230    1.000
    H26      H        0.91740    0.70520    0.98480    1.000
    C26      C        0.00250    0.73100    0.04320    1.000
    H27      H        0.96570    0.73700    0.07850    1.000
    H28      H        0.03490    0.77420    0.04420    1.000
    C27      C        0.04680    0.66500    0.05740    1.000
    H29      H        0.01420    0.62280    0.06480    1.000
    H30      H        0.07600    0.67280    0.09780    1.000
    C28      C        0.10060    0.64860    0.99580    1.000
    H31      H        0.11720    0.59730    0.99480    1.000
    H32      H        0.14340    0.68160    0.99500    1.000
    Ag2      Ag       0.34068    0.14353    0.15114    1.000
    Si3      Si       0.96033    0.16772    0.12889    1.000
    Si4      Si       0.46440    0.33105    0.42963    1.000
    N5       N        0.21630    0.14710    0.13790    1.000
    N6       N        0.88910    0.27200    0.92840    1.000
    N7       N        0.37740    0.20410    0.24530    1.000
    N8       N        0.59560    0.53790    0.36280    1.000
    C29      C        0.17380    0.08690    0.13070    1.000
    H33      H        0.19640    0.04040    0.12830    1.000
    C30      C        0.09900    0.09130    0.12700    1.000
    H34      H        0.07160    0.04770    0.12140    1.000
    C31      C        0.06250    0.15630    0.13110    1.000
    C32      C        0.10750    0.21780    0.13680    1.000
    H35      H        0.08620    0.26490    0.13850    1.000
    C33      C        0.18220    0.21070    0.14000    1.000
    H36      H        0.21080    0.25360    0.14400    1.000
    C34      C        0.95830    0.27080    0.94660    1.000
    H37      H        0.99300    0.29400    0.91890    1.000
    C35      C        0.98380    0.23730    0.00470    1.000
    H38      H        0.03450    0.23760    0.01490    1.000
    C36      C        0.93500    0.20420    0.04640    1.000
    C37      C        0.86270    0.20420    0.02480    1.000
    H39      H        0.82650    0.18050    0.05050    1.000
    C38      C        0.84310    0.23740    0.96780    1.000
    H40      H        0.79310    0.23580    0.95540    1.000
    C39      C        0.92700    0.22660    0.19750    1.000
    H41      H        0.96820    0.25070    0.22030    1.000
    H42      H        0.89300    0.26430    0.18100    1.000
    C40      C        0.88870    0.17470    0.24240    1.000
    H43      H        0.92330    0.15900    0.27710    1.000
    H44      H        0.84800    0.20070    0.26430    1.000
    C41      C        0.86020    0.11170    0.21080    1.000
    H45      H        0.81100    0.12300    0.19350    1.000
    H46      H        0.85490    0.07240    0.24380    1.000
    C42      C        0.90810    0.08440    0.15430    1.000
    H47      H        0.87790    0.06570    0.11750    1.000
    H48      H        0.94150    0.04540    0.16930    1.000
    C43      C        0.43960    0.24220    0.24320    1.000
    H49      H        0.46630    0.24310    0.20310    1.000
    C44      C        0.46680    0.28010    0.29620    1.000
    H50      H        0.51120    0.30650    0.29180    1.000
    C45      C        0.43030    0.28020    0.35600    1.000
    C46      C        0.36710    0.23880    0.35850    1.000
    H51      H        0.33980    0.23560    0.39820    1.000
    C47      C        0.34400    0.20230    0.30260    1.000
    H52      H        0.30090    0.17370    0.30590    1.000
    C48      C        0.62750    0.47320    0.36960    1.000
    H53      H        0.67850    0.46960    0.36160    1.000
    C49      C        0.59060    0.41160    0.38770    1.000
    H54      H        0.61640    0.36690    0.39150    1.000
    C50      C        0.51580    0.41320    0.40050    1.000
    C51      C        0.48470    0.47920    0.39280    1.000
    H55      H        0.43370    0.48430    0.40010    1.000
    C52      C        0.52470    0.53980    0.37470    1.000
    H56      H        0.50000    0.58510    0.37060    1.000
    C53      C        0.53420    0.27110    0.48130    1.000
    H57      H        0.54000    0.22170    0.46230    1.000
    H58      H        0.58260    0.29480    0.48480    1.000
    C54      C        0.49750    0.26900    0.54320    1.000
    H59      H        0.53430    0.26300    0.57850    1.000
    H60      H        0.46510    0.22580    0.54420    1.000
    C55      C        0.45320    0.33500    0.55740    1.000
    H61      H        0.48580    0.37720    0.56480    1.000
    H62      H        0.42400    0.32720    0.59780    1.000
    C56      C        0.39940    0.35140    0.49580    1.000
    H63      H        0.38280    0.40270    0.49480    1.000
    H64      H        0.35660    0.31840    0.49500    1.000
    Ag3      Ag       0.84068    0.35647    0.84886    1.000
    Si5      Si       0.46033    0.33228    0.87111    1.000
    Si6      Si       0.96440    0.16895    0.57037    1.000
    N9       N        0.71630    0.35290    0.86210    1.000
    N10      N        0.38910    0.22800    0.07160    1.000
    N11      N        0.87740    0.29590    0.75470    1.000
    N12      N        0.09560    0.96210    0.63720    1.000
    C57      C        0.67380    0.41310    0.86930    1.000
    H65      H        0.69640    0.45960    0.87170    1.000
    C58      C        0.59900    0.40870    0.87300    1.000
    H66      H        0.57160    0.45230    0.87860    1.000
    C59      C        0.56250    0.34370    0.86890    1.000
    C60      C        0.60750    0.28220    0.86320    1.000
    H67      H        0.58620    0.23510    0.86150    1.000
    C61      C        0.68220    0.28930    0.86000    1.000
    H68      H        0.71080    0.24640    0.85600    1.000
    C62      C        0.45830    0.22920    0.05340    1.000
    H69      H        0.49300    0.20600    0.08110    1.000
    C63      C        0.48380    0.26270    0.99530    1.000
    H70      H        0.53450    0.26240    0.98510    1.000
    C64      C        0.43500    0.29580    0.95360    1.000
    C65      C        0.36270    0.29580    0.97520    1.000
    H71      H        0.32650    0.31950    0.94950    1.000
    C66      C        0.34310    0.26260    0.03220    1.000
    H72      H        0.29310    0.26420    0.04460    1.000
    C67      C        0.42700    0.27340    0.80250    1.000
    H73      H        0.46820    0.24930    0.77970    1.000
    H74      H        0.39300    0.23570    0.81900    1.000
    C68      C        0.38870    0.32530    0.75760    1.000
    H75      H        0.42330    0.34100    0.72290    1.000
    H76      H        0.34800    0.29930    0.73570    1.000
    C69      C        0.36020    0.38830    0.78920    1.000
    H77      H        0.31100    0.37700    0.80650    1.000
    H78      H        0.35490    0.42760    0.75620    1.000
    C70      C        0.40810    0.41560    0.84570    1.000
    H79      H        0.37790    0.43430    0.88250    1.000
    H80      H        0.44150    0.45460    0.83070    1.000
    C71      C        0.93960    0.25780    0.75680    1.000
    H81      H        0.96630    0.25690    0.79690    1.000
    C72      C        0.96680    0.21990    0.70380    1.000
    H82      H        0.01120    0.19350    0.70820    1.000
    C73      C        0.93030    0.21980    0.64400    1.000
    C74      C        0.86710    0.26120    0.64150    1.000
    H83      H        0.83980    0.26440    0.60180    1.000
    C75      C        0.84400    0.29770    0.69740    1.000
    H84      H        0.80090    0.32630    0.69410    1.000
    C76      C        0.12750    0.02680    0.63040    1.000
    H85      H        0.17850    0.03040    0.63840    1.000
    C77      C        0.09060    0.08840    0.61230    1.000
    H86      H        0.11640    0.13310    0.60850    1.000
    C78      C        0.01580    0.08680    0.59950    1.000
    C79      C        0.98470    0.02080    0.60720    1.000
    H87      H        0.93370    0.01570    0.59990    1.000
    C80      C        0.02470    0.96020    0.62530    1.000
    H88      H        0.00000    0.91490    0.62940    1.000
    C81      C        0.03420    0.22890    0.51870    1.000
    H89      H        0.04000    0.27830    0.53770    1.000
    H90      H        0.08260    0.20520    0.51520    1.000
    C82      C        0.99750    0.23100    0.45680    1.000
    H91      H        0.03430    0.23700    0.42150    1.000
    H92      H        0.96510    0.27420    0.45580    1.000
    C83      C        0.95320    0.16500    0.44260    1.000
    H93      H        0.98580    0.12280    0.43520    1.000
    H94      H        0.92400    0.17280    0.40220    1.000
    C84      C        0.89940    0.14860    0.50420    1.000
    H95      H        0.88280    0.09730    0.50520    1.000
    H96      H        0.85660    0.18160    0.50500    1.000
    Ag4      Ag       0.65932    0.64353    0.34886    1.000
    Si7      Si       0.03967    0.66772    0.37111    1.000
    Si8      Si       0.53560    0.83105    0.07037    1.000
    N13      N        0.78370    0.64710    0.36210    1.000
    N14      N        0.11090    0.77200    0.57160    1.000
    N15      N        0.62260    0.70410    0.25470    1.000
    N16      N        0.40440    0.03790    0.13720    1.000
    C85      C        0.82620    0.58690    0.36930    1.000
    H97      H        0.80360    0.54040    0.37170    1.000
    C86      C        0.90100    0.59130    0.37300    1.000
    H98      H        0.92840    0.54770    0.37860    1.000
    C87      C        0.93750    0.65630    0.36890    1.000
    C88      C        0.89250    0.71780    0.36320    1.000
    H99      H        0.91380    0.76490    0.36150    1.000
    C89      C        0.81780    0.71070    0.36000    1.000
    H100     H        0.78920    0.75360    0.35600    1.000
    C90      C        0.04170    0.77080    0.55340    1.000
    H101     H        0.00700    0.79400    0.58110    1.000
    C91      C        0.01620    0.73730    0.49530    1.000
    H102     H        0.96550    0.73760    0.48510    1.000
    C92      C        0.06500    0.70420    0.45360    1.000
    C93      C        0.13730    0.70420    0.47520    1.000
    H103     H        0.17350    0.68050    0.44950    1.000
    C94      C        0.15690    0.73740    0.53220    1.000
    H104     H        0.20690    0.73580    0.54460    1.000
    C95      C        0.07300    0.72660    0.30250    1.000
    H105     H        0.03180    0.75070    0.27970    1.000
    H106     H        0.10700    0.76430    0.31900    1.000
    C96      C        0.11130    0.67470    0.25760    1.000
    H107     H        0.07670    0.65900    0.22290    1.000
    H108     H        0.15200    0.70070    0.23570    1.000
    C97      C        0.13980    0.61170    0.28920    1.000
    H109     H        0.18900    0.62300    0.30650    1.000
    H110     H        0.14510    0.57240    0.25620    1.000
    C98      C        0.09190    0.58440    0.34570    1.000
    H111     H        0.12210    0.56570    0.38250    1.000
    H112     H        0.05850    0.54540    0.33070    1.000
    C99      C        0.56040    0.74220    0.25680    1.000
    H113     H        0.53370    0.74310    0.29690    1.000
    C100     C        0.53320    0.78010    0.20380    1.000
    H114     H        0.48880    0.80650    0.20820    1.000
    C101     C        0.56970    0.78020    0.14400    1.000
    C102     C        0.63290    0.73880    0.14150    1.000
    H115     H        0.66020    0.73560    0.10180    1.000
    C103     C        0.65600    0.70230    0.19740    1.000
    H116     H        0.69910    0.67370    0.19410    1.000
    C104     C        0.37250    0.97320    0.13040    1.000
    H117     H        0.32150    0.96960    0.13840    1.000
    C105     C        0.40940    0.91160    0.11230    1.000
    H118     H        0.38360    0.86690    0.10850    1.000
    C106     C        0.48420    0.91320    0.09950    1.000
    C107     C        0.51530    0.97920    0.10720    1.000
    H119     H        0.56630    0.98430    0.09990    1.000
    C108     C        0.47530    0.03980    0.12530    1.000
    H120     H        0.50000    0.08510    0.12940    1.000
    C109     C        0.46580    0.77110    0.01870    1.000
    H121     H        0.46000    0.72170    0.03770    1.000
    H122     H        0.41740    0.79480    0.01520    1.000
    C110     C        0.50250    0.76900    0.95680    1.000
    H123     H        0.46570    0.76300    0.92150    1.000
    H124     H        0.53490    0.72580    0.95580    1.000
    C111     C        0.54680    0.83500    0.94260    1.000
    H125     H        0.51420    0.87720    0.93520    1.000
    H126     H        0.57600    0.82720    0.90220    1.000
    C112     C        0.60060    0.85140    0.00420    1.000
    H127     H        0.61720    0.90270    0.00520    1.000
    H128     H        0.64340    0.81840    0.00500    1.000
    Ag5      Ag       0.33853    0.62509    0.84612    1.000
    Si9      Si       0.37575    0.00795    0.86529    1.000
    Si10     Si       0.04669    0.50959    0.64992    1.000
    N17      N        0.34760    0.75230    0.85330    1.000
    N18      N        0.56530    0.09660    0.73050    1.000
    N19      N        0.23930    0.58430    0.78770    1.000
    N20      N        0.13060    0.41830    0.44740    1.000
    C113     C        0.32050    0.79270    0.90350    1.000
    H129     H        0.29530    0.76800    0.93780    1.000
    C114     C        0.32700    0.86630    0.90830    1.000
    H130     H        0.30520    0.89110    0.94430    1.000
    C115     C        0.36600    0.90630    0.86010    1.000
    C116     C        0.39500    0.86330    0.80860    1.000
    H131     H        0.42220    0.88590    0.77440    1.000
    C117     C        0.38440    0.78900    0.80760    1.000
    H132     H        0.40460    0.76230    0.77190    1.000
    C118     C        0.49450    0.10070    0.71270    1.000
    H133     H        0.48310    0.12340    0.67200    1.000
    C119     C        0.43780    0.07400    0.75000    1.000
    H134     H        0.38900    0.07910    0.73480    1.000
    C120     C        0.45110    0.03990    0.80930    1.000
    C121     C        0.52450    0.03580    0.82830    1.000
    H135     H        0.53770    0.01300    0.86860    1.000
    C122     C        0.57700    0.06490    0.78820    1.000
    H136     H        0.62610    0.06220    0.80300    1.000
    C123     C        0.28610    0.05480    0.85020    1.000
    H137     H        0.29020    0.09100    0.81420    1.000
    H138     H        0.24740    0.01930    0.83910    1.000
    C124     C        0.27130    0.09120    0.91550    1.000
    H139     H        0.26860    0.14440    0.90730    1.000
    H140     H        0.22210    0.07560    0.93010    1.000
    C125     C        0.31720    0.08080    0.96590    1.000
    H141     H        0.29000    0.05530    0.00130    1.000
    H142     H        0.33110    0.12920    0.98340    1.000
    C126     C        0.38650    0.03860    0.95300    1.000
    H143     H        0.39080    0.99630    0.98310    1.000
    H144     H        0.43010    0.07000    0.95820    1.000
    C127     C        0.20330    0.52190    0.79930    1.000
    H145     H        0.21680    0.49350    0.83650    1.000
    C128     C        0.14750    0.49740    0.75930    1.000
    H146     H        0.12410    0.45260    0.76950    1.000
    C129     C        0.12470    0.53660    0.70430    1.000
    C130     C        0.16260    0.60260    0.69400    1.000
    H147     H        0.14970    0.63330    0.65810    1.000
    C131     C        0.21860    0.62280    0.73610    1.000
    H148     H        0.24360    0.66710    0.72730    1.000
    C132     C        0.06030    0.41950    0.46380    1.000
    H149     H        0.02580    0.40030    0.43360    1.000
    C133     C        0.03510    0.44740    0.52320    1.000
    H150     H        0.98420    0.44690    0.53230    1.000
    C134     C        0.08240    0.47580    0.56900    1.000
    C135     C        0.15420    0.47660    0.54940    1.000
    H151     H        0.19020    0.49670    0.57770    1.000
    C136     C        0.17460    0.44860    0.48930    1.000
    H152     H        0.22470    0.45180    0.47760    1.000
    C137     C        0.97800    0.58480    0.64000    1.000
    H153     H        0.99890    0.63280    0.65190    1.000
    H154     H        0.95840    0.58680    0.59460    1.000
    C138     C        0.91910    0.55990    0.69020    1.000
    H155     H        0.93470    0.57270    0.73550    1.000
    H156     H        0.87240    0.58520    0.68100    1.000
    C139     C        0.90860    0.48010    0.68490    1.000
    H157     H        0.88510    0.46800    0.64240    1.000
    H158     H        0.87650    0.46280    0.72090    1.000
    C140     C        0.98260    0.44310    0.68950    1.000
    H159     H        0.98250    0.39610    0.66560    1.000
    H160     H        0.99630    0.43420    0.73600    1.000
    Ag6      Ag       0.16147    0.37491    0.34612    1.000
    Si11     Si       0.12425    0.99205    0.36529    1.000
    Si12     Si       0.45331    0.49041    0.14992    1.000
    N21      N        0.15240    0.24770    0.35330    1.000
    N22      N        0.93470    0.90340    0.23050    1.000
    N23      N        0.26070    0.41570    0.28770    1.000
    N24      N        0.36940    0.58170    0.94740    1.000
    C141     C        0.17950    0.20730    0.40350    1.000
    H161     H        0.20470    0.23200    0.43780    1.000
    C142     C        0.17300    0.13370    0.40830    1.000
    H162     H        0.19480    0.10890    0.44430    1.000
    C143     C        0.13400    0.09370    0.36010    1.000
    C144     C        0.10500    0.13670    0.30860    1.000
    H163     H        0.07780    0.11410    0.27440    1.000
    C145     C        0.11560    0.21100    0.30760    1.000
    H164     H        0.09540    0.23770    0.27190    1.000
    C146     C        0.00550    0.89930    0.21270    1.000
    H165     H        0.01690    0.87660    0.17200    1.000
    C147     C        0.06220    0.92600    0.25000    1.000
    H166     H        0.11100    0.92090    0.23480    1.000
    C148     C        0.04890    0.96010    0.30930    1.000
    C149     C        0.97550    0.96420    0.32830    1.000
    H167     H        0.96230    0.98700    0.36860    1.000
    C150     C        0.92300    0.93510    0.28820    1.000
    H168     H        0.87390    0.93780    0.30300    1.000
    C151     C        0.21390    0.94520    0.35020    1.000
    H169     H        0.20980    0.90900    0.31420    1.000
    H170     H        0.25260    0.98070    0.33910    1.000
    C152     C        0.22870    0.90880    0.41550    1.000
    H171     H        0.23140    0.85560    0.40730    1.000
    H172     H        0.27790    0.92440    0.43010    1.000
    C153     C        0.18280    0.91920    0.46590    1.000
    H173     H        0.21000    0.94470    0.50130    1.000
    H174     H        0.16890    0.87080    0.48340    1.000
    C154     C        0.11350    0.96140    0.45300    1.000
    H175     H        0.10920    0.00370    0.48310    1.000
    H176     H        0.06990    0.93000    0.45820    1.000
    C155     C        0.29670    0.47810    0.29930    1.000
    H177     H        0.28320    0.50650    0.33650    1.000
    C156     C        0.35250    0.50260    0.25930    1.000
    H178     H        0.37590    0.54740    0.26950    1.000
    C157     C        0.37530    0.46340    0.20430    1.000
    C158     C        0.33740    0.39740    0.19400    1.000
    H179     H        0.35030    0.36670    0.15810    1.000
    C159     C        0.28140    0.37720    0.23610    1.000
    H180     H        0.25640    0.33290    0.22730    1.000
    C160     C        0.43970    0.58050    0.96380    1.000
    H181     H        0.47420    0.59970    0.93360    1.000
    C161     C        0.46490    0.55260    0.02320    1.000
    H182     H        0.51580    0.55310    0.03230    1.000
    C162     C        0.41760    0.52420    0.06900    1.000
    C163     C        0.34580    0.52340    0.04940    1.000
    H183     H        0.30980    0.50330    0.07770    1.000
    C164     C        0.32540    0.55140    0.98930    1.000
    H184     H        0.27530    0.54820    0.97760    1.000
    C165     C        0.52200    0.41520    0.14000    1.000
    H185     H        0.50110    0.36720    0.15190    1.000
    H186     H        0.54160    0.41320    0.09460    1.000
    C166     C        0.58090    0.44010    0.19020    1.000
    H187     H        0.56530    0.42730    0.23550    1.000
    H188     H        0.62760    0.41480    0.18100    1.000
    C167     C        0.59140    0.51990    0.18490    1.000
    H189     H        0.61490    0.53200    0.14240    1.000
    H190     H        0.62350    0.53720    0.22090    1.000
    C168     C        0.51740    0.55690    0.18950    1.000
    H191     H        0.51750    0.60390    0.16560    1.000
    H192     H        0.50370    0.56580    0.23600    1.000
    Ag7      Ag       0.66147    0.12509    0.65388    1.000
    Si13     Si       0.62425    0.50795    0.63471    1.000
    Si14     Si       0.95331    0.00959    0.85008    1.000
    N25      N        0.65240    0.25230    0.64670    1.000
    N26      N        0.43470    0.59660    0.76950    1.000
    N27      N        0.76070    0.08430    0.71230    1.000
    N28      N        0.86940    0.91830    0.05260    1.000
    C169     C        0.67950    0.29270    0.59650    1.000
    H193     H        0.70470    0.26800    0.56220    1.000
    C170     C        0.67300    0.36630    0.59170    1.000
    H194     H        0.69480    0.39110    0.55570    1.000
    C171     C        0.63400    0.40630    0.63990    1.000
    C172     C        0.60500    0.36330    0.69140    1.000
    H195     H        0.57780    0.38590    0.72560    1.000
    C173     C        0.61560    0.28900    0.69240    1.000
    H196     H        0.59540    0.26230    0.72810    1.000
    C174     C        0.50550    0.60070    0.78730    1.000
    H197     H        0.51690    0.62340    0.82800    1.000
    C175     C        0.56220    0.57400    0.75000    1.000
    H198     H        0.61100    0.57910    0.76520    1.000
    C176     C        0.54890    0.53990    0.69070    1.000
    C177     C        0.47550    0.53580    0.67170    1.000
    H199     H        0.46230    0.51300    0.63140    1.000
    C178     C        0.42300    0.56490    0.71180    1.000
    H200     H        0.37390    0.56220    0.69700    1.000
    C179     C        0.71390    0.55480    0.64980    1.000
    H201     H        0.70980    0.59100    0.68580    1.000
    H202     H        0.75260    0.51930    0.66090    1.000
    C180     C        0.72870    0.59120    0.58450    1.000
    H203     H        0.73140    0.64440    0.59270    1.000
    H204     H        0.77790    0.57560    0.56990    1.000
    C181     C        0.68280    0.58080    0.53410    1.000
    H205     H        0.71000    0.55530    0.49870    1.000
    H206     H        0.66890    0.62920    0.51660    1.000
    C182     C        0.61350    0.53860    0.54700    1.000
    H207     H        0.60920    0.49630    0.51690    1.000
    H208     H        0.56990    0.57000    0.54180    1.000
    C183     C        0.79670    0.02190    0.70070    1.000
    H209     H        0.78320    0.99350    0.66350    1.000
    C184     C        0.85250    0.99740    0.74070    1.000
    H210     H        0.87590    0.95260    0.73050    1.000
    C185     C        0.87530    0.03660    0.79570    1.000
    C186     C        0.83740    0.10260    0.80600    1.000
    H211     H        0.85030    0.13330    0.84190    1.000
    C187     C        0.78140    0.12280    0.76390    1.000
    H212     H        0.75640    0.16710    0.77270    1.000
    C188     C        0.93970    0.91950    0.03620    1.000
    H213     H        0.97420    0.90030    0.06640    1.000
    C189     C        0.96490    0.94740    0.97680    1.000
    H214     H        0.01580    0.94690    0.96770    1.000
    C190     C        0.91760    0.97580    0.93100    1.000
    C191     C        0.84580    0.97660    0.95060    1.000
    H215     H        0.80980    0.99670    0.92230    1.000
    C192     C        0.82540    0.94860    0.01070    1.000
    H216     H        0.77530    0.95180    0.02240    1.000
    C193     C        0.02200    0.08480    0.86000    1.000
    H217     H        0.00110    0.13280    0.84810    1.000
    H218     H        0.04160    0.08680    0.90540    1.000
    C194     C        0.08090    0.05990    0.80980    1.000
    H219     H        0.06530    0.07270    0.76450    1.000
    H220     H        0.12760    0.08520    0.81900    1.000
    C195     C        0.09140    0.98010    0.81510    1.000
    H221     H        0.11490    0.96800    0.85760    1.000
    H222     H        0.12350    0.96280    0.77910    1.000
    C196     C        0.01740    0.94310    0.81050    1.000
    H223     H        0.01750    0.89610    0.83440    1.000
    H224     H        0.00370    0.93420    0.76400    1.000
    Ag8      Ag       0.83853    0.87491    0.15388    1.000
    Si15     Si       0.87575    0.49205    0.13471    1.000
    Si16     Si       0.54669    0.99041    0.35008    1.000
    N29      N        0.84760    0.74770    0.14670    1.000
    N30      N        0.06530    0.40340    0.26950    1.000
    N31      N        0.73930    0.91570    0.21230    1.000
    N32      N        0.63060    0.08170    0.55260    1.000
    C197     C        0.82050    0.70730    0.09650    1.000
    H225     H        0.79530    0.73200    0.06220    1.000
    C198     C        0.82700    0.63370    0.09170    1.000
    H226     H        0.80520    0.60890    0.05570    1.000
    C199     C        0.86600    0.59370    0.13990    1.000
    C200     C        0.89500    0.63670    0.19140    1.000
    H227     H        0.92220    0.61410    0.22560    1.000
    C201     C        0.88440    0.71100    0.19240    1.000
    H228     H        0.90460    0.73770    0.22810    1.000
    C202     C        0.99450    0.39930    0.28730    1.000
    H229     H        0.98310    0.37660    0.32800    1.000
    C203     C        0.93780    0.42600    0.25000    1.000
    H230     H        0.88900    0.42090    0.26520    1.000
    C204     C        0.95110    0.46010    0.19070    1.000
    C205     C        0.02450    0.46420    0.17170    1.000
    H231     H        0.03770    0.48700    0.13140    1.000
    C206     C        0.07700    0.43510    0.21180    1.000
    H232     H        0.12610    0.43780    0.19700    1.000
    C207     C        0.78610    0.44520    0.14980    1.000
    H233     H        0.79020    0.40900    0.18580    1.000
    H234     H        0.74740    0.48070    0.16090    1.000
    C208     C        0.77130    0.40880    0.08450    1.000
    H235     H        0.76860    0.35560    0.09270    1.000
    H236     H        0.72210    0.42440    0.06990    1.000
    C209     C        0.81720    0.41920    0.03410    1.000
    H237     H        0.79000    0.44470    0.99870    1.000
    H238     H        0.83110    0.37080    0.01660    1.000
    C210     C        0.88650    0.46140    0.04700    1.000
    H239     H        0.89080    0.50370    0.01690    1.000
    H240     H        0.93010    0.43000    0.04180    1.000
    C211     C        0.70330    0.97810    0.20070    1.000
    H241     H        0.71680    0.00650    0.16350    1.000
    C212     C        0.64750    0.00260    0.24070    1.000
    H242     H        0.62410    0.04740    0.23050    1.000
    C213     C        0.62470    0.96340    0.29570    1.000
    C214     C        0.66260    0.89740    0.30600    1.000
    H243     H        0.64970    0.86670    0.34190    1.000
    C215     C        0.71860    0.87720    0.26390    1.000
    H244     H        0.74360    0.83290    0.27270    1.000
    C216     C        0.56030    0.08050    0.53620    1.000
    H245     H        0.52580    0.09970    0.56640    1.000
    C217     C        0.53510    0.05260    0.47680    1.000
    H246     H        0.48420    0.05310    0.46770    1.000
    C218     C        0.58240    0.02420    0.43100    1.000
    C219     C        0.65420    0.02340    0.45060    1.000
    H247     H        0.69020    0.00330    0.42230    1.000
    C220     C        0.67460    0.05140    0.51070    1.000
    H248     H        0.72470    0.04820    0.52240    1.000
    C221     C        0.47800    0.91520    0.36000    1.000
    H249     H        0.49890    0.86720    0.34810    1.000
    H250     H        0.45840    0.91320    0.40540    1.000
    C222     C        0.41910    0.94010    0.30980    1.000
    H251     H        0.43470    0.92730    0.26450    1.000
    H252     H        0.37240    0.91480    0.31900    1.000
    C223     C        0.40860    0.01990    0.31510    1.000
    H253     H        0.38510    0.03200    0.35760    1.000
    H254     H        0.37650    0.03720    0.27910    1.000
    C224     C        0.48260    0.05690    0.31050    1.000
    H255     H        0.48250    0.10390    0.33440    1.000
    H256     H        0.49630    0.06580    0.26400    1.000
