data_functionalizedCrystal
_audit_creation_method	'EQeq! by Chris Wilmer'
_symmetry_space_group_name_H-M	'P1'
_symmetry_Int_Tables_number	1
_symmetry_cell_setting	triclinic
loop_
_symmetry_equiv_pos_as_xyz
  x,y,z
_cell_length_a	14.6462
_cell_length_b	16.7824
_cell_length_c	16.7824
_cell_angle_alpha	120
_cell_angle_beta	90
_cell_angle_gamma	90
loop_
_atom_site_label
_atom_site_type_symbol
_atom_site_fract_x
_atom_site_fract_y
_atom_site_fract_z
_atom_site_charge
Mof_Zn	Zn	-0	0.34167	-0	1.185
Mof_Zn	Zn	-0	0.65833	0.65833	1.201
Mof_Zn	Zn	-5.29966e-33	0	0.34167	1.185
Mof_Cr	Cr	0.5	0	0.8857	2.179
Mof_Cr	Cr	0.5	0.8857	-0	2.18
Mof_Cr	Cr	0.5	0.1143	0.1143	2.24
Mof_H 	H 	0.2845	0.2948	0.1332	0.029
Mof_H 	H 	0.1147	0.3097	0.1304	0.031
Mof_H 	H 	0.2845	0.8384	0.7052	0.053
Mof_H 	H 	0.1147	0.8207	0.6903	0.032
Mof_H 	H 	0.2845	0.8668	0.1616	0.014
Mof_H 	H 	0.1147	0.8696	0.1793	0.016
Mof_H 	H 	0.7155	0.2948	0.1332	0.032
Mof_H 	H 	0.8853	0.3097	0.1304	0.048
Mof_H 	H 	0.7155	0.8384	0.7052	0.056
Mof_H 	H 	0.8853	0.8207	0.6903	0.048
Mof_H 	H 	0.7155	0.8668	0.1616	0.018
Mof_H 	H 	0.8853	0.8696	0.1793	0.033
Mof_H 	H 	0.7155	0.1616	0.8668	0.018
Mof_H 	H 	0.8853	0.1793	0.8696	0.033
Mof_H 	H 	0.7155	0.1332	0.2948	0.032
Mof_H 	H 	0.8853	0.1304	0.3097	0.048
Mof_H 	H 	0.7155	0.7052	0.8384	0.056
Mof_H 	H 	0.8853	0.6903	0.8207	0.048
Mof_H 	H 	0.2845	0.1616	0.8668	0.014
Mof_H 	H 	0.1147	0.1793	0.8696	0.016
Mof_H 	H 	0.2845	0.1332	0.2948	0.029
Mof_H 	H 	0.1147	0.1304	0.3097	0.031
Mof_H 	H 	0.2845	0.7052	0.8384	0.053
Mof_H 	H 	0.1147	0.6903	0.8207	0.032
Mof_H 	H 	0.5	0	0.5376	0.047
Mof_H 	H 	0.5	0.5376	-0	0.047
Mof_H 	H 	0.5	0.4624	0.4624	-0.001
Mof_H 	H 	7.94949e-33	0.6376	0.1819	0.037
Mof_H 	H 	-3.53311e-33	0.5443	0.3624	0.043
Mof_H 	H 	-0	0.8181	0.4557	0.054
Mof_H 	H 	-3.53311e-33	0.4557	0.8181	0.054
Mof_H 	H 	-1.05993e-32	0.1819	0.6376	0.037
Mof_H 	H 	-3.53311e-33	0.3624	0.5443	0.043
Mof_H 	H 	0.5	0.1374	0.8154	0.015
Mof_H 	H 	0.5	0.1354	0.6726	0.049
Mof_H 	H 	0.5	0.678	0.8626	-0.006
Mof_H 	H 	0.5	0.5372	0.8646	0.041
Mof_H 	H 	0.5	0.1846	0.322	-0.016
Mof_H 	H 	0.5	0.3274	0.4628	0.086
Mof_H 	H 	0.5	0.322	0.1846	-0.016
Mof_H 	H 	0.5	0.4628	0.3274	0.086
Mof_H 	H 	0.5	0.8154	0.1374	0.015
Mof_H 	H 	0.5	0.6726	0.1354	0.049
Mof_H 	H 	0.5	0.8626	0.678	-0.006
Mof_H 	H 	0.5	0.8646	0.5372	0.041
Mof_C 	C 	0.2505	0.2697	0.0785	0.035
Mof_C 	C 	0.1495	0.2789	0.0762	-0.031
Mof_C 	C 	0.2505	0.8088	0.7303	0.003
Mof_C 	C 	0.1495	0.7973	0.7211	0.015
Mof_C 	C 	0.2505	0.9215	0.1912	0.093
Mof_C 	C 	0.1495	0.9238	0.2027	0.036
Mof_C 	C 	0.7495	0.2697	0.0785	0.038
Mof_C 	C 	0.8505	0.2789	0.0762	-0.023
Mof_C 	C 	0.7495	0.8088	0.7303	0.007
Mof_C 	C 	0.8505	0.7973	0.7211	0.02
Mof_C 	C 	0.7495	0.9215	0.1912	0.095
Mof_C 	C 	0.8505	0.9238	0.2027	0.039
Mof_C 	C 	0.7495	0.1912	0.9215	0.095
Mof_C 	C 	0.8505	0.2027	0.9238	0.039
Mof_C 	C 	0.7495	0.0785	0.2697	0.038
Mof_C 	C 	0.8505	0.0762	0.2789	-0.023
Mof_C 	C 	0.7495	0.7303	0.8088	0.007
Mof_C 	C 	0.8505	0.7211	0.7973	0.02
Mof_C 	C 	0.2505	0.1912	0.9215	0.093
Mof_C 	C 	0.1495	0.2027	0.9238	0.036
Mof_C 	C 	0.2505	0.0785	0.2697	0.035
Mof_C 	C 	0.1495	0.0762	0.2789	-0.031
Mof_C 	C 	0.2505	0.7303	0.8088	0.003
Mof_C 	C 	0.1495	0.7211	0.7973	0.015
Mof_C 	C 	0.5	0	0.5936	-0.103
Mof_C 	C 	0.5	0.5936	-0	-0.103
Mof_C 	C 	0.5	0.4064	0.4064	0.097
Mof_C 	C 	0.3702	0.1486	-0	0.535
Mof_C 	C 	0.2823	0.1954	-0	-0.231
Mof_C 	C 	0.3702	0.8514	0.8514	0.579
Mof_C 	C 	0.2823	0.8046	0.8046	-0.124
Mof_C 	C 	0.3702	0	0.1486	0.535
Mof_C 	C 	0.2823	0	0.1954	-0.231
Mof_C 	C 	0.6298	0.1486	-0	0.537
Mof_C 	C 	0.7177	0.1954	-0	-0.225
Mof_C 	C 	0.6298	0.8514	0.8514	0.58
Mof_C 	C 	0.7177	0.8046	0.8046	-0.122
Mof_C 	C 	0.6298	0	0.1486	0.537
Mof_C 	C 	0.7177	0	0.1954	-0.225
Mof_C 	C 	8.83277e-34	0.4786	0.1827	0.349
Mof_C 	C 	1.05993e-32	0.5764	0.2595	-0.117
Mof_C 	C 	-1.76655e-33	0.6491	0.2428	0.045
Mof_C 	C 	-3.53311e-33	0.7041	0.5214	0.343
Mof_C 	C 	-1.05993e-32	0.6831	0.4236	-0.109
Mof_C 	C 	-3.53311e-33	0.5937	0.3509	0.044
Mof_C 	C 	1.76655e-33	0.8173	0.2959	0.342
Mof_C 	C 	-1.23659e-32	0.7405	0.3169	-0.109
Mof_C 	C 	-5.29966e-33	0.7572	0.4063	0.042
Mof_C 	C 	-7.06621e-33	0.2959	0.8173	0.342
Mof_C 	C 	-7.06621e-33	0.3169	0.7405	-0.109
Mof_C 	C 	1.41324e-32	0.4063	0.7572	0.042
Mof_C 	C 	7.06621e-33	0.1827	0.4786	0.349
Mof_C 	C 	7.06621e-33	0.2595	0.5764	-0.117
Mof_C 	C 	3.53311e-33	0.2428	0.6491	0.045
Mof_C 	C 	-0	0.5214	0.7041	0.343
Mof_C 	C 	-1.41324e-32	0.4236	0.6831	-0.109
Mof_C 	C 	-1.05993e-32	0.3509	0.5937	0.044
Mof_C 	C 	0.5	0.081	0.7599	0.053
Mof_C 	C 	0.5	0.0797	0.6731	-0.058
Mof_C 	C 	0.5	0.6789	0.919	0.119
Mof_C 	C 	0.5	0.5934	0.9203	0.008
Mof_C 	C 	0.5	0.2401	0.3211	0.115
Mof_C 	C 	0.5	0.3269	0.4066	-0.162
Mof_C 	C 	0.5	0.3211	0.2401	0.115
Mof_C 	C 	0.5	0.4066	0.3269	-0.162
Mof_C 	C 	0.5	0.7599	0.081	0.053
Mof_C 	C 	0.5	0.6731	0.0797	-0.058
Mof_C 	C 	0.5	0.919	0.6789	0.119
Mof_C 	C 	0.5	0.9203	0.5934	0.008
Mof_N 	N 	0.5	0	0.7614	-0.328
Mof_N 	N 	0.5	0.7614	-0	-0.328
Mof_N 	N 	0.5	0.2386	0.2386	-0.31
Mof_N 	N 	0.1178	0.2757	-0	-0.276
Mof_N 	N 	0.1178	0.7243	0.7243	-0.245
Mof_N 	N 	0.1178	1.59117e-17	0.2757	-0.276
Mof_N 	N 	0.8822	0.2757	-0	-0.259
Mof_N 	N 	0.8822	0.7243	0.7243	-0.23
Mof_N 	N 	0.8822	1.59117e-17	0.2757	-0.259
Mof_O 	O 	0.40259	0.0927	0.92343	-0.63
Mof_O 	O 	0.40259	0.83073	0.9073	-0.627
Mof_O 	O 	0.40259	0.07657	0.16927	-0.676
Mof_O 	O 	0.59741	0.0927	0.92343	-0.629
Mof_O 	O 	0.59741	0.83073	0.9073	-0.626
Mof_O 	O 	0.59741	0.07657	0.16927	-0.674
Mof_O 	O 	0.59741	0.16927	0.07657	-0.674
Mof_O 	O 	0.59741	0.92343	0.0927	-0.629
Mof_O 	O 	0.59741	0.9073	0.83073	-0.626
Mof_O 	O 	0.40259	0.16927	0.07657	-0.676
Mof_O 	O 	0.40259	0.92343	0.0927	-0.63
Mof_O 	O 	0.40259	0.9073	0.83073	-0.627
Mof_O 	O 	0.5	0	-0	-1.246
Mof_O 	O 	2.64983e-33	0.41522	0.19912	-0.337
Mof_O 	O 	-6.18294e-33	0.468	0.1022	-0.478
Mof_O 	O 	-3.53311e-33	0.7839	0.58478	-0.319
Mof_O 	O 	7.06621e-33	0.6342	0.532	-0.46
Mof_O 	O 	-1.76655e-33	0.80088	0.2161	-0.329
Mof_O 	O 	-1.23659e-32	0.8978	0.3658	-0.431
Mof_O 	O 	-0	0.2161	0.80088	-0.329
Mof_O 	O 	-2.47317e-32	0.3658	0.8978	-0.431
Mof_O 	O 	-1.76655e-33	0.19912	0.41522	-0.337
Mof_O 	O 	-7.06621e-33	0.1022	0.468	-0.478
Mof_O 	O 	7.06621e-33	0.58478	0.7839	-0.319
Mof_O 	O 	3.53311e-33	0.532	0.6342	-0.46
_end
