# CIF file generated by openbabel 3.1.0, see https://openbabel.org
data_I
_chemical_name_common 'image0'
_cell_length_a 9.9045
_cell_length_b 12.3011
_cell_length_c 17.322
_cell_angle_alpha 90
_cell_angle_beta 103.701
_cell_angle_gamma 90
_space_group_name_H-M_alt 'P 1'
_space_group_name_Hall 'P 1'
loop_
    _symmetry_equiv_pos_as_xyz
    x,y,z
loop_
    _atom_site_label
    _atom_site_type_symbol
    _atom_site_fract_x
    _atom_site_fract_y
    _atom_site_fract_z
    _atom_site_occupancy
    Fe1      Fe       0.75560    0.57730    0.22130    1.000
    Fe2      Fe       0.56250    0.52580    0.37080    1.000
    Fe3      Fe       0.86750    0.35260    0.92470    1.000
    Fe4      Fe       0.03090    0.38960    0.29070    1.000
    P1       P        0.30010    0.41420    0.44060    1.000
    P2       P        0.77930    0.84490    0.20420    1.000
    P3       P        0.43780    0.62460    0.19200    1.000
    P4       P        0.91430    0.45770    0.10620    1.000
    O1       O        0.57120    0.61720    0.16250    1.000
    O2       O        0.82720    0.72900    0.23160    1.000
    F1       F        0.71450    0.59380    0.32800    1.000
    F2       F        0.94960    0.53860    0.27880    1.000
    O3       O        0.81070    0.54650    0.11960    1.000
    O4       O        0.80940    0.92320    0.27550    1.000
    O5       O        0.40070    0.46080    0.39580    1.000
    O6       O        0.31600    0.47060    0.52080    1.000
    O7       O        0.86420    0.87970    0.14380    1.000
    O8       O        0.44350    0.54710    0.26210    1.000
    O9       O        0.85360    0.39940    0.02880    1.000
    O10      O        0.32850    0.29270    0.45530    1.000
    O11      O        0.05170    0.51230    0.10290    1.000
    O12      O        0.31730    0.58900    0.12240    1.000
    O13      O        0.40820    0.74000    0.21560    1.000
    O14      O        0.15060    0.43010    0.39300    1.000
    O15      O        0.62410    0.84800    0.16330    1.000
    O16      O        0.94250    0.37530    0.17410    1.000
    N1       N        0.62710    0.60370    0.60370    1.000
    Fe5      Fe       0.74440    0.07730    0.27870    1.000
    Fe6      Fe       0.93750    0.02580    0.12920    1.000
    Fe7      Fe       0.63250    0.85260    0.57530    1.000
    Fe8      Fe       0.46910    0.88960    0.20930    1.000
    P5       P        0.19990    0.91420    0.05940    1.000
    P6       P        0.72070    0.34490    0.29580    1.000
    P7       P        0.06220    0.12460    0.30800    1.000
    P8       P        0.58570    0.95770    0.39380    1.000
    O17      O        0.92880    0.11720    0.33750    1.000
    O18      O        0.67280    0.22900    0.26840    1.000
    F3       F        0.78550    0.09380    0.17200    1.000
    F4       F        0.55040    0.03860    0.22120    1.000
    O19      O        0.68930    0.04650    0.38040    1.000
    O20      O        0.69060    0.42320    0.22450    1.000
    O21      O        0.09930    0.96080    0.10420    1.000
    O22      O        0.18400    0.97060    0.97920    1.000
    O23      O        0.63580    0.37970    0.35620    1.000
    O24      O        0.05650    0.04710    0.23790    1.000
    O25      O        0.64640    0.89940    0.47120    1.000
    O26      O        0.17150    0.79270    0.04470    1.000
    O27      O        0.44830    0.01230    0.39710    1.000
    O28      O        0.18270    0.08900    0.37760    1.000
    O29      O        0.09180    0.24000    0.28440    1.000
    O30      O        0.34940    0.93010    0.10700    1.000
    O31      O        0.87590    0.34800    0.33670    1.000
    O32      O        0.55750    0.87530    0.32590    1.000
    N2       N        0.87290    0.10370    0.89630    1.000
    Fe9      Fe       0.24440    0.42270    0.77870    1.000
    Fe10     Fe       0.43750    0.47420    0.62920    1.000
    Fe11     Fe       0.13250    0.64740    0.07530    1.000
    Fe12     Fe       0.96910    0.61040    0.70930    1.000
    P9       P        0.69990    0.58580    0.55940    1.000
    P10      P        0.22070    0.15510    0.79580    1.000
    P11      P        0.56220    0.37540    0.80800    1.000
    P12      P        0.08570    0.54230    0.89380    1.000
    O33      O        0.42880    0.38280    0.83750    1.000
    O34      O        0.17280    0.27100    0.76840    1.000
    F5       F        0.28550    0.40620    0.67200    1.000
    F6       F        0.05040    0.46140    0.72120    1.000
    O35      O        0.18930    0.45350    0.88040    1.000
    O36      O        0.19060    0.07680    0.72450    1.000
    O37      O        0.59930    0.53920    0.60420    1.000
    O38      O        0.68400    0.52940    0.47920    1.000
    O39      O        0.13580    0.12030    0.85620    1.000
    O40      O        0.55650    0.45290    0.73790    1.000
    O41      O        0.14640    0.60060    0.97120    1.000
    O42      O        0.67150    0.70730    0.54470    1.000
    O43      O        0.94830    0.48770    0.89710    1.000
    O44      O        0.68270    0.41100    0.87760    1.000
    O45      O        0.59180    0.26000    0.78440    1.000
    O46      O        0.84940    0.56990    0.60700    1.000
    O47      O        0.37590    0.15200    0.83670    1.000
    O48      O        0.05750    0.62470    0.82590    1.000
    N3       N        0.37290    0.39630    0.39630    1.000
    Fe13     Fe       0.25560    0.92270    0.72130    1.000
    Fe14     Fe       0.06250    0.97420    0.87080    1.000
    Fe15     Fe       0.36750    0.14740    0.42470    1.000
    Fe16     Fe       0.53090    0.11040    0.79070    1.000
    P13      P        0.80010    0.08580    0.94060    1.000
    P14      P        0.27930    0.65510    0.70420    1.000
    P15      P        0.93780    0.87540    0.69200    1.000
    P16      P        0.41430    0.04230    0.60620    1.000
    O49      O        0.07120    0.88280    0.66250    1.000
    O50      O        0.32720    0.77100    0.73160    1.000
    F7       F        0.21450    0.90620    0.82800    1.000
    F8       F        0.44960    0.96140    0.77880    1.000
    O51      O        0.31070    0.95350    0.61960    1.000
    O52      O        0.30940    0.57680    0.77550    1.000
    O53      O        0.90070    0.03920    0.89580    1.000
    O54      O        0.81600    0.02940    0.02080    1.000
    O55      O        0.36420    0.62030    0.64380    1.000
    O56      O        0.94350    0.95290    0.76210    1.000
    O57      O        0.35360    0.10060    0.52880    1.000
    O58      O        0.82850    0.20730    0.95530    1.000
    O59      O        0.55170    0.98770    0.60290    1.000
    O60      O        0.81730    0.91100    0.62240    1.000
    O61      O        0.90820    0.76000    0.71560    1.000
    O62      O        0.65060    0.06990    0.89300    1.000
    O63      O        0.12410    0.65200    0.66330    1.000
    O64      O        0.44250    0.12470    0.67410    1.000
    N4       N        0.12710    0.89630    0.10370    1.000
