# CIF file generated by openbabel 3.1.0, see https://openbabel.org
data_I
_chemical_name_common 'INAMUG_clean'
_cell_length_a 11.166
_cell_length_b 11.638
_cell_length_c 20.95
_cell_angle_alpha 96.25
_cell_angle_beta 90.68
_cell_angle_gamma 108.49
_space_group_name_H-M_alt 'P 1'
_space_group_name_Hall 'P 1'
loop_
    _symmetry_equiv_pos_as_xyz
    x,y,z
loop_
    _atom_site_label
    _atom_site_type_symbol
    _atom_site_fract_x
    _atom_site_fract_y
    _atom_site_fract_z
    _atom_site_occupancy
    Co1      Co       0.86552    0.52078    0.75937    1.000
    Co2      Co       0.13448    0.47922    0.24063    1.000
    Co3      Co       0.00000    0.00000    0.50000    1.000
    Co4      Co       0.50000    0.50000    0.00000    1.000
    H1       H        0.12720    0.67440    0.96160    1.000
    H2       H        0.90310    0.35350    0.56510    1.000
    H3       H        0.67260    0.13150    0.62960    1.000
    H4       H        0.79390    0.11410    0.54420    1.000
    H5       H        0.91210    0.87780    0.62140    1.000
    H6       H        0.24950    0.05390    0.81010    1.000
    H7       H        0.23860    0.18390    0.83000    1.000
    H8       H        0.24350    0.14280    0.69630    1.000
    H9       H        0.44180    0.26300    0.65030    1.000
    H10      H        0.10980    0.60450    0.84660    1.000
    H11      H        0.24600    0.86680    0.69670    1.000
    H12      H        0.04490    0.73290    0.69060    1.000
    H13      H        0.03610    0.01940    0.81770    1.000
    H14      H        0.05500    0.00860    0.74340    1.000
    H15      H        0.48250    0.89090    0.82040    1.000
    H16      H        0.42910    0.99330    0.80310    1.000
    H17      H        0.51700    0.84660    0.71250    1.000
    H18      H        0.46240    0.94820    0.69480    1.000
    H19      H        0.63210    0.09930    0.74520    1.000
    H20      H        0.68180    0.00410    0.77520    1.000
    H21      H        0.79080    0.88620    0.70810    1.000
    H22      H        0.80140    0.59220    0.19610    1.000
    H23      H        0.73580    0.59240    0.09280    1.000
    H24      H        0.39350    0.39660    0.12500    1.000
    H25      H        0.44970    0.38930    0.22910    1.000
    H26      H        0.76530    0.53260    0.30790    1.000
    H27      H        0.51990    0.45820    0.34400    1.000
    H28      H        0.54710    0.33790    0.31780    1.000
    H29      H        0.67650    0.49990    0.42540    1.000
    H30      H        0.71560    0.38720    0.39730    1.000
    H31      H        0.65870    0.23810    0.47010    1.000
    H32      H        0.51480    0.11880    0.53190    1.000
    H33      H        0.27030    0.27970    0.49770    1.000
    H34      H        0.40770    0.40540    0.43570    1.000
    H35      H        0.03820    0.17780    0.68140    1.000
    H36      H        0.90830    0.35480    0.86070    1.000
    H37      H        0.30980    0.74190    0.85970    1.000
    H38      H        0.97520    0.34580    0.67840    1.000
    H39      H        0.97580    0.19070    0.86940    1.000
    H40      H        0.64670    0.38710    0.65950    1.000
    H41      H        0.66680    0.35790    0.84230    1.000
    H42      H        0.46100    0.23180    0.83810    1.000
    H43      H        0.87280    0.32560    0.03840    1.000
    H44      H        0.09690    0.64650    0.43490    1.000
    H45      H        0.32740    0.86850    0.37040    1.000
    H46      H        0.20610    0.88590    0.45580    1.000
    H47      H        0.08790    0.12220    0.37860    1.000
    H48      H        0.75050    0.94610    0.18990    1.000
    H49      H        0.76140    0.81610    0.17000    1.000
    H50      H        0.75650    0.85720    0.30370    1.000
    H51      H        0.55820    0.73700    0.34970    1.000
    H52      H        0.89020    0.39550    0.15340    1.000
    H53      H        0.75400    0.13320    0.30330    1.000
    H54      H        0.95510    0.26710    0.30940    1.000
    H55      H        0.96390    0.98060    0.18230    1.000
    H56      H        0.94500    0.99140    0.25660    1.000
    H57      H        0.51750    0.10910    0.17960    1.000
    H58      H        0.57090    0.00670    0.19690    1.000
    H59      H        0.48300    0.15340    0.28750    1.000
    H60      H        0.53760    0.05180    0.30520    1.000
    H61      H        0.36790    0.90070    0.25480    1.000
    H62      H        0.31820    0.99590    0.22480    1.000
    H63      H        0.20920    0.11380    0.29190    1.000
    H64      H        0.19860    0.40780    0.80390    1.000
    H65      H        0.26420    0.40760    0.90720    1.000
    H66      H        0.60650    0.60340    0.87500    1.000
    H67      H        0.55030    0.61070    0.77090    1.000
    H68      H        0.23470    0.46740    0.69210    1.000
    H69      H        0.48010    0.54180    0.65600    1.000
    H70      H        0.45290    0.66210    0.68220    1.000
    H71      H        0.32350    0.50010    0.57460    1.000
    H72      H        0.28440    0.61280    0.60270    1.000
    H73      H        0.34130    0.76190    0.52990    1.000
    H74      H        0.48520    0.88120    0.46810    1.000
    H75      H        0.72970    0.72030    0.50230    1.000
    H76      H        0.59230    0.59460    0.56430    1.000
    H77      H        0.96180    0.82220    0.31860    1.000
    H78      H        0.09170    0.64520    0.13930    1.000
    H79      H        0.69020    0.25810    0.14030    1.000
    H80      H        0.02480    0.65420    0.32160    1.000
    H81      H        0.02420    0.80930    0.13060    1.000
    H82      H        0.35330    0.61290    0.34050    1.000
    H83      H        0.33320    0.64210    0.15770    1.000
    H84      H        0.53900    0.76820    0.16190    1.000
    C1       C        0.72742    0.41590    0.97286    1.000
    C2       C        0.86992    0.45723    0.98384    1.000
    C3       C        0.94719    0.56158    0.95973    1.000
    C4       C        0.89849    0.62110    0.90883    1.000
    C5       C        0.07615    0.60390    0.97685    1.000
    C6       C        0.88432    0.56210    0.61643    1.000
    C7       C        0.94601    0.53269    0.55622    1.000
    C8       C        0.02960    0.75827    0.53521    1.000
    C9       C        0.00602    0.62256    0.51715    1.000
    C10      C        0.94190    0.41234    0.53864    1.000
    C11      C        0.72070    0.07930    0.62914    1.000
    C12      C        0.79480    0.06900    0.57810    1.000
    C13      C        0.86380    0.93000    0.62318    1.000
    C14      C        0.21900    0.11660    0.79580    1.000
    C15      C        0.28640    0.16070    0.73627    1.000
    C16      C        0.42450    0.23429    0.74378    1.000
    C17      C        0.48520    0.28180    0.69025    1.000
    C18      C        0.13670    0.65920    0.81652    1.000
    C19      C        0.22000    0.81580    0.72852    1.000
    C20      C        0.09920    0.73360    0.72474    1.000
    C21      C        0.07410    0.06450    0.78278    1.000
    C22      C        0.30320    0.82250    0.77983    1.000
    C23      C        0.43530    0.91390    0.78758    1.000
    C24      C        0.50920    0.92550    0.72784    1.000
    C25      C        0.63950    0.01810    0.73749    1.000
    C26      C        0.71840    0.01143    0.67992    1.000
    C27      C        0.79100    0.93470    0.67562    1.000
    C28      C        0.71750    0.55120    0.18281    1.000
    C29      C        0.67740    0.55110    0.12056    1.000
    C30      C        0.47700    0.43620    0.13950    1.000
    C31      C        0.51010    0.43160    0.20246    1.000
    C32      C        0.63360    0.49023    0.22620    1.000
    C33      C        0.68170    0.49130    0.29397    1.000
    C34      C        0.58590    0.42080    0.33810    1.000
    C35      C        0.64450    0.41750    0.40342    1.000
    C36      C        0.55160    0.33780    0.44533    1.000
    C37      C        0.58040    0.24950    0.47507    1.000
    C38      C        0.49280    0.17770    0.51233    1.000
    C39      C        0.35000    0.27160    0.49260    1.000
    C40      C        0.43230    0.34750    0.45487    1.000
    C41      C        0.01460    0.21370    0.71890    1.000
    C42      C        0.93680    0.32010    0.82435    1.000
    C43      C        0.01910    0.16564    0.77684    1.000
    C44      C        0.25830    0.74130    0.82443    1.000
    C45      C        0.97520    0.31430    0.71735    1.000
    C46      C        0.97700    0.22070    0.82990    1.000
    C47      C        0.60880    0.35630    0.69605    1.000
    C48      C        0.62070    0.33920    0.80321    1.000
    C49      C        0.49610    0.26310    0.80115    1.000
    C50      C        0.27258    0.58410    0.02714    1.000
    C51      C        0.13008    0.54277    0.01616    1.000
    C52      C        0.05281    0.43842    0.04027    1.000
    C53      C        0.10151    0.37890    0.09117    1.000
    C54      C        0.92385    0.39610    0.02315    1.000
    C55      C        0.11568    0.43790    0.38357    1.000
    C56      C        0.05399    0.46731    0.44378    1.000
    C57      C        0.97040    0.24173    0.46479    1.000
    C58      C        0.99398    0.37744    0.48285    1.000
    C59      C        0.05810    0.58766    0.46136    1.000
    C60      C        0.27930    0.92070    0.37086    1.000
    C61      C        0.20520    0.93100    0.42190    1.000
    C62      C        0.13620    0.07000    0.37682    1.000
    C63      C        0.78100    0.88340    0.20420    1.000
    C64      C        0.71360    0.83930    0.26373    1.000
    C65      C        0.57550    0.76571    0.25622    1.000
    C66      C        0.51480    0.71820    0.30975    1.000
    C67      C        0.86330    0.34080    0.18348    1.000
    C68      C        0.78000    0.18420    0.27148    1.000
    C69      C        0.90080    0.26640    0.27526    1.000
    C70      C        0.92590    0.93550    0.21722    1.000
    C71      C        0.69680    0.17750    0.22017    1.000
    C72      C        0.56470    0.08610    0.21242    1.000
    C73      C        0.49080    0.07450    0.27216    1.000
    C74      C        0.36050    0.98190    0.26251    1.000
    C75      C        0.28160    0.98857    0.32008    1.000
    C76      C        0.20900    0.06530    0.32438    1.000
    C77      C        0.28250    0.44880    0.81719    1.000
    C78      C        0.32260    0.44890    0.87944    1.000
    C79      C        0.52300    0.56380    0.86050    1.000
    C80      C        0.48990    0.56840    0.79754    1.000
    C81      C        0.36640    0.50977    0.77380    1.000
    C82      C        0.31830    0.50870    0.70603    1.000
    C83      C        0.41410    0.57920    0.66190    1.000
    C84      C        0.35550    0.58250    0.59658    1.000
    C85      C        0.44840    0.66220    0.55467    1.000
    C86      C        0.41960    0.75050    0.52493    1.000
    C87      C        0.50720    0.82230    0.48767    1.000
    C88      C        0.65000    0.72840    0.50740    1.000
    C89      C        0.56770    0.65250    0.54513    1.000
    C90      C        0.98540    0.78630    0.28110    1.000
    C91      C        0.06320    0.67990    0.17565    1.000
    C92      C        0.98090    0.83436    0.22316    1.000
    C93      C        0.74170    0.25870    0.17557    1.000
    C94      C        0.02480    0.68570    0.28265    1.000
    C95      C        0.02300    0.77930    0.17010    1.000
    C96      C        0.39120    0.64370    0.30395    1.000
    C97      C        0.37930    0.66080    0.19679    1.000
    C98      C        0.50390    0.73690    0.19885    1.000
    N1       N        0.05604    0.65458    0.76784    1.000
    N2       N        0.86810    0.99713    0.57482    1.000
    N3       N        0.55780    0.49433    0.09785    1.000
    N4       N        0.37890    0.18780    0.52188    1.000
    N5       N        0.93673    0.36920    0.76942    1.000
    N6       N        0.67780    0.38683    0.75215    1.000
    N7       N        0.94396    0.34542    0.23216    1.000
    N8       N        0.13190    0.00287    0.42518    1.000
    N9       N        0.44220    0.50567    0.90215    1.000
    N10      N        0.62110    0.81220    0.47812    1.000
    N11      N        0.06327    0.63080    0.23058    1.000
    N12      N        0.32220    0.61317    0.24785    1.000
    O1       O        0.85031    0.55226    0.85858    1.000
    O2       O        0.91433    0.73305    0.91892    1.000
    O3       O        0.67893    0.49958    0.97275    1.000
    O4       O        0.66832    0.30456    0.96633    1.000
    O5       O        0.88118    0.49446    0.66051    1.000
    O6       O        0.84171    0.64915    0.61970    1.000
    O7       O        0.97228    0.80999    0.50151    1.000
    O8       O        0.11139    0.80997    0.57928    1.000
    O9       O        0.14969    0.44774    0.14142    1.000
    O10      O        0.08567    0.26695    0.08108    1.000
    O11      O        0.32107    0.50042    0.02725    1.000
    O12      O        0.33168    0.69544    0.03367    1.000
    O13      O        0.11882    0.50554    0.33949    1.000
    O14      O        0.15829    0.35085    0.38030    1.000
    O15      O        0.02772    0.19001    0.49849    1.000
    O16      O        0.88861    0.19003    0.42072    1.000
