data_functionalizedCrystal
_audit_creation_method	'EQeq! by Chris Wilmer'
_symmetry_space_group_name_H-M	'P1'
_symmetry_Int_Tables_number	1
_symmetry_cell_setting	triclinic
loop_
_symmetry_equiv_pos_as_xyz
  x,y,z
_cell_length_a	6.4021
_cell_length_b	14.9295
_cell_length_c	15.8901
_cell_angle_alpha	90
_cell_angle_beta	90
_cell_angle_gamma	90
loop_
_atom_site_label
_atom_site_type_symbol
_atom_site_fract_x
_atom_site_fract_y
_atom_site_fract_z
_atom_site_charge
Mof_Cu	Cu	0.26338	0.40878	0.86524	0.915
Mof_Cu	Cu	0.51448	0.24375	0.99468	0.88
Mof_Cu	Cu	0.23662	0.59122	0.36524	0.916
Mof_Cu	Cu	0.98552	0.75625	0.49468	0.88
Mof_Cu	Cu	0.73662	0.90878	0.63476	0.915
Mof_Cu	Cu	0.48552	0.74375	0.50532	0.881
Mof_Cu	Cu	0.76338	0.09122	0.13476	0.916
Mof_Cu	Cu	0.01448	0.25625	0.00532	0.88
Mof_H 	H 	0.2463	0.2478	0.8931	0.26
Mof_H 	H 	0.6505	0.5174	0.7479	0.153
Mof_H 	H 	0.8821	0.5024	0.7507	0.146
Mof_H 	H 	0.2704	0.5772	0.1028	0.071
Mof_H 	H 	0.2749	0.8478	0.1267	0.092
Mof_H 	H 	0.2814	0.7334	0.8939	0.091
Mof_H 	H 	0.2537	0.7522	0.3931	0.26
Mof_H 	H 	0.8495	0.4826	0.2479	0.154
Mof_H 	H 	0.6179	0.4976	0.2507	0.146
Mof_H 	H 	0.2296	0.4228	0.6028	0.071
Mof_H 	H 	0.2251	0.1522	0.6267	0.092
Mof_H 	H 	0.2186	0.2666	0.3939	0.091
Mof_H 	H 	0.7537	0.7478	0.6069	0.26
Mof_H 	H 	0.3495	0.0174	0.7521	0.153
Mof_H 	H 	0.1179	0.0024	0.7493	0.146
Mof_H 	H 	0.7296	0.0772	0.3972	0.071
Mof_H 	H 	0.7251	0.3478	0.3733	0.092
Mof_H 	H 	0.7186	0.2334	0.6061	0.091
Mof_H 	H 	0.7463	0.2522	0.1069	0.26
Mof_H 	H 	0.1505	0.9826	0.2521	0.154
Mof_H 	H 	0.3821	0.9976	0.2493	0.146
Mof_H 	H 	0.7704	0.9228	0.8972	0.07
Mof_H 	H 	0.7749	0.6522	0.8733	0.092
Mof_H 	H 	0.7814	0.7666	0.1061	0.091
Mof_C 	C 	0.7615	0.43297	0.836	0.227
Mof_C 	C 	0.2762	0.64271	0.99043	-0.023
Mof_C 	C 	0.2724	0.6349	0.07768	-0.007
Mof_C 	C 	0.2714	0.71116	0.12883	-0.03
Mof_C 	C 	0.2749	0.79548	0.09276	-0.075
Mof_C 	C 	0.2786	0.8016	0.00557	0.101
Mof_C 	C 	0.2791	0.727	0.95337	-0.074
Mof_C 	C 	0.2751	0.56095	0.93506	0.301
Mof_C 	C 	0.2639	0.70036	0.22407	0.321
Mof_C 	C 	0.7385	0.56703	0.336	0.227
Mof_C 	C 	0.2238	0.35729	0.49043	-0.024
Mof_C 	C 	0.2276	0.3651	0.57768	-0.006
Mof_C 	C 	0.2286	0.28884	0.62883	-0.03
Mof_C 	C 	0.2251	0.20452	0.59276	-0.075
Mof_C 	C 	0.2214	0.1984	0.50557	0.102
Mof_C 	C 	0.2209	0.273	0.45337	-0.075
Mof_C 	C 	0.2249	0.43905	0.43506	0.301
Mof_C 	C 	0.2361	0.29964	0.72407	0.321
Mof_C 	C 	0.2385	0.93297	0.664	0.228
Mof_C 	C 	0.7238	0.14271	0.50957	-0.024
Mof_C 	C 	0.7276	0.1349	0.42232	-0.006
Mof_C 	C 	0.7286	0.21116	0.37117	-0.03
Mof_C 	C 	0.7251	0.29548	0.40724	-0.075
Mof_C 	C 	0.7214	0.3016	0.49443	0.102
Mof_C 	C 	0.7209	0.227	0.54663	-0.075
Mof_C 	C 	0.7249	0.06095	0.56494	0.302
Mof_C 	C 	0.7361	0.20036	0.27593	0.321
Mof_C 	C 	0.2615	0.06703	0.164	0.227
Mof_C 	C 	0.7762	0.85729	0.00957	-0.023
Mof_C 	C 	0.7724	0.8651	0.92232	-0.007
Mof_C 	C 	0.7714	0.78884	0.87117	-0.03
Mof_C 	C 	0.7749	0.70452	0.90724	-0.075
Mof_C 	C 	0.7786	0.6984	0.99443	0.1
Mof_C 	C 	0.7791	0.773	0.04663	-0.074
Mof_C 	C 	0.7751	0.93905	0.06494	0.299
Mof_C 	C 	0.7639	0.79964	0.77593	0.321
Mof_N 	N 	0.588	0.39542	0.86917	-0.182
Mof_N 	N 	0.6615	0.33522	0.92443	-0.159
Mof_N 	N 	0.8627	0.3364	0.92522	-0.159
Mof_N 	N 	0.934	0.39681	0.87039	-0.182
Mof_N 	N 	0.7609	0.501	0.7794	-0.295
Mof_N 	N 	0.2789	0.89075	0.96611	-0.011
Mof_N 	N 	0.912	0.60458	0.36917	-0.182
Mof_N 	N 	0.8385	0.66478	0.42443	-0.159
Mof_N 	N 	0.6373	0.6636	0.42522	-0.159
Mof_N 	N 	0.566	0.60319	0.37039	-0.183
Mof_N 	N 	0.7391	0.499	0.2794	-0.295
Mof_N 	N 	0.2211	0.10925	0.46611	-0.012
Mof_N 	N 	0.412	0.89542	0.63083	-0.182
Mof_N 	N 	0.3385	0.83522	0.57557	-0.159
Mof_N 	N 	0.1373	0.8364	0.57478	-0.159
Mof_N 	N 	0.066	0.89681	0.62961	-0.181
Mof_N 	N 	0.2391	0.001	0.7206	-0.295
Mof_N 	N 	0.7211	0.39075	0.53389	-0.012
Mof_N 	N 	0.088	0.10458	0.13083	-0.183
Mof_N 	N 	0.1615	0.16478	0.07557	-0.159
Mof_N 	N 	0.3627	0.1636	0.07478	-0.159
Mof_N 	N 	0.434	0.10319	0.12961	-0.182
Mof_N 	N 	0.2609	0.999	0.2206	-0.295
Mof_N 	N 	0.7789	0.60925	0.03389	-0.011
Mof_O 	O 	0.2697	0.48388	0.97001	-0.366
Mof_O 	O 	0.2817	0.56936	0.85739	-0.311
Mof_O 	O 	0.2407	0.61946	0.24842	-0.393
Mof_O 	O 	0.2795	0.76721	0.26952	-0.313
Mof_O 	O 	0.2715	0.95671	0.01274	-0.126
Mof_O 	O 	0.2864	0.89564	0.88914	-0.129
Mof_O 	O 	0.2608	0.2768	0.93878	-0.722
Mof_O 	O 	0.2303	0.51612	0.47001	-0.366
Mof_O 	O 	0.2183	0.43064	0.35739	-0.311
Mof_O 	O 	0.2593	0.38054	0.74842	-0.393
Mof_O 	O 	0.2205	0.23279	0.76952	-0.313
Mof_O 	O 	0.2285	0.04329	0.51274	-0.126
Mof_O 	O 	0.2136	0.10436	0.38914	-0.13
Mof_O 	O 	0.2392	0.7232	0.43878	-0.721
Mof_O 	O 	0.7303	0.98388	0.52999	-0.368
Mof_O 	O 	0.7183	0.06936	0.64261	-0.311
Mof_O 	O 	0.7593	0.11946	0.25158	-0.393
Mof_O 	O 	0.7205	0.26721	0.23048	-0.313
Mof_O 	O 	0.7285	0.45671	0.48726	-0.126
Mof_O 	O 	0.7136	0.39564	0.61086	-0.13
Mof_O 	O 	0.7392	0.7768	0.56122	-0.723
Mof_O 	O 	0.7697	0.01612	0.02999	-0.364
Mof_O 	O 	0.7817	0.93064	0.14261	-0.311
Mof_O 	O 	0.7407	0.88054	0.75158	-0.394
Mof_O 	O 	0.7795	0.73279	0.73048	-0.314
Mof_O 	O 	0.7715	0.54329	0.98726	-0.126
Mof_O 	O 	0.7864	0.60436	0.11086	-0.13
Mof_O 	O 	0.7608	0.2232	0.06122	-0.721
_end
