# CIF file generated by openbabel 3.1.0, see https://openbabel.org
data_I
_chemical_name_common 'image0'
_cell_length_a 7.2782
_cell_length_b 7.5613
_cell_length_c 7.482
_cell_angle_alpha 90
_cell_angle_beta 101.494
_cell_angle_gamma 90
_space_group_name_H-M_alt 'P 1'
_space_group_name_Hall 'P 1'
loop_
    _symmetry_equiv_pos_as_xyz
    x,y,z
loop_
    _atom_site_label
    _atom_site_type_symbol
    _atom_site_fract_x
    _atom_site_fract_y
    _atom_site_fract_z
    _atom_site_occupancy
    N1       N        0.29030    0.29940    0.97190    1.000
    C1       C        0.18470    0.18760    0.98100    1.000
    N2       N        0.70970    0.29940    0.02810    1.000
    C2       C        0.81530    0.18760    0.01900    1.000
    N3       N        0.70970    0.70060    0.02810    1.000
    C3       C        0.81530    0.81240    0.01900    1.000
    N4       N        0.29030    0.70060    0.97190    1.000
    C4       C        0.18470    0.81240    0.98100    1.000
    Pt1      Pt       0.00000    0.00000    0.00000    1.000
    Fe1      Fe       0.50000    0.50000    0.00000    1.000
    N5       N        0.50460    0.50000    0.29150    1.000
    C5       C        0.34300    0.50000    0.37700    1.000
    H1       H        0.22660    0.50000    0.29890    1.000
    C6       C        0.65800    0.50000    0.44200    1.000
    F1       F        0.84800    0.50000    0.40300    1.000
    N6       N        0.49540    0.50000    0.70850    1.000
    C7       C        0.65700    0.50000    0.62300    1.000
    H2       H        0.77340    0.50000    0.70110    1.000
    C8       C        0.34200    0.50000    0.55800    1.000
    F2       F        0.15200    0.50000    0.59700    1.000
