data_functionalizedCrystal
_audit_creation_method	'EQeq! by Chris Wilmer'
_symmetry_space_group_name_H-M	'P1'
_symmetry_Int_Tables_number	1
_symmetry_cell_setting	triclinic
loop_
_symmetry_equiv_pos_as_xyz
  x,y,z
_cell_length_a	15.348
_cell_length_b	30.693
_cell_length_c	9.8227
_cell_angle_alpha	90
_cell_angle_beta	90
_cell_angle_gamma	90
loop_
_atom_site_label
_atom_site_type_symbol
_atom_site_fract_x
_atom_site_fract_y
_atom_site_fract_z
_atom_site_charge
Mof_N 	N 	0.7743	0.6694	0.6559	-0.189
Mof_N 	N 	0.7111	0.7655	0.6533	-0.091
Mof_C 	C 	0.8668	0.6508	0.65	0.061
Mof_C 	C 	0.7323	0.6611	0.767	0.111
Mof_C 	C 	0.8804	0.6195	0.7292	-0.13
Mof_H 	H 	0.9095	0.6619	0.5922	0
Mof_H 	H 	0.6917	0.6818	0.7941	-0.017
Mof_C 	C 	0.7404	0.6268	0.847	-0.144
Mof_C 	C 	0.83	0.6046	0.8402	0.114
Mof_H 	H 	0.9311	0.6039	0.7126	0.074
Mof_H 	H 	0.6956	0.6169	0.9027	0.075
Mof_C 	C 	0.8499	0.5692	0.9251	-0.044
Mof_S 	S 	0.8886	0.52138	0.849	-0.006
Mof_S 	S 	0.9032	0.41596	0.1479	-0.015
Mof_C 	C 	0.8721	0.3673	0.0643	-0.039
Mof_C 	C 	0.8445	0.3316	0.1615	0.126
Mof_C 	C 	0.7924	0.341	0.273	-0.123
Mof_C 	C 	0.8706	0.2897	0.1464	-0.127
Mof_C 	C 	0.7656	0.3084	0.363	0.037
Mof_H 	H 	0.7749	0.3696	0.2881	0.073
Mof_H 	H 	0.903	0.2818	0.0703	0.064
Mof_C 	C 	0.849	0.2577	0.2454	0.087
Mof_H 	H 	0.7309	0.316	0.4371	0.011
Mof_H 	H 	0.8762	0.2307	0.2417	-0.008
Mof_C 	C 	0.8827	0.2868	0.36	-0.003
Mof_H 	H 	0.9156	0.2815	0.438	0.02
Mof_C 	C 	0.9112	0.3198	0.2676	-0.079
Mof_H 	H 	0.9658	0.3328	0.2725	0.056
Mof_C 	C 	0.7726	0.3076	0.137	-0.09
Mof_H 	H 	0.7388	0.3117	0.0596	0.051
Mof_C 	C 	0.7515	0.2754	0.238	0.031
Mof_H 	H 	0.6968	0.2623	0.2349	0.011
Mof_C 	C 	0.8558	0.646	0.854	-0.076
Mof_H 	H 	0.8941	0.6533	0.9235	0.05
Mof_C 	C 	0.8266	0.6785	0.7663	-0.001
Mof_H 	H 	0.8428	0.7072	0.7828	0.022
Mof_C 	C 	0.7356	0.629	0.638	0.007
Mof_H 	H 	0.6937	0.6246	0.5712	0.022
Mof_C 	C 	0.7631	0.5932	0.728	-0.065
Mof_H 	H 	0.7413	0.5651	0.7185	0.052
Mof_N 	N 	0.8088	0.2629	0.339	-0.091
Mof_N 	N 	0.2257	0.3306	0.6559	-0.188
Mof_N 	N 	0.2889	0.2345	0.6533	-0.09
Mof_C 	C 	0.1332	0.3492	0.65	0.062
Mof_C 	C 	0.2677	0.3389	0.767	0.112
Mof_C 	C 	0.1196	0.3805	0.7292	-0.129
Mof_H 	H 	0.0905	0.3381	0.5922	0.001
Mof_H 	H 	0.3083	0.3182	0.7941	-0.016
Mof_C 	C 	0.2596	0.3732	0.847	-0.143
Mof_C 	C 	0.17	0.3954	0.8402	0.115
Mof_H 	H 	0.0689	0.3961	0.7126	0.075
Mof_H 	H 	0.3044	0.3831	0.9027	0.076
Mof_C 	C 	0.1501	0.4308	0.9251	-0.043
Mof_S 	S 	0.1114	0.47862	0.849	-0.005
Mof_S 	S 	0.0968	0.58404	0.1479	-0.014
Mof_C 	C 	0.1279	0.6327	0.0643	-0.038
Mof_C 	C 	0.1555	0.6684	0.1615	0.127
Mof_C 	C 	0.2076	0.659	0.273	-0.122
Mof_C 	C 	0.1294	0.7103	0.1464	-0.126
Mof_C 	C 	0.2344	0.6916	0.363	0.038
Mof_H 	H 	0.2251	0.6304	0.2881	0.074
Mof_H 	H 	0.097	0.7182	0.0703	0.064
Mof_C 	C 	0.151	0.7423	0.2454	0.087
Mof_H 	H 	0.2691	0.684	0.4371	0.011
Mof_H 	H 	0.1238	0.7693	0.2417	-0.008
Mof_C 	C 	0.1173	0.7132	0.36	-0.003
Mof_H 	H 	0.0844	0.7185	0.438	0.02
Mof_C 	C 	0.0888	0.6802	0.2676	-0.079
Mof_H 	H 	0.0342	0.6672	0.2725	0.056
Mof_C 	C 	0.2274	0.6924	0.137	-0.09
Mof_H 	H 	0.2612	0.6883	0.0596	0.051
Mof_C 	C 	0.2485	0.7246	0.238	0.031
Mof_H 	H 	0.3032	0.7377	0.2349	0.011
Mof_C 	C 	0.1442	0.354	0.854	-0.076
Mof_H 	H 	0.1059	0.3467	0.9235	0.05
Mof_C 	C 	0.1734	0.3215	0.7663	-0.001
Mof_H 	H 	0.1572	0.2928	0.7828	0.022
Mof_C 	C 	0.2644	0.371	0.638	0.007
Mof_H 	H 	0.3063	0.3754	0.5712	0.022
Mof_C 	C 	0.2369	0.4068	0.728	-0.065
Mof_H 	H 	0.2587	0.4349	0.7185	0.052
Mof_N 	N 	0.1912	0.7371	0.339	-0.091
Mof_N 	N 	0.7257	0.1694	0.3441	-0.188
Mof_N 	N 	0.7889	0.2655	0.3467	-0.09
Mof_C 	C 	0.6332	0.1508	0.35	0.062
Mof_C 	C 	0.7677	0.1611	0.233	0.111
Mof_C 	C 	0.6196	0.1195	0.2708	-0.129
Mof_H 	H 	0.5905	0.1619	0.4078	0.001
Mof_H 	H 	0.8083	0.1818	0.2059	-0.016
Mof_C 	C 	0.7596	0.1268	0.153	-0.143
Mof_C 	C 	0.67	0.1046	0.1598	0.115
Mof_H 	H 	0.5689	0.1039	0.2874	0.075
Mof_H 	H 	0.8044	0.1169	0.0973	0.076
Mof_C 	C 	0.6501	0.0692	0.0749	-0.042
Mof_S 	S 	0.6114	0.02138	0.151	-0.005
Mof_S 	S 	0.5968	0.91596	0.8521	-0.014
Mof_C 	C 	0.6279	0.8673	0.9357	-0.04
Mof_C 	C 	0.6555	0.8316	0.8385	0.128
Mof_C 	C 	0.7076	0.841	0.727	-0.122
Mof_C 	C 	0.6294	0.7897	0.8536	-0.127
Mof_C 	C 	0.7344	0.8084	0.637	0.038
Mof_H 	H 	0.7251	0.8696	0.7119	0.074
Mof_H 	H 	0.597	0.7818	0.9297	0.064
Mof_C 	C 	0.651	0.7577	0.7546	0.087
Mof_H 	H 	0.7691	0.816	0.5629	0.011
Mof_H 	H 	0.6238	0.7307	0.7583	-0.008
Mof_C 	C 	0.6173	0.7868	0.64	-0.003
Mof_H 	H 	0.5844	0.7815	0.562	0.02
Mof_C 	C 	0.5888	0.8198	0.7324	-0.079
Mof_H 	H 	0.5342	0.8328	0.7275	0.056
Mof_C 	C 	0.7274	0.8076	0.863	-0.09
Mof_H 	H 	0.7612	0.8117	0.9404	0.051
Mof_C 	C 	0.7485	0.7754	0.762	0.031
Mof_H 	H 	0.8032	0.7623	0.7651	0.011
Mof_C 	C 	0.6442	0.146	0.146	-0.076
Mof_H 	H 	0.6059	0.1533	0.0765	0.051
Mof_C 	C 	0.6734	0.1785	0.2337	-0.001
Mof_H 	H 	0.6572	0.2072	0.2172	0.022
Mof_C 	C 	0.7644	0.129	0.362	0.008
Mof_H 	H 	0.8063	0.1246	0.4288	0.022
Mof_C 	C 	0.7369	0.0932	0.272	-0.065
Mof_H 	H 	0.7587	0.0651	0.2815	0.052
Mof_N 	N 	0.6912	0.7629	0.661	-0.091
Mof_N 	N 	0.2743	0.8306	0.3441	-0.188
Mof_N 	N 	0.2111	0.7345	0.3467	-0.09
Mof_C 	C 	0.3668	0.8492	0.35	0.062
Mof_C 	C 	0.2323	0.8389	0.233	0.111
Mof_C 	C 	0.3804	0.8805	0.2708	-0.129
Mof_H 	H 	0.4095	0.8381	0.4078	0.001
Mof_H 	H 	0.1917	0.8182	0.2059	-0.016
Mof_C 	C 	0.2404	0.8732	0.153	-0.143
Mof_C 	C 	0.33	0.8954	0.1598	0.115
Mof_H 	H 	0.4311	0.8961	0.2874	0.075
Mof_H 	H 	0.1956	0.8831	0.0973	0.076
Mof_C 	C 	0.3499	0.9308	0.0749	-0.042
Mof_S 	S 	0.3886	0.97862	0.151	-0.005
Mof_S 	S 	0.4032	0.08404	0.8521	-0.014
Mof_C 	C 	0.3721	0.1327	0.9357	-0.04
Mof_C 	C 	0.3445	0.1684	0.8385	0.128
Mof_C 	C 	0.2924	0.159	0.727	-0.122
Mof_C 	C 	0.3706	0.2103	0.8536	-0.127
Mof_C 	C 	0.2656	0.1916	0.637	0.038
Mof_H 	H 	0.2749	0.1304	0.7119	0.074
Mof_H 	H 	0.403	0.2182	0.9297	0.064
Mof_C 	C 	0.349	0.2423	0.7546	0.087
Mof_H 	H 	0.2309	0.184	0.5629	0.011
Mof_H 	H 	0.3762	0.2693	0.7583	-0.008
Mof_C 	C 	0.3827	0.2132	0.64	-0.003
Mof_H 	H 	0.4156	0.2185	0.562	0.02
Mof_C 	C 	0.4112	0.1802	0.7324	-0.079
Mof_H 	H 	0.4658	0.1672	0.7275	0.056
Mof_C 	C 	0.2726	0.1924	0.863	-0.09
Mof_H 	H 	0.2388	0.1883	0.9404	0.051
Mof_C 	C 	0.2515	0.2246	0.762	0.031
Mof_H 	H 	0.1968	0.2377	0.7651	0.011
Mof_C 	C 	0.3558	0.854	0.146	-0.076
Mof_H 	H 	0.3941	0.8467	0.0765	0.051
Mof_C 	C 	0.3266	0.8215	0.2337	-0.001
Mof_H 	H 	0.3428	0.7928	0.2172	0.022
Mof_C 	C 	0.2356	0.871	0.362	0.008
Mof_H 	H 	0.1937	0.8754	0.4288	0.022
Mof_C 	C 	0.2631	0.9068	0.272	-0.065
Mof_H 	H 	0.2413	0.9349	0.2815	0.052
Mof_N 	N 	0.3088	0.2371	0.661	-0.091
Mof_N 	N 	0.2257	0.3306	0.3441	-0.188
Mof_N 	N 	0.2889	0.2345	0.3467	-0.09
Mof_C 	C 	0.1332	0.3492	0.35	0.062
Mof_C 	C 	0.2677	0.3389	0.233	0.111
Mof_C 	C 	0.1196	0.3805	0.2708	-0.129
Mof_H 	H 	0.0905	0.3381	0.4078	0.001
Mof_H 	H 	0.3083	0.3182	0.2059	-0.016
Mof_C 	C 	0.2596	0.3732	0.153	-0.143
Mof_C 	C 	0.17	0.3954	0.1598	0.115
Mof_H 	H 	0.0689	0.3961	0.2874	0.075
Mof_H 	H 	0.3044	0.3831	0.0973	0.076
Mof_C 	C 	0.1501	0.4308	0.0749	-0.042
Mof_S 	S 	0.1114	0.47862	0.151	-0.005
Mof_S 	S 	0.0968	0.58404	0.8521	-0.014
Mof_C 	C 	0.1279	0.6327	0.9357	-0.04
Mof_C 	C 	0.1555	0.6684	0.8385	0.128
Mof_C 	C 	0.2076	0.659	0.727	-0.122
Mof_C 	C 	0.1294	0.7103	0.8536	-0.127
Mof_C 	C 	0.2344	0.6916	0.637	0.038
Mof_H 	H 	0.2251	0.6304	0.7119	0.074
Mof_H 	H 	0.097	0.7182	0.9297	0.064
Mof_C 	C 	0.151	0.7423	0.7546	0.087
Mof_H 	H 	0.2691	0.684	0.5629	0.011
Mof_H 	H 	0.1238	0.7693	0.7583	-0.008
Mof_C 	C 	0.1173	0.7132	0.64	-0.003
Mof_H 	H 	0.0844	0.7185	0.562	0.02
Mof_C 	C 	0.0888	0.6802	0.7324	-0.079
Mof_H 	H 	0.0342	0.6672	0.7275	0.056
Mof_C 	C 	0.2274	0.6924	0.863	-0.09
Mof_H 	H 	0.2612	0.6883	0.9404	0.051
Mof_C 	C 	0.2485	0.7246	0.762	0.031
Mof_H 	H 	0.3032	0.7377	0.7651	0.011
Mof_C 	C 	0.1442	0.354	0.146	-0.076
Mof_H 	H 	0.1059	0.3467	0.0765	0.051
Mof_C 	C 	0.1734	0.3215	0.2337	-0.001
Mof_H 	H 	0.1572	0.2928	0.2172	0.022
Mof_C 	C 	0.2644	0.371	0.362	0.008
Mof_H 	H 	0.3063	0.3754	0.4288	0.022
Mof_C 	C 	0.2369	0.4068	0.272	-0.065
Mof_H 	H 	0.2587	0.4349	0.2815	0.052
Mof_N 	N 	0.1912	0.7371	0.661	-0.091
Mof_N 	N 	0.7743	0.6694	0.3441	-0.188
Mof_N 	N 	0.7111	0.7655	0.3467	-0.09
Mof_C 	C 	0.8668	0.6508	0.35	0.062
Mof_C 	C 	0.7323	0.6611	0.233	0.111
Mof_C 	C 	0.8804	0.6195	0.2708	-0.129
Mof_H 	H 	0.9095	0.6619	0.4078	0.001
Mof_H 	H 	0.6917	0.6818	0.2059	-0.016
Mof_C 	C 	0.7404	0.6268	0.153	-0.143
Mof_C 	C 	0.83	0.6046	0.1598	0.115
Mof_H 	H 	0.9311	0.6039	0.2874	0.075
Mof_H 	H 	0.6956	0.6169	0.0973	0.076
Mof_C 	C 	0.8499	0.5692	0.0749	-0.042
Mof_S 	S 	0.8886	0.52138	0.151	-0.005
Mof_S 	S 	0.9032	0.41596	0.8521	-0.014
Mof_C 	C 	0.8721	0.3673	0.9357	-0.04
Mof_C 	C 	0.8445	0.3316	0.8385	0.128
Mof_C 	C 	0.7924	0.341	0.727	-0.122
Mof_C 	C 	0.8706	0.2897	0.8536	-0.127
Mof_C 	C 	0.7656	0.3084	0.637	0.038
Mof_H 	H 	0.7749	0.3696	0.7119	0.074
Mof_H 	H 	0.903	0.2818	0.9297	0.064
Mof_C 	C 	0.849	0.2577	0.7546	0.087
Mof_H 	H 	0.7309	0.316	0.5629	0.011
Mof_H 	H 	0.8762	0.2307	0.7583	-0.008
Mof_C 	C 	0.8827	0.2868	0.64	-0.003
Mof_H 	H 	0.9156	0.2815	0.562	0.02
Mof_C 	C 	0.9112	0.3198	0.7324	-0.079
Mof_H 	H 	0.9658	0.3328	0.7275	0.056
Mof_C 	C 	0.7726	0.3076	0.863	-0.09
Mof_H 	H 	0.7388	0.3117	0.9404	0.051
Mof_C 	C 	0.7515	0.2754	0.762	0.031
Mof_H 	H 	0.6968	0.2623	0.7651	0.011
Mof_C 	C 	0.8558	0.646	0.146	-0.076
Mof_H 	H 	0.8941	0.6533	0.0765	0.051
Mof_C 	C 	0.8266	0.6785	0.2337	-0.001
Mof_H 	H 	0.8428	0.7072	0.2172	0.022
Mof_C 	C 	0.7356	0.629	0.362	0.008
Mof_H 	H 	0.6937	0.6246	0.4288	0.022
Mof_C 	C 	0.7631	0.5932	0.272	-0.065
Mof_H 	H 	0.7413	0.5651	0.2815	0.052
Mof_N 	N 	0.8088	0.2629	0.661	-0.091
Mof_N 	N 	0.2743	0.8306	0.6559	-0.188
Mof_N 	N 	0.2111	0.7345	0.6533	-0.09
Mof_C 	C 	0.3668	0.8492	0.65	0.062
Mof_C 	C 	0.2323	0.8389	0.767	0.112
Mof_C 	C 	0.3804	0.8805	0.7292	-0.129
Mof_H 	H 	0.4095	0.8381	0.5922	0.001
Mof_H 	H 	0.1917	0.8182	0.7941	-0.016
Mof_C 	C 	0.2404	0.8732	0.847	-0.143
Mof_C 	C 	0.33	0.8954	0.8402	0.115
Mof_H 	H 	0.4311	0.8961	0.7126	0.075
Mof_H 	H 	0.1956	0.8831	0.9027	0.076
Mof_C 	C 	0.3499	0.9308	0.9251	-0.043
Mof_S 	S 	0.3886	0.97862	0.849	-0.005
Mof_S 	S 	0.4032	0.08404	0.1479	-0.014
Mof_C 	C 	0.3721	0.1327	0.0643	-0.038
Mof_C 	C 	0.3445	0.1684	0.1615	0.127
Mof_C 	C 	0.2924	0.159	0.273	-0.122
Mof_C 	C 	0.3706	0.2103	0.1464	-0.126
Mof_C 	C 	0.2656	0.1916	0.363	0.038
Mof_H 	H 	0.2749	0.1304	0.2881	0.074
Mof_H 	H 	0.403	0.2182	0.0703	0.064
Mof_C 	C 	0.349	0.2423	0.2454	0.087
Mof_H 	H 	0.2309	0.184	0.4371	0.011
Mof_H 	H 	0.3762	0.2693	0.2417	-0.008
Mof_C 	C 	0.3827	0.2132	0.36	-0.003
Mof_H 	H 	0.4156	0.2185	0.438	0.02
Mof_C 	C 	0.4112	0.1802	0.2676	-0.079
Mof_H 	H 	0.4658	0.1672	0.2725	0.056
Mof_C 	C 	0.2726	0.1924	0.137	-0.09
Mof_H 	H 	0.2388	0.1883	0.0596	0.051
Mof_C 	C 	0.2515	0.2246	0.238	0.031
Mof_H 	H 	0.1968	0.2377	0.2349	0.011
Mof_C 	C 	0.3558	0.854	0.854	-0.076
Mof_H 	H 	0.3941	0.8467	0.9235	0.05
Mof_C 	C 	0.3266	0.8215	0.7663	-0.001
Mof_H 	H 	0.3428	0.7928	0.7828	0.022
Mof_C 	C 	0.2356	0.871	0.638	0.007
Mof_H 	H 	0.1937	0.8754	0.5712	0.022
Mof_C 	C 	0.2631	0.9068	0.728	-0.065
Mof_H 	H 	0.2413	0.9349	0.7185	0.052
Mof_N 	N 	0.3088	0.2371	0.339	-0.091
Mof_N 	N 	0.7257	0.1694	0.6559	-0.188
Mof_N 	N 	0.7889	0.2655	0.6533	-0.09
Mof_C 	C 	0.6332	0.1508	0.65	0.062
Mof_C 	C 	0.7677	0.1611	0.767	0.112
Mof_C 	C 	0.6196	0.1195	0.7292	-0.129
Mof_H 	H 	0.5905	0.1619	0.5922	0.001
Mof_H 	H 	0.8083	0.1818	0.7941	-0.016
Mof_C 	C 	0.7596	0.1268	0.847	-0.143
Mof_C 	C 	0.67	0.1046	0.8402	0.115
Mof_H 	H 	0.5689	0.1039	0.7126	0.075
Mof_H 	H 	0.8044	0.1169	0.9027	0.076
Mof_C 	C 	0.6501	0.0692	0.9251	-0.043
Mof_S 	S 	0.6114	0.02138	0.849	-0.005
Mof_S 	S 	0.5968	0.91596	0.1479	-0.014
Mof_C 	C 	0.6279	0.8673	0.0643	-0.038
Mof_C 	C 	0.6555	0.8316	0.1615	0.127
Mof_C 	C 	0.7076	0.841	0.273	-0.122
Mof_C 	C 	0.6294	0.7897	0.1464	-0.126
Mof_C 	C 	0.7344	0.8084	0.363	0.038
Mof_H 	H 	0.7251	0.8696	0.2881	0.074
Mof_H 	H 	0.597	0.7818	0.0703	0.064
Mof_C 	C 	0.651	0.7577	0.2454	0.087
Mof_H 	H 	0.7691	0.816	0.4371	0.011
Mof_H 	H 	0.6238	0.7307	0.2417	-0.008
Mof_C 	C 	0.6173	0.7868	0.36	-0.003
Mof_H 	H 	0.5844	0.7815	0.438	0.02
Mof_C 	C 	0.5888	0.8198	0.2676	-0.079
Mof_H 	H 	0.5342	0.8328	0.2725	0.056
Mof_C 	C 	0.7274	0.8076	0.137	-0.09
Mof_H 	H 	0.7612	0.8117	0.0596	0.051
Mof_C 	C 	0.7485	0.7754	0.238	0.031
Mof_H 	H 	0.8032	0.7623	0.2349	0.011
Mof_C 	C 	0.6442	0.146	0.854	-0.076
Mof_H 	H 	0.6059	0.1533	0.9235	0.05
Mof_C 	C 	0.6734	0.1785	0.7663	-0.001
Mof_H 	H 	0.6572	0.2072	0.7828	0.022
Mof_C 	C 	0.7644	0.129	0.638	0.007
Mof_H 	H 	0.8063	0.1246	0.5712	0.022
Mof_C 	C 	0.7369	0.0932	0.728	-0.065
Mof_H 	H 	0.7587	0.0651	0.7185	0.052
Mof_N 	N 	0.6912	0.7629	0.339	-0.091
Mof_Fe	Fe	0.73746	0.71706	0.5	0.649
Mof_N 	N 	0.8647	0.7434	0.5	-0.229
Mof_N 	N 	0.6148	0.6903	0.5	-0.229
Mof_C 	C 	0.9056	0.771	0.5	0.158
Mof_N 	N 	0.9513	0.8118	0.5	-0.166
Mof_C 	C 	0.0443	0.8083	0.5	0.154
Mof_Fe	Fe	0.26254	0.28294	0.5	0.649
Mof_N 	N 	0.1353	0.2566	0.5	-0.229
Mof_N 	N 	0.3852	0.3097	0.5	-0.229
Mof_C 	C 	0.0944	0.229	0.5	0.158
Mof_N 	N 	0.0487	0.1882	0.5	-0.166
Mof_C 	C 	0.9557	0.1917	0.5	0.154
Mof_Fe	Fe	0.76254	0.21706	0.5	0.649
Mof_N 	N 	0.6353	0.2434	0.5	-0.229
Mof_N 	N 	0.8852	0.1903	0.5	-0.229
Mof_C 	C 	0.5944	0.271	0.5	0.158
Mof_N 	N 	0.5487	0.3118	0.5	-0.166
Mof_C 	C 	0.4557	0.3083	0.5	0.154
Mof_Fe	Fe	0.23746	0.78294	0.5	0.649
Mof_N 	N 	0.3647	0.7566	0.5	-0.229
Mof_N 	N 	0.1148	0.8097	0.5	-0.229
Mof_C 	C 	0.4056	0.729	0.5	0.158
Mof_N 	N 	0.4513	0.6882	0.5	-0.166
Mof_C 	C 	0.5443	0.6917	0.5	0.154
Mof_C 	C 	0.8977	0.4912	-0	-0.004
Mof_C 	C 	0.8966	0.449	-0	-0.002
Mof_C 	C 	0.1023	0.5088	-0	-0.004
Mof_C 	C 	0.1034	0.551	-0	-0.002
Mof_C 	C 	0.6023	0.9912	-0	-0.004
Mof_C 	C 	0.6034	0.949	-0	-0.002
Mof_C 	C 	0.3977	0.0088	-0	-0.004
Mof_C 	C 	0.3966	0.051	-0	-0.002
_end
