# CIF file generated by openbabel 3.1.0, see https://openbabel.org
data_I
_chemical_name_common 'image0'
_cell_length_a 22.4941
_cell_length_b 11.1377
_cell_length_c 9.8101
_cell_angle_alpha 90
_cell_angle_beta 103.1
_cell_angle_gamma 90
_space_group_name_H-M_alt 'P 1'
_space_group_name_Hall 'P 1'
loop_
    _symmetry_equiv_pos_as_xyz
    x,y,z
loop_
    _atom_site_label
    _atom_site_type_symbol
    _atom_site_fract_x
    _atom_site_fract_y
    _atom_site_fract_z
    _atom_site_occupancy
    Cd1      Cd       0.39214    0.08592    0.07167    1.000
    P1       P        0.45423    0.13320    0.40657    1.000
    O1       O        0.43986    0.03330    0.29750    1.000
    O2       O        0.42950    0.10170    0.53520    1.000
    O3       O        0.52073    0.16910    0.45030    1.000
    O4       O        0.20556    0.46450    0.02840    1.000
    O5       O        0.16699    0.33220    0.14870    1.000
    N1       N        0.36294    0.24725    0.20846    1.000
    C1       C        0.41714    0.26884    0.32337    1.000
    H1       H        0.44640    0.31400    0.28700    1.000
    H2       H        0.40510    0.31720    0.39350    1.000
    C2       C        0.30954    0.20413    0.26099    1.000
    H3       H        0.32200    0.13640    0.32130    1.000
    H4       H        0.27860    0.17700    0.18280    1.000
    C3       C        0.28189    0.29832    0.34078    1.000
    H5       H        0.31040    0.31670    0.42700    1.000
    H6       H        0.24560    0.26640    0.36330    1.000
    C4       C        0.26594    0.41363    0.25533    1.000
    H7       H        0.25700    0.47400    0.31770    1.000
    C5       C        0.32094    0.45747    0.20250    1.000
    H8       H        0.35240    0.48340    0.28030    1.000
    H9       H        0.30920    0.52480    0.14120    1.000
    C6       C        0.34548    0.35755    0.12423    1.000
    H10      H        0.31490    0.33730    0.04210    1.000
    H11      H        0.38050    0.38700    0.09410    1.000
    C7       C        0.20914    0.40098    0.13533    1.000
    Cd2      Cd       0.89214    0.58592    0.07167    1.000
    P2       P        0.95423    0.63320    0.40657    1.000
    O6       O        0.93986    0.53330    0.29750    1.000
    O7       O        0.92950    0.60170    0.53520    1.000
    O8       O        0.02073    0.66910    0.45030    1.000
    O9       O        0.70556    0.96450    0.02840    1.000
    O10      O        0.66699    0.83220    0.14870    1.000
    N2       N        0.86294    0.74725    0.20846    1.000
    C8       C        0.91714    0.76884    0.32337    1.000
    H12      H        0.94640    0.81400    0.28700    1.000
    H13      H        0.90510    0.81720    0.39350    1.000
    C9       C        0.80954    0.70413    0.26099    1.000
    H14      H        0.82200    0.63640    0.32130    1.000
    H15      H        0.77860    0.67700    0.18280    1.000
    C10      C        0.78189    0.79832    0.34078    1.000
    H16      H        0.81040    0.81670    0.42700    1.000
    H17      H        0.74560    0.76640    0.36330    1.000
    C11      C        0.76594    0.91363    0.25533    1.000
    H18      H        0.75700    0.97400    0.31770    1.000
    C12      C        0.82094    0.95747    0.20250    1.000
    H19      H        0.85240    0.98340    0.28030    1.000
    H20      H        0.80920    0.02480    0.14120    1.000
    C13      C        0.84548    0.85755    0.12423    1.000
    H21      H        0.81490    0.83730    0.04210    1.000
    H22      H        0.88050    0.88700    0.09410    1.000
    C14      C        0.70914    0.90098    0.13533    1.000
    Cd3      Cd       0.60786    0.08592    0.42833    1.000
    P3       P        0.54577    0.13320    0.09343    1.000
    O11      O        0.56014    0.03330    0.20250    1.000
    O12      O        0.57050    0.10170    0.96480    1.000
    O13      O        0.47927    0.16910    0.04970    1.000
    O14      O        0.79444    0.46450    0.47160    1.000
    O15      O        0.83301    0.33220    0.35130    1.000
    N3       N        0.63706    0.24725    0.29154    1.000
    C15      C        0.58286    0.26884    0.17663    1.000
    H23      H        0.55360    0.31400    0.21300    1.000
    H24      H        0.59490    0.31720    0.10650    1.000
    C16      C        0.69046    0.20413    0.23901    1.000
    H25      H        0.67800    0.13640    0.17870    1.000
    H26      H        0.72140    0.17700    0.31720    1.000
    C17      C        0.71811    0.29832    0.15922    1.000
    H27      H        0.68960    0.31670    0.07300    1.000
    H28      H        0.75440    0.26640    0.13670    1.000
    C18      C        0.73406    0.41363    0.24467    1.000
    H29      H        0.74300    0.47400    0.18230    1.000
    C19      C        0.67906    0.45747    0.29750    1.000
    H30      H        0.64760    0.48340    0.21970    1.000
    H31      H        0.69080    0.52480    0.35880    1.000
    C20      C        0.65452    0.35755    0.37577    1.000
    H32      H        0.68510    0.33730    0.45790    1.000
    H33      H        0.61950    0.38700    0.40590    1.000
    C21      C        0.79086    0.40098    0.36467    1.000
    Cd4      Cd       0.10786    0.58592    0.42833    1.000
    P4       P        0.04577    0.63320    0.09343    1.000
    O16      O        0.06014    0.53330    0.20250    1.000
    O17      O        0.07050    0.60170    0.96480    1.000
    O18      O        0.97927    0.66910    0.04970    1.000
    O19      O        0.29444    0.96450    0.47160    1.000
    O20      O        0.33301    0.83220    0.35130    1.000
    N4       N        0.13706    0.74725    0.29154    1.000
    C22      C        0.08286    0.76884    0.17663    1.000
    H34      H        0.05360    0.81400    0.21300    1.000
    H35      H        0.09490    0.81720    0.10650    1.000
    C23      C        0.19046    0.70413    0.23901    1.000
    H36      H        0.17800    0.63640    0.17870    1.000
    H37      H        0.22140    0.67700    0.31720    1.000
    C24      C        0.21811    0.79832    0.15922    1.000
    H38      H        0.18960    0.81670    0.07300    1.000
    H39      H        0.25440    0.76640    0.13670    1.000
    C25      C        0.23406    0.91363    0.24467    1.000
    H40      H        0.24300    0.97400    0.18230    1.000
    C26      C        0.17906    0.95747    0.29750    1.000
    H41      H        0.14760    0.98340    0.21970    1.000
    H42      H        0.19080    0.02480    0.35880    1.000
    C27      C        0.15452    0.85755    0.37577    1.000
    H43      H        0.18510    0.83730    0.45790    1.000
    H44      H        0.11950    0.88700    0.40590    1.000
    C28      C        0.29086    0.90098    0.36467    1.000
    Cd5      Cd       0.60786    0.91408    0.92833    1.000
    P5       P        0.54577    0.86680    0.59343    1.000
    O21      O        0.56014    0.96670    0.70250    1.000
    O22      O        0.57050    0.89830    0.46480    1.000
    O23      O        0.47927    0.83090    0.54970    1.000
    O24      O        0.79444    0.53550    0.97160    1.000
    O25      O        0.83301    0.66780    0.85130    1.000
    N5       N        0.63706    0.75275    0.79154    1.000
    C29      C        0.58286    0.73116    0.67663    1.000
    H45      H        0.55360    0.68600    0.71300    1.000
    H46      H        0.59490    0.68280    0.60650    1.000
    C30      C        0.69046    0.79587    0.73901    1.000
    H47      H        0.67800    0.86360    0.67870    1.000
    H48      H        0.72140    0.82300    0.81720    1.000
    C31      C        0.71811    0.70168    0.65922    1.000
    H49      H        0.68960    0.68330    0.57300    1.000
    H50      H        0.75440    0.73360    0.63670    1.000
    C32      C        0.73406    0.58637    0.74467    1.000
    H51      H        0.74300    0.52600    0.68230    1.000
    C33      C        0.67906    0.54253    0.79750    1.000
    H52      H        0.64760    0.51660    0.71970    1.000
    H53      H        0.69080    0.47520    0.85880    1.000
    C34      C        0.65452    0.64245    0.87577    1.000
    H54      H        0.68510    0.66270    0.95790    1.000
    H55      H        0.61950    0.61300    0.90590    1.000
    C35      C        0.79086    0.59902    0.86467    1.000
    Cd6      Cd       0.10786    0.41408    0.92833    1.000
    P6       P        0.04577    0.36680    0.59343    1.000
    O26      O        0.06014    0.46670    0.70250    1.000
    O27      O        0.07050    0.39830    0.46480    1.000
    O28      O        0.97927    0.33090    0.54970    1.000
    O29      O        0.29444    0.03550    0.97160    1.000
    O30      O        0.33301    0.16780    0.85130    1.000
    N6       N        0.13706    0.25275    0.79154    1.000
    C36      C        0.08286    0.23116    0.67663    1.000
    H56      H        0.05360    0.18600    0.71300    1.000
    H57      H        0.09490    0.18280    0.60650    1.000
    C37      C        0.19046    0.29587    0.73901    1.000
    H58      H        0.17800    0.36360    0.67870    1.000
    H59      H        0.22140    0.32300    0.81720    1.000
    C38      C        0.21811    0.20168    0.65922    1.000
    H60      H        0.18960    0.18330    0.57300    1.000
    H61      H        0.25440    0.23360    0.63670    1.000
    C39      C        0.23406    0.08637    0.74467    1.000
    H62      H        0.24300    0.02600    0.68230    1.000
    C40      C        0.17906    0.04253    0.79750    1.000
    H63      H        0.14760    0.01660    0.71970    1.000
    H64      H        0.19080    0.97520    0.85880    1.000
    C41      C        0.15452    0.14245    0.87577    1.000
    H65      H        0.18510    0.16270    0.95790    1.000
    H66      H        0.11950    0.11300    0.90590    1.000
    C42      C        0.29086    0.09902    0.86467    1.000
    Cd7      Cd       0.39214    0.91408    0.57167    1.000
    P7       P        0.45423    0.86680    0.90657    1.000
    O31      O        0.43986    0.96670    0.79750    1.000
    O32      O        0.42950    0.89830    0.03520    1.000
    O33      O        0.52073    0.83090    0.95030    1.000
    O34      O        0.20556    0.53550    0.52840    1.000
    O35      O        0.16699    0.66780    0.64870    1.000
    N7       N        0.36294    0.75275    0.70846    1.000
    C43      C        0.41714    0.73116    0.82337    1.000
    H67      H        0.44640    0.68600    0.78700    1.000
    H68      H        0.40510    0.68280    0.89350    1.000
    C44      C        0.30954    0.79587    0.76099    1.000
    H69      H        0.32200    0.86360    0.82130    1.000
    H70      H        0.27860    0.82300    0.68280    1.000
    C45      C        0.28189    0.70168    0.84078    1.000
    H71      H        0.31040    0.68330    0.92700    1.000
    H72      H        0.24560    0.73360    0.86330    1.000
    C46      C        0.26594    0.58637    0.75533    1.000
    H73      H        0.25700    0.52600    0.81770    1.000
    C47      C        0.32094    0.54253    0.70250    1.000
    H74      H        0.35240    0.51660    0.78030    1.000
    H75      H        0.30920    0.47520    0.64120    1.000
    C48      C        0.34548    0.64245    0.62423    1.000
    H76      H        0.31490    0.66270    0.54210    1.000
    H77      H        0.38050    0.61300    0.59410    1.000
    C49      C        0.20914    0.59902    0.63533    1.000
    Cd8      Cd       0.89214    0.41408    0.57167    1.000
    P8       P        0.95423    0.36680    0.90657    1.000
    O36      O        0.93986    0.46670    0.79750    1.000
    O37      O        0.92950    0.39830    0.03520    1.000
    O38      O        0.02073    0.33090    0.95030    1.000
    O39      O        0.70556    0.03550    0.52840    1.000
    O40      O        0.66699    0.16780    0.64870    1.000
    N8       N        0.86294    0.25275    0.70846    1.000
    C50      C        0.91714    0.23116    0.82337    1.000
    H78      H        0.94640    0.18600    0.78700    1.000
    H79      H        0.90510    0.18280    0.89350    1.000
    C51      C        0.80954    0.29587    0.76099    1.000
    H80      H        0.82200    0.36360    0.82130    1.000
    H81      H        0.77860    0.32300    0.68280    1.000
    C52      C        0.78189    0.20168    0.84078    1.000
    H82      H        0.81040    0.18330    0.92700    1.000
    H83      H        0.74560    0.23360    0.86330    1.000
    C53      C        0.76594    0.08637    0.75533    1.000
    H84      H        0.75700    0.02600    0.81770    1.000
    C54      C        0.82094    0.04253    0.70250    1.000
    H85      H        0.85240    0.01660    0.78030    1.000
    H86      H        0.80920    0.97520    0.64120    1.000
    C55      C        0.84548    0.14245    0.62423    1.000
    H87      H        0.81490    0.16270    0.54210    1.000
    H88      H        0.88050    0.11300    0.59410    1.000
    C56      C        0.70914    0.09902    0.63533    1.000
    Cd9      Cd       0.50000    0.88001    0.25000    1.000
    Cd10     Cd       0.00000    0.38001    0.25000    1.000
    Cd11     Cd       0.50000    0.11999    0.75000    1.000
    Cd12     Cd       0.00000    0.61999    0.75000    1.000
