data_functionalizedCrystal
_audit_creation_method	'EQeq! by Chris Wilmer'
_symmetry_space_group_name_H-M	'P1'
_symmetry_Int_Tables_number	1
_symmetry_cell_setting	triclinic
loop_
_symmetry_equiv_pos_as_xyz
  x,y,z
_cell_length_a	12.7035
_cell_length_b	12.7035
_cell_length_c	25.438
_cell_angle_alpha	90
_cell_angle_beta	90
_cell_angle_gamma	90
loop_
_atom_site_label
_atom_site_type_symbol
_atom_site_fract_x
_atom_site_fract_y
_atom_site_fract_z
_atom_site_charge
Mof_Zn	Zn	0.53734	0.43131	0.43804	1.189
Mof_N 	N 	0.6303	0.4726	0.499	-0.267
Mof_N 	N 	0.7743	0.4772	0.54803	-0.308
Mof_N 	N 	0.6022	0.5034	0.54976	-0.294
Mof_C 	C 	0.6904	0.5039	0.577	0.256
Mof_C 	C 	0.7309	0.4593	0.5006	0.093
Mof_H 	H 	0.7701	0.439	0.4714	-0.046
Mof_O 	O 	0.6433	0.4582	0.3834	-0.516
Mof_O 	O 	0.5113	0.4131	0.3373	-0.404
Mof_C 	C 	0.6024	0.4395	0.3415	0.414
Mof_N 	N 	0.714	0.533	0.6287	-0.13
Mof_H 	H 	0.6635	0.5334	0.6535	0.169
Mof_H 	H 	0.7805	0.5507	0.6372	-0.291
Mof_C 	C 	0.659	0.432	0.2884	-0.215
Mof_H 	H 	0.634	0.3715	0.269	0.383
Mof_H 	H 	0.6446	0.4948	0.2677	0.216
Mof_C 	C 	0.7763	0.423	0.2978	-0.039
Mof_H 	H 	0.7931	0.4939	0.3072	0
Mof_H 	H 	0.7996	0.3761	0.3251	0.03
Mof_N 	N 	0.472	0.186	0.3707	-0.333
Mof_H 	H 	0.4522	0.2444	0.3535	0.458
Mof_H 	H 	0.4775	0.1244	0.3534	0.007
Mof_C 	C 	0.648	0.409	0.249	-0.51
Mof_H 	H 	0.6635	0.3375	0.2581	-0.032
Mof_H 	H 	0.5737	0.4162	0.2426	0.126
Mof_C 	C 	0.677	0.465	0.2986	-0.113
Mof_H 	H 	0.7478	0.4445	0.309	0.149
Mof_H 	H 	0.6772	0.5404	0.2925	0
Mof_Zn	Zn	0.96266	0.06869	0.43804	1.189
Mof_N 	N 	0.8697	0.0274	0.499	-0.266
Mof_N 	N 	0.7257	0.0228	0.54803	-0.308
Mof_N 	N 	0.8978	0.9966	0.54976	-0.292
Mof_C 	C 	0.8096	0.9961	0.577	0.258
Mof_C 	C 	0.7691	0.0407	0.5006	0.093
Mof_H 	H 	0.7299	0.061	0.4714	-0.045
Mof_O 	O 	0.8567	0.0418	0.3834	-0.515
Mof_O 	O 	0.9887	0.0869	0.3373	-0.405
Mof_C 	C 	0.8976	0.0605	0.3415	0.414
Mof_N 	N 	0.786	0.967	0.6287	-0.13
Mof_H 	H 	0.8365	0.9666	0.6535	0.168
Mof_H 	H 	0.7195	0.9493	0.6372	-0.292
Mof_C 	C 	0.841	0.068	0.2884	-0.217
Mof_H 	H 	0.866	0.1285	0.269	0.383
Mof_H 	H 	0.8554	0.0052	0.2677	0.216
Mof_C 	C 	0.7237	0.077	0.2978	-0.04
Mof_H 	H 	0.7069	0.0061	0.3072	-0
Mof_H 	H 	0.7004	0.1239	0.3251	0.03
Mof_N 	N 	0.028	0.314	0.3707	-0.333
Mof_H 	H 	0.0478	0.2556	0.3535	0.457
Mof_H 	H 	0.0225	0.3756	0.3534	0.007
Mof_C 	C 	0.852	0.091	0.249	-0.508
Mof_H 	H 	0.8365	0.1625	0.2581	-0.033
Mof_H 	H 	0.9263	0.0838	0.2426	0.125
Mof_C 	C 	0.823	0.035	0.2986	-0.112
Mof_H 	H 	0.7522	0.0555	0.309	0.15
Mof_H 	H 	0.8228	0.9596	0.2925	0.002
Mof_Zn	Zn	0.06869	0.53734	0.43804	1.19
Mof_N 	N 	0.0274	0.6303	0.499	-0.266
Mof_N 	N 	0.0228	0.7743	0.54803	-0.308
Mof_N 	N 	0.9966	0.6022	0.54976	-0.293
Mof_C 	C 	0.9961	0.6904	0.577	0.258
Mof_C 	C 	0.0407	0.7309	0.5006	0.094
Mof_H 	H 	0.061	0.7701	0.4714	-0.045
Mof_O 	O 	0.0418	0.6433	0.3834	-0.515
Mof_O 	O 	0.0869	0.5113	0.3373	-0.404
Mof_C 	C 	0.0605	0.6024	0.3415	0.414
Mof_N 	N 	0.967	0.714	0.6287	-0.131
Mof_H 	H 	0.9666	0.6635	0.6535	0.169
Mof_H 	H 	0.9493	0.7805	0.6372	-0.29
Mof_C 	C 	0.068	0.659	0.2884	-0.216
Mof_H 	H 	0.1285	0.634	0.269	0.383
Mof_H 	H 	0.0052	0.6446	0.2677	0.216
Mof_C 	C 	0.077	0.7763	0.2978	-0.039
Mof_H 	H 	0.0061	0.7931	0.3072	-0
Mof_H 	H 	0.1239	0.7996	0.3251	0.029
Mof_N 	N 	0.314	0.472	0.3707	-0.333
Mof_H 	H 	0.2556	0.4522	0.3535	0.458
Mof_H 	H 	0.3756	0.4775	0.3534	0.007
Mof_C 	C 	0.091	0.648	0.249	-0.509
Mof_H 	H 	0.1625	0.6635	0.2581	-0.032
Mof_H 	H 	0.0838	0.5737	0.2426	0.126
Mof_C 	C 	0.035	0.677	0.2986	-0.113
Mof_H 	H 	0.0555	0.7478	0.309	0.149
Mof_H 	H 	0.9596	0.6772	0.2925	0.001
Mof_Zn	Zn	0.43131	0.96266	0.43804	1.19
Mof_N 	N 	0.4726	0.8697	0.499	-0.266
Mof_N 	N 	0.4772	0.7257	0.54803	-0.307
Mof_N 	N 	0.5034	0.8978	0.54976	-0.293
Mof_C 	C 	0.5039	0.8096	0.577	0.257
Mof_C 	C 	0.4593	0.7691	0.5006	0.094
Mof_H 	H 	0.439	0.7299	0.4714	-0.045
Mof_O 	O 	0.4582	0.8567	0.3834	-0.515
Mof_O 	O 	0.4131	0.9887	0.3373	-0.405
Mof_C 	C 	0.4395	0.8976	0.3415	0.414
Mof_N 	N 	0.533	0.786	0.6287	-0.13
Mof_H 	H 	0.5334	0.8365	0.6535	0.169
Mof_H 	H 	0.5507	0.7195	0.6372	-0.291
Mof_C 	C 	0.432	0.841	0.2884	-0.215
Mof_H 	H 	0.3715	0.866	0.269	0.383
Mof_H 	H 	0.4948	0.8554	0.2677	0.216
Mof_C 	C 	0.423	0.7237	0.2978	-0.039
Mof_H 	H 	0.4939	0.7069	0.3072	0
Mof_H 	H 	0.3761	0.7004	0.3251	0.03
Mof_N 	N 	0.186	0.028	0.3707	-0.334
Mof_H 	H 	0.2444	0.0478	0.3535	0.459
Mof_H 	H 	0.1244	0.0225	0.3534	0.009
Mof_C 	C 	0.409	0.852	0.249	-0.509
Mof_H 	H 	0.3375	0.8365	0.2581	-0.032
Mof_H 	H 	0.4162	0.9263	0.2426	0.126
Mof_C 	C 	0.465	0.823	0.2986	-0.113
Mof_H 	H 	0.4445	0.7522	0.309	0.149
Mof_H 	H 	0.5404	0.8228	0.2925	0
Mof_Zn	Zn	0.96266	0.43131	0.06196	1.19
Mof_N 	N 	0.8697	0.4726	0.001	-0.266
Mof_N 	N 	0.7257	0.4772	0.95197	-0.307
Mof_N 	N 	0.8978	0.5034	0.95024	-0.292
Mof_C 	C 	0.8096	0.5039	0.923	0.257
Mof_C 	C 	0.7691	0.4593	0.9994	0.095
Mof_H 	H 	0.7299	0.439	0.0286	-0.045
Mof_O 	O 	0.8567	0.4582	0.1166	-0.515
Mof_O 	O 	0.9887	0.4131	0.1627	-0.405
Mof_C 	C 	0.8976	0.4395	0.1585	0.414
Mof_N 	N 	0.786	0.533	0.8713	-0.13
Mof_H 	H 	0.8365	0.5334	0.8465	0.168
Mof_H 	H 	0.7195	0.5507	0.8628	-0.291
Mof_C 	C 	0.841	0.432	0.2116	-0.215
Mof_H 	H 	0.866	0.3715	0.231	0.383
Mof_H 	H 	0.8554	0.4948	0.2323	0.216
Mof_C 	C 	0.7237	0.423	0.2022	-0.039
Mof_H 	H 	0.7069	0.4939	0.1928	0
Mof_H 	H 	0.7004	0.3761	0.1749	0.03
Mof_N 	N 	0.028	0.186	0.1293	-0.334
Mof_H 	H 	0.0478	0.2444	0.1465	0.459
Mof_H 	H 	0.0225	0.1244	0.1466	0.009
Mof_C 	C 	0.852	0.409	0.251	-0.509
Mof_H 	H 	0.8365	0.3375	0.2419	-0.032
Mof_H 	H 	0.9263	0.4162	0.2574	0.126
Mof_C 	C 	0.823	0.465	0.2014	-0.113
Mof_H 	H 	0.7522	0.4445	0.191	0.149
Mof_H 	H 	0.8228	0.5404	0.2075	0
Mof_Zn	Zn	0.53734	0.06869	0.06196	1.19
Mof_N 	N 	0.6303	0.0274	0.001	-0.265
Mof_N 	N 	0.7743	0.0228	0.95197	-0.308
Mof_N 	N 	0.6022	0.9966	0.95024	-0.292
Mof_C 	C 	0.6904	0.9961	0.923	0.259
Mof_C 	C 	0.7309	0.0407	0.9994	0.093
Mof_H 	H 	0.7701	0.061	0.0286	-0.044
Mof_O 	O 	0.6433	0.0418	0.1166	-0.515
Mof_O 	O 	0.5113	0.0869	0.1627	-0.404
Mof_C 	C 	0.6024	0.0605	0.1585	0.414
Mof_N 	N 	0.714	0.967	0.8713	-0.131
Mof_H 	H 	0.6635	0.9666	0.8465	0.17
Mof_H 	H 	0.7805	0.9493	0.8628	-0.29
Mof_C 	C 	0.659	0.068	0.2116	-0.216
Mof_H 	H 	0.634	0.1285	0.231	0.383
Mof_H 	H 	0.6446	0.0052	0.2323	0.216
Mof_C 	C 	0.7763	0.077	0.2022	-0.039
Mof_H 	H 	0.7931	0.0061	0.1928	-0
Mof_H 	H 	0.7996	0.1239	0.1749	0.029
Mof_N 	N 	0.472	0.314	0.1293	-0.333
Mof_H 	H 	0.4522	0.2556	0.1465	0.458
Mof_H 	H 	0.4775	0.3756	0.1466	0.007
Mof_C 	C 	0.648	0.091	0.251	-0.509
Mof_H 	H 	0.6635	0.1625	0.2419	-0.032
Mof_H 	H 	0.5737	0.0838	0.2574	0.126
Mof_C 	C 	0.677	0.035	0.2014	-0.113
Mof_H 	H 	0.7478	0.0555	0.191	0.149
Mof_H 	H 	0.6772	0.9596	0.2075	0.001
Mof_Zn	Zn	0.43131	0.53734	0.06196	1.19
Mof_N 	N 	0.4726	0.6303	0.001	-0.266
Mof_N 	N 	0.4772	0.7743	0.95197	-0.307
Mof_N 	N 	0.5034	0.6022	0.95024	-0.293
Mof_C 	C 	0.5039	0.6904	0.923	0.257
Mof_C 	C 	0.4593	0.7309	0.9994	0.094
Mof_H 	H 	0.439	0.7701	0.0286	-0.045
Mof_O 	O 	0.4582	0.6433	0.1166	-0.515
Mof_O 	O 	0.4131	0.5113	0.1627	-0.404
Mof_C 	C 	0.4395	0.6024	0.1585	0.414
Mof_N 	N 	0.533	0.714	0.8713	-0.13
Mof_H 	H 	0.5334	0.6635	0.8465	0.169
Mof_H 	H 	0.5507	0.7805	0.8628	-0.291
Mof_C 	C 	0.432	0.659	0.2116	-0.215
Mof_H 	H 	0.3715	0.634	0.231	0.383
Mof_H 	H 	0.4948	0.6446	0.2323	0.216
Mof_C 	C 	0.423	0.7763	0.2022	-0.039
Mof_H 	H 	0.4939	0.7931	0.1928	-0
Mof_H 	H 	0.3761	0.7996	0.1749	0.03
Mof_N 	N 	0.186	0.472	0.1293	-0.333
Mof_H 	H 	0.2444	0.4522	0.1465	0.458
Mof_H 	H 	0.1244	0.4775	0.1466	0.008
Mof_C 	C 	0.409	0.648	0.251	-0.51
Mof_H 	H 	0.3375	0.6635	0.2419	-0.032
Mof_H 	H 	0.4162	0.5737	0.2574	0.126
Mof_C 	C 	0.465	0.677	0.2014	-0.113
Mof_H 	H 	0.4445	0.7478	0.191	0.149
Mof_H 	H 	0.5404	0.6772	0.2075	0
Mof_Zn	Zn	0.06869	0.96266	0.06196	1.189
Mof_N 	N 	0.0274	0.8697	0.001	-0.266
Mof_N 	N 	0.0228	0.7257	0.95197	-0.308
Mof_N 	N 	0.9966	0.8978	0.95024	-0.291
Mof_C 	C 	0.9961	0.8096	0.923	0.259
Mof_C 	C 	0.0407	0.7691	0.9994	0.093
Mof_H 	H 	0.061	0.7299	0.0286	-0.044
Mof_O 	O 	0.0418	0.8567	0.1166	-0.515
Mof_O 	O 	0.0869	0.9887	0.1627	-0.406
Mof_C 	C 	0.0605	0.8976	0.1585	0.414
Mof_N 	N 	0.967	0.786	0.8713	-0.13
Mof_H 	H 	0.9666	0.8365	0.8465	0.168
Mof_H 	H 	0.9493	0.7195	0.8628	-0.292
Mof_C 	C 	0.068	0.841	0.2116	-0.217
Mof_H 	H 	0.1285	0.866	0.231	0.383
Mof_H 	H 	0.0052	0.8554	0.2323	0.216
Mof_C 	C 	0.077	0.7237	0.2022	-0.039
Mof_H 	H 	0.0061	0.7069	0.1928	-0
Mof_H 	H 	0.1239	0.7004	0.1749	0.03
Mof_N 	N 	0.314	0.028	0.1293	-0.333
Mof_H 	H 	0.2556	0.0478	0.1465	0.457
Mof_H 	H 	0.3756	0.0225	0.1466	0.007
Mof_C 	C 	0.091	0.852	0.251	-0.509
Mof_H 	H 	0.1625	0.8365	0.2419	-0.032
Mof_H 	H 	0.0838	0.9263	0.2574	0.125
Mof_C 	C 	0.035	0.823	0.2014	-0.112
Mof_H 	H 	0.0555	0.7522	0.191	0.15
Mof_H 	H 	0.9596	0.8228	0.2075	0.001
Mof_Zn	Zn	0.46266	0.56869	0.56196	1.19
Mof_N 	N 	0.3697	0.5274	0.501	-0.266
Mof_N 	N 	0.2257	0.5228	0.45197	-0.307
Mof_N 	N 	0.3978	0.4966	0.45024	-0.293
Mof_C 	C 	0.3096	0.4961	0.423	0.257
Mof_C 	C 	0.2691	0.5407	0.4994	0.094
Mof_H 	H 	0.2299	0.561	0.5286	-0.045
Mof_O 	O 	0.3567	0.5418	0.6166	-0.515
Mof_O 	O 	0.4887	0.5869	0.6627	-0.404
Mof_C 	C 	0.3976	0.5605	0.6585	0.414
Mof_N 	N 	0.286	0.467	0.3713	-0.13
Mof_H 	H 	0.3365	0.4666	0.3465	0.169
Mof_H 	H 	0.2195	0.4493	0.3628	-0.291
Mof_C 	C 	0.341	0.568	0.7116	-0.215
Mof_H 	H 	0.366	0.6285	0.731	0.383
Mof_H 	H 	0.3554	0.5052	0.7323	0.216
Mof_C 	C 	0.2237	0.577	0.7022	-0.039
Mof_H 	H 	0.2069	0.5061	0.6928	0
Mof_H 	H 	0.2004	0.6239	0.6749	0.03
Mof_N 	N 	0.528	0.814	0.6293	-0.333
Mof_H 	H 	0.5478	0.7556	0.6465	0.458
Mof_H 	H 	0.5225	0.8756	0.6466	0.007
Mof_C 	C 	0.352	0.591	0.751	-0.51
Mof_H 	H 	0.3365	0.6625	0.7419	-0.032
Mof_H 	H 	0.4263	0.5838	0.7574	0.126
Mof_C 	C 	0.323	0.535	0.7014	-0.113
Mof_H 	H 	0.2522	0.5555	0.691	0.149
Mof_H 	H 	0.3228	0.4596	0.7075	0
Mof_Zn	Zn	0.03734	0.93131	0.56196	1.189
Mof_N 	N 	0.1303	0.9726	0.501	-0.266
Mof_N 	N 	0.2743	0.9772	0.45197	-0.308
Mof_N 	N 	0.1022	0.0034	0.45024	-0.292
Mof_C 	C 	0.1904	0.0039	0.423	0.258
Mof_C 	C 	0.2309	0.9593	0.4994	0.093
Mof_H 	H 	0.2701	0.939	0.5286	-0.045
Mof_O 	O 	0.1433	0.9582	0.6166	-0.515
Mof_O 	O 	0.0113	0.9131	0.6627	-0.405
Mof_C 	C 	0.1024	0.9395	0.6585	0.414
Mof_N 	N 	0.214	0.033	0.3713	-0.13
Mof_H 	H 	0.1635	0.0334	0.3465	0.168
Mof_H 	H 	0.2805	0.0507	0.3628	-0.292
Mof_C 	C 	0.159	0.932	0.7116	-0.217
Mof_H 	H 	0.134	0.8715	0.731	0.383
Mof_H 	H 	0.1446	0.9948	0.7323	0.216
Mof_C 	C 	0.2763	0.923	0.7022	-0.04
Mof_H 	H 	0.2931	0.9939	0.6928	-0
Mof_H 	H 	0.2996	0.8761	0.6749	0.03
Mof_N 	N 	0.972	0.686	0.6293	-0.333
Mof_H 	H 	0.9522	0.7444	0.6465	0.457
Mof_H 	H 	0.9775	0.6244	0.6466	0.007
Mof_C 	C 	0.148	0.909	0.751	-0.508
Mof_H 	H 	0.1635	0.8375	0.7419	-0.033
Mof_H 	H 	0.0737	0.9162	0.7574	0.125
Mof_C 	C 	0.177	0.965	0.7014	-0.112
Mof_H 	H 	0.2478	0.9445	0.691	0.15
Mof_H 	H 	0.1772	0.0404	0.7075	0.002
Mof_Zn	Zn	0.93131	0.46266	0.56196	1.19
Mof_N 	N 	0.9726	0.3697	0.501	-0.266
Mof_N 	N 	0.9772	0.2257	0.45197	-0.308
Mof_N 	N 	0.0034	0.3978	0.45024	-0.293
Mof_C 	C 	0.0039	0.3096	0.423	0.258
Mof_C 	C 	0.9593	0.2691	0.4994	0.094
Mof_H 	H 	0.939	0.2299	0.5286	-0.045
Mof_O 	O 	0.9582	0.3567	0.6166	-0.515
Mof_O 	O 	0.9131	0.4887	0.6627	-0.404
Mof_C 	C 	0.9395	0.3976	0.6585	0.414
Mof_N 	N 	0.033	0.286	0.3713	-0.131
Mof_H 	H 	0.0334	0.3365	0.3465	0.169
Mof_H 	H 	0.0507	0.2195	0.3628	-0.29
Mof_C 	C 	0.932	0.341	0.7116	-0.216
Mof_H 	H 	0.8715	0.366	0.731	0.383
Mof_H 	H 	0.9948	0.3554	0.7323	0.216
Mof_C 	C 	0.923	0.2237	0.7022	-0.039
Mof_H 	H 	0.9939	0.2069	0.6928	-0
Mof_H 	H 	0.8761	0.2004	0.6749	0.029
Mof_N 	N 	0.686	0.528	0.6293	-0.333
Mof_H 	H 	0.7444	0.5478	0.6465	0.458
Mof_H 	H 	0.6244	0.5225	0.6466	0.007
Mof_C 	C 	0.909	0.352	0.751	-0.509
Mof_H 	H 	0.8375	0.3365	0.7419	-0.032
Mof_H 	H 	0.9162	0.4263	0.7574	0.126
Mof_C 	C 	0.965	0.323	0.7014	-0.113
Mof_H 	H 	0.9445	0.2522	0.691	0.149
Mof_H 	H 	0.0404	0.3228	0.7075	0.001
Mof_Zn	Zn	0.56869	0.03734	0.56196	1.19
Mof_N 	N 	0.5274	0.1303	0.501	-0.266
Mof_N 	N 	0.5228	0.2743	0.45197	-0.307
Mof_N 	N 	0.4966	0.1022	0.45024	-0.293
Mof_C 	C 	0.4961	0.1904	0.423	0.257
Mof_C 	C 	0.5407	0.2309	0.4994	0.094
Mof_H 	H 	0.561	0.2701	0.5286	-0.045
Mof_O 	O 	0.5418	0.1433	0.6166	-0.515
Mof_O 	O 	0.5869	0.0113	0.6627	-0.405
Mof_C 	C 	0.5605	0.1024	0.6585	0.414
Mof_N 	N 	0.467	0.214	0.3713	-0.13
Mof_H 	H 	0.4666	0.1635	0.3465	0.169
Mof_H 	H 	0.4493	0.2805	0.3628	-0.291
Mof_C 	C 	0.568	0.159	0.7116	-0.215
Mof_H 	H 	0.6285	0.134	0.731	0.383
Mof_H 	H 	0.5052	0.1446	0.7323	0.216
Mof_C 	C 	0.577	0.2763	0.7022	-0.039
Mof_H 	H 	0.5061	0.2931	0.6928	0
Mof_H 	H 	0.6239	0.2996	0.6749	0.03
Mof_N 	N 	0.814	0.972	0.6293	-0.334
Mof_H 	H 	0.7556	0.9522	0.6465	0.459
Mof_H 	H 	0.8756	0.9775	0.6466	0.009
Mof_C 	C 	0.591	0.148	0.751	-0.509
Mof_H 	H 	0.6625	0.1635	0.7419	-0.032
Mof_H 	H 	0.5838	0.0737	0.7574	0.126
Mof_C 	C 	0.535	0.177	0.7014	-0.113
Mof_H 	H 	0.5555	0.2478	0.691	0.149
Mof_H 	H 	0.4596	0.1772	0.7075	0
Mof_Zn	Zn	0.03734	0.56869	0.93804	1.19
Mof_N 	N 	0.1303	0.5274	0.999	-0.266
Mof_N 	N 	0.2743	0.5228	0.04803	-0.307
Mof_N 	N 	0.1022	0.4966	0.04976	-0.292
Mof_C 	C 	0.1904	0.4961	0.077	0.257
Mof_C 	C 	0.2309	0.5407	0.0006	0.095
Mof_H 	H 	0.2701	0.561	0.9714	-0.045
Mof_O 	O 	0.1433	0.5418	0.8834	-0.515
Mof_O 	O 	0.0113	0.5869	0.8373	-0.405
Mof_C 	C 	0.1024	0.5605	0.8415	0.414
Mof_N 	N 	0.214	0.467	0.1287	-0.13
Mof_H 	H 	0.1635	0.4666	0.1535	0.168
Mof_H 	H 	0.2805	0.4493	0.1372	-0.291
Mof_C 	C 	0.159	0.568	0.7884	-0.215
Mof_H 	H 	0.134	0.6285	0.769	0.383
Mof_H 	H 	0.1446	0.5052	0.7677	0.216
Mof_C 	C 	0.2763	0.577	0.7978	-0.039
Mof_H 	H 	0.2931	0.5061	0.8072	0
Mof_H 	H 	0.2996	0.6239	0.8251	0.03
Mof_N 	N 	0.972	0.814	0.8707	-0.334
Mof_H 	H 	0.9522	0.7556	0.8535	0.459
Mof_H 	H 	0.9775	0.8756	0.8534	0.009
Mof_C 	C 	0.148	0.591	0.749	-0.509
Mof_H 	H 	0.1635	0.6625	0.7581	-0.032
Mof_H 	H 	0.0737	0.5838	0.7426	0.126
Mof_C 	C 	0.177	0.535	0.7986	-0.113
Mof_H 	H 	0.2478	0.5555	0.809	0.149
Mof_H 	H 	0.1772	0.4596	0.7925	0
Mof_Zn	Zn	0.46266	0.93131	0.93804	1.19
Mof_N 	N 	0.3697	0.9726	0.999	-0.265
Mof_N 	N 	0.2257	0.9772	0.04803	-0.308
Mof_N 	N 	0.3978	0.0034	0.04976	-0.292
Mof_C 	C 	0.3096	0.0039	0.077	0.259
Mof_C 	C 	0.2691	0.9593	0.0006	0.093
Mof_H 	H 	0.2299	0.939	0.9714	-0.044
Mof_O 	O 	0.3567	0.9582	0.8834	-0.515
Mof_O 	O 	0.4887	0.9131	0.8373	-0.404
Mof_C 	C 	0.3976	0.9395	0.8415	0.414
Mof_N 	N 	0.286	0.033	0.1287	-0.131
Mof_H 	H 	0.3365	0.0334	0.1535	0.17
Mof_H 	H 	0.2195	0.0507	0.1372	-0.29
Mof_C 	C 	0.341	0.932	0.7884	-0.216
Mof_H 	H 	0.366	0.8715	0.769	0.383
Mof_H 	H 	0.3554	0.9948	0.7677	0.216
Mof_C 	C 	0.2237	0.923	0.7978	-0.039
Mof_H 	H 	0.2069	0.9939	0.8072	-0
Mof_H 	H 	0.2004	0.8761	0.8251	0.029
Mof_N 	N 	0.528	0.686	0.8707	-0.333
Mof_H 	H 	0.5478	0.7444	0.8535	0.458
Mof_H 	H 	0.5225	0.6244	0.8534	0.007
Mof_C 	C 	0.352	0.909	0.749	-0.509
Mof_H 	H 	0.3365	0.8375	0.7581	-0.032
Mof_H 	H 	0.4263	0.9162	0.7426	0.126
Mof_C 	C 	0.323	0.965	0.7986	-0.113
Mof_H 	H 	0.2522	0.9445	0.809	0.149
Mof_H 	H 	0.3228	0.0404	0.7925	0.001
Mof_Zn	Zn	0.56869	0.46266	0.93804	1.19
Mof_N 	N 	0.5274	0.3697	0.999	-0.266
Mof_N 	N 	0.5228	0.2257	0.04803	-0.307
Mof_N 	N 	0.4966	0.3978	0.04976	-0.293
Mof_C 	C 	0.4961	0.3096	0.077	0.257
Mof_C 	C 	0.5407	0.2691	0.0006	0.094
Mof_H 	H 	0.561	0.2299	0.9714	-0.045
Mof_O 	O 	0.5418	0.3567	0.8834	-0.515
Mof_O 	O 	0.5869	0.4887	0.8373	-0.404
Mof_C 	C 	0.5605	0.3976	0.8415	0.414
Mof_N 	N 	0.467	0.286	0.1287	-0.13
Mof_H 	H 	0.4666	0.3365	0.1535	0.169
Mof_H 	H 	0.4493	0.2195	0.1372	-0.291
Mof_C 	C 	0.568	0.341	0.7884	-0.215
Mof_H 	H 	0.6285	0.366	0.769	0.383
Mof_H 	H 	0.5052	0.3554	0.7677	0.216
Mof_C 	C 	0.577	0.2237	0.7978	-0.039
Mof_H 	H 	0.5061	0.2069	0.8072	-0
Mof_H 	H 	0.6239	0.2004	0.8251	0.03
Mof_N 	N 	0.814	0.528	0.8707	-0.333
Mof_H 	H 	0.7556	0.5478	0.8535	0.458
Mof_H 	H 	0.8756	0.5225	0.8534	0.008
Mof_C 	C 	0.591	0.352	0.749	-0.51
Mof_H 	H 	0.6625	0.3365	0.7581	-0.032
Mof_H 	H 	0.5838	0.4263	0.7426	0.126
Mof_C 	C 	0.535	0.323	0.7986	-0.113
Mof_H 	H 	0.5555	0.2522	0.809	0.149
Mof_H 	H 	0.4596	0.3228	0.7925	0
Mof_Zn	Zn	0.93131	0.03734	0.93804	1.189
Mof_N 	N 	0.9726	0.1303	0.999	-0.266
Mof_N 	N 	0.9772	0.2743	0.04803	-0.308
Mof_N 	N 	0.0034	0.1022	0.04976	-0.291
Mof_C 	C 	0.0039	0.1904	0.077	0.259
Mof_C 	C 	0.9593	0.2309	0.0006	0.093
Mof_H 	H 	0.939	0.2701	0.9714	-0.044
Mof_O 	O 	0.9582	0.1433	0.8834	-0.515
Mof_O 	O 	0.9131	0.0113	0.8373	-0.406
Mof_C 	C 	0.9395	0.1024	0.8415	0.414
Mof_N 	N 	0.033	0.214	0.1287	-0.13
Mof_H 	H 	0.0334	0.1635	0.1535	0.168
Mof_H 	H 	0.0507	0.2805	0.1372	-0.292
Mof_C 	C 	0.932	0.159	0.7884	-0.217
Mof_H 	H 	0.8715	0.134	0.769	0.383
Mof_H 	H 	0.9948	0.1446	0.7677	0.216
Mof_C 	C 	0.923	0.2763	0.7978	-0.039
Mof_H 	H 	0.9939	0.2931	0.8072	-0
Mof_H 	H 	0.8761	0.2996	0.8251	0.03
Mof_N 	N 	0.686	0.972	0.8707	-0.333
Mof_H 	H 	0.7444	0.9522	0.8535	0.457
Mof_H 	H 	0.6244	0.9775	0.8534	0.007
Mof_C 	C 	0.909	0.148	0.749	-0.509
Mof_H 	H 	0.8375	0.1635	0.7581	-0.032
Mof_H 	H 	0.9162	0.0737	0.7426	0.125
Mof_C 	C 	0.965	0.177	0.7986	-0.112
Mof_H 	H 	0.9445	0.2478	0.809	0.15
Mof_H 	H 	0.0404	0.1772	0.7925	0.001
_end
