# CIF file generated by openbabel 3.1.0, see https://openbabel.org
data_I
_chemical_name_common 'image0'
_cell_length_a 24.598
_cell_length_b 7.5305
_cell_length_c 6.5472
_cell_angle_alpha 90
_cell_angle_beta 106.863
_cell_angle_gamma 90
_space_group_name_H-M_alt 'P 1'
_space_group_name_Hall 'P 1'
loop_
    _symmetry_equiv_pos_as_xyz
    x,y,z
loop_
    _atom_site_label
    _atom_site_type_symbol
    _atom_site_fract_x
    _atom_site_fract_y
    _atom_site_fract_z
    _atom_site_occupancy
    O1       O        0.95350    0.17500    0.84600    1.000
    O2       O        0.93220    0.13820    0.51600    1.000
    C1       C        0.85580    0.23100    0.64300    1.000
    C2       C        0.81650    0.18800    0.43200    1.000
    C3       C        0.71970    0.18200    0.21000    1.000
    C4       C        0.91300    0.17600    0.67200    1.000
    C5       C        0.75800    0.20300    0.42000    1.000
    C6       C        0.83900    0.29400    0.80700    1.000
    O3       O        0.45350    0.67500    0.84600    1.000
    O4       O        0.43220    0.63820    0.51600    1.000
    C7       C        0.35580    0.73100    0.64300    1.000
    C8       C        0.31650    0.68800    0.43200    1.000
    C9       C        0.21970    0.68200    0.21000    1.000
    C10      C        0.41300    0.67600    0.67200    1.000
    C11      C        0.25800    0.70300    0.42000    1.000
    C12      C        0.33900    0.79400    0.80700    1.000
    O5       O        0.04650    0.17500    0.65400    1.000
    O6       O        0.06780    0.13820    0.98400    1.000
    C13      C        0.14420    0.23100    0.85700    1.000
    C14      C        0.18350    0.18800    0.06800    1.000
    C15      C        0.28030    0.18200    0.29000    1.000
    C16      C        0.08700    0.17600    0.82800    1.000
    C17      C        0.24200    0.20300    0.08000    1.000
    C18      C        0.16100    0.29400    0.69300    1.000
    O7       O        0.54650    0.67500    0.65400    1.000
    O8       O        0.56780    0.63820    0.98400    1.000
    C19      C        0.64420    0.73100    0.85700    1.000
    C20      C        0.68350    0.68800    0.06800    1.000
    C21      C        0.78030    0.68200    0.29000    1.000
    C22      C        0.58700    0.67600    0.82800    1.000
    C23      C        0.74200    0.70300    0.08000    1.000
    C24      C        0.66100    0.79400    0.69300    1.000
    O9       O        0.04650    0.82500    0.15400    1.000
    O10      O        0.06780    0.86180    0.48400    1.000
    C25      C        0.14420    0.76900    0.35700    1.000
    C26      C        0.18350    0.81200    0.56800    1.000
    C27      C        0.28030    0.81800    0.79000    1.000
    C28      C        0.08700    0.82400    0.32800    1.000
    C29      C        0.24200    0.79700    0.58000    1.000
    C30      C        0.16100    0.70600    0.19300    1.000
    O11      O        0.54650    0.32500    0.15400    1.000
    O12      O        0.56780    0.36180    0.48400    1.000
    C31      C        0.64420    0.26900    0.35700    1.000
    C32      C        0.68350    0.31200    0.56800    1.000
    C33      C        0.78030    0.31800    0.79000    1.000
    C34      C        0.58700    0.32400    0.32800    1.000
    C35      C        0.74200    0.29700    0.58000    1.000
    C36      C        0.66100    0.20600    0.19300    1.000
    O13      O        0.95350    0.82500    0.34600    1.000
    O14      O        0.93220    0.86180    0.01600    1.000
    C37      C        0.85580    0.76900    0.14300    1.000
    C38      C        0.81650    0.81200    0.93200    1.000
    C39      C        0.71970    0.81800    0.71000    1.000
    C40      C        0.91300    0.82400    0.17200    1.000
    C41      C        0.75800    0.79700    0.92000    1.000
    C42      C        0.83900    0.70600    0.30700    1.000
    O15      O        0.45350    0.32500    0.34600    1.000
    O16      O        0.43220    0.36180    0.01600    1.000
    C43      C        0.35580    0.26900    0.14300    1.000
    C44      C        0.31650    0.31200    0.93200    1.000
    C45      C        0.21970    0.31800    0.71000    1.000
    C46      C        0.41300    0.32400    0.17200    1.000
    C47      C        0.25800    0.29700    0.92000    1.000
    C48      C        0.33900    0.20600    0.30700    1.000
    Al1      Al       0.00000    0.00000    0.00000    1.000
    Al2      Al       0.50000    0.50000    0.00000    1.000
    Al3      Al       0.00000    0.00000    0.50000    1.000
    Al4      Al       0.50000    0.50000    0.50000    1.000
    O17      O        0.00000    0.90100    0.75000    1.000
    O18      O        0.50000    0.40100    0.75000    1.000
    O19      O        0.00000    0.09900    0.25000    1.000
    O20      O        0.50000    0.59900    0.25000    1.000
