# CIF file generated by openbabel 3.1.0, see https://openbabel.org
data_I
_chemical_name_common 'image0'
_cell_length_a 13.455
_cell_length_b 13.564
_cell_length_c 9.7
_cell_angle_alpha 90
_cell_angle_beta 90
_cell_angle_gamma 90
_space_group_name_H-M_alt 'P 1'
_space_group_name_Hall 'P 1'
loop_
    _symmetry_equiv_pos_as_xyz
    x,y,z
loop_
    _atom_site_label
    _atom_site_type_symbol
    _atom_site_fract_x
    _atom_site_fract_y
    _atom_site_fract_z
    _atom_site_occupancy
    O1       O        0.13940    0.44750    0.11880    1.000
    O2       O        0.14770    0.47690    0.89040    1.000
    O3       O        0.44750    0.13940    0.88120    1.000
    O4       O        0.47690    0.14770    0.10960    1.000
    C1       C        0.18510    0.45080    0.00430    1.000
    C2       C        0.29510    0.42120    0.00380    1.000
    C3       C        0.34420    0.48480    0.13510    1.000
    C4       C        0.31130    0.30630    0.05210    1.000
    C5       C        0.35190    0.43190    0.87770    1.000
    C6       C        0.24280    0.24470    0.95620    1.000
    C7       C        0.43530    0.35240    0.87590    1.000
    C8       C        0.28920    0.27420    0.19870    1.000
    C9       C        0.45080    0.18510    0.99570    1.000
    C10      C        0.42120    0.29510    0.99620    1.000
    H1       H        0.33527    0.55408    0.11911    1.000
    H2       H        0.41385    0.47026    0.14197    1.000
    H3       H        0.30860    0.42289    0.79875    1.000
    H4       H        0.38136    0.49712    0.87413    1.000
    H5       H        0.26230    0.25464    0.86202    1.000
    H6       H        0.24879    0.17612    0.97922    1.000
    H7       H        0.42953    0.31147    0.79429    1.000
    H8       H        0.33030    0.31080    0.26135    1.000
    H9       H        0.22049    0.28648    0.21909    1.000
    H10      H        0.30288    0.20506    0.20813    1.000
    H11      H        0.46343    0.32577    0.06647    1.000
    H12      H        0.48687    0.41457    0.87511    1.000
    H13      H        0.17625    0.26272    0.04195    1.000
    H14      H        0.31097    0.42996    0.20560    1.000
    C11      C        0.50245    0.08359    0.41943    1.000
    H15      H        0.50439    0.14996    0.36582    1.000
    C12      C        0.50245    0.08359    0.55446    1.000
    H16      H        0.49561    0.85004    0.60805    1.000
    C13      C        0.48480    0.34420    0.86490    1.000
    C14      C        0.30630    0.31130    0.94790    1.000
    C15      C        0.24470    0.24280    0.04380    1.000
    C16      C        0.35240    0.43530    0.12410    1.000
    C17      C        0.27420    0.28920    0.80130    1.000
    C18      C        0.43190    0.35190    0.12230    1.000
    H17      H        0.32622    0.46294    0.93353    1.000
    H18      H        0.31153    0.46640    0.21924    1.000
    H19      H        0.50022    0.38348    0.87729    1.000
    H20      H        0.45263    0.32765    0.77964    1.000
    H21      H        0.38413    0.49950    0.12261    1.000
    H22      H        0.17513    0.26540    0.96831    1.000
    H23      H        0.26969    0.24756    0.13626    1.000
    H24      H        0.25025    0.17595    0.01221    1.000
    H25      H        0.42241    0.30912    0.20135    1.000
    H26      H        0.49783    0.38070    0.12599    1.000
    H27      H        0.20489    0.30429    0.79101    1.000
    H28      H        0.31236    0.32872    0.73853    1.000
    H29      H        0.28510    0.22065    0.78187    1.000
    H30      H        0.55126    0.31846    0.86485    1.000
    O5       O        0.86060    0.55250    0.11880    1.000
    O6       O        0.85230    0.52310    0.89040    1.000
    O7       O        0.55250    0.86060    0.88120    1.000
    O8       O        0.52310    0.85230    0.10960    1.000
    C19      C        0.81490    0.54920    0.00430    1.000
    C20      C        0.70490    0.57880    0.00380    1.000
    C21      C        0.65580    0.51520    0.13510    1.000
    C22      C        0.68870    0.69370    0.05210    1.000
    C23      C        0.64810    0.56810    0.87770    1.000
    C24      C        0.75720    0.75530    0.95620    1.000
    C25      C        0.56470    0.64760    0.87590    1.000
    C26      C        0.71080    0.72580    0.19870    1.000
    C27      C        0.54920    0.81490    0.99570    1.000
    C28      C        0.57880    0.70490    0.99620    1.000
    H31      H        0.66473    0.44592    0.11911    1.000
    H32      H        0.58615    0.52974    0.14197    1.000
    H33      H        0.69140    0.57711    0.79875    1.000
    H34      H        0.61864    0.50288    0.87413    1.000
    H35      H        0.73770    0.74536    0.86202    1.000
    H36      H        0.75121    0.82388    0.97922    1.000
    H37      H        0.57047    0.68853    0.79429    1.000
    H38      H        0.66970    0.68920    0.26135    1.000
    H39      H        0.77951    0.71352    0.21909    1.000
    H40      H        0.69712    0.79494    0.20813    1.000
    H41      H        0.53657    0.67423    0.06647    1.000
    H42      H        0.51313    0.58543    0.87511    1.000
    H43      H        0.82375    0.73728    0.04195    1.000
    H44      H        0.68903    0.57004    0.20560    1.000
    C29      C        0.49755    0.91641    0.41943    1.000
    H45      H        0.49561    0.85004    0.36582    1.000
    C30      C        0.49755    0.91641    0.55446    1.000
    H46      H        0.50439    0.14996    0.60805    1.000
    C31      C        0.51520    0.65580    0.86490    1.000
    C32      C        0.69370    0.68870    0.94790    1.000
    C33      C        0.75530    0.75720    0.04380    1.000
    C34      C        0.64760    0.56470    0.12410    1.000
    C35      C        0.72580    0.71080    0.80130    1.000
    C36      C        0.56810    0.64810    0.12230    1.000
    H47      H        0.67378    0.53706    0.93353    1.000
    H48      H        0.68847    0.53360    0.21924    1.000
    H49      H        0.49978    0.61652    0.87729    1.000
    H50      H        0.54737    0.67235    0.77964    1.000
    H51      H        0.61587    0.50050    0.12261    1.000
    H52      H        0.82487    0.73460    0.96831    1.000
    H53      H        0.73031    0.75244    0.13626    1.000
    H54      H        0.74975    0.82405    0.01221    1.000
    H55      H        0.57759    0.69088    0.20135    1.000
    H56      H        0.50217    0.61930    0.12599    1.000
    H57      H        0.79511    0.69571    0.79101    1.000
    H58      H        0.68764    0.67128    0.73853    1.000
    H59      H        0.71490    0.77935    0.78187    1.000
    H60      H        0.44874    0.68154    0.86485    1.000
    O9       O        0.36060    0.94750    0.88120    1.000
    O10      O        0.35230    0.97690    0.10960    1.000
    O11      O        0.05250    0.63940    0.11880    1.000
    O12      O        0.02310    0.64770    0.89040    1.000
    C37      C        0.31490    0.95080    0.99570    1.000
    C38      C        0.20490    0.92120    0.99620    1.000
    C39      C        0.15580    0.98480    0.86490    1.000
    C40      C        0.18870    0.80630    0.94790    1.000
    C41      C        0.14810    0.93190    0.12230    1.000
    C42      C        0.25720    0.74470    0.04380    1.000
    C43      C        0.06470    0.85240    0.12410    1.000
    C44      C        0.21080    0.77420    0.80130    1.000
    C45      C        0.04920    0.68510    0.00430    1.000
    C46      C        0.07880    0.79510    0.00380    1.000
    H61      H        0.16473    0.05408    0.88089    1.000
    H62      H        0.08615    0.97026    0.85803    1.000
    H63      H        0.19140    0.92289    0.20125    1.000
    H64      H        0.11864    0.99712    0.12587    1.000
    H65      H        0.23770    0.75464    0.13798    1.000
    H66      H        0.25121    0.67612    0.02078    1.000
    H67      H        0.07047    0.81147    0.20571    1.000
    H68      H        0.16970    0.81080    0.73865    1.000
    H69      H        0.27951    0.78648    0.78091    1.000
    H70      H        0.19712    0.70506    0.79187    1.000
    H71      H        0.03657    0.82577    0.93353    1.000
    H72      H        0.01313    0.91457    0.12489    1.000
    H73      H        0.32375    0.76272    0.95805    1.000
    H74      H        0.18903    0.92996    0.79440    1.000
    C47      C        0.99755    0.58359    0.58057    1.000
    H75      H        0.99561    0.64996    0.63418    1.000
    C48      C        0.99755    0.58359    0.44554    1.000
    H76      H        0.00439    0.35004    0.39195    1.000
    C49      C        0.01520    0.84420    0.13510    1.000
    C50      C        0.19370    0.81130    0.05210    1.000
    C51      C        0.25530    0.74280    0.95620    1.000
    C52      C        0.14760    0.93530    0.87590    1.000
    C53      C        0.22580    0.78920    0.19870    1.000
    C54      C        0.06810    0.85190    0.87770    1.000
    H77      H        0.17378    0.96294    0.06647    1.000
    H78      H        0.18847    0.96640    0.78076    1.000
    H79      H        0.99978    0.88348    0.12271    1.000
    H80      H        0.04737    0.82765    0.22036    1.000
    H81      H        0.11587    0.99950    0.87739    1.000
    H82      H        0.32487    0.76540    0.03169    1.000
    H83      H        0.23031    0.74756    0.86374    1.000
    H84      H        0.24975    0.67595    0.98779    1.000
    H85      H        0.07759    0.80912    0.79865    1.000
    H86      H        0.00217    0.88070    0.87401    1.000
    H87      H        0.29511    0.80429    0.20899    1.000
    H88      H        0.18764    0.82872    0.26147    1.000
    H89      H        0.21490    0.72065    0.21813    1.000
    H90      H        0.94874    0.81846    0.13515    1.000
    O13      O        0.63940    0.05250    0.88120    1.000
    O14      O        0.64770    0.02310    0.10960    1.000
    O15      O        0.94750    0.36060    0.11880    1.000
    O16      O        0.97690    0.35230    0.89040    1.000
    C55      C        0.68510    0.04920    0.99570    1.000
    C56      C        0.79510    0.07880    0.99620    1.000
    C57      C        0.84420    0.01520    0.86490    1.000
    C58      C        0.81130    0.19370    0.94790    1.000
    C59      C        0.85190    0.06810    0.12230    1.000
    C60      C        0.74280    0.25530    0.04380    1.000
    C61      C        0.93530    0.14760    0.12410    1.000
    C62      C        0.78920    0.22580    0.80130    1.000
    C63      C        0.95080    0.31490    0.00430    1.000
    C64      C        0.92120    0.20490    0.00380    1.000
    H91      H        0.83527    0.94592    0.88089    1.000
    H92      H        0.91385    0.02974    0.85803    1.000
    H93      H        0.80860    0.07711    0.20125    1.000
    H94      H        0.88136    0.00288    0.12587    1.000
    H95      H        0.76230    0.24536    0.13798    1.000
    H96      H        0.74879    0.32388    0.02078    1.000
    H97      H        0.92953    0.18853    0.20571    1.000
    H98      H        0.83030    0.18920    0.73865    1.000
    H99      H        0.72049    0.21352    0.78091    1.000
    H100     H        0.80288    0.29494    0.79187    1.000
    H101     H        0.96343    0.17423    0.93353    1.000
    H102     H        0.98687    0.08543    0.12489    1.000
    H103     H        0.67625    0.23728    0.95805    1.000
    H104     H        0.81097    0.07004    0.79440    1.000
    C65      C        0.00245    0.41641    0.58057    1.000
    H105     H        0.00439    0.35004    0.63418    1.000
    C66      C        0.00245    0.41641    0.44554    1.000
    H106     H        0.99561    0.64996    0.39195    1.000
    C67      C        0.98480    0.15580    0.13510    1.000
    C68      C        0.80630    0.18870    0.05210    1.000
    C69      C        0.74470    0.25720    0.95620    1.000
    C70      C        0.85240    0.06470    0.87590    1.000
    C71      C        0.77420    0.21080    0.19870    1.000
    C72      C        0.93190    0.14810    0.87770    1.000
    H107     H        0.82622    0.03706    0.06647    1.000
    H108     H        0.81153    0.03360    0.78076    1.000
    H109     H        0.00022    0.11652    0.12271    1.000
    H110     H        0.95263    0.17235    0.22036    1.000
    H111     H        0.88413    0.00050    0.87739    1.000
    H112     H        0.67513    0.23460    0.03169    1.000
    H113     H        0.76969    0.25244    0.86374    1.000
    H114     H        0.75025    0.32405    0.98779    1.000
    H115     H        0.92241    0.19088    0.79865    1.000
    H116     H        0.99783    0.11930    0.87401    1.000
    H117     H        0.70489    0.19571    0.20899    1.000
    H118     H        0.81236    0.17128    0.26147    1.000
    H119     H        0.78510    0.27935    0.21813    1.000
    H120     H        0.05126    0.18154    0.13515    1.000
    Zn1      Zn       0.50000    0.00000    0.84593    1.000
    Zn2      Zn       0.50000    0.00000    0.14538    1.000
    N1       N        0.50000    0.00000    0.62197    1.000
    N2       N        0.50000    0.00000    0.35191    1.000
    Zn3      Zn       0.00000    0.50000    0.15407    1.000
    Zn4      Zn       0.00000    0.50000    0.85462    1.000
    N3       N        0.00000    0.50000    0.37803    1.000
    N4       N        0.00000    0.50000    0.64809    1.000
