data_functionalizedCrystal
_audit_creation_method	'EQeq! by Chris Wilmer'
_symmetry_space_group_name_H-M	'P1'
_symmetry_Int_Tables_number	1
_symmetry_cell_setting	triclinic
loop_
_symmetry_equiv_pos_as_xyz
  x,y,z
_cell_length_a	22.9118
_cell_length_b	22.9118
_cell_length_c	22.9118
_cell_angle_alpha	90
_cell_angle_beta	90
_cell_angle_gamma	90
loop_
_atom_site_label
_atom_site_type_symbol
_atom_site_fract_x
_atom_site_fract_y
_atom_site_fract_z
_atom_site_charge
Mof_O 	O 	0.56709	0.93149	0.3917	-0.257
Mof_O 	O 	0.58638	0.0209	0.406	-0.549
Mof_O 	O 	0.5768	0.09029	0.32368	-0.614
Mof_C 	C 	0.5768	0.99042	0.30902	-0.223
Mof_C 	C 	0.5768	0.04633	0.2878	0.368
Mof_C 	C 	0.5768	0.0559	0.22878	-0.103
Mof_C 	C 	0.5768	0.98014	0.37241	0.534
Mof_H 	H 	0.5768	0.09589	0.2136	0.108
Mof_O 	O 	0.06709	0.43149	0.8917	-0.257
Mof_O 	O 	0.08638	0.5209	0.906	-0.55
Mof_O 	O 	0.0768	0.59029	0.82368	-0.614
Mof_C 	C 	0.0768	0.49042	0.80902	-0.223
Mof_C 	C 	0.0768	0.54633	0.7878	0.368
Mof_C 	C 	0.0768	0.5559	0.72878	-0.103
Mof_C 	C 	0.0768	0.48014	0.87241	0.534
Mof_H 	H 	0.0768	0.59589	0.7136	0.107
Mof_O 	O 	0.93291	0.06851	0.8917	-0.259
Mof_O 	O 	0.91362	0.9791	0.906	-0.551
Mof_O 	O 	0.9232	0.90971	0.82368	-0.615
Mof_C 	C 	0.9232	0.00958	0.80902	-0.223
Mof_C 	C 	0.9232	0.95367	0.7878	0.367
Mof_C 	C 	0.9232	0.9441	0.72878	-0.103
Mof_C 	C 	0.9232	0.01986	0.87241	0.533
Mof_H 	H 	0.9232	0.90411	0.7136	0.107
Mof_O 	O 	0.43291	0.56851	0.3917	-0.258
Mof_O 	O 	0.41362	0.4791	0.406	-0.551
Mof_O 	O 	0.4232	0.40971	0.32368	-0.615
Mof_C 	C 	0.4232	0.50958	0.30902	-0.224
Mof_C 	C 	0.4232	0.45367	0.2878	0.367
Mof_C 	C 	0.4232	0.4441	0.22878	-0.104
Mof_C 	C 	0.4232	0.51986	0.37241	0.533
Mof_H 	H 	0.4232	0.40411	0.2136	0.107
Mof_O 	O 	0.43291	0.43149	0.1083	-0.258
Mof_O 	O 	0.41362	0.5209	0.094	-0.551
Mof_O 	O 	0.4232	0.59029	0.17632	-0.615
Mof_C 	C 	0.4232	0.49042	0.19098	-0.224
Mof_C 	C 	0.4232	0.54633	0.2122	0.367
Mof_C 	C 	0.4232	0.5559	0.27122	-0.104
Mof_C 	C 	0.4232	0.48014	0.12759	0.533
Mof_H 	H 	0.4232	0.59589	0.2864	0.107
Mof_O 	O 	0.93291	0.93149	0.6083	-0.258
Mof_O 	O 	0.91362	0.0209	0.594	-0.55
Mof_O 	O 	0.9232	0.09029	0.67632	-0.615
Mof_C 	C 	0.9232	0.99042	0.69098	-0.224
Mof_C 	C 	0.9232	0.04633	0.7122	0.367
Mof_C 	C 	0.9232	0.0559	0.77122	-0.104
Mof_C 	C 	0.9232	0.98014	0.62759	0.533
Mof_H 	H 	0.9232	0.09589	0.7864	0.107
Mof_O 	O 	0.06709	0.56851	0.6083	-0.258
Mof_O 	O 	0.08638	0.4791	0.594	-0.551
Mof_O 	O 	0.0768	0.40971	0.67632	-0.615
Mof_C 	C 	0.0768	0.50958	0.69098	-0.224
Mof_C 	C 	0.0768	0.45367	0.7122	0.367
Mof_C 	C 	0.0768	0.4441	0.77122	-0.104
Mof_C 	C 	0.0768	0.51986	0.62759	0.533
Mof_H 	H 	0.0768	0.40411	0.7864	0.107
Mof_O 	O 	0.56709	0.06851	0.1083	-0.258
Mof_O 	O 	0.58638	0.9791	0.094	-0.551
Mof_O 	O 	0.5768	0.90971	0.17632	-0.615
Mof_C 	C 	0.5768	0.00958	0.19098	-0.223
Mof_C 	C 	0.5768	0.95367	0.2122	0.367
Mof_C 	C 	0.5768	0.9441	0.27122	-0.103
Mof_C 	C 	0.5768	0.01986	0.12759	0.533
Mof_H 	H 	0.5768	0.90411	0.2864	0.107
Mof_O 	O 	0.3917	0.56709	0.93149	-0.258
Mof_O 	O 	0.406	0.58638	0.0209	-0.55
Mof_O 	O 	0.32368	0.5768	0.09029	-0.615
Mof_C 	C 	0.30902	0.5768	0.99042	-0.224
Mof_C 	C 	0.2878	0.5768	0.04633	0.367
Mof_C 	C 	0.22878	0.5768	0.0559	-0.104
Mof_C 	C 	0.37241	0.5768	0.98014	0.533
Mof_H 	H 	0.2136	0.5768	0.09589	0.107
Mof_O 	O 	0.8917	0.06709	0.43149	-0.258
Mof_O 	O 	0.906	0.08638	0.5209	-0.551
Mof_O 	O 	0.82368	0.0768	0.59029	-0.615
Mof_C 	C 	0.80902	0.0768	0.49042	-0.224
Mof_C 	C 	0.7878	0.0768	0.54633	0.367
Mof_C 	C 	0.72878	0.0768	0.5559	-0.104
Mof_C 	C 	0.87241	0.0768	0.48014	0.533
Mof_H 	H 	0.7136	0.0768	0.59589	0.107
Mof_O 	O 	0.8917	0.93291	0.06851	-0.259
Mof_O 	O 	0.906	0.91362	0.9791	-0.551
Mof_O 	O 	0.82368	0.9232	0.90971	-0.615
Mof_C 	C 	0.80902	0.9232	0.00958	-0.223
Mof_C 	C 	0.7878	0.9232	0.95367	0.367
Mof_C 	C 	0.72878	0.9232	0.9441	-0.103
Mof_C 	C 	0.87241	0.9232	0.01986	0.533
Mof_H 	H 	0.7136	0.9232	0.90411	0.107
Mof_O 	O 	0.3917	0.43291	0.56851	-0.258
Mof_O 	O 	0.406	0.41362	0.4791	-0.551
Mof_O 	O 	0.32368	0.4232	0.40971	-0.615
Mof_C 	C 	0.30902	0.4232	0.50958	-0.224
Mof_C 	C 	0.2878	0.4232	0.45367	0.367
Mof_C 	C 	0.22878	0.4232	0.4441	-0.104
Mof_C 	C 	0.37241	0.4232	0.51986	0.533
Mof_H 	H 	0.2136	0.4232	0.40411	0.107
Mof_O 	O 	0.1083	0.43291	0.43149	-0.258
Mof_O 	O 	0.094	0.41362	0.5209	-0.551
Mof_O 	O 	0.17632	0.4232	0.59029	-0.615
Mof_C 	C 	0.19098	0.4232	0.49042	-0.224
Mof_C 	C 	0.2122	0.4232	0.54633	0.367
Mof_C 	C 	0.27122	0.4232	0.5559	-0.104
Mof_C 	C 	0.12759	0.4232	0.48014	0.533
Mof_H 	H 	0.2864	0.4232	0.59589	0.107
Mof_O 	O 	0.6083	0.93291	0.93149	-0.258
Mof_O 	O 	0.594	0.91362	0.0209	-0.55
Mof_O 	O 	0.67632	0.9232	0.09029	-0.615
Mof_C 	C 	0.69098	0.9232	0.99042	-0.224
Mof_C 	C 	0.7122	0.9232	0.04633	0.367
Mof_C 	C 	0.77122	0.9232	0.0559	-0.104
Mof_C 	C 	0.62759	0.9232	0.98014	0.533
Mof_H 	H 	0.7864	0.9232	0.09589	0.107
Mof_O 	O 	0.6083	0.06709	0.56851	-0.258
Mof_O 	O 	0.594	0.08638	0.4791	-0.551
Mof_O 	O 	0.67632	0.0768	0.40971	-0.615
Mof_C 	C 	0.69098	0.0768	0.50958	-0.224
Mof_C 	C 	0.7122	0.0768	0.45367	0.367
Mof_C 	C 	0.77122	0.0768	0.4441	-0.104
Mof_C 	C 	0.62759	0.0768	0.51986	0.533
Mof_H 	H 	0.7864	0.0768	0.40411	0.107
Mof_O 	O 	0.1083	0.56709	0.06851	-0.258
Mof_O 	O 	0.094	0.58638	0.9791	-0.551
Mof_O 	O 	0.17632	0.5768	0.90971	-0.615
Mof_C 	C 	0.19098	0.5768	0.00958	-0.223
Mof_C 	C 	0.2122	0.5768	0.95367	0.367
Mof_C 	C 	0.27122	0.5768	0.9441	-0.103
Mof_C 	C 	0.12759	0.5768	0.01986	0.533
Mof_H 	H 	0.2864	0.5768	0.90411	0.107
Mof_O 	O 	0.93149	0.3917	0.56709	-0.258
Mof_O 	O 	0.0209	0.406	0.58638	-0.55
Mof_O 	O 	0.09029	0.32368	0.5768	-0.615
Mof_C 	C 	0.99042	0.30902	0.5768	-0.224
Mof_C 	C 	0.04633	0.2878	0.5768	0.367
Mof_C 	C 	0.0559	0.22878	0.5768	-0.104
Mof_C 	C 	0.98014	0.37241	0.5768	0.533
Mof_H 	H 	0.09589	0.2136	0.5768	0.107
Mof_O 	O 	0.43149	0.8917	0.06709	-0.258
Mof_O 	O 	0.5209	0.906	0.08638	-0.551
Mof_O 	O 	0.59029	0.82368	0.0768	-0.615
Mof_C 	C 	0.49042	0.80902	0.0768	-0.224
Mof_C 	C 	0.54633	0.7878	0.0768	0.367
Mof_C 	C 	0.5559	0.72878	0.0768	-0.104
Mof_C 	C 	0.48014	0.87241	0.0768	0.533
Mof_H 	H 	0.59589	0.7136	0.0768	0.107
Mof_O 	O 	0.06851	0.8917	0.93291	-0.259
Mof_O 	O 	0.9791	0.906	0.91362	-0.551
Mof_O 	O 	0.90971	0.82368	0.9232	-0.615
Mof_C 	C 	0.00958	0.80902	0.9232	-0.223
Mof_C 	C 	0.95367	0.7878	0.9232	0.367
Mof_C 	C 	0.9441	0.72878	0.9232	-0.103
Mof_C 	C 	0.01986	0.87241	0.9232	0.533
Mof_H 	H 	0.90411	0.7136	0.9232	0.107
Mof_O 	O 	0.56851	0.3917	0.43291	-0.258
Mof_O 	O 	0.4791	0.406	0.41362	-0.551
Mof_O 	O 	0.40971	0.32368	0.4232	-0.615
Mof_C 	C 	0.50958	0.30902	0.4232	-0.224
Mof_C 	C 	0.45367	0.2878	0.4232	0.367
Mof_C 	C 	0.4441	0.22878	0.4232	-0.104
Mof_C 	C 	0.51986	0.37241	0.4232	0.533
Mof_H 	H 	0.40411	0.2136	0.4232	0.107
Mof_O 	O 	0.43149	0.1083	0.43291	-0.258
Mof_O 	O 	0.5209	0.094	0.41362	-0.551
Mof_O 	O 	0.59029	0.17632	0.4232	-0.615
Mof_C 	C 	0.49042	0.19098	0.4232	-0.224
Mof_C 	C 	0.54633	0.2122	0.4232	0.367
Mof_C 	C 	0.5559	0.27122	0.4232	-0.104
Mof_C 	C 	0.48014	0.12759	0.4232	0.533
Mof_H 	H 	0.59589	0.2864	0.4232	0.107
Mof_O 	O 	0.93149	0.6083	0.93291	-0.258
Mof_O 	O 	0.0209	0.594	0.91362	-0.55
Mof_O 	O 	0.09029	0.67632	0.9232	-0.615
Mof_C 	C 	0.99042	0.69098	0.9232	-0.224
Mof_C 	C 	0.04633	0.7122	0.9232	0.367
Mof_C 	C 	0.0559	0.77122	0.9232	-0.104
Mof_C 	C 	0.98014	0.62759	0.9232	0.533
Mof_H 	H 	0.09589	0.7864	0.9232	0.107
Mof_O 	O 	0.56851	0.6083	0.06709	-0.258
Mof_O 	O 	0.4791	0.594	0.08638	-0.551
Mof_O 	O 	0.40971	0.67632	0.0768	-0.615
Mof_C 	C 	0.50958	0.69098	0.0768	-0.224
Mof_C 	C 	0.45367	0.7122	0.0768	0.367
Mof_C 	C 	0.4441	0.77122	0.0768	-0.104
Mof_C 	C 	0.51986	0.62759	0.0768	0.533
Mof_H 	H 	0.40411	0.7864	0.0768	0.107
Mof_O 	O 	0.06851	0.1083	0.56709	-0.258
Mof_O 	O 	0.9791	0.094	0.58638	-0.551
Mof_O 	O 	0.90971	0.17632	0.5768	-0.615
Mof_C 	C 	0.00958	0.19098	0.5768	-0.223
Mof_C 	C 	0.95367	0.2122	0.5768	0.367
Mof_C 	C 	0.9441	0.27122	0.5768	-0.103
Mof_C 	C 	0.01986	0.12759	0.5768	0.533
Mof_H 	H 	0.90411	0.2864	0.5768	0.107
Mof_Ti	Ti	0.60095	0.89905	0.10095	2.232
Mof_Ti	Ti	0.10095	0.39905	0.60095	2.232
Mof_Ti	Ti	0.89905	0.10095	0.60095	2.232
Mof_Ti	Ti	0.39905	0.60095	0.10095	2.232
Mof_Ti	Ti	0.39905	0.39905	0.39905	2.232
Mof_Ti	Ti	0.89905	0.89905	0.89905	2.232
Mof_Ti	Ti	0.10095	0.60095	0.89905	2.232
Mof_Ti	Ti	0.60095	0.10095	0.39905	2.232
Mof_O 	O 	0.18149	0.81709	0.6417	-0.258
Mof_O 	O 	0.2709	0.83638	0.656	-0.551
Mof_O 	O 	0.34029	0.8268	0.57368	-0.615
Mof_C 	C 	0.24042	0.8268	0.55902	-0.224
Mof_C 	C 	0.29633	0.8268	0.5378	0.367
Mof_C 	C 	0.3059	0.8268	0.47878	-0.104
Mof_C 	C 	0.23014	0.8268	0.62241	0.533
Mof_H 	H 	0.34589	0.8268	0.4636	0.107
Mof_O 	O 	0.68149	0.31709	0.1417	-0.258
Mof_O 	O 	0.7709	0.33638	0.156	-0.551
Mof_O 	O 	0.84029	0.3268	0.07368	-0.615
Mof_C 	C 	0.74042	0.3268	0.05902	-0.224
Mof_C 	C 	0.79633	0.3268	0.0378	0.367
Mof_C 	C 	0.8059	0.3268	0.97878	-0.104
Mof_C 	C 	0.73014	0.3268	0.12241	0.533
Mof_H 	H 	0.84589	0.3268	0.9636	0.107
Mof_O 	O 	0.31851	0.18291	0.1417	-0.258
Mof_O 	O 	0.2291	0.16362	0.156	-0.551
Mof_O 	O 	0.15971	0.1732	0.07368	-0.615
Mof_C 	C 	0.25958	0.1732	0.05902	-0.224
Mof_C 	C 	0.20367	0.1732	0.0378	0.367
Mof_C 	C 	0.1941	0.1732	0.97878	-0.104
Mof_C 	C 	0.26986	0.1732	0.12241	0.533
Mof_H 	H 	0.15411	0.1732	0.9636	0.107
Mof_O 	O 	0.81851	0.68291	0.6417	-0.258
Mof_O 	O 	0.7291	0.66362	0.656	-0.551
Mof_O 	O 	0.65971	0.6732	0.57368	-0.615
Mof_C 	C 	0.75958	0.6732	0.55902	-0.224
Mof_C 	C 	0.70367	0.6732	0.5378	0.367
Mof_C 	C 	0.6941	0.6732	0.47878	-0.104
Mof_C 	C 	0.76986	0.6732	0.62241	0.533
Mof_H 	H 	0.65411	0.6732	0.4636	0.107
Mof_O 	O 	0.68149	0.68291	0.3583	-0.258
Mof_O 	O 	0.7709	0.66362	0.344	-0.551
Mof_O 	O 	0.84029	0.6732	0.42632	-0.615
Mof_C 	C 	0.74042	0.6732	0.44098	-0.223
Mof_C 	C 	0.79633	0.6732	0.4622	0.367
Mof_C 	C 	0.8059	0.6732	0.52122	-0.104
Mof_C 	C 	0.73014	0.6732	0.37759	0.533
Mof_H 	H 	0.84589	0.6732	0.5364	0.107
Mof_O 	O 	0.18149	0.18291	0.8583	-0.258
Mof_O 	O 	0.2709	0.16362	0.844	-0.55
Mof_O 	O 	0.34029	0.1732	0.92632	-0.615
Mof_C 	C 	0.24042	0.1732	0.94098	-0.223
Mof_C 	C 	0.29633	0.1732	0.9622	0.367
Mof_C 	C 	0.3059	0.1732	0.02122	-0.103
Mof_C 	C 	0.23014	0.1732	0.87759	0.533
Mof_H 	H 	0.34589	0.1732	0.0364	0.107
Mof_O 	O 	0.81851	0.31709	0.8583	-0.258
Mof_O 	O 	0.7291	0.33638	0.844	-0.551
Mof_O 	O 	0.65971	0.3268	0.92632	-0.615
Mof_C 	C 	0.75958	0.3268	0.94098	-0.223
Mof_C 	C 	0.70367	0.3268	0.9622	0.367
Mof_C 	C 	0.6941	0.3268	0.02122	-0.103
Mof_C 	C 	0.76986	0.3268	0.87759	0.533
Mof_H 	H 	0.65411	0.3268	0.0364	0.107
Mof_O 	O 	0.31851	0.81709	0.3583	-0.258
Mof_O 	O 	0.2291	0.83638	0.344	-0.551
Mof_O 	O 	0.15971	0.8268	0.42632	-0.615
Mof_C 	C 	0.25958	0.8268	0.44098	-0.224
Mof_C 	C 	0.20367	0.8268	0.4622	0.367
Mof_C 	C 	0.1941	0.8268	0.52122	-0.104
Mof_C 	C 	0.26986	0.8268	0.37759	0.533
Mof_H 	H 	0.15411	0.8268	0.5364	0.107
Mof_O 	O 	0.81709	0.6417	0.18149	-0.258
Mof_O 	O 	0.83638	0.656	0.2709	-0.551
Mof_O 	O 	0.8268	0.57368	0.34029	-0.615
Mof_C 	C 	0.8268	0.55902	0.24042	-0.224
Mof_C 	C 	0.8268	0.5378	0.29633	0.367
Mof_C 	C 	0.8268	0.47878	0.3059	-0.104
Mof_C 	C 	0.8268	0.62241	0.23014	0.533
Mof_H 	H 	0.8268	0.4636	0.34589	0.107
Mof_O 	O 	0.31709	0.1417	0.68149	-0.258
Mof_O 	O 	0.33638	0.156	0.7709	-0.551
Mof_O 	O 	0.3268	0.07368	0.84029	-0.615
Mof_C 	C 	0.3268	0.05902	0.74042	-0.224
Mof_C 	C 	0.3268	0.0378	0.79633	0.367
Mof_C 	C 	0.3268	0.97878	0.8059	-0.104
Mof_C 	C 	0.3268	0.12241	0.73014	0.533
Mof_H 	H 	0.3268	0.9636	0.84589	0.107
Mof_O 	O 	0.18291	0.1417	0.31851	-0.258
Mof_O 	O 	0.16362	0.156	0.2291	-0.551
Mof_O 	O 	0.1732	0.07368	0.15971	-0.615
Mof_C 	C 	0.1732	0.05902	0.25958	-0.224
Mof_C 	C 	0.1732	0.0378	0.20367	0.367
Mof_C 	C 	0.1732	0.97878	0.1941	-0.104
Mof_C 	C 	0.1732	0.12241	0.26986	0.533
Mof_H 	H 	0.1732	0.9636	0.15411	0.107
Mof_O 	O 	0.68291	0.6417	0.81851	-0.258
Mof_O 	O 	0.66362	0.656	0.7291	-0.551
Mof_O 	O 	0.6732	0.57368	0.65971	-0.615
Mof_C 	C 	0.6732	0.55902	0.75958	-0.224
Mof_C 	C 	0.6732	0.5378	0.70367	0.367
Mof_C 	C 	0.6732	0.47878	0.6941	-0.104
Mof_C 	C 	0.6732	0.62241	0.76986	0.533
Mof_H 	H 	0.6732	0.4636	0.65411	0.107
Mof_O 	O 	0.68291	0.3583	0.68149	-0.258
Mof_O 	O 	0.66362	0.344	0.7709	-0.551
Mof_O 	O 	0.6732	0.42632	0.84029	-0.615
Mof_C 	C 	0.6732	0.44098	0.74042	-0.223
Mof_C 	C 	0.6732	0.4622	0.79633	0.367
Mof_C 	C 	0.6732	0.52122	0.8059	-0.104
Mof_C 	C 	0.6732	0.37759	0.73014	0.533
Mof_H 	H 	0.6732	0.5364	0.84589	0.107
Mof_O 	O 	0.18291	0.8583	0.18149	-0.258
Mof_O 	O 	0.16362	0.844	0.2709	-0.55
Mof_O 	O 	0.1732	0.92632	0.34029	-0.615
Mof_C 	C 	0.1732	0.94098	0.24042	-0.223
Mof_C 	C 	0.1732	0.9622	0.29633	0.367
Mof_C 	C 	0.1732	0.02122	0.3059	-0.103
Mof_C 	C 	0.1732	0.87759	0.23014	0.533
Mof_H 	H 	0.1732	0.0364	0.34589	0.107
Mof_O 	O 	0.31709	0.8583	0.81851	-0.258
Mof_O 	O 	0.33638	0.844	0.7291	-0.551
Mof_O 	O 	0.3268	0.92632	0.65971	-0.615
Mof_C 	C 	0.3268	0.94098	0.75958	-0.223
Mof_C 	C 	0.3268	0.9622	0.70367	0.367
Mof_C 	C 	0.3268	0.02122	0.6941	-0.103
Mof_C 	C 	0.3268	0.87759	0.76986	0.533
Mof_H 	H 	0.3268	0.0364	0.65411	0.107
Mof_O 	O 	0.81709	0.3583	0.31851	-0.258
Mof_O 	O 	0.83638	0.344	0.2291	-0.551
Mof_O 	O 	0.8268	0.42632	0.15971	-0.615
Mof_C 	C 	0.8268	0.44098	0.25958	-0.224
Mof_C 	C 	0.8268	0.4622	0.20367	0.367
Mof_C 	C 	0.8268	0.52122	0.1941	-0.104
Mof_C 	C 	0.8268	0.37759	0.26986	0.533
Mof_H 	H 	0.8268	0.5364	0.15411	0.107
Mof_O 	O 	0.6417	0.18149	0.81709	-0.258
Mof_O 	O 	0.656	0.2709	0.83638	-0.551
Mof_O 	O 	0.57368	0.34029	0.8268	-0.615
Mof_C 	C 	0.55902	0.24042	0.8268	-0.224
Mof_C 	C 	0.5378	0.29633	0.8268	0.367
Mof_C 	C 	0.47878	0.3059	0.8268	-0.104
Mof_C 	C 	0.62241	0.23014	0.8268	0.533
Mof_H 	H 	0.4636	0.34589	0.8268	0.107
Mof_O 	O 	0.1417	0.68149	0.31709	-0.258
Mof_O 	O 	0.156	0.7709	0.33638	-0.551
Mof_O 	O 	0.07368	0.84029	0.3268	-0.615
Mof_C 	C 	0.05902	0.74042	0.3268	-0.224
Mof_C 	C 	0.0378	0.79633	0.3268	0.367
Mof_C 	C 	0.97878	0.8059	0.3268	-0.104
Mof_C 	C 	0.12241	0.73014	0.3268	0.533
Mof_H 	H 	0.9636	0.84589	0.3268	0.107
Mof_O 	O 	0.1417	0.31851	0.18291	-0.258
Mof_O 	O 	0.156	0.2291	0.16362	-0.551
Mof_O 	O 	0.07368	0.15971	0.1732	-0.615
Mof_C 	C 	0.05902	0.25958	0.1732	-0.224
Mof_C 	C 	0.0378	0.20367	0.1732	0.367
Mof_C 	C 	0.97878	0.1941	0.1732	-0.104
Mof_C 	C 	0.12241	0.26986	0.1732	0.533
Mof_H 	H 	0.9636	0.15411	0.1732	0.107
Mof_O 	O 	0.6417	0.81851	0.68291	-0.258
Mof_O 	O 	0.656	0.7291	0.66362	-0.551
Mof_O 	O 	0.57368	0.65971	0.6732	-0.615
Mof_C 	C 	0.55902	0.75958	0.6732	-0.224
Mof_C 	C 	0.5378	0.70367	0.6732	0.367
Mof_C 	C 	0.47878	0.6941	0.6732	-0.104
Mof_C 	C 	0.62241	0.76986	0.6732	0.533
Mof_H 	H 	0.4636	0.65411	0.6732	0.107
Mof_O 	O 	0.3583	0.68149	0.68291	-0.258
Mof_O 	O 	0.344	0.7709	0.66362	-0.551
Mof_O 	O 	0.42632	0.84029	0.6732	-0.615
Mof_C 	C 	0.44098	0.74042	0.6732	-0.223
Mof_C 	C 	0.4622	0.79633	0.6732	0.367
Mof_C 	C 	0.52122	0.8059	0.6732	-0.104
Mof_C 	C 	0.37759	0.73014	0.6732	0.533
Mof_H 	H 	0.5364	0.84589	0.6732	0.107
Mof_O 	O 	0.8583	0.18149	0.18291	-0.258
Mof_O 	O 	0.844	0.2709	0.16362	-0.55
Mof_O 	O 	0.92632	0.34029	0.1732	-0.615
Mof_C 	C 	0.94098	0.24042	0.1732	-0.223
Mof_C 	C 	0.9622	0.29633	0.1732	0.367
Mof_C 	C 	0.02122	0.3059	0.1732	-0.103
Mof_C 	C 	0.87759	0.23014	0.1732	0.533
Mof_H 	H 	0.0364	0.34589	0.1732	0.107
Mof_O 	O 	0.8583	0.81851	0.31709	-0.258
Mof_O 	O 	0.844	0.7291	0.33638	-0.551
Mof_O 	O 	0.92632	0.65971	0.3268	-0.615
Mof_C 	C 	0.94098	0.75958	0.3268	-0.223
Mof_C 	C 	0.9622	0.70367	0.3268	0.367
Mof_C 	C 	0.02122	0.6941	0.3268	-0.103
Mof_C 	C 	0.87759	0.76986	0.3268	0.533
Mof_H 	H 	0.0364	0.65411	0.3268	0.107
Mof_O 	O 	0.3583	0.31851	0.81709	-0.258
Mof_O 	O 	0.344	0.2291	0.83638	-0.551
Mof_O 	O 	0.42632	0.15971	0.8268	-0.615
Mof_C 	C 	0.44098	0.25958	0.8268	-0.224
Mof_C 	C 	0.4622	0.20367	0.8268	0.367
Mof_C 	C 	0.52122	0.1941	0.8268	-0.104
Mof_C 	C 	0.37759	0.26986	0.8268	0.533
Mof_H 	H 	0.5364	0.15411	0.8268	0.107
Mof_Ti	Ti	0.14905	0.85095	0.35095	2.232
Mof_Ti	Ti	0.64905	0.35095	0.85095	2.232
Mof_Ti	Ti	0.35095	0.14905	0.85095	2.232
Mof_Ti	Ti	0.85095	0.64905	0.35095	2.232
Mof_Ti	Ti	0.64905	0.64905	0.64905	2.232
Mof_Ti	Ti	0.14905	0.14905	0.14905	2.232
Mof_Ti	Ti	0.85095	0.35095	0.14905	2.232
Mof_Ti	Ti	0.35095	0.85095	0.64905	2.232
_end
