data_functionalizedCrystal
_audit_creation_method	'EQeq! by Chris Wilmer'
_symmetry_space_group_name_H-M	'P1'
_symmetry_Int_Tables_number	1
_symmetry_cell_setting	triclinic
loop_
_symmetry_equiv_pos_as_xyz
  x,y,z
_cell_length_a	14.187
_cell_length_b	22.55
_cell_length_c	25.681
_cell_angle_alpha	92.096
_cell_angle_beta	90
_cell_angle_gamma	90
loop_
_atom_site_label
_atom_site_type_symbol
_atom_site_fract_x
_atom_site_fract_y
_atom_site_fract_z
_atom_site_charge
Mof_Co	Co	0.28324	0.90838	0.90724	1.188
Mof_Co	Co	0.21722	0.58529	0.90439	1.189
Mof_Co	Co	0.25013	0.74697	0.90473	1.203
Mof_Co	Co	0.71676	0.90838	0.40724	1.188
Mof_Co	Co	0.78278	0.58529	0.40439	1.189
Mof_Co	Co	0.74987	0.74697	0.40473	1.203
Mof_H 	H 	0.3353	0.116	0.0072	0.03
Mof_H 	H 	0.3104	0.2172	0.0014	0.073
Mof_H 	H 	0.213	0.1908	0.8554	0.075
Mof_H 	H 	0.2379	0.0896	0.8612	0.033
Mof_H 	H 	0.1687	0.3891	0.0064	0.03
Mof_H 	H 	0.1959	0.2876	0.0033	0.075
Mof_H 	H 	0.2842	0.2967	0.8552	0.075
Mof_H 	H 	0.2569	0.3982	0.8583	0.033
Mof_H 	H 	0.9393	0.7652	0.524	0.028
Mof_H 	H 	0.0202	0.7653	0.6025	0.075
Mof_H 	H 	0.9109	0.9251	0.6419	0.066
Mof_H 	H 	0.8299	0.925	0.5634	0.024
Mof_H 	H 	0.0107	0.756	0.6921	0.071
Mof_H 	H 	0.0901	0.75	0.7675	0.027
Mof_H 	H 	0.1328	0.9283	0.7678	0.03
Mof_H 	H 	0.0493	0.934	0.6884	0.064
Mof_H 	H 	0.9013	0.6036	0.8701	0.033
Mof_H 	H 	0.7548	0.6487	0.8649	0.056
Mof_H 	H 	0.8734	0.8069	0.9004	0.062
Mof_H 	H 	0.0198	0.7618	0.9055	0.032
Mof_H 	H 	0.6315	0.6877	0.9047	0.075
Mof_H 	H 	0.4815	0.7313	0.9138	0.019
Mof_H 	H 	0.5956	0.8815	0.8697	0.017
Mof_H 	H 	0.742	0.8406	0.862	0.073
Mof_H 	H 	0.6359	0.5591	0.2544	0.031
Mof_H 	H 	0.5554	0.5631	0.1759	0.067
Mof_H 	H 	0.5008	0.7359	0.2053	0.068
Mof_H 	H 	0.5812	0.7319	0.2838	0.032
Mof_H 	H 	0.5016	0.7359	0.1151	0.086
Mof_H 	H 	0.4269	0.7347	0.0359	0.015
Mof_H 	H 	0.3278	0.576	0.0583	0.01
Mof_H 	H 	0.4045	0.5725	0.1378	0.08
Mof_H 	H 	0.6647	0.116	0.5072	0.031
Mof_H 	H 	0.6896	0.2172	0.5014	0.073
Mof_H 	H 	0.787	0.1908	0.3554	0.075
Mof_H 	H 	0.7621	0.0896	0.3612	0.033
Mof_H 	H 	0.8313	0.3891	0.5064	0.03
Mof_H 	H 	0.8041	0.2876	0.5033	0.075
Mof_H 	H 	0.7158	0.2967	0.3552	0.075
Mof_H 	H 	0.7431	0.3982	0.3583	0.033
Mof_H 	H 	0.0607	0.7652	0.024	0.029
Mof_H 	H 	0.9798	0.7653	0.1025	0.074
Mof_H 	H 	0.0891	0.9251	0.1419	0.066
Mof_H 	H 	0.1701	0.925	0.0634	0.024
Mof_H 	H 	0.9893	0.756	0.1921	0.071
Mof_H 	H 	0.9099	0.75	0.2675	0.027
Mof_H 	H 	0.8672	0.9283	0.2678	0.03
Mof_H 	H 	0.9507	0.934	0.1884	0.064
Mof_H 	H 	0.0987	0.6036	0.3701	0.033
Mof_H 	H 	0.2452	0.6487	0.3649	0.056
Mof_H 	H 	0.1266	0.8069	0.4004	0.062
Mof_H 	H 	0.9802	0.7618	0.4055	0.032
Mof_H 	H 	0.3685	0.6877	0.4047	0.075
Mof_H 	H 	0.5185	0.7313	0.4138	0.019
Mof_H 	H 	0.4044	0.8815	0.3697	0.017
Mof_H 	H 	0.258	0.8406	0.362	0.073
Mof_H 	H 	0.3641	0.5591	0.7544	0.031
Mof_H 	H 	0.4446	0.5631	0.6759	0.067
Mof_H 	H 	0.4992	0.7359	0.7053	0.068
Mof_H 	H 	0.4188	0.7319	0.7838	0.032
Mof_H 	H 	0.4984	0.7359	0.6151	0.086
Mof_H 	H 	0.5731	0.7347	0.5359	0.015
Mof_H 	H 	0.6722	0.576	0.5583	0.009
Mof_H 	H 	0.5955	0.5725	0.6378	0.08
Mof_C 	C 	0.29585	0.028	0.93824	0.357
Mof_C 	C 	0.31076	0.13095	0.97677	0.043
Mof_C 	C 	0.29586	0.1916	0.97327	-0.113
Mof_C 	C 	0.25924	0.21401	0.9278	0.045
Mof_C 	C 	0.23753	0.17578	0.88583	-0.113
Mof_C 	C 	0.25242	0.11513	0.88933	0.044
Mof_C 	C 	0.28904	0.09272	0.9348	-0.119
Mof_C 	C 	0.21009	0.40372	0.93267	-0.123
Mof_C 	C 	0.19182	0.37058	0.97612	0.045
Mof_C 	C 	0.20815	0.30976	0.97426	-0.118
Mof_C 	C 	0.24274	0.28208	0.92894	0.046
Mof_C 	C 	0.26101	0.31522	0.88548	-0.114
Mof_C 	C 	0.24468	0.37604	0.88734	0.044
Mof_C 	C 	0.21184	0.47184	0.93413	0.411
Mof_C 	C 	0.82564	0.84542	0.48371	0.392
Mof_C 	C 	0.87658	0.84509	0.53592	-0.125
Mof_C 	C 	0.93358	0.79724	0.54762	0.047
Mof_C 	C 	0.98209	0.79729	0.59465	-0.116
Mof_C 	C 	0.9736	0.84518	0.62997	0.052
Mof_C 	C 	0.9166	0.89303	0.61827	-0.117
Mof_C 	C 	0.86809	0.89298	0.57124	0.046
Mof_C 	C 	0.02925	0.84391	0.67837	0.032
Mof_C 	C 	0.0384	0.79026	0.70636	-0.111
Mof_C 	C 	0.08423	0.78625	0.75177	0.044
Mof_C 	C 	0.12457	0.84001	0.77584	-0.135
Mof_C 	C 	0.10975	0.89361	0.75172	0.035
Mof_C 	C 	0.06037	0.89753	0.70306	-0.104
Mof_C 	C 	0.17859	0.83891	0.82673	0.45
Mof_C 	C 	0.07177	0.64923	0.89546	0.38
Mof_C 	C 	0.97508	0.67818	0.88827	-0.109
Mof_C 	C 	0.89567	0.64431	0.87613	0.029
Mof_C 	C 	0.80791	0.67136	0.87307	-0.1
Mof_C 	C 	0.79955	0.73228	0.88215	0.026
Mof_C 	C 	0.87895	0.76615	0.89429	-0.099
Mof_C 	C 	0.96671	0.7391	0.89735	0.027
Mof_C 	C 	0.70128	0.75995	0.88389	0.069
Mof_C 	C 	0.62397	0.7277	0.89816	-0.138
Mof_C 	C 	0.53294	0.75344	0.90329	0.07
Mof_C 	C 	0.52378	0.81098	0.89235	-0.155
Mof_C 	C 	0.60299	0.84175	0.8772	0.075
Mof_C 	C 	0.69106	0.81804	0.87252	-0.148
Mof_C 	C 	0.43022	0.84234	0.89832	0.411
Mof_C 	C 	0.66985	0.64533	0.32876	0.41
Mof_C 	C 	0.61651	0.64512	0.27685	-0.122
Mof_C 	C 	0.6088	0.59453	0.24455	0.038
Mof_C 	C 	0.56061	0.59691	0.19755	-0.106
Mof_C 	C 	0.52012	0.64988	0.18284	0.028
Mof_C 	C 	0.52784	0.70047	0.21514	-0.104
Mof_C 	C 	0.57603	0.69809	0.26214	0.037
Mof_C 	C 	0.46539	0.65175	0.13287	0.079
Mof_C 	C 	0.4688	0.70235	0.10324	-0.152
Mof_C 	C 	0.42257	0.70139	0.05617	0.088
Mof_C 	C 	0.37029	0.654	0.03735	-0.176
Mof_C 	C 	0.36481	0.60819	0.06898	0.091
Mof_C 	C 	0.41114	0.60539	0.11729	-0.158
Mof_C 	C 	0.31542	0.65792	0.98697	0.45
Mof_C 	C 	0.70415	0.028	0.43824	0.357
Mof_C 	C 	0.68924	0.13095	0.47677	0.043
Mof_C 	C 	0.70414	0.1916	0.47327	-0.113
Mof_C 	C 	0.74076	0.21401	0.4278	0.045
Mof_C 	C 	0.76247	0.17578	0.38583	-0.113
Mof_C 	C 	0.74758	0.11513	0.38933	0.043
Mof_C 	C 	0.71096	0.09272	0.4348	-0.119
Mof_C 	C 	0.78991	0.40372	0.43267	-0.123
Mof_C 	C 	0.80818	0.37058	0.47612	0.045
Mof_C 	C 	0.79185	0.30976	0.47426	-0.118
Mof_C 	C 	0.75726	0.28208	0.42894	0.047
Mof_C 	C 	0.73899	0.31522	0.38548	-0.114
Mof_C 	C 	0.75532	0.37604	0.38734	0.044
Mof_C 	C 	0.78816	0.47184	0.43413	0.411
Mof_C 	C 	0.17436	0.84542	0.98371	0.392
Mof_C 	C 	0.12342	0.84509	0.03592	-0.124
Mof_C 	C 	0.06642	0.79724	0.04762	0.046
Mof_C 	C 	0.01791	0.79729	0.09465	-0.115
Mof_C 	C 	0.0264	0.84518	0.12997	0.051
Mof_C 	C 	0.0834	0.89303	0.11827	-0.116
Mof_C 	C 	0.13191	0.89298	0.07124	0.045
Mof_C 	C 	0.97075	0.84391	0.17837	0.032
Mof_C 	C 	0.9616	0.79026	0.20636	-0.111
Mof_C 	C 	0.91577	0.78625	0.25177	0.044
Mof_C 	C 	0.87543	0.84001	0.27584	-0.135
Mof_C 	C 	0.89025	0.89361	0.25172	0.035
Mof_C 	C 	0.93963	0.89753	0.20306	-0.105
Mof_C 	C 	0.82141	0.83891	0.32673	0.45
Mof_C 	C 	0.92823	0.64923	0.39546	0.38
Mof_C 	C 	0.02492	0.67818	0.38827	-0.109
Mof_C 	C 	0.10433	0.64431	0.37613	0.029
Mof_C 	C 	0.19209	0.67136	0.37307	-0.1
Mof_C 	C 	0.20045	0.73228	0.38215	0.026
Mof_C 	C 	0.12105	0.76615	0.39429	-0.099
Mof_C 	C 	0.03329	0.7391	0.39735	0.027
Mof_C 	C 	0.29872	0.75995	0.38389	0.069
Mof_C 	C 	0.37603	0.7277	0.39816	-0.138
Mof_C 	C 	0.46706	0.75344	0.40329	0.071
Mof_C 	C 	0.47622	0.81098	0.39235	-0.155
Mof_C 	C 	0.39701	0.84175	0.3772	0.075
Mof_C 	C 	0.30894	0.81804	0.37252	-0.148
Mof_C 	C 	0.56978	0.84234	0.39832	0.411
Mof_C 	C 	0.33015	0.64533	0.82876	0.41
Mof_C 	C 	0.38349	0.64512	0.77685	-0.122
Mof_C 	C 	0.3912	0.59453	0.74455	0.038
Mof_C 	C 	0.43939	0.59691	0.69755	-0.106
Mof_C 	C 	0.47988	0.64988	0.68284	0.028
Mof_C 	C 	0.47216	0.70047	0.71514	-0.104
Mof_C 	C 	0.42397	0.69809	0.76214	0.036
Mof_C 	C 	0.53461	0.65175	0.63287	0.079
Mof_C 	C 	0.5312	0.70235	0.60324	-0.153
Mof_C 	C 	0.57743	0.70139	0.55617	0.089
Mof_C 	C 	0.62971	0.654	0.53735	-0.176
Mof_C 	C 	0.63519	0.60819	0.56898	0.092
Mof_C 	C 	0.58886	0.60539	0.61729	-0.158
Mof_C 	C 	0.68458	0.65792	0.48697	0.451
Mof_O 	O 	0.14323	0.67937	0.90258	-0.489
Mof_O 	O 	0.07463	0.59427	0.89243	-0.409
Mof_O 	O 	0.35959	0.81423	0.90889	-0.488
Mof_O 	O 	0.42411	0.89704	0.89572	-0.424
Mof_O 	O 	0.1963	0.79112	0.84204	-0.468
Mof_O 	O 	0.20793	0.88787	0.84338	-0.473
Mof_O 	O 	0.83673	0.8019	0.45301	-0.432
Mof_O 	O 	0.77949	0.8907	0.47451	-0.45
Mof_O 	O 	0.26661	0.99569	0.90294	-0.431
Mof_O 	O 	0.34404	0.00839	0.97588	-0.28
Mof_O 	O 	0.71118	0.60055	0.33869	-0.463
Mof_O 	O 	0.66386	0.69214	0.3566	-0.433
Mof_O 	O 	0.27916	0.6083	0.97295	-0.458
Mof_O 	O 	0.31091	0.70373	0.9667	-0.466
Mof_O 	O 	0.234	0.49907	0.9028	-0.497
Mof_O 	O 	0.1485	0.49195	0.97232	-0.264
Mof_O 	O 	0.85677	0.67937	0.40258	-0.489
Mof_O 	O 	0.92537	0.59427	0.39243	-0.409
Mof_O 	O 	0.64041	0.81423	0.40889	-0.488
Mof_O 	O 	0.57589	0.89704	0.39572	-0.424
Mof_O 	O 	0.8037	0.79112	0.34204	-0.468
Mof_O 	O 	0.79207	0.88787	0.34338	-0.473
Mof_O 	O 	0.16327	0.8019	0.95301	-0.432
Mof_O 	O 	0.22051	0.8907	0.97451	-0.45
Mof_O 	O 	0.73339	0.99569	0.40294	-0.43
Mof_O 	O 	0.65596	0.00839	0.47588	-0.28
Mof_O 	O 	0.28882	0.60055	0.83869	-0.463
Mof_O 	O 	0.33614	0.69214	0.8566	-0.433
Mof_O 	O 	0.72084	0.6083	0.47295	-0.458
Mof_O 	O 	0.68909	0.70373	0.4667	-0.466
Mof_O 	O 	0.766	0.49907	0.4028	-0.497
Mof_O 	O 	0.8515	0.49195	0.47232	-0.264
Mof_Co	Co	0.28324	0.09162	0.59275	1.189
Mof_Co	Co	0.21722	0.41471	0.59561	1.19
Mof_Co	Co	0.25013	0.25303	0.59527	1.204
Mof_Co	Co	0.71676	0.09162	0.09275	1.189
Mof_Co	Co	0.78278	0.41471	0.09561	1.19
Mof_Co	Co	0.74987	0.25303	0.09527	1.204
Mof_H 	H 	0.3353	0.884	0.4928	0.031
Mof_H 	H 	0.3104	0.7828	0.4986	0.073
Mof_H 	H 	0.213	0.8092	0.6446	0.075
Mof_H 	H 	0.2379	0.9104	0.6388	0.033
Mof_H 	H 	0.1687	0.6109	0.4936	0.03
Mof_H 	H 	0.1959	0.7124	0.4967	0.075
Mof_H 	H 	0.2842	0.7033	0.6448	0.075
Mof_H 	H 	0.2569	0.6018	0.6417	0.033
Mof_H 	H 	0.9393	0.2348	0.976	0.029
Mof_H 	H 	0.0202	0.2347	0.8975	0.074
Mof_H 	H 	0.9109	0.0749	0.8581	0.066
Mof_H 	H 	0.8299	0.075	0.9366	0.024
Mof_H 	H 	0.0107	0.244	0.8079	0.071
Mof_H 	H 	0.0901	0.25	0.7325	0.027
Mof_H 	H 	0.1328	0.0717	0.7322	0.03
Mof_H 	H 	0.0493	0.066	0.8116	0.064
Mof_H 	H 	0.9013	0.3964	0.6299	0.033
Mof_H 	H 	0.7548	0.3513	0.6351	0.056
Mof_H 	H 	0.8734	0.1931	0.5996	0.062
Mof_H 	H 	0.0198	0.2382	0.5945	0.032
Mof_H 	H 	0.6315	0.3123	0.5953	0.075
Mof_H 	H 	0.4815	0.2687	0.5862	0.019
Mof_H 	H 	0.5956	0.1185	0.6303	0.017
Mof_H 	H 	0.742	0.1594	0.638	0.073
Mof_H 	H 	0.6359	0.4409	0.2456	0.031
Mof_H 	H 	0.5554	0.4369	0.3241	0.067
Mof_H 	H 	0.5008	0.2641	0.2947	0.068
Mof_H 	H 	0.5812	0.2681	0.2162	0.032
Mof_H 	H 	0.5016	0.2641	0.3849	0.086
Mof_H 	H 	0.4269	0.2653	0.4641	0.015
Mof_H 	H 	0.3278	0.424	0.4417	0.009
Mof_H 	H 	0.4045	0.4275	0.3622	0.08
Mof_H 	H 	0.6647	0.884	0.9928	0.031
Mof_H 	H 	0.6896	0.7828	0.9986	0.073
Mof_H 	H 	0.787	0.8092	0.1446	0.075
Mof_H 	H 	0.7621	0.9104	0.1388	0.033
Mof_H 	H 	0.8313	0.6109	0.9936	0.03
Mof_H 	H 	0.8041	0.7124	0.9967	0.075
Mof_H 	H 	0.7158	0.7033	0.1448	0.074
Mof_H 	H 	0.7431	0.6018	0.1417	0.033
Mof_H 	H 	0.0607	0.2348	0.476	0.028
Mof_H 	H 	0.9798	0.2347	0.3975	0.075
Mof_H 	H 	0.0891	0.0749	0.3581	0.066
Mof_H 	H 	0.1701	0.075	0.4366	0.024
Mof_H 	H 	0.9893	0.244	0.3079	0.071
Mof_H 	H 	0.9099	0.25	0.2325	0.027
Mof_H 	H 	0.8672	0.0717	0.2322	0.03
Mof_H 	H 	0.9507	0.066	0.3116	0.064
Mof_H 	H 	0.0987	0.3964	0.1299	0.033
Mof_H 	H 	0.2452	0.3513	0.1351	0.056
Mof_H 	H 	0.1266	0.1931	0.0996	0.062
Mof_H 	H 	0.9802	0.2382	0.0945	0.032
Mof_H 	H 	0.3685	0.3123	0.0953	0.075
Mof_H 	H 	0.5185	0.2687	0.0862	0.019
Mof_H 	H 	0.4044	0.1185	0.1303	0.017
Mof_H 	H 	0.258	0.1594	0.138	0.073
Mof_H 	H 	0.3641	0.4409	0.7456	0.031
Mof_H 	H 	0.4446	0.4369	0.8241	0.067
Mof_H 	H 	0.4992	0.2641	0.7947	0.068
Mof_H 	H 	0.4188	0.2681	0.7162	0.032
Mof_H 	H 	0.4984	0.2641	0.8849	0.086
Mof_H 	H 	0.5731	0.2653	0.9641	0.015
Mof_H 	H 	0.6722	0.424	0.9417	0.01
Mof_H 	H 	0.5955	0.4275	0.8622	0.08
Mof_C 	C 	0.29585	0.972	0.56176	0.357
Mof_C 	C 	0.31076	0.86905	0.52323	0.043
Mof_C 	C 	0.29586	0.8084	0.52673	-0.113
Mof_C 	C 	0.25924	0.78599	0.5722	0.045
Mof_C 	C 	0.23753	0.82422	0.61417	-0.113
Mof_C 	C 	0.25242	0.88487	0.61067	0.043
Mof_C 	C 	0.28904	0.90728	0.5652	-0.119
Mof_C 	C 	0.21009	0.59628	0.56733	-0.123
Mof_C 	C 	0.19182	0.62942	0.52388	0.045
Mof_C 	C 	0.20815	0.69024	0.52574	-0.118
Mof_C 	C 	0.24274	0.71792	0.57106	0.047
Mof_C 	C 	0.26101	0.68478	0.61452	-0.114
Mof_C 	C 	0.24468	0.62396	0.61266	0.044
Mof_C 	C 	0.21184	0.52816	0.56586	0.41
Mof_C 	C 	0.82564	0.15458	0.01629	0.392
Mof_C 	C 	0.87658	0.15491	0.96408	-0.124
Mof_C 	C 	0.93358	0.20276	0.95238	0.046
Mof_C 	C 	0.98209	0.20271	0.90535	-0.115
Mof_C 	C 	0.9736	0.15482	0.87003	0.051
Mof_C 	C 	0.9166	0.10697	0.88173	-0.116
Mof_C 	C 	0.86809	0.10702	0.92876	0.045
Mof_C 	C 	0.02925	0.15609	0.82163	0.032
Mof_C 	C 	0.0384	0.20974	0.79364	-0.111
Mof_C 	C 	0.08423	0.21375	0.74823	0.044
Mof_C 	C 	0.12457	0.15999	0.72416	-0.135
Mof_C 	C 	0.10975	0.10639	0.74828	0.035
Mof_C 	C 	0.06037	0.10247	0.79694	-0.104
Mof_C 	C 	0.17859	0.16109	0.67327	0.45
Mof_C 	C 	0.07177	0.35077	0.60454	0.38
Mof_C 	C 	0.97508	0.32182	0.61173	-0.109
Mof_C 	C 	0.89567	0.35569	0.62387	0.029
Mof_C 	C 	0.80791	0.32864	0.62693	-0.1
Mof_C 	C 	0.79955	0.26772	0.61785	0.026
Mof_C 	C 	0.87895	0.23385	0.60571	-0.099
Mof_C 	C 	0.96671	0.2609	0.60265	0.027
Mof_C 	C 	0.70128	0.24005	0.61611	0.069
Mof_C 	C 	0.62397	0.2723	0.60184	-0.138
Mof_C 	C 	0.53294	0.24656	0.59671	0.071
Mof_C 	C 	0.52378	0.18902	0.60765	-0.155
Mof_C 	C 	0.60299	0.15825	0.6228	0.075
Mof_C 	C 	0.69106	0.18196	0.62748	-0.148
Mof_C 	C 	0.43022	0.15766	0.60168	0.411
Mof_C 	C 	0.66985	0.35467	0.17124	0.41
Mof_C 	C 	0.61651	0.35488	0.22315	-0.122
Mof_C 	C 	0.6088	0.40547	0.25545	0.038
Mof_C 	C 	0.56061	0.40309	0.30245	-0.106
Mof_C 	C 	0.52012	0.35012	0.31716	0.028
Mof_C 	C 	0.52784	0.29953	0.28486	-0.104
Mof_C 	C 	0.57603	0.30191	0.23786	0.036
Mof_C 	C 	0.46539	0.34825	0.36713	0.079
Mof_C 	C 	0.4688	0.29765	0.39676	-0.153
Mof_C 	C 	0.42257	0.29861	0.44383	0.089
Mof_C 	C 	0.37029	0.346	0.46265	-0.176
Mof_C 	C 	0.36481	0.39181	0.43102	0.092
Mof_C 	C 	0.41114	0.39461	0.38271	-0.158
Mof_C 	C 	0.31542	0.34208	0.51303	0.451
Mof_C 	C 	0.70415	0.972	0.06176	0.357
Mof_C 	C 	0.68924	0.86905	0.02323	0.043
Mof_C 	C 	0.70414	0.8084	0.02673	-0.113
Mof_C 	C 	0.74076	0.78599	0.0722	0.045
Mof_C 	C 	0.76247	0.82422	0.11417	-0.113
Mof_C 	C 	0.74758	0.88487	0.11067	0.044
Mof_C 	C 	0.71096	0.90728	0.0652	-0.119
Mof_C 	C 	0.78991	0.59628	0.06733	-0.123
Mof_C 	C 	0.80818	0.62942	0.02388	0.044
Mof_C 	C 	0.79185	0.69024	0.02574	-0.118
Mof_C 	C 	0.75726	0.71792	0.07106	0.046
Mof_C 	C 	0.73899	0.68478	0.11452	-0.114
Mof_C 	C 	0.75532	0.62396	0.11266	0.044
Mof_C 	C 	0.78816	0.52816	0.06586	0.41
Mof_C 	C 	0.17436	0.15458	0.51629	0.392
Mof_C 	C 	0.12342	0.15491	0.46408	-0.125
Mof_C 	C 	0.06642	0.20276	0.45238	0.047
Mof_C 	C 	0.01791	0.20271	0.40535	-0.116
Mof_C 	C 	0.0264	0.15482	0.37003	0.052
Mof_C 	C 	0.0834	0.10697	0.38173	-0.117
Mof_C 	C 	0.13191	0.10702	0.42876	0.046
Mof_C 	C 	0.97075	0.15609	0.32163	0.032
Mof_C 	C 	0.9616	0.20974	0.29364	-0.111
Mof_C 	C 	0.91577	0.21375	0.24823	0.044
Mof_C 	C 	0.87543	0.15999	0.22416	-0.135
Mof_C 	C 	0.89025	0.10639	0.24828	0.035
Mof_C 	C 	0.93963	0.10247	0.29694	-0.104
Mof_C 	C 	0.82141	0.16109	0.17327	0.45
Mof_C 	C 	0.92823	0.35077	0.10454	0.38
Mof_C 	C 	0.02492	0.32182	0.11173	-0.109
Mof_C 	C 	0.10433	0.35569	0.12387	0.029
Mof_C 	C 	0.19209	0.32864	0.12693	-0.1
Mof_C 	C 	0.20045	0.26772	0.11785	0.026
Mof_C 	C 	0.12105	0.23385	0.10571	-0.099
Mof_C 	C 	0.03329	0.2609	0.10265	0.027
Mof_C 	C 	0.29872	0.24005	0.11611	0.069
Mof_C 	C 	0.37603	0.2723	0.10184	-0.138
Mof_C 	C 	0.46706	0.24656	0.09671	0.07
Mof_C 	C 	0.47622	0.18902	0.10765	-0.155
Mof_C 	C 	0.39701	0.15825	0.1228	0.075
Mof_C 	C 	0.30894	0.18196	0.12748	-0.148
Mof_C 	C 	0.56978	0.15766	0.10168	0.411
Mof_C 	C 	0.33015	0.35467	0.67124	0.41
Mof_C 	C 	0.38349	0.35488	0.72315	-0.122
Mof_C 	C 	0.3912	0.40547	0.75545	0.038
Mof_C 	C 	0.43939	0.40309	0.80245	-0.106
Mof_C 	C 	0.47988	0.35012	0.81716	0.028
Mof_C 	C 	0.47216	0.29953	0.78486	-0.104
Mof_C 	C 	0.42397	0.30191	0.73786	0.037
Mof_C 	C 	0.53461	0.34825	0.86713	0.079
Mof_C 	C 	0.5312	0.29765	0.89676	-0.152
Mof_C 	C 	0.57743	0.29861	0.94383	0.088
Mof_C 	C 	0.62971	0.346	0.96265	-0.176
Mof_C 	C 	0.63519	0.39181	0.93102	0.091
Mof_C 	C 	0.58886	0.39461	0.88271	-0.158
Mof_C 	C 	0.68458	0.34208	0.01303	0.45
Mof_O 	O 	0.14323	0.32063	0.59742	-0.489
Mof_O 	O 	0.07463	0.40573	0.60757	-0.409
Mof_O 	O 	0.35959	0.18577	0.59111	-0.488
Mof_O 	O 	0.42411	0.10296	0.60428	-0.424
Mof_O 	O 	0.1963	0.20888	0.65796	-0.467
Mof_O 	O 	0.20793	0.11213	0.65662	-0.473
Mof_O 	O 	0.83673	0.1981	0.04699	-0.432
Mof_O 	O 	0.77949	0.1093	0.02549	-0.45
Mof_O 	O 	0.26661	0.00431	0.59706	-0.43
Mof_O 	O 	0.34404	0.99161	0.52412	-0.28
Mof_O 	O 	0.71118	0.39945	0.16131	-0.463
Mof_O 	O 	0.66386	0.30786	0.1434	-0.433
Mof_O 	O 	0.27916	0.3917	0.52705	-0.458
Mof_O 	O 	0.31091	0.29627	0.5333	-0.466
Mof_O 	O 	0.234	0.50093	0.5972	-0.497
Mof_O 	O 	0.1485	0.50805	0.52768	-0.264
Mof_O 	O 	0.85677	0.32063	0.09742	-0.489
Mof_O 	O 	0.92537	0.40573	0.10757	-0.409
Mof_O 	O 	0.64041	0.18577	0.09111	-0.488
Mof_O 	O 	0.57589	0.10296	0.10428	-0.424
Mof_O 	O 	0.8037	0.20888	0.15796	-0.468
Mof_O 	O 	0.79207	0.11213	0.15662	-0.473
Mof_O 	O 	0.16327	0.1981	0.54699	-0.432
Mof_O 	O 	0.22051	0.1093	0.52549	-0.45
Mof_O 	O 	0.73339	0.00431	0.09706	-0.431
Mof_O 	O 	0.65596	0.99161	0.02412	-0.28
Mof_O 	O 	0.28882	0.39945	0.66131	-0.463
Mof_O 	O 	0.33614	0.30786	0.6434	-0.433
Mof_O 	O 	0.72084	0.3917	0.02705	-0.458
Mof_O 	O 	0.68909	0.29627	0.0333	-0.466
Mof_O 	O 	0.766	0.50093	0.0972	-0.497
Mof_O 	O 	0.8515	0.50805	0.02768	-0.264
Mof_H 	H 	0.727	0.4995	0.8865	0.144
Mof_H 	H 	0.7404	0.5653	0.8701	0.139
Mof_H 	H 	0.6557	0.5276	0.8479	0.141
Mof_H 	H 	0.489	0.5371	0.9275	0.144
Mof_H 	H 	0.51	0.5898	0.8911	0.147
Mof_H 	H 	0.5107	0.6004	0.9517	0.143
Mof_H 	H 	0.6388	0.5296	0.949	0.102
Mof_H 	H 	0.6613	0.5901	0.9381	0.098
Mof_C 	C 	0.69494	0.5353	0.8778	-0.374
Mof_C 	C 	0.52523	0.57261	0.92367	-0.385
Mof_N 	N 	0.63259	0.55728	0.92487	-0.152
Mof_H 	H 	0.8137	0.9792	0.8678	0.148
Mof_H 	H 	0.7759	0.9818	0.9252	0.156
Mof_H 	H 	0.7703	0.9224	0.8917	0.147
Mof_H 	H 	0.8965	0.9086	0.9395	0.099
Mof_H 	H 	0.9251	0.9698	0.9404	0.1
Mof_H 	H 	0.0343	0.9565	0.8821	0.144
Mof_H 	H 	0.9745	0.9086	0.8512	0.148
Mof_H 	H 	0.029	0.8915	0.9016	0.14
Mof_C 	C 	0.80703	0.95746	0.89899	-0.39
Mof_C 	C 	0.99451	0.92239	0.88525	-0.378
Mof_N 	N 	0.90636	0.93952	0.91901	-0.15
Mof_H 	H 	0.727	0.5005	0.6135	0.144
Mof_H 	H 	0.7404	0.4347	0.6299	0.139
Mof_H 	H 	0.6557	0.4724	0.6521	0.141
Mof_H 	H 	0.489	0.4629	0.5725	0.144
Mof_H 	H 	0.51	0.4102	0.6089	0.148
Mof_H 	H 	0.5107	0.3996	0.5483	0.143
Mof_H 	H 	0.6388	0.4704	0.551	0.102
Mof_H 	H 	0.6613	0.4099	0.5619	0.098
Mof_C 	C 	0.69494	0.4647	0.6222	-0.374
Mof_C 	C 	0.52523	0.42739	0.57633	-0.385
Mof_N 	N 	0.63259	0.44272	0.57513	-0.152
Mof_H 	H 	0.8137	0.0208	0.6322	0.148
Mof_H 	H 	0.7759	0.0182	0.5748	0.156
Mof_H 	H 	0.7703	0.0776	0.6083	0.147
Mof_H 	H 	0.8965	0.0914	0.5605	0.099
Mof_H 	H 	0.9251	0.0302	0.5596	0.1
Mof_H 	H 	0.0343	0.0435	0.6179	0.145
Mof_H 	H 	0.9745	0.0914	0.6488	0.148
Mof_H 	H 	0.029	0.1085	0.5984	0.141
Mof_C 	C 	0.80703	0.04254	0.601	-0.39
Mof_C 	C 	0.99451	0.07761	0.61475	-0.38
Mof_N 	N 	0.90636	0.06048	0.58099	-0.15
Mof_H 	H 	0.273	0.5005	0.1135	0.145
Mof_H 	H 	0.2596	0.4347	0.1299	0.139
Mof_H 	H 	0.3443	0.4724	0.1521	0.141
Mof_H 	H 	0.511	0.4629	0.0725	0.144
Mof_H 	H 	0.49	0.4102	0.1089	0.147
Mof_H 	H 	0.4893	0.3996	0.0483	0.143
Mof_H 	H 	0.3612	0.4704	0.051	0.102
Mof_H 	H 	0.3387	0.4099	0.0619	0.098
Mof_C 	C 	0.30506	0.4647	0.1222	-0.374
Mof_C 	C 	0.47477	0.42739	0.07633	-0.385
Mof_N 	N 	0.36741	0.44272	0.07513	-0.152
Mof_H 	H 	0.1863	0.0208	0.1322	0.148
Mof_H 	H 	0.2241	0.0182	0.0748	0.156
Mof_H 	H 	0.2297	0.0776	0.1083	0.147
Mof_H 	H 	0.1035	0.0914	0.0605	0.099
Mof_H 	H 	0.0749	0.0302	0.0596	0.1
Mof_H 	H 	0.9657	0.0435	0.1179	0.144
Mof_H 	H 	0.0255	0.0914	0.1488	0.148
Mof_H 	H 	0.971	0.1085	0.0984	0.14
Mof_C 	C 	0.19297	0.04254	0.101	-0.39
Mof_C 	C 	0.00549	0.07761	0.11475	-0.378
Mof_N 	N 	0.09364	0.06048	0.08099	-0.15
Mof_H 	H 	0.273	0.4995	0.3865	0.144
Mof_H 	H 	0.2596	0.5653	0.3701	0.139
Mof_H 	H 	0.3443	0.5276	0.3479	0.141
Mof_H 	H 	0.511	0.5371	0.4275	0.144
Mof_H 	H 	0.49	0.5898	0.3911	0.148
Mof_H 	H 	0.4893	0.6004	0.4517	0.143
Mof_H 	H 	0.3612	0.5296	0.449	0.102
Mof_H 	H 	0.3387	0.5901	0.4381	0.098
Mof_C 	C 	0.30506	0.5353	0.3778	-0.374
Mof_C 	C 	0.47477	0.57261	0.42367	-0.385
Mof_N 	N 	0.36741	0.55728	0.42487	-0.152
Mof_H 	H 	0.1863	0.9792	0.3678	0.148
Mof_H 	H 	0.2241	0.9818	0.4252	0.156
Mof_H 	H 	0.2297	0.9224	0.3917	0.147
Mof_H 	H 	0.1035	0.9086	0.4395	0.099
Mof_H 	H 	0.0749	0.9698	0.4404	0.1
Mof_H 	H 	0.9657	0.9565	0.3821	0.145
Mof_H 	H 	0.0255	0.9086	0.3512	0.148
Mof_H 	H 	0.971	0.8915	0.4016	0.141
Mof_C 	C 	0.19297	0.95746	0.39899	-0.39
Mof_C 	C 	0.00549	0.92239	0.38525	-0.38
Mof_N 	N 	0.09364	0.93952	0.41901	-0.15
_end
