data_functionalizedCrystal
_audit_creation_method	'EQeq! by Chris Wilmer'
_symmetry_space_group_name_H-M	'P1'
_symmetry_Int_Tables_number	1
_symmetry_cell_setting	triclinic
loop_
_symmetry_equiv_pos_as_xyz
  x,y,z
_cell_length_a	12.955
_cell_length_b	13.814
_cell_length_c	27.962
_cell_angle_alpha	75.69
_cell_angle_beta	79.38
_cell_angle_gamma	85.69
loop_
_atom_site_label
_atom_site_type_symbol
_atom_site_fract_x
_atom_site_fract_y
_atom_site_fract_z
_atom_site_charge
Mof_Eu	Eu	0.87991	0.02124	0.55384	2.12
Mof_Eu	Eu	0.47109	0.53755	0.41492	1.956
Mof_Eu	Eu	0.031	0.87493	0.06034	2.143
Mof_Eu	Eu	0.51626	0.48066	0.9142	1.981
Mof_O 	O 	0.9468	0.931	0.47167	-0.591
Mof_O 	O 	0.7996	0.8997	0.52548	-0.502
Mof_O 	O 	0.5993	0.5674	0.45588	-0.588
Mof_O 	O 	0.6238	0.5901	0.52835	-0.567
Mof_O 	O 	0.0457	0.8888	0.14407	-0.492
Mof_O 	O 	0.9316	0.7848	0.14023	-0.472
Mof_O 	O 	0.6383	0.5162	0.35775	-0.43
Mof_O 	O 	0.5947	0.3916	0.42331	-0.437
Mof_O 	O 	0.8682	0.1343	0.47582	-0.574
Mof_O 	O 	0.0191	0.1258	0.42252	-0.496
Mof_O 	O 	0.2604	0.6593	0.14674	-0.363
Mof_O 	O 	0.3266	0.5077	0.14135	-0.513
Mof_O 	O 	0.8896	0.9824	0.07775	-0.525
Mof_O 	O 	0.8765	0.1269	0.02135	-0.542
Mof_O 	O 	0.5056	0.3525	0.13861	-0.427
Mof_O 	O 	0.613	0.3874	0.06648	-0.429
Mof_O 	O 	0.4898	0.6936	0.36325	-0.574
Mof_O 	O 	0.4443	0.8143	0.40367	-0.353
Mof_O 	O 	0.5968	0.5721	0.95425	-0.601
Mof_O 	O 	0.6112	0.6072	0.02515	-0.59
Mof_O 	O 	0.9006	0.9693	0.96644	-0.576
Mof_O 	O 	0.8942	0.8273	0.02492	-0.543
Mof_O 	O 	0.779	0.9344	0.63488	-0.463
Mof_O 	O 	0.9124	0.0185	0.63769	-0.493
Mof_C 	C 	0.8256	0.8232	0.457	-0.19
Mof_C 	C 	0.7503	0.753	0.4811	0.12
Mof_H 	H 	0.7231	0.7465	0.5148	0.002
Mof_C 	C 	0.7154	0.6921	0.4546	-0.214
Mof_C 	C 	0.7524	0.7052	0.4042	0.079
Mof_H 	H 	0.7266	0.6664	0.3864	0.007
Mof_C 	C 	0.8291	0.7767	0.3787	-0.098
Mof_C 	C 	0.866	0.8339	0.4062	0.06
Mof_H 	H 	0.9182	0.8796	0.3906	0.013
Mof_C 	C 	0.866	0.7883	0.3241	0.118
Mof_C 	C 	0.9628	0.8319	0.3011	-0.156
Mof_H 	H 	0.005	0.8521	0.3202	0.077
Mof_C 	C 	0.9958	0.8449	0.2493	0.101
Mof_H 	H 	0.0594	0.875	0.2343	-0.003
Mof_C 	C 	0.9371	0.8145	0.2206	-0.154
Mof_C 	C 	0.8471	0.7625	0.2436	0.087
Mof_H 	H 	0.8094	0.7356	0.225	0.006
Mof_C 	C 	0.8135	0.7507	0.2946	-0.174
Mof_H 	H 	0.7527	0.7157	0.3095	0.097
Mof_C 	C 	0.8607	0.8888	0.4861	0.459
Mof_C 	C 	0.6395	0.6119	0.4815	0.516
Mof_C 	C 	0.9737	0.8303	0.1649	0.383
Mof_C 	C 	0.765	0.3832	0.3742	-0.112
Mof_C 	C 	0.7959	0.2983	0.4078	0.062
Mof_H 	H 	0.7505	0.2724	0.4375	0.014
Mof_C 	C 	0.8937	0.2516	0.3977	-0.16
Mof_C 	C 	0.9612	0.2925	0.3536	0.03
Mof_H 	H 	0.0267	0.2618	0.3465	0.032
Mof_C 	C 	0.9327	0.379	0.3196	-0.07
Mof_C 	C 	0.8351	0.4225	0.3311	0.015
Mof_H 	H 	0.8156	0.4804	0.3091	0.033
Mof_C 	C 	0.0107	0.4261	0.2752	0.118
Mof_C 	C 	0.0169	0.5293	0.2598	-0.193
Mof_H 	H 	0.9683	0.5692	0.2758	0.1
Mof_C 	C 	0.0945	0.5741	0.221	0.097
Mof_H 	H 	0.0969	0.6435	0.2113	-0.007
Mof_C 	C 	0.1681	0.5169	0.1967	-0.187
Mof_C 	C 	0.1603	0.4144	0.2107	0.099
Mof_H 	H 	0.2072	0.3747	0.1938	0.007
Mof_C 	C 	0.0828	0.3696	0.2498	-0.183
Mof_H 	H 	0.0796	0.3003	0.259	0.098
Mof_C 	C 	0.6599	0.4327	0.3854	0.319
Mof_C 	C 	0.9304	0.1624	0.4351	0.479
Mof_C 	C 	0.2569	0.5653	0.1584	0.392
Mof_C 	C 	0.7625	0.1025	0.1001	-0.173
Mof_C 	C 	0.7151	0.1973	0.0878	0.072
Mof_H 	H 	0.7385	0.2407	0.0571	0.002
Mof_C 	C 	0.6336	0.2269	0.121	-0.124
Mof_C 	C 	0.5992	0.1623	0.1669	0.023
Mof_H 	H 	0.5449	0.183	0.1893	0.028
Mof_C 	C 	0.6443	0.0674	0.1799	-0.078
Mof_C 	C 	0.7267	0.0379	0.1461	0.034
Mof_H 	H 	0.7579	0.9745	0.1544	0.032
Mof_C 	C 	0.6014	0.9961	0.2278	0.13
Mof_C 	C 	0.5994	0.8957	0.2298	-0.186
Mof_H 	H 	0.6253	0.8726	0.2012	0.09
Mof_C 	C 	0.5591	0.8279	0.2743	0.107
Mof_H 	H 	0.5582	0.7603	0.2749	-0.011
Mof_C 	C 	0.5205	0.8602	0.3176	-0.191
Mof_C 	C 	0.5225	0.9606	0.3153	0.116
Mof_H 	H 	0.4964	0.9837	0.3439	-0.003
Mof_C 	C 	0.5622	0.028	0.2717	-0.192
Mof_H 	H 	0.5629	0.0954	0.2713	0.096
Mof_C 	C 	0.8497	0.0684	0.0639	0.481
Mof_C 	C 	0.5813	0.3278	0.108	0.32
Mof_C 	C 	0.4807	0.7838	0.3652	0.428
Mof_C 	C 	0.6991	0.7078	0.9518	-0.252
Mof_C 	C 	0.752	0.7534	0.9788	0.156
Mof_H 	H 	0.7458	0.7293	0.0133	-0.02
Mof_C 	C 	0.8142	0.8349	0.9547	-0.228
Mof_C 	C 	0.8229	0.8705	0.9036	0.095
Mof_H 	H 	0.8617	0.927	0.8877	0.003
Mof_C 	C 	0.7748	0.8236	0.875	-0.127
Mof_C 	C 	0.7124	0.7427	0.8995	0.105
Mof_H 	H 	0.6791	0.7111	0.881	-0
Mof_C 	C 	0.7895	0.8586	0.8194	0.143
Mof_C 	C 	0.7132	0.8517	0.7927	-0.196
Mof_H 	H 	0.6494	0.8246	0.8098	0.104
Mof_C 	C 	0.7277	0.8834	0.7416	0.099
Mof_H 	H 	0.6739	0.8776	0.7246	0.005
Mof_C 	C 	0.822	0.924	0.7148	-0.157
Mof_C 	C 	0.8994	0.9313	0.7408	0.094
Mof_H 	H 	0.9636	0.9575	0.7235	0.015
Mof_C 	C 	0.8838	0.9003	0.7926	-0.185
Mof_H 	H 	0.9369	0.9073	0.8097	0.103
Mof_C 	C 	0.6303	0.623	0.9787	0.565
Mof_C 	C 	0.8737	0.8809	0.9845	0.516
Mof_C 	C 	0.8392	0.9615	0.6586	0.379
Mof_Tb	Tb	0.12009	0.97876	0.44616	1.893
Mof_Tb	Tb	0.52891	0.46245	0.58508	1.756
Mof_Tb	Tb	0.969	0.12507	0.93966	1.919
Mof_Tb	Tb	0.48374	0.51934	0.0858	1.778
Mof_O 	O 	0.0532	0.069	0.52833	-0.619
Mof_O 	O 	0.2004	0.1003	0.47452	-0.48
Mof_O 	O 	0.4007	0.4326	0.54412	-0.563
Mof_O 	O 	0.3762	0.4099	0.47165	-0.598
Mof_O 	O 	0.9543	0.1112	0.85593	-0.461
Mof_O 	O 	0.0684	0.2152	0.85977	-0.445
Mof_O 	O 	0.3617	0.4838	0.64225	-0.408
Mof_O 	O 	0.4053	0.6084	0.57669	-0.416
Mof_O 	O 	0.1318	0.8657	0.52418	-0.542
Mof_O 	O 	0.9809	0.8742	0.57748	-0.517
Mof_O 	O 	0.7396	0.3407	0.85326	-0.367
Mof_O 	O 	0.6734	0.4923	0.85865	-0.547
Mof_O 	O 	0.1104	0.0176	0.92225	-0.502
Mof_O 	O 	0.1235	0.8731	0.97865	-0.572
Mof_O 	O 	0.4944	0.6475	0.86139	-0.451
Mof_O 	O 	0.387	0.6126	0.93352	-0.449
Mof_O 	O 	0.5102	0.3064	0.63675	-0.536
Mof_O 	O 	0.5557	0.1857	0.59633	-0.348
Mof_O 	O 	0.4032	0.4279	0.04575	-0.573
Mof_O 	O 	0.3888	0.3928	0.97485	-0.619
Mof_O 	O 	0.0994	0.0307	0.03356	-0.61
Mof_O 	O 	0.1058	0.1727	0.97508	-0.517
Mof_O 	O 	0.221	0.0656	0.36512	-0.436
Mof_O 	O 	0.0876	0.9815	0.36231	-0.463
Mof_C 	C 	0.1744	0.1768	0.543	-0.201
Mof_C 	C 	0.2497	0.247	0.5189	0.125
Mof_H 	H 	0.2769	0.2535	0.4852	-0.001
Mof_C 	C 	0.2846	0.3079	0.5454	-0.215
Mof_C 	C 	0.2476	0.2948	0.5958	0.079
Mof_H 	H 	0.2734	0.3336	0.6136	0.008
Mof_C 	C 	0.1709	0.2233	0.6213	-0.102
Mof_C 	C 	0.134	0.1661	0.5938	0.067
Mof_H 	H 	0.0818	0.1204	0.6094	0.007
Mof_C 	C 	0.134	0.2117	0.6759	0.12
Mof_C 	C 	0.0372	0.1681	0.6989	-0.161
Mof_H 	H 	0.995	0.1479	0.6798	0.081
Mof_C 	C 	0.0042	0.1551	0.7507	0.094
Mof_H 	H 	0.9406	0.125	0.7657	0.001
Mof_C 	C 	0.0629	0.1855	0.7794	-0.152
Mof_C 	C 	0.1529	0.2375	0.7564	0.086
Mof_H 	H 	0.1906	0.2644	0.775	0.006
Mof_C 	C 	0.1865	0.2493	0.7054	-0.175
Mof_H 	H 	0.2473	0.2843	0.6905	0.098
Mof_C 	C 	0.1393	0.1112	0.5139	0.472
Mof_C 	C 	0.3605	0.3881	0.5185	0.514
Mof_C 	C 	0.0263	0.1697	0.8351	0.373
Mof_C 	C 	0.235	0.6168	0.6258	-0.111
Mof_C 	C 	0.2041	0.7017	0.5922	0.058
Mof_H 	H 	0.2495	0.7276	0.5625	0.015
Mof_C 	C 	0.1063	0.7484	0.6023	-0.154
Mof_C 	C 	0.0388	0.7075	0.6464	0.021
Mof_H 	H 	0.9733	0.7382	0.6535	0.037
Mof_C 	C 	0.0673	0.621	0.6804	-0.07
Mof_C 	C 	0.1649	0.5775	0.6689	0.014
Mof_H 	H 	0.1844	0.5196	0.6909	0.032
Mof_C 	C 	0.9893	0.5739	0.7248	0.118
Mof_C 	C 	0.9831	0.4707	0.7402	-0.184
Mof_H 	H 	0.0317	0.4308	0.7242	0.094
Mof_C 	C 	0.9055	0.4259	0.779	0.094
Mof_H 	H 	0.9031	0.3565	0.7887	-0.003
Mof_C 	C 	0.8319	0.4831	0.8033	-0.187
Mof_C 	C 	0.8397	0.5856	0.7893	0.101
Mof_H 	H 	0.7928	0.6253	0.8062	0.006
Mof_C 	C 	0.9172	0.6304	0.7502	-0.183
Mof_H 	H 	0.9204	0.6997	0.741	0.099
Mof_C 	C 	0.3401	0.5673	0.6146	0.316
Mof_C 	C 	0.0696	0.8376	0.5649	0.473
Mof_C 	C 	0.7431	0.4347	0.8416	0.402
Mof_C 	C 	0.2375	0.8975	0.8999	-0.175
Mof_C 	C 	0.2849	0.8027	0.9122	0.073
Mof_H 	H 	0.2615	0.7593	0.9429	0.001
Mof_C 	C 	0.3664	0.7731	0.879	-0.123
Mof_C 	C 	0.4008	0.8377	0.8331	0.018
Mof_H 	H 	0.4551	0.817	0.8107	0.03
Mof_C 	C 	0.3557	0.9326	0.8201	-0.069
Mof_C 	C 	0.2733	0.9621	0.8539	0.036
Mof_H 	H 	0.2421	0.0255	0.8456	0.03
Mof_C 	C 	0.3986	0.0039	0.7722	0.11
Mof_C 	C 	0.4006	0.1043	0.7702	-0.17
Mof_H 	H 	0.3747	0.1274	0.7988	0.083
Mof_C 	C 	0.4409	0.1721	0.7257	0.09
Mof_H 	H 	0.4418	0.2397	0.7251	-0.005
Mof_C 	C 	0.4795	0.1398	0.6824	-0.176
Mof_C 	C 	0.4775	0.0394	0.6847	0.094
Mof_H 	H 	0.5036	0.0163	0.6561	0.002
Mof_C 	C 	0.4378	0.972	0.7283	-0.167
Mof_H 	H 	0.4371	0.9046	0.7287	0.088
Mof_C 	C 	0.1503	0.9316	0.9361	0.485
Mof_C 	C 	0.4187	0.6722	0.892	0.322
Mof_C 	C 	0.5193	0.2162	0.6348	0.412
Mof_C 	C 	0.3009	0.2922	0.0482	-0.248
Mof_C 	C 	0.248	0.2466	0.0212	0.152
Mof_H 	H 	0.2542	0.2707	0.9867	-0.018
Mof_C 	C 	0.1858	0.1651	0.0453	-0.233
Mof_C 	C 	0.1771	0.1295	0.0964	0.098
Mof_H 	H 	0.1383	0.073	0.1123	-0.001
Mof_C 	C 	0.2252	0.1764	0.125	-0.127
Mof_C 	C 	0.2876	0.2573	0.1005	0.101
Mof_H 	H 	0.3209	0.2889	0.119	0.002
Mof_C 	C 	0.2105	0.1414	0.1806	0.142
Mof_C 	C 	0.2868	0.1483	0.2073	-0.195
Mof_H 	H 	0.3506	0.1754	0.1902	0.103
Mof_C 	C 	0.2723	0.1166	0.2584	0.098
Mof_H 	H 	0.3261	0.1224	0.2754	0.005
Mof_C 	C 	0.178	0.076	0.2852	-0.156
Mof_C 	C 	0.1006	0.0687	0.2592	0.092
Mof_H 	H 	0.0364	0.0425	0.2765	0.013
Mof_C 	C 	0.1162	0.0997	0.2074	-0.184
Mof_H 	H 	0.0631	0.0927	0.1903	0.101
Mof_C 	C 	0.3697	0.377	0.0213	0.557
Mof_C 	C 	0.1263	0.1191	0.0155	0.523
Mof_C 	C 	0.1608	0.0385	0.3414	0.371
_end
