# CIF file generated by openbabel 3.1.0, see https://openbabel.org
data_I
_chemical_name_common 'image0'
_cell_length_a 18.982
_cell_length_b 18.982
_cell_length_c 7.9137
_cell_angle_alpha 90
_cell_angle_beta 90
_cell_angle_gamma 120
_space_group_name_H-M_alt 'P 1'
_space_group_name_Hall 'P 1'
loop_
    _symmetry_equiv_pos_as_xyz
    x,y,z
loop_
    _atom_site_label
    _atom_site_type_symbol
    _atom_site_fract_x
    _atom_site_fract_y
    _atom_site_fract_z
    _atom_site_occupancy
    N1       N        0.25973    0.56021    0.49380    1.000
    N2       N        0.19590    0.43570    0.39230    1.000
    N3       N        0.07791    0.10571    0.15800    1.000
    N4       N        0.14650    0.22940    0.25860    1.000
    N5       N        0.22591    0.63293    0.81060    1.000
    N6       N        0.09954    0.57420    0.90350    1.000
    C1       C        0.24730    0.48730    0.51110    1.000
    H1       H        0.27090    0.47190    0.59550    1.000
    C2       C        0.21440    0.55590    0.35420    1.000
    H2       H        0.21030    0.59930    0.31130    1.000
    C3       C        0.17720    0.48100    0.28860    1.000
    H3       H        0.14510    0.46350    0.19190    1.000
    C4       C        0.09430    0.18100    0.13830    1.000
    H4       H        0.07300    0.19860    0.05320    1.000
    C5       C        0.12050    0.10730    0.29710    1.000
    H5       H        0.12160    0.06230    0.34030    1.000
    C6       C        0.16090    0.18210    0.36440    1.000
    H6       H        0.19200    0.19800    0.46250    1.000
    C7       C        0.15270    0.34510    0.39730    1.000
    C8       C        0.21520    0.36810    0.30630    1.000
    C9       C        0.19070    0.32140    0.25580    1.000
    C10      C        0.13230    0.30030    0.35710    1.000
    C11      C        0.15190    0.57160    0.79170    1.000
    H7       H        0.13720    0.53110    0.71090    1.000
    C12      C        0.22160    0.67720    0.94320    1.000
    H8       H        0.26520    0.72440    0.98640    1.000
    C13      C        0.14420    0.64170    0.00160    1.000
    H9       H        0.12530    0.65960    0.09070    1.000
    C14      C        0.01290    0.51850    0.91420    1.000
    H10      H        0.99760    0.47560    0.83150    1.000
    H11      H        0.98430    0.54740    0.88660    1.000
    N7       N        0.43979    0.69952    0.49380    1.000
    N8       N        0.56430    0.76020    0.39230    1.000
    N9       N        0.89429    0.97220    0.15800    1.000
    N10      N        0.77060    0.91710    0.25860    1.000
    N11      N        0.36707    0.59298    0.81060    1.000
    N12      N        0.42580    0.52534    0.90350    1.000
    C15      C        0.51270    0.76000    0.51110    1.000
    H12      H        0.52810    0.79900    0.59550    1.000
    C16      C        0.44410    0.65850    0.35420    1.000
    H13      H        0.40070    0.61100    0.31130    1.000
    C17      C        0.51900    0.69620    0.28860    1.000
    H14      H        0.53650    0.68160    0.19190    1.000
    C18      C        0.81900    0.91330    0.13830    1.000
    H15      H        0.80140    0.87440    0.05320    1.000
    C19      C        0.89270    0.01320    0.29710    1.000
    H16      H        0.93770    0.05930    0.34030    1.000
    C20      C        0.81790    0.97880    0.36440    1.000
    H17      H        0.80200    0.99400    0.46250    1.000
    C21      C        0.65490    0.80760    0.39730    1.000
    C22      C        0.63190    0.84710    0.30630    1.000
    C23      C        0.67860    0.86930    0.25580    1.000
    C24      C        0.69970    0.83200    0.35710    1.000
    C25      C        0.42840    0.58030    0.79170    1.000
    H18      H        0.46890    0.60610    0.71090    1.000
    C26      C        0.32280    0.54440    0.94320    1.000
    H19      H        0.27560    0.54080    0.98640    1.000
    C27      C        0.35830    0.50250    0.00160    1.000
    H20      H        0.34040    0.46570    0.09070    1.000
    C28      C        0.48150    0.49440    0.91420    1.000
    H21      H        0.52440    0.52200    0.83150    1.000
    H22      H        0.45260    0.43690    0.88660    1.000
    N13      N        0.30048    0.74027    0.49380    1.000
    N14      N        0.23980    0.80410    0.39230    1.000
    N15      N        0.02780    0.92209    0.15800    1.000
    N16      N        0.08290    0.85350    0.25860    1.000
    N17      N        0.40702    0.77409    0.81060    1.000
    N18      N        0.47466    0.90046    0.90350    1.000
    C29      C        0.24000    0.75270    0.51110    1.000
    H23      H        0.20100    0.72910    0.59550    1.000
    C30      C        0.34150    0.78560    0.35420    1.000
    H24      H        0.38900    0.78970    0.31130    1.000
    C31      C        0.30380    0.82280    0.28860    1.000
    H25      H        0.31840    0.85490    0.19190    1.000
    C32      C        0.08670    0.90570    0.13830    1.000
    H26      H        0.12560    0.92700    0.05320    1.000
    C33      C        0.98680    0.87950    0.29710    1.000
    H27      H        0.94070    0.87840    0.34030    1.000
    C34      C        0.02120    0.83910    0.36440    1.000
    H28      H        0.00600    0.80800    0.46250    1.000
    C35      C        0.19240    0.84730    0.39730    1.000
    C36      C        0.15290    0.78480    0.30630    1.000
    C37      C        0.13070    0.80930    0.25580    1.000
    C38      C        0.16800    0.86770    0.35710    1.000
    C39      C        0.41970    0.84810    0.79170    1.000
    H29      H        0.39390    0.86280    0.71090    1.000
    C40      C        0.45560    0.77840    0.94320    1.000
    H30      H        0.45920    0.73480    0.98640    1.000
    C41      C        0.49750    0.85580    0.00160    1.000
    H31      H        0.53430    0.87470    0.09070    1.000
    C42      C        0.50560    0.98710    0.91420    1.000
    H32      H        0.47800    0.00240    0.83150    1.000
    H33      H        0.56310    0.01570    0.88660    1.000
    N19      N        0.74027    0.43979    0.50620    1.000
    N20      N        0.80410    0.56430    0.60770    1.000
    N21      N        0.92209    0.89429    0.84200    1.000
    N22      N        0.85350    0.77060    0.74140    1.000
    N23      N        0.77409    0.36707    0.18940    1.000
    N24      N        0.90046    0.42580    0.09650    1.000
    C43      C        0.75270    0.51270    0.48890    1.000
    H34      H        0.72910    0.52810    0.40450    1.000
    C44      C        0.78560    0.44410    0.64580    1.000
    H35      H        0.78970    0.40070    0.68870    1.000
    C45      C        0.82280    0.51900    0.71140    1.000
    H36      H        0.85490    0.53650    0.80810    1.000
    C46      C        0.90570    0.81900    0.86170    1.000
    H37      H        0.92700    0.80140    0.94680    1.000
    C47      C        0.87950    0.89270    0.70290    1.000
    H38      H        0.87840    0.93770    0.65970    1.000
    C48      C        0.83910    0.81790    0.63560    1.000
    H39      H        0.80800    0.80200    0.53750    1.000
    C49      C        0.84730    0.65490    0.60270    1.000
    C50      C        0.78480    0.63190    0.69370    1.000
    C51      C        0.80930    0.67860    0.74420    1.000
    C52      C        0.86770    0.69970    0.64290    1.000
    C53      C        0.84810    0.42840    0.20830    1.000
    H40      H        0.86280    0.46890    0.28910    1.000
    C54      C        0.77840    0.32280    0.05680    1.000
    H41      H        0.73480    0.27560    0.01360    1.000
    C55      C        0.85580    0.35830    0.99840    1.000
    H42      H        0.87470    0.34040    0.90930    1.000
    C56      C        0.98710    0.48150    0.08580    1.000
    H43      H        0.00240    0.52440    0.16850    1.000
    H44      H        0.01570    0.45260    0.11340    1.000
    N25      N        0.56021    0.30048    0.50620    1.000
    N26      N        0.43570    0.23980    0.60770    1.000
    N27      N        0.10571    0.02780    0.84200    1.000
    N28      N        0.22940    0.08290    0.74140    1.000
    N29      N        0.63293    0.40702    0.18940    1.000
    N30      N        0.57420    0.47466    0.09650    1.000
    C57      C        0.48730    0.24000    0.48890    1.000
    H45      H        0.47190    0.20100    0.40450    1.000
    C58      C        0.55590    0.34150    0.64580    1.000
    H46      H        0.59930    0.38900    0.68870    1.000
    C59      C        0.48100    0.30380    0.71140    1.000
    H47      H        0.46350    0.31840    0.80810    1.000
    C60      C        0.18100    0.08670    0.86170    1.000
    H48      H        0.19860    0.12560    0.94680    1.000
    C61      C        0.10730    0.98680    0.70290    1.000
    H49      H        0.06230    0.94070    0.65970    1.000
    C62      C        0.18210    0.02120    0.63560    1.000
    H50      H        0.19800    0.00600    0.53750    1.000
    C63      C        0.34510    0.19240    0.60270    1.000
    C64      C        0.36810    0.15290    0.69370    1.000
    C65      C        0.32140    0.13070    0.74420    1.000
    C66      C        0.30030    0.16800    0.64290    1.000
    C67      C        0.57160    0.41970    0.20830    1.000
    H51      H        0.53110    0.39390    0.28910    1.000
    C68      C        0.67720    0.45560    0.05680    1.000
    H52      H        0.72440    0.45920    0.01360    1.000
    C69      C        0.64170    0.49750    0.99840    1.000
    H53      H        0.65960    0.53430    0.90930    1.000
    C70      C        0.51850    0.50560    0.08580    1.000
    H54      H        0.47560    0.47800    0.16850    1.000
    H55      H        0.54740    0.56310    0.11340    1.000
    N31      N        0.69952    0.25973    0.50620    1.000
    N32      N        0.76020    0.19590    0.60770    1.000
    N33      N        0.97220    0.07791    0.84200    1.000
    N34      N        0.91710    0.14650    0.74140    1.000
    N35      N        0.59298    0.22591    0.18940    1.000
    N36      N        0.52534    0.09954    0.09650    1.000
    C71      C        0.76000    0.24730    0.48890    1.000
    H56      H        0.79900    0.27090    0.40450    1.000
    C72      C        0.65850    0.21440    0.64580    1.000
    H57      H        0.61100    0.21030    0.68870    1.000
    C73      C        0.69620    0.17720    0.71140    1.000
    H58      H        0.68160    0.14510    0.80810    1.000
    C74      C        0.91330    0.09430    0.86170    1.000
    H59      H        0.87440    0.07300    0.94680    1.000
    C75      C        0.01320    0.12050    0.70290    1.000
    H60      H        0.05930    0.12160    0.65970    1.000
    C76      C        0.97880    0.16090    0.63560    1.000
    H61      H        0.99400    0.19200    0.53750    1.000
    C77      C        0.80760    0.15270    0.60270    1.000
    C78      C        0.84710    0.21520    0.69370    1.000
    C79      C        0.86930    0.19070    0.74420    1.000
    C80      C        0.83200    0.13230    0.64290    1.000
    C81      C        0.58030    0.15190    0.20830    1.000
    H62      H        0.60610    0.13720    0.28910    1.000
    C82      C        0.54440    0.22160    0.05680    1.000
    H63      H        0.54080    0.26520    0.01360    1.000
    C83      C        0.50250    0.14420    0.99840    1.000
    H64      H        0.46570    0.12530    0.90930    1.000
    C84      C        0.49440    0.01290    0.08580    1.000
    H65      H        0.52200    0.99760    0.16850    1.000
    H66      H        0.43690    0.98430    0.11340    1.000
    Zn1      Zn       0.33333    0.66667    0.65082    1.000
    Zn2      Zn       0.66667    0.33333    0.34918    1.000
    Zn3      Zn       0.00000    0.00000    0.00000    1.000
