data_functionalizedCrystal
_audit_creation_method	'EQeq! by Chris Wilmer'
_symmetry_space_group_name_H-M	'P1'
_symmetry_Int_Tables_number	1
_symmetry_cell_setting	triclinic
loop_
_symmetry_equiv_pos_as_xyz
  x,y,z
_cell_length_a	9.935
_cell_length_b	11.323
_cell_length_c	14.708
_cell_angle_alpha	91.171
_cell_angle_beta	90
_cell_angle_gamma	90
loop_
_atom_site_label
_atom_site_type_symbol
_atom_site_fract_x
_atom_site_fract_y
_atom_site_fract_z
_atom_site_charge
Mof_Co	Co	0.92604	0.25565	0.63363	1.25
Mof_Co	Co	0.12025	0.24017	0.80586	1.182
Mof_Co	Co	0.42604	0.24435	0.86637	1.195
Mof_Co	Co	0.62025	0.25983	0.69414	1.205
Mof_Co	Co	0.07396	0.74435	0.36637	1.143
Mof_Co	Co	0.87975	0.75983	0.19414	1.231
Mof_Co	Co	0.57396	0.75565	0.13363	1.197
Mof_Co	Co	0.37975	0.74017	0.30586	1.209
Mof_Co	Co	1.54986e-33	0	0.5	1.125
Mof_Co	Co	0.5	0.5	-0	1.16
Mof_Co	Co	9.17992e-33	0.5	0.5	1.159
Mof_Co	Co	0.5	0	-0	1.128
Mof_H 	H 	0.7723	0.3513	0.8693	-0.076
Mof_H 	H 	0.6264	0.0558	0.5526	-0.132
Mof_H 	H 	0.057	0.9782	0.7572	0.028
Mof_H 	H 	0.2046	0.4752	0.7212	-0.141
Mof_H 	H 	0.2123	0.0042	0.9773	-0.111
Mof_H 	H 	0.1505	0.1977	0.4269	-0.15
Mof_H 	H 	0.2723	0.1487	0.6307	-0.133
Mof_H 	H 	0.1264	0.4442	0.9474	-0.115
Mof_H 	H 	0.557	0.5218	0.7428	-0.099
Mof_H 	H 	0.7046	0.0248	0.7788	-0.076
Mof_H 	H 	0.7123	0.4958	0.5227	-0.096
Mof_H 	H 	0.6505	0.3023	0.0731	-0.051
Mof_H 	H 	0.2277	0.6487	0.1307	-0.162
Mof_H 	H 	0.3736	0.9442	0.4474	-0.089
Mof_H 	H 	0.943	0.0218	0.2428	-0.234
Mof_H 	H 	0.7954	0.5248	0.2788	-0.123
Mof_H 	H 	0.7877	0.9958	0.0227	-0.099
Mof_H 	H 	0.8495	0.8023	0.5731	-0.063
Mof_H 	H 	0.7277	0.8513	0.3693	-0.105
Mof_H 	H 	0.8736	0.5558	0.0526	-0.108
Mof_H 	H 	0.443	0.4782	0.2572	-0.129
Mof_H 	H 	0.2954	0.9752	0.2212	-0.186
Mof_H 	H 	0.2877	0.5042	0.4773	-0.114
Mof_H 	H 	0.3495	0.6977	0.9269	-0.161
Mof_C 	C 	0.8404	0.3238	0.831	0.487
Mof_C 	C 	0.7176	0.0735	0.557	0.532
Mof_C 	C 	0.0297	0.0187	0.706	0.221
Mof_C 	C 	0.1405	0.4494	0.6792	0.55
Mof_C 	C 	0.2302	0.0668	0.9391	0.515
Mof_C 	C 	0.0976	0.2423	0.467	0.54
Mof_C 	C 	0.3404	0.1762	0.669	0.512
Mof_C 	C 	0.2176	0.4265	0.943	0.509
Mof_C 	C 	0.5297	0.4813	0.794	0.512
Mof_C 	C 	0.6405	0.0506	0.8208	0.384
Mof_C 	C 	0.7302	0.4332	0.5609	0.496
Mof_C 	C 	0.5976	0.2577	0.033	0.296
Mof_C 	C 	0.1596	0.6762	0.169	0.534
Mof_C 	C 	0.2824	0.9265	0.443	0.505
Mof_C 	C 	0.9703	0.9813	0.294	0.781
Mof_C 	C 	0.8595	0.5506	0.3208	0.522
Mof_C 	C 	0.7698	0.9332	0.0609	0.502
Mof_C 	C 	0.9024	0.7577	0.533	0.492
Mof_C 	C 	0.6596	0.8238	0.331	0.509
Mof_C 	C 	0.7824	0.5735	0.057	0.532
Mof_C 	C 	0.4703	0.5187	0.206	0.536
Mof_C 	C 	0.3595	0.9494	0.1792	0.686
Mof_C 	C 	0.2698	0.5668	0.4391	0.523
Mof_C 	C 	0.4024	0.7423	0.967	0.734
Mof_O 	O 	0.9515	0.3086	0.8656	-0.333
Mof_O 	O 	0.8094	0.3057	0.7481	-0.526
Mof_O 	O 	0.7498	0.1543	0.6123	-0.551
Mof_O 	O 	0.7946	0.0148	0.5076	-0.438
Mof_O 	O 	0.0162	0.1294	0.7151	-0.551
Mof_O 	O 	0.0106	0.9596	0.6367	-0.346
Mof_O 	O 	0.0884	0.35	0.6931	-0.622
Mof_O 	O 	0.1161	0.5157	0.6168	-0.482
Mof_O 	O 	0.1333	0.1082	0.8977	-0.477
Mof_O 	O 	0.3506	0.1008	0.9347	-0.539
Mof_O 	O 	0.1045	0.3495	0.4605	-0.494
Mof_O 	O 	0.0262	0.185	0.5223	-0.632
Mof_O 	O 	0.4515	0.1914	0.6344	-0.454
Mof_O 	O 	0.3094	0.1943	0.7519	-0.57
Mof_O 	O 	0.2498	0.3457	0.8877	-0.564
Mof_O 	O 	0.2946	0.4852	0.9924	-0.374
Mof_O 	O 	0.5162	0.3706	0.7849	-0.559
Mof_O 	O 	0.5106	0.5404	0.8633	-0.394
Mof_O 	O 	0.5884	0.15	0.8069	-0.523
Mof_O 	O 	0.6161	0.9843	0.8832	-0.278
Mof_O 	O 	0.6333	0.3918	0.6023	-0.434
Mof_O 	O 	0.8506	0.3992	0.5653	-0.51
Mof_O 	O 	0.6045	0.1505	0.0395	-0.444
Mof_O 	O 	0.5262	0.315	0.9777	-0.401
Mof_O 	O 	0.0485	0.6914	0.1344	-0.55
Mof_O 	O 	0.1906	0.6943	0.2519	-0.597
Mof_O 	O 	0.2502	0.8457	0.3877	-0.572
Mof_O 	O 	0.2054	0.9852	0.4924	-0.408
Mof_O 	O 	0.9838	0.8706	0.2849	-0.568
Mof_O 	O 	0.9894	0.0404	0.3633	-0.494
Mof_O 	O 	0.9116	0.65	0.3069	-0.518
Mof_O 	O 	0.8839	0.4843	0.3832	-0.396
Mof_O 	O 	0.8667	0.8918	0.1023	-0.406
Mof_O 	O 	0.6494	0.8992	0.0653	-0.564
Mof_O 	O 	0.8955	0.6505	0.5395	-0.385
Mof_O 	O 	0.9738	0.815	0.4777	-0.461
Mof_O 	O 	0.5485	0.8086	0.3656	-0.432
Mof_O 	O 	0.6906	0.8057	0.2481	-0.554
Mof_O 	O 	0.7502	0.6543	0.1123	-0.563
Mof_O 	O 	0.7054	0.5148	0.0076	-0.486
Mof_O 	O 	0.4838	0.6294	0.2151	-0.57
Mof_O 	O 	0.4894	0.4596	0.1367	-0.477
Mof_O 	O 	0.4116	0.85	0.1931	-0.613
Mof_O 	O 	0.3839	0.0157	0.1168	-0.592
Mof_O 	O 	0.3667	0.6082	0.3977	-0.447
Mof_O 	O 	0.1494	0.6008	0.4347	-0.602
Mof_O 	O 	0.3955	0.8495	0.9605	-0.423
Mof_O 	O 	0.4738	0.685	0.0223	-0.695
_end
