# CIF file generated by openbabel 3.1.0, see https://openbabel.org
data_I
_chemical_name_common 'image0'
_cell_length_a 11.9677
_cell_length_b 12.2012
_cell_length_c 14.7386
_cell_angle_alpha 67.613
_cell_angle_beta 74.527
_cell_angle_gamma 63.724
_space_group_name_H-M_alt 'P 1'
_space_group_name_Hall 'P 1'
loop_
    _symmetry_equiv_pos_as_xyz
    x,y,z
loop_
    _atom_site_label
    _atom_site_type_symbol
    _atom_site_fract_x
    _atom_site_fract_y
    _atom_site_fract_z
    _atom_site_occupancy
    Mo1      Mo       0.27920    0.29688    0.32419    1.000
    Mo2      Mo       0.74730    0.80512    0.33591    1.000
    Mo3      Mo       0.52953    0.81078    0.33217    1.000
    Mo4      Mo       0.57448    0.29207    0.32656    1.000
    Mo5      Mo       0.77406    0.08370    0.32996    1.000
    Mo6      Mo       0.26363    0.09394    0.32171    1.000
    Mn1      Mn       0.26165    0.83702    0.00873    1.000
    P1       P        0.55176    0.10838    0.21232    1.000
    P2       P        0.38521    0.51308    0.15815    1.000
    P3       P        0.30616    0.90377    0.19454    1.000
    P4       P        0.93402    0.92838    0.16496    1.000
    O1       O        0.61400    0.11580    0.41760    1.000
    O2       O        0.58680    0.85860    0.42030    1.000
    O3       O        0.33860    0.11890    0.41310    1.000
    O4       O        0.81400    0.88550    0.40530    1.000
    O5       O        0.38670    0.33230    0.39560    1.000
    O6       O        0.67540    0.02180    0.26110    1.000
    O7       O        0.24800    0.25630    0.22080    1.000
    O8       O        0.34760    0.89630    0.39640    1.000
    O9       O        0.48370    0.22460    0.25470    1.000
    O10      O        0.67550    0.80150    0.23420    1.000
    O11      O        0.71690    0.24750    0.22850    1.000
    O12      O        0.46850    0.02860    0.25060    1.000
    O13      O        0.08070    0.86630    0.13740    1.000
    O14      O        0.87180    0.99200    0.07260    1.000
    O15      O        0.57660    0.15500    0.10130    1.000
    O16      O        0.89830    0.81390    0.23370    1.000
    O17      O        0.25290    0.03570    0.21240    1.000
    O18      O        0.91310    0.01810    0.22400    1.000
    O19      O        0.30940    0.92570    0.08560    1.000
    O20      O        0.49440    0.46050    0.21880    1.000
    O21      O        0.44170    0.82820    0.22280    1.000
    O22      O        0.27950    0.46960    0.22160    1.000
    O23      O        0.43350    0.44640    0.07390    1.000
    O24      O        0.22280    0.82860    0.25840    1.000
    O25      O        0.34730    0.65360    0.11250    1.000
    Mo7      Mo       0.72080    0.70312    0.67581    1.000
    Mo8      Mo       0.25270    0.19488    0.66409    1.000
    Mo9      Mo       0.47047    0.18922    0.66783    1.000
    Mo10     Mo       0.42552    0.70793    0.67344    1.000
    Mo11     Mo       0.22594    0.91630    0.67004    1.000
    Mo12     Mo       0.73637    0.90606    0.67829    1.000
    Mn2      Mn       0.73835    0.16298    0.99127    1.000
    P5       P        0.44824    0.89162    0.78768    1.000
    P6       P        0.61479    0.48692    0.84185    1.000
    P7       P        0.69384    0.09623    0.80546    1.000
    P8       P        0.06598    0.07162    0.83504    1.000
    O26      O        0.38600    0.88420    0.58240    1.000
    O27      O        0.41320    0.14140    0.57970    1.000
    O28      O        0.66140    0.88110    0.58690    1.000
    O29      O        0.18600    0.11450    0.59470    1.000
    O30      O        0.61330    0.66770    0.60440    1.000
    O31      O        0.32460    0.97820    0.73890    1.000
    O32      O        0.75200    0.74370    0.77920    1.000
    O33      O        0.65240    0.10370    0.60360    1.000
    O34      O        0.51630    0.77540    0.74530    1.000
    O35      O        0.32450    0.19850    0.76580    1.000
    O36      O        0.28310    0.75250    0.77150    1.000
    O37      O        0.53150    0.97140    0.74940    1.000
    O38      O        0.91930    0.13370    0.86260    1.000
    O39      O        0.12820    0.00800    0.92740    1.000
    O40      O        0.42340    0.84500    0.89870    1.000
    O41      O        0.10170    0.18610    0.76630    1.000
    O42      O        0.74710    0.96430    0.78760    1.000
    O43      O        0.08690    0.98190    0.77600    1.000
    O44      O        0.69060    0.07430    0.91440    1.000
    O45      O        0.50560    0.53950    0.78120    1.000
    O46      O        0.55830    0.17180    0.77720    1.000
    O47      O        0.72050    0.53040    0.77840    1.000
    O48      O        0.56650    0.55360    0.92610    1.000
    O49      O        0.77720    0.17140    0.74160    1.000
    O50      O        0.65270    0.34640    0.88750    1.000
    Mn3      Mn       0.50000    0.00000    0.50000    1.000
