data_functionalizedCrystal
_audit_creation_method	'EQeq! by Chris Wilmer'
_symmetry_space_group_name_H-M	'P1'
_symmetry_Int_Tables_number	1
_symmetry_cell_setting	triclinic
loop_
_symmetry_equiv_pos_as_xyz
  x,y,z
_cell_length_a	10.7428
_cell_length_b	11.2786
_cell_length_c	26.172
_cell_angle_alpha	85.06
_cell_angle_beta	88.106
_cell_angle_gamma	62.367
loop_
_atom_site_label
_atom_site_type_symbol
_atom_site_fract_x
_atom_site_fract_y
_atom_site_fract_z
_atom_site_charge
Mof_Yb	Yb	0.37998	0.53581	0.56035	1.761
Mof_Yb	Yb	0.41142	0.11723	0.89964	1.686
Mof_Yb	Yb	0.3438	0.34639	0.74182	1.585
Mof_Yb	Yb	0.62002	0.46419	0.43965	1.761
Mof_Yb	Yb	0.58858	0.88277	0.10036	1.686
Mof_Yb	Yb	0.6562	0.65361	0.25818	1.585
Mof_H 	H 	0.8559	0.2681	0.6512	0.043
Mof_H 	H 	0.8263	0.516	0.5267	0.024
Mof_H 	H 	0.4602	0.1091	0.5741	0.046
Mof_H 	H 	0.5515	0.091	0.4252	0.041
Mof_H 	H 	0.434	0.6211	0.7777	0.023
Mof_H 	H 	0.3343	0.8591	0.6468	0.039
Mof_H 	H 	0.0733	0.2484	0.6705	0.036
Mof_H 	H 	0.0369	0.5045	0.55	0.015
Mof_H 	H 	0.0539	0.1566	0.0308	0.052
Mof_H 	H 	0.1312	0.8723	0.9359	0.049
Mof_H 	H 	0.5925	0.2801	0.0348	0.062
Mof_H 	H 	0.3573	0.5684	0.9283	0.048
Mof_H 	H 	0.8157	0.1643	0.9025	0.047
Mof_H 	H 	0.7108	0.3253	0.7592	0.029
Mof_H 	H 	0.0161	0.188	0.8964	0.04
Mof_H 	H 	0.9178	0.3379	0.7512	0.042
Mof_H 	H 	0.4597	0.7821	0.8185	0.049
Mof_H 	H 	0.3677	0.0175	0.6876	0.044
Mof_H 	H 	0.1441	0.7319	0.3488	0.043
Mof_H 	H 	0.1737	0.484	0.4733	0.024
Mof_H 	H 	0.5398	0.8909	0.4259	0.046
Mof_H 	H 	0.4485	0.909	0.5748	0.041
Mof_H 	H 	0.566	0.3789	0.2223	0.023
Mof_H 	H 	0.6657	0.1409	0.3532	0.039
Mof_H 	H 	0.9267	0.7516	0.3295	0.036
Mof_H 	H 	0.9631	0.4955	0.45	0.015
Mof_H 	H 	0.9461	0.8434	0.9692	0.052
Mof_H 	H 	0.8688	0.1277	0.0641	0.049
Mof_H 	H 	0.4075	0.7199	0.9652	0.062
Mof_H 	H 	0.6427	0.4316	0.0717	0.048
Mof_H 	H 	0.1843	0.8357	0.0975	0.047
Mof_H 	H 	0.2892	0.6747	0.2408	0.029
Mof_H 	H 	0.9839	0.812	0.1036	0.04
Mof_H 	H 	0.0822	0.6621	0.2488	0.042
Mof_H 	H 	0.5403	0.2179	0.1815	0.049
Mof_H 	H 	0.6323	0.9825	0.3124	0.044
Mof_C 	C 	0.6744	0.4157	0.5754	0.382
Mof_C 	C 	0.8173	0.3953	0.5879	-0.099
Mof_C 	C 	0.8928	0.3151	0.6305	-0.026
Mof_C 	C 	0.8735	0.4649	0.5563	-0.032
Mof_C 	C 	0.5117	0.2522	0.4988	0.44
Mof_C 	C 	0.4757	0.0654	0.5442	-0.018
Mof_C 	C 	0.5302	0.0548	0.4554	-0.009
Mof_C 	C 	0.3695	0.6175	0.6806	0.461
Mof_C 	C 	0.3831	0.7231	0.7083	-0.129
Mof_C 	C 	0.4201	0.7008	0.7595	0.006
Mof_C 	C 	0.3615	0.8428	0.6811	-0.002
Mof_C 	C 	0.2089	0.3775	0.6275	0.472
Mof_C 	C 	0.0744	0.3774	0.6123	-0.14
Mof_C 	C 	0.0221	0.3043	0.6424	0.002
Mof_C 	C 	0.0004	0.4559	0.57	0.012
Mof_C 	C 	0.2323	0.0366	0.9564	0.309
Mof_C 	C 	0.1145	0.0151	0.9804	-0.066
Mof_C 	C 	0.0331	0.0928	0.0184	-0.025
Mof_C 	C 	0.0786	0.9237	0.9621	-0.02
Mof_C 	C 	0.4387	0.3086	0.9534	0.316
Mof_C 	C 	0.4704	0.4089	0.9779	-0.055
Mof_C 	C 	0.5553	0.3684	0.0208	-0.032
Mof_C 	C 	0.415	0.5409	0.9572	-0.021
Mof_C 	C 	0.6108	0.224	0.8359	0.462
Mof_C 	C 	0.7414	0.2407	0.8315	-0.124
Mof_C 	C 	0.8353	0.2003	0.8718	-0.005
Mof_C 	C 	0.7737	0.2943	0.7867	0.002
Mof_C 	C 	0.1292	0.2668	0.8172	0.452
Mof_C 	C 	0.9926	0.2585	0.8225	-0.111
Mof_C 	C 	0.9572	0.2119	0.868	-0.002
Mof_C 	C 	0.8976	0.3025	0.7819	-0.017
Mof_C 	C 	0.4398	0.018	0.7834	0.457
Mof_C 	C 	0.4191	0.9133	0.7569	-0.1
Mof_C 	C 	0.4366	0.7967	0.7838	-0.022
Mof_C 	C 	0.3807	0.9378	0.7056	-0.014
Mof_C 	C 	0.505	0.1199	0.4988	-0.104
Mof_C 	C 	0.3256	0.5843	0.4246	0.382
Mof_C 	C 	0.1827	0.6047	0.4121	-0.099
Mof_C 	C 	0.1072	0.6849	0.3695	-0.026
Mof_C 	C 	0.1265	0.5351	0.4437	-0.032
Mof_C 	C 	0.4883	0.7478	0.5012	0.44
Mof_C 	C 	0.5243	0.9346	0.4558	-0.018
Mof_C 	C 	0.4698	0.9452	0.5446	-0.009
Mof_C 	C 	0.6305	0.3825	0.3194	0.461
Mof_C 	C 	0.6169	0.2769	0.2917	-0.129
Mof_C 	C 	0.5799	0.2992	0.2405	0.006
Mof_C 	C 	0.6385	0.1572	0.3189	-0.002
Mof_C 	C 	0.7911	0.6225	0.3725	0.472
Mof_C 	C 	0.9256	0.6226	0.3877	-0.14
Mof_C 	C 	0.9779	0.6957	0.3576	0.002
Mof_C 	C 	0.9996	0.5441	0.43	0.012
Mof_C 	C 	0.7677	0.9634	0.0436	0.309
Mof_C 	C 	0.8855	0.9849	0.0196	-0.066
Mof_C 	C 	0.9669	0.9072	0.9816	-0.025
Mof_C 	C 	0.9214	0.0763	0.0379	-0.02
Mof_C 	C 	0.5613	0.6914	0.0466	0.316
Mof_C 	C 	0.5296	0.5911	0.0221	-0.055
Mof_C 	C 	0.4447	0.6316	0.9792	-0.032
Mof_C 	C 	0.585	0.4591	0.0428	-0.021
Mof_C 	C 	0.3892	0.776	0.1641	0.462
Mof_C 	C 	0.2586	0.7593	0.1685	-0.124
Mof_C 	C 	0.1647	0.7997	0.1282	-0.005
Mof_C 	C 	0.2263	0.7057	0.2133	0.002
Mof_C 	C 	0.8708	0.7332	0.1828	0.452
Mof_C 	C 	0.0074	0.7415	0.1775	-0.111
Mof_C 	C 	0.0428	0.7881	0.132	-0.002
Mof_C 	C 	0.1024	0.6975	0.2181	-0.017
Mof_C 	C 	0.5602	0.982	0.2166	0.457
Mof_C 	C 	0.5809	0.0867	0.2431	-0.1
Mof_C 	C 	0.5634	0.2033	0.2162	-0.022
Mof_C 	C 	0.6193	0.0622	0.2944	-0.014
Mof_C 	C 	0.495	0.8801	0.5012	-0.104
Mof_O 	O 	0.6286	0.4499	0.52973	-0.556
Mof_O 	O 	0.5951	0.4089	0.6106	-0.412
Mof_O 	O 	0.3342	0.6451	0.634	-0.491
Mof_O 	O 	0.2442	0.4549	0.6006	-0.522
Mof_O 	O 	0.4558	0.3206	0.5352	-0.471
Mof_O 	O 	0.5732	0.2813	0.4616	-0.465
Mof_O 	O 	0.3029	0.9681	0.9218	-0.38
Mof_O 	O 	0.2551	0.1289	0.9716	-0.383
Mof_O 	O 	0.3554	0.3469	0.9158	-0.387
Mof_O 	O 	0.4945	0.1891	0.97197	-0.388
Mof_O 	O 	0.6055	0.144	0.8706	-0.472
Mof_O 	O 	0.4647	0.9967	0.83	-0.491
Mof_O 	O 	0.2065	0.2344	0.8561	-0.499
Mof_O 	O 	0.3954	0.509	0.70621	-0.513
Mof_O 	O 	0.2735	0.3055	0.6657	-0.487
Mof_O 	O 	0.1591	0.3026	0.7744	-0.474
Mof_O 	O 	0.4356	0.116	0.7558	-0.471
Mof_O 	O 	0.5131	0.2932	0.8048	-0.499
Mof_O 	O 	0.3714	0.5501	0.47027	-0.556
Mof_O 	O 	0.4049	0.5911	0.3894	-0.412
Mof_O 	O 	0.6658	0.3549	0.366	-0.491
Mof_O 	O 	0.7558	0.5451	0.3994	-0.522
Mof_O 	O 	0.5442	0.6794	0.4648	-0.471
Mof_O 	O 	0.4268	0.7187	0.5384	-0.465
Mof_O 	O 	0.6971	0.0319	0.0782	-0.38
Mof_O 	O 	0.7449	0.8711	0.0284	-0.383
Mof_O 	O 	0.6446	0.6531	0.0842	-0.387
Mof_O 	O 	0.5055	0.8109	0.02803	-0.388
Mof_O 	O 	0.3945	0.856	0.1294	-0.472
Mof_O 	O 	0.5353	0.0033	0.17	-0.491
Mof_O 	O 	0.7935	0.7656	0.1439	-0.499
Mof_O 	O 	0.6046	0.491	0.29379	-0.513
Mof_O 	O 	0.7265	0.6945	0.3343	-0.487
Mof_O 	O 	0.8409	0.6974	0.2256	-0.474
Mof_O 	O 	0.5644	0.884	0.2442	-0.471
Mof_O 	O 	0.4869	0.7068	0.1952	-0.499
_end
