# CIF file generated by openbabel 3.1.0, see https://openbabel.org
data_I
_chemical_name_common 'TEVZUQ_clean'
_cell_length_a 9.825
_cell_length_b 11.2958
_cell_length_c 14.7329
_cell_angle_alpha 91.4943
_cell_angle_beta 90
_cell_angle_gamma 90
_space_group_name_H-M_alt 'P 1'
_space_group_name_Hall 'P 1'
loop_
    _symmetry_equiv_pos_as_xyz
    x,y,z
loop_
    _atom_site_label
    _atom_site_type_symbol
    _atom_site_fract_x
    _atom_site_fract_y
    _atom_site_fract_z
    _atom_site_occupancy
    Zn1      Zn       0.92633    0.75695    0.13171    1.000
    Zn2      Zn       0.11504    0.74172    0.30792    1.000
    Zn3      Zn       0.42633    0.74305    0.36829    1.000
    Zn4      Zn       0.61504    0.75828    0.19208    1.000
    Zn5      Zn       0.07367    0.24305    0.86829    1.000
    Zn6      Zn       0.88496    0.25828    0.69208    1.000
    Zn7      Zn       0.57367    0.25695    0.63171    1.000
    Zn8      Zn       0.38496    0.24172    0.80792    1.000
    Zn9      Zn       0.00000    0.50000    0.00000    1.000
    Zn10     Zn       0.50000    0.00000    0.50000    1.000
    Zn11     Zn       0.00000    0.00000    0.00000    1.000
    Zn12     Zn       0.50000    0.50000    0.50000    1.000
    H1       H        0.76270    0.85550    0.36820    1.000
    H2       H        0.04980    0.47810    0.25990    1.000
    H3       H        0.61810    0.56080    0.04620    1.000
    H4       H        0.20740    0.97910    0.22280    1.000
    H5       H        0.16360    0.69580    0.92880    1.000
    H6       H        0.70650    0.99810    0.02180    1.000
    H7       H        0.26270    0.64450    0.13180    1.000
    H8       H        0.54980    0.02190    0.24010    1.000
    H9       H        0.11810    0.93920    0.45380    1.000
    H10      H        0.70740    0.52090    0.27720    1.000
    H11      H        0.66360    0.80420    0.57120    1.000
    H12      H        0.20650    0.50190    0.47820    1.000
    H13      H        0.23730    0.14450    0.63180    1.000
    H14      H        0.95020    0.52190    0.74010    1.000
    H15      H        0.38190    0.43920    0.95380    1.000
    H16      H        0.79260    0.02090    0.77720    1.000
    H17      H        0.83640    0.30420    0.07120    1.000
    H18      H        0.29350    0.00190    0.97820    1.000
    H19      H        0.73730    0.35550    0.86820    1.000
    H20      H        0.45020    0.97810    0.75990    1.000
    H21      H        0.88190    0.06080    0.54620    1.000
    H22      H        0.29260    0.47910    0.72280    1.000
    H23      H        0.33640    0.19580    0.42880    1.000
    H24      H        0.79350    0.49810    0.52180    1.000
    C1       C        0.83460    0.82650    0.33080    1.000
    C2       C        0.02360    0.51900    0.20710    1.000
    C3       C        0.71270    0.57670    0.05210    1.000
    C4       C        0.14190    0.95220    0.17950    1.000
    C5       C        0.10570    0.74160    0.96760    1.000
    C6       C        0.72480    0.93430    0.06070    1.000
    C7       C        0.33460    0.67350    0.16920    1.000
    C8       C        0.52360    0.98100    0.29290    1.000
    C9       C        0.21270    0.92330    0.44790    1.000
    C10      C        0.64190    0.54780    0.32050    1.000
    C11      C        0.60570    0.75840    0.53240    1.000
    C12      C        0.22480    0.56570    0.43930    1.000
    C13      C        0.16540    0.17350    0.66920    1.000
    C14      C        0.97640    0.48100    0.79290    1.000
    C15      C        0.28730    0.42330    0.94790    1.000
    C16      C        0.85810    0.04780    0.82050    1.000
    C17      C        0.89430    0.25840    0.03240    1.000
    C18      C        0.27520    0.06570    0.93930    1.000
    C19      C        0.66540    0.32650    0.83080    1.000
    C20      C        0.47640    0.01900    0.70710    1.000
    C21      C        0.78730    0.07670    0.55210    1.000
    C22      C        0.35810    0.45220    0.67950    1.000
    C23      C        0.39430    0.24160    0.46760    1.000
    C24      C        0.77520    0.43430    0.56070    1.000
    O1       O        0.80720    0.80729    0.24739    1.000
    O2       O        0.94650    0.81079    0.36809    1.000
    O3       O        0.01280    0.63001    0.21531    1.000
    O4       O        0.00360    0.45780    0.13760    1.000
    O5       O        0.74830    0.65500    0.11210    1.000
    O6       O        0.79080    0.51993    0.00093    1.000
    O7       O        0.08730    0.85116    0.19316    1.000
    O8       O        0.11850    0.01780    0.11630    1.000
    O9       O        0.02930    0.68501    0.02351    1.000
    O10      O        0.10940    0.84928    0.96078    1.000
    O11      O        0.84850    0.89969    0.06489    1.000
    O12      O        0.62660    0.89376    0.10186    1.000
    O13      O        0.30720    0.69271    0.25261    1.000
    O14      O        0.44650    0.68921    0.13191    1.000
    O15      O        0.51280    0.86999    0.28469    1.000
    O16      O        0.50360    0.04220    0.36240    1.000
    O17      O        0.24830    0.84500    0.38790    1.000
    O18      O        0.29080    0.98007    0.49907    1.000
    O19      O        0.58730    0.64884    0.30684    1.000
    O20      O        0.61850    0.48220    0.38370    1.000
    O21      O        0.52930    0.81499    0.47649    1.000
    O22      O        0.60940    0.65072    0.53922    1.000
    O23      O        0.34850    0.60031    0.43511    1.000
    O24      O        0.12660    0.60624    0.39814    1.000
    O25      O        0.19280    0.19271    0.75261    1.000
    O26      O        0.05350    0.18921    0.63191    1.000
    O27      O        0.98720    0.36999    0.78469    1.000
    O28      O        0.99640    0.54220    0.86240    1.000
    O29      O        0.25170    0.34500    0.88790    1.000
    O30      O        0.20920    0.48007    0.99907    1.000
    O31      O        0.91270    0.14884    0.80684    1.000
    O32      O        0.88150    0.98220    0.88370    1.000
    O33      O        0.97070    0.31499    0.97649    1.000
    O34      O        0.89060    0.15072    0.03922    1.000
    O35      O        0.15150    0.10031    0.93511    1.000
    O36      O        0.37340    0.10624    0.89814    1.000
    O37      O        0.69280    0.30729    0.74739    1.000
    O38      O        0.55350    0.31079    0.86809    1.000
    O39      O        0.48720    0.13001    0.71531    1.000
    O40      O        0.49640    0.95780    0.63760    1.000
    O41      O        0.75170    0.15500    0.61210    1.000
    O42      O        0.70920    0.01993    0.50093    1.000
    O43      O        0.41270    0.35116    0.69316    1.000
    O44      O        0.38150    0.51780    0.61630    1.000
    O45      O        0.47070    0.18501    0.52351    1.000
    O46      O        0.39060    0.34928    0.46078    1.000
    O47      O        0.65150    0.39969    0.56489    1.000
    O48      O        0.87340    0.39376    0.60186    1.000
