data_functionalizedCrystal
_audit_creation_method	'EQeq! by Chris Wilmer'
_symmetry_space_group_name_H-M	'P1'
_symmetry_Int_Tables_number	1
_symmetry_cell_setting	triclinic
loop_
_symmetry_equiv_pos_as_xyz
  x,y,z
_cell_length_a	20.33
_cell_length_b	23.1692
_cell_length_c	32.0081
_cell_angle_alpha	90
_cell_angle_beta	90
_cell_angle_gamma	90
loop_
_atom_site_label
_atom_site_type_symbol
_atom_site_fract_x
_atom_site_fract_y
_atom_site_fract_z
_atom_site_charge
Mof_Zn	Zn	0.1729	0.47411	0.50151	1.21
Mof_Zn	Zn	0.29186	0.51553	0.4497	1.21
Mof_Zn	Zn	0.25374	0.58836	0.53285	1.174
Mof_Zn	Zn	0.31378	0.45782	0.53514	1.214
Mof_Zn	Zn	0.3271	0.52589	0.00151	1.211
Mof_Zn	Zn	0.20814	0.48447	0.9497	1.211
Mof_Zn	Zn	0.24626	0.41164	0.03285	1.175
Mof_Zn	Zn	0.18622	0.54218	0.03514	1.214
Mof_Zn	Zn	0.8271	0.97411	0.99849	1.211
Mof_Zn	Zn	0.70814	0.01553	0.0503	1.21
Mof_Zn	Zn	0.74626	0.08836	0.96715	1.176
Mof_Zn	Zn	0.68622	0.95782	0.96486	1.214
Mof_Zn	Zn	0.6729	0.02589	0.49849	1.211
Mof_Zn	Zn	0.79186	0.98447	0.5503	1.211
Mof_Zn	Zn	0.75374	0.91164	0.46715	1.175
Mof_Zn	Zn	0.81378	0.04218	0.46486	1.214
Mof_H 	H 	0.8626	0.5693	0.7462	0.06
Mof_H 	H 	0.9242	0.6009	0.689	0.061
Mof_H 	H 	0.7563	0.6509	0.6328	0.055
Mof_H 	H 	0.6987	0.6254	0.69	0.059
Mof_H 	H 	0.9028	0.5445	0.6005	0.098
Mof_H 	H 	0.9978	0.5008	0.5763	0.009
Mof_H 	H 	0.1008	0.6486	0.5915	-0.013
Mof_H 	H 	0.0024	0.6938	0.6127	0.096
Mof_H 	H 	0.8987	0.6868	0.5438	0.096
Mof_H 	H 	0.873	0.7739	0.5148	-0.003
Mof_H 	H 	0.809	0.8332	0.6265	0.007
Mof_H 	H 	0.839	0.7474	0.6577	0.097
Mof_H 	H 	0.6624	0.5092	0.7171	0.057
Mof_H 	H 	0.5491	0.5053	0.7158	0.062
Mof_H 	H 	0.5375	0.6315	0.8003	0.064
Mof_H 	H 	0.6519	0.6395	0.8014	0.057
Mof_H 	H 	0.3954	0.4751	0.7336	0.101
Mof_H 	H 	0.3425	0.4609	0.6689	0.009
Mof_H 	H 	0.4009	0.6174	0.6325	-0.004
Mof_H 	H 	0.4552	0.6323	0.6951	0.105
Mof_H 	H 	0.3378	0.5765	0.7764	0.106
Mof_H 	H 	0.2841	0.5595	0.8374	-0.001
Mof_H 	H 	0.4547	0.5211	0.8944	0.001
Mof_H 	H 	0.5096	0.5317	0.8316	0.104
Mof_H 	H 	0.7985	0.6718	0.785	0.057
Mof_H 	H 	0.8415	0.6946	0.852	0.064
Mof_H 	H 	0.7795	0.5404	0.8941	0.06
Mof_H 	H 	0.7433	0.5149	0.8274	0.058
Mof_H 	H 	0.918	0.7134	0.9507	0.1
Mof_H 	H 	0.8895	0.8056	0.9718	0.01
Mof_H 	H 	0.6998	0.7756	0.9461	0.01
Mof_H 	H 	0.7247	0.6817	0.9261	0.098
Mof_H 	H 	0.884	0.6192	0.9949	0.099
Mof_H 	H 	0.9853	0.5848	0.016	0.01
Mof_H 	H 	0.0275	0.5382	0.8975	0.009
Mof_H 	H 	0.9257	0.5744	0.8757	0.1
Mof_H 	H 	0.6374	0.4307	0.2462	0.06
Mof_H 	H 	0.5758	0.3991	0.189	0.061
Mof_H 	H 	0.7437	0.3491	0.1328	0.055
Mof_H 	H 	0.8013	0.3746	0.19	0.059
Mof_H 	H 	0.5972	0.4555	0.1005	0.098
Mof_H 	H 	0.5022	0.4992	0.0763	0.009
Mof_H 	H 	0.3992	0.3514	0.0915	-0.013
Mof_H 	H 	0.4976	0.3062	0.1127	0.096
Mof_H 	H 	0.6013	0.3132	0.0438	0.096
Mof_H 	H 	0.627	0.2261	0.0148	-0.003
Mof_H 	H 	0.691	0.1668	0.1265	0.007
Mof_H 	H 	0.661	0.2526	0.1577	0.097
Mof_H 	H 	0.8376	0.4908	0.2171	0.057
Mof_H 	H 	0.9509	0.4947	0.2158	0.062
Mof_H 	H 	0.9625	0.3685	0.3003	0.064
Mof_H 	H 	0.8481	0.3605	0.3014	0.057
Mof_H 	H 	0.1046	0.5249	0.2336	0.101
Mof_H 	H 	0.1575	0.5391	0.1689	0.009
Mof_H 	H 	0.0991	0.3826	0.1325	-0.004
Mof_H 	H 	0.0448	0.3677	0.1951	0.105
Mof_H 	H 	0.1622	0.4235	0.2764	0.106
Mof_H 	H 	0.2159	0.4405	0.3374	-0.001
Mof_H 	H 	0.0453	0.4789	0.3944	0.001
Mof_H 	H 	0.9904	0.4683	0.3316	0.104
Mof_H 	H 	0.7015	0.3282	0.285	0.057
Mof_H 	H 	0.6585	0.3054	0.352	0.064
Mof_H 	H 	0.7205	0.4596	0.3941	0.06
Mof_H 	H 	0.7567	0.4851	0.3274	0.058
Mof_H 	H 	0.582	0.2866	0.4507	0.1
Mof_H 	H 	0.6105	0.1944	0.4718	0.01
Mof_H 	H 	0.8002	0.2244	0.4461	0.01
Mof_H 	H 	0.7753	0.3183	0.4261	0.098
Mof_H 	H 	0.616	0.3808	0.4949	0.1
Mof_H 	H 	0.5147	0.4152	0.516	0.009
Mof_H 	H 	0.4725	0.4618	0.3975	0.009
Mof_H 	H 	0.5743	0.4256	0.3757	0.101
Mof_H 	H 	0.1374	0.0693	0.7538	0.06
Mof_H 	H 	0.0758	0.1009	0.811	0.061
Mof_H 	H 	0.2437	0.1509	0.8672	0.055
Mof_H 	H 	0.3013	0.1254	0.81	0.059
Mof_H 	H 	0.0972	0.0445	0.8995	0.099
Mof_H 	H 	0.0022	0.0008	0.9237	0.009
Mof_H 	H 	0.8992	0.1486	0.9085	-0.014
Mof_H 	H 	0.9976	0.1938	0.8873	0.096
Mof_H 	H 	0.1013	0.1868	0.9562	0.096
Mof_H 	H 	0.127	0.2739	0.9852	-0.003
Mof_H 	H 	0.191	0.3332	0.8735	0.007
Mof_H 	H 	0.161	0.2474	0.8423	0.097
Mof_H 	H 	0.3376	0.0092	0.7829	0.057
Mof_H 	H 	0.4509	0.0053	0.7842	0.062
Mof_H 	H 	0.4625	0.1315	0.6997	0.064
Mof_H 	H 	0.3481	0.1395	0.6986	0.057
Mof_H 	H 	0.6046	0.9751	0.7664	0.099
Mof_H 	H 	0.6575	0.9609	0.8311	0.01
Mof_H 	H 	0.5991	0.1174	0.8675	-0.003
Mof_H 	H 	0.5448	0.1323	0.8049	0.105
Mof_H 	H 	0.6622	0.0765	0.7236	0.106
Mof_H 	H 	0.7159	0.0595	0.6626	-0.001
Mof_H 	H 	0.5453	0.0211	0.6056	0.001
Mof_H 	H 	0.4904	0.0317	0.6684	0.104
Mof_H 	H 	0.2015	0.1718	0.715	0.058
Mof_H 	H 	0.1585	0.1946	0.648	0.064
Mof_H 	H 	0.2205	0.0404	0.6059	0.06
Mof_H 	H 	0.2567	0.0149	0.6726	0.058
Mof_H 	H 	0.082	0.2134	0.5493	0.1
Mof_H 	H 	0.1105	0.3056	0.5282	0.01
Mof_H 	H 	0.3002	0.2756	0.5539	0.01
Mof_H 	H 	0.2753	0.1817	0.5739	0.098
Mof_H 	H 	0.116	0.1192	0.5051	0.1
Mof_H 	H 	0.0147	0.0848	0.484	0.009
Mof_H 	H 	0.9725	0.0382	0.6025	0.008
Mof_H 	H 	0.0743	0.0744	0.6243	0.101
Mof_H 	H 	0.3626	0.9307	0.2538	0.06
Mof_H 	H 	0.4242	0.8991	0.311	0.061
Mof_H 	H 	0.2563	0.8491	0.3672	0.055
Mof_H 	H 	0.1987	0.8746	0.31	0.059
Mof_H 	H 	0.4028	0.9555	0.3995	0.098
Mof_H 	H 	0.4978	0.9992	0.4237	0.009
Mof_H 	H 	0.6008	0.8514	0.4085	-0.013
Mof_H 	H 	0.5024	0.8062	0.3873	0.096
Mof_H 	H 	0.3987	0.8132	0.4562	0.096
Mof_H 	H 	0.373	0.7261	0.4852	-0.003
Mof_H 	H 	0.309	0.6668	0.3735	0.007
Mof_H 	H 	0.339	0.7526	0.3423	0.097
Mof_H 	H 	0.1624	0.9908	0.2829	0.057
Mof_H 	H 	0.0491	0.9947	0.2842	0.062
Mof_H 	H 	0.0375	0.8685	0.1997	0.064
Mof_H 	H 	0.1519	0.8605	0.1986	0.057
Mof_H 	H 	0.8954	0.0249	0.2664	0.1
Mof_H 	H 	0.8425	0.0391	0.3311	0.009
Mof_H 	H 	0.9009	0.8826	0.3675	-0.004
Mof_H 	H 	0.9552	0.8677	0.3049	0.105
Mof_H 	H 	0.8378	0.9235	0.2236	0.106
Mof_H 	H 	0.7841	0.9405	0.1626	-0.001
Mof_H 	H 	0.9547	0.9789	0.1056	0.001
Mof_H 	H 	0.0096	0.9683	0.1684	0.104
Mof_H 	H 	0.2985	0.8282	0.215	0.057
Mof_H 	H 	0.3415	0.8054	0.148	0.064
Mof_H 	H 	0.2795	0.9596	0.1059	0.06
Mof_H 	H 	0.2433	0.9851	0.1726	0.058
Mof_H 	H 	0.418	0.7866	0.0493	0.101
Mof_H 	H 	0.3895	0.6944	0.0282	0.01
Mof_H 	H 	0.1998	0.7244	0.0539	0.01
Mof_H 	H 	0.2247	0.8183	0.0739	0.098
Mof_H 	H 	0.384	0.8808	0.0051	0.1
Mof_H 	H 	0.4853	0.9152	0.984	0.009
Mof_H 	H 	0.5275	0.9618	0.1025	0.008
Mof_H 	H 	0.4257	0.9256	0.1243	0.101
Mof_C 	C 	0.7744	0.5936	0.7235	0.087
Mof_C 	C 	0.8411	0.5869	0.7231	-0.076
Mof_C 	C 	0.8778	0.6057	0.6888	-0.079
Mof_C 	C 	0.8486	0.6309	0.6551	0.085
Mof_C 	C 	0.7789	0.6357	0.6563	-0.07
Mof_C 	C 	0.7449	0.6193	0.6896	-0.078
Mof_C 	C 	0.9447	0.6247	0.6092	0.164
Mof_C 	C 	0.9425	0.5659	0.5982	-0.192
Mof_C 	C 	0.9991	0.5403	0.5842	0.107
Mof_C 	C 	0.0573	0.5693	0.5812	-0.173
Mof_C 	C 	0.0606	0.6277	0.5926	0.092
Mof_C 	C 	0.0019	0.6539	0.6059	-0.194
Mof_C 	C 	0.871	0.7063	0.6042	0.166
Mof_C 	C 	0.881	0.7165	0.5609	-0.197
Mof_C 	C 	0.8654	0.7681	0.5438	0.106
Mof_C 	C 	0.8383	0.8135	0.5675	-0.187
Mof_C 	C 	0.8281	0.8036	0.6099	0.106
Mof_C 	C 	0.8449	0.7523	0.6284	-0.192
Mof_C 	C 	0.6693	0.5752	0.759	0.079
Mof_C 	C 	0.6375	0.5349	0.734	-0.069
Mof_C 	C 	0.5704	0.5324	0.7336	-0.084
Mof_C 	C 	0.533	0.568	0.7582	0.093
Mof_C 	C 	0.5632	0.6069	0.7831	-0.09
Mof_C 	C 	0.6313	0.6117	0.784	-0.068
Mof_C 	C 	0.4292	0.556	0.72	0.18
Mof_C 	C 	0.3965	0.5043	0.7128	-0.202
Mof_C 	C 	0.3653	0.4959	0.6743	0.111
Mof_C 	C 	0.3675	0.5382	0.6445	-0.183
Mof_C 	C 	0.4001	0.5879	0.6531	0.123
Mof_C 	C 	0.4319	0.5974	0.6903	-0.216
Mof_C 	C 	0.4302	0.5539	0.7974	0.181
Mof_C 	C 	0.3616	0.5637	0.8002	-0.215
Mof_C 	C 	0.3305	0.5547	0.8366	0.136
Mof_C 	C 	0.3622	0.5391	0.8725	-0.198
Mof_C 	C 	0.4308	0.5312	0.87	0.12
Mof_C 	C 	0.4635	0.5381	0.8328	-0.212
Mof_C 	C 	0.7671	0.5901	0.8002	0.08
Mof_C 	C 	0.7959	0.6445	0.8071	-0.071
Mof_C 	C 	0.8209	0.6584	0.847	-0.085
Mof_C 	C 	0.8148	0.6188	0.8781	0.089
Mof_C 	C 	0.7848	0.5666	0.8715	-0.082
Mof_C 	C 	0.7622	0.5518	0.8321	-0.074
Mof_C 	C 	0.825	0.6877	0.9348	0.168
Mof_C 	C 	0.8734	0.7255	0.9494	-0.195
Mof_C 	C 	0.8563	0.7803	0.9618	0.106
Mof_C 	C 	0.7917	0.7996	0.9601	-0.174
Mof_C 	C 	0.7442	0.7628	0.9469	0.107
Mof_C 	C 	0.7589	0.7071	0.9346	-0.188
Mof_C 	C 	0.899	0.6065	0.932	0.169
Mof_C 	C 	0.9145	0.6052	0.9748	-0.194
Mof_C 	C 	0.9739	0.5837	0.9873	0.105
Mof_C 	C 	0.019	0.5597	0.9582	-0.183
Mof_C 	C 	0.9994	0.5562	0.9173	0.11
Mof_C 	C 	0.939	0.5786	0.904	-0.196
Mof_C 	C 	0.1165	0.542	0.5624	0.374
Mof_C 	C 	0.8199	0.8689	0.5482	0.402
Mof_C 	C 	0.3374	0.5276	0.6022	0.399
Mof_C 	C 	0.3273	0.529	0.9117	0.409
Mof_C 	C 	0.7757	0.862	0.9713	0.433
Mof_C 	C 	0.0843	0.5415	0.9715	0.421
Mof_C 	C 	0.7256	0.4064	0.2235	0.087
Mof_C 	C 	0.6589	0.4131	0.2231	-0.076
Mof_C 	C 	0.6222	0.3943	0.1888	-0.079
Mof_C 	C 	0.6514	0.3691	0.1551	0.085
Mof_C 	C 	0.7211	0.3643	0.1563	-0.07
Mof_C 	C 	0.7551	0.3807	0.1896	-0.078
Mof_C 	C 	0.5553	0.3753	0.1092	0.164
Mof_C 	C 	0.5575	0.4341	0.0982	-0.192
Mof_C 	C 	0.5009	0.4597	0.0842	0.108
Mof_C 	C 	0.4427	0.4307	0.0812	-0.173
Mof_C 	C 	0.4394	0.3723	0.0926	0.093
Mof_C 	C 	0.4981	0.3461	0.1059	-0.194
Mof_C 	C 	0.629	0.2937	0.1042	0.166
Mof_C 	C 	0.619	0.2835	0.0609	-0.197
Mof_C 	C 	0.6346	0.2319	0.0438	0.106
Mof_C 	C 	0.6617	0.1865	0.0675	-0.187
Mof_C 	C 	0.6719	0.1964	0.1099	0.106
Mof_C 	C 	0.6551	0.2477	0.1284	-0.192
Mof_C 	C 	0.8307	0.4248	0.259	0.079
Mof_C 	C 	0.8625	0.4651	0.234	-0.069
Mof_C 	C 	0.9296	0.4676	0.2336	-0.084
Mof_C 	C 	0.967	0.432	0.2582	0.093
Mof_C 	C 	0.9368	0.3931	0.2831	-0.09
Mof_C 	C 	0.8687	0.3883	0.284	-0.068
Mof_C 	C 	0.0708	0.444	0.22	0.18
Mof_C 	C 	0.1035	0.4957	0.2128	-0.202
Mof_C 	C 	0.1347	0.5041	0.1743	0.111
Mof_C 	C 	0.1325	0.4618	0.1445	-0.183
Mof_C 	C 	0.0999	0.4121	0.1531	0.123
Mof_C 	C 	0.0681	0.4026	0.1903	-0.216
Mof_C 	C 	0.0698	0.4461	0.2974	0.181
Mof_C 	C 	0.1384	0.4363	0.3002	-0.215
Mof_C 	C 	0.1695	0.4453	0.3366	0.136
Mof_C 	C 	0.1378	0.4609	0.3725	-0.198
Mof_C 	C 	0.0692	0.4688	0.37	0.12
Mof_C 	C 	0.0365	0.4619	0.3328	-0.213
Mof_C 	C 	0.7329	0.4099	0.3002	0.08
Mof_C 	C 	0.7041	0.3555	0.3071	-0.071
Mof_C 	C 	0.6791	0.3416	0.347	-0.085
Mof_C 	C 	0.6852	0.3812	0.3781	0.089
Mof_C 	C 	0.7152	0.4334	0.3715	-0.082
Mof_C 	C 	0.7378	0.4482	0.3321	-0.074
Mof_C 	C 	0.675	0.3123	0.4348	0.168
Mof_C 	C 	0.6266	0.2745	0.4494	-0.195
Mof_C 	C 	0.6437	0.2197	0.4618	0.106
Mof_C 	C 	0.7083	0.2004	0.4601	-0.173
Mof_C 	C 	0.7558	0.2372	0.4469	0.107
Mof_C 	C 	0.7411	0.2929	0.4346	-0.188
Mof_C 	C 	0.601	0.3935	0.432	0.169
Mof_C 	C 	0.5855	0.3948	0.4748	-0.195
Mof_C 	C 	0.5261	0.4163	0.4873	0.107
Mof_C 	C 	0.481	0.4403	0.4582	-0.184
Mof_C 	C 	0.5006	0.4438	0.4173	0.111
Mof_C 	C 	0.561	0.4214	0.404	-0.197
Mof_C 	C 	0.3835	0.458	0.0624	0.374
Mof_C 	C 	0.6801	0.1311	0.0482	0.402
Mof_C 	C 	0.1626	0.4724	0.1022	0.399
Mof_C 	C 	0.1727	0.471	0.4117	0.409
Mof_C 	C 	0.7243	0.138	0.4713	0.433
Mof_C 	C 	0.4157	0.4585	0.4715	0.421
Mof_C 	C 	0.2256	0.0936	0.7765	0.087
Mof_C 	C 	0.1589	0.0869	0.7769	-0.076
Mof_C 	C 	0.1222	0.1057	0.8112	-0.079
Mof_C 	C 	0.1514	0.1309	0.8449	0.085
Mof_C 	C 	0.2211	0.1357	0.8437	-0.07
Mof_C 	C 	0.2551	0.1193	0.8104	-0.078
Mof_C 	C 	0.0553	0.1247	0.8908	0.165
Mof_C 	C 	0.0575	0.0659	0.9018	-0.193
Mof_C 	C 	0.0009	0.0403	0.9158	0.108
Mof_C 	C 	0.9427	0.0693	0.9188	-0.173
Mof_C 	C 	0.9394	0.1277	0.9074	0.093
Mof_C 	C 	0.9981	0.1539	0.8941	-0.195
Mof_C 	C 	0.129	0.2063	0.8958	0.166
Mof_C 	C 	0.119	0.2165	0.9391	-0.196
Mof_C 	C 	0.1346	0.2681	0.9562	0.106
Mof_C 	C 	0.1617	0.3135	0.9325	-0.187
Mof_C 	C 	0.1719	0.3036	0.8901	0.106
Mof_C 	C 	0.1551	0.2523	0.8716	-0.192
Mof_C 	C 	0.3307	0.0752	0.741	0.079
Mof_C 	C 	0.3625	0.0349	0.766	-0.069
Mof_C 	C 	0.4296	0.0324	0.7664	-0.084
Mof_C 	C 	0.467	0.068	0.7418	0.093
Mof_C 	C 	0.4368	0.1069	0.7169	-0.09
Mof_C 	C 	0.3687	0.1117	0.716	-0.068
Mof_C 	C 	0.5708	0.056	0.78	0.179
Mof_C 	C 	0.6035	0.0043	0.7872	-0.199
Mof_C 	C 	0.6347	0.9959	0.8257	0.108
Mof_C 	C 	0.6325	0.0382	0.8555	-0.181
Mof_C 	C 	0.5999	0.0879	0.8469	0.122
Mof_C 	C 	0.5681	0.0974	0.8097	-0.215
Mof_C 	C 	0.5698	0.0539	0.7026	0.181
Mof_C 	C 	0.6384	0.0637	0.6998	-0.215
Mof_C 	C 	0.6695	0.0547	0.6634	0.136
Mof_C 	C 	0.6378	0.0391	0.6275	-0.198
Mof_C 	C 	0.5692	0.0312	0.63	0.12
Mof_C 	C 	0.5365	0.0381	0.6672	-0.212
Mof_C 	C 	0.2329	0.0901	0.6998	0.08
Mof_C 	C 	0.2041	0.1445	0.6929	-0.071
Mof_C 	C 	0.1791	0.1584	0.653	-0.085
Mof_C 	C 	0.1852	0.1188	0.6219	0.089
Mof_C 	C 	0.2152	0.0666	0.6285	-0.082
Mof_C 	C 	0.2378	0.0518	0.6679	-0.074
Mof_C 	C 	0.175	0.1877	0.5652	0.168
Mof_C 	C 	0.1266	0.2255	0.5506	-0.195
Mof_C 	C 	0.1437	0.2803	0.5382	0.106
Mof_C 	C 	0.2083	0.2996	0.5399	-0.173
Mof_C 	C 	0.2558	0.2628	0.5531	0.107
Mof_C 	C 	0.2411	0.2071	0.5654	-0.188
Mof_C 	C 	0.101	0.1065	0.568	0.169
Mof_C 	C 	0.0855	0.1052	0.5252	-0.195
Mof_C 	C 	0.0261	0.0837	0.5127	0.107
Mof_C 	C 	0.981	0.0597	0.5418	-0.184
Mof_C 	C 	0.0006	0.0562	0.5827	0.111
Mof_C 	C 	0.061	0.0786	0.596	-0.197
Mof_C 	C 	0.8835	0.042	0.9376	0.375
Mof_C 	C 	0.1801	0.3689	0.9518	0.402
Mof_C 	C 	0.6626	0.0276	0.8978	0.399
Mof_C 	C 	0.6727	0.029	0.5883	0.409
Mof_C 	C 	0.2243	0.362	0.5287	0.433
Mof_C 	C 	0.9157	0.0415	0.5285	0.422
Mof_C 	C 	0.2744	0.9064	0.2765	0.087
Mof_C 	C 	0.3411	0.9131	0.2769	-0.076
Mof_C 	C 	0.3778	0.8943	0.3112	-0.079
Mof_C 	C 	0.3486	0.8691	0.3449	0.085
Mof_C 	C 	0.2789	0.8643	0.3437	-0.07
Mof_C 	C 	0.2449	0.8807	0.3104	-0.078
Mof_C 	C 	0.4447	0.8753	0.3908	0.164
Mof_C 	C 	0.4425	0.9341	0.4018	-0.192
Mof_C 	C 	0.4991	0.9597	0.4158	0.108
Mof_C 	C 	0.5573	0.9307	0.4188	-0.173
Mof_C 	C 	0.5606	0.8723	0.4074	0.093
Mof_C 	C 	0.5019	0.8461	0.3941	-0.194
Mof_C 	C 	0.371	0.7937	0.3958	0.166
Mof_C 	C 	0.381	0.7835	0.4391	-0.197
Mof_C 	C 	0.3654	0.7319	0.4562	0.106
Mof_C 	C 	0.3383	0.6865	0.4325	-0.187
Mof_C 	C 	0.3281	0.6964	0.3901	0.106
Mof_C 	C 	0.3449	0.7477	0.3716	-0.192
Mof_C 	C 	0.1693	0.9248	0.241	0.079
Mof_C 	C 	0.1375	0.9651	0.266	-0.069
Mof_C 	C 	0.0704	0.9676	0.2664	-0.084
Mof_C 	C 	0.033	0.932	0.2418	0.093
Mof_C 	C 	0.0632	0.8931	0.2169	-0.09
Mof_C 	C 	0.1313	0.8883	0.216	-0.068
Mof_C 	C 	0.9292	0.944	0.28	0.179
Mof_C 	C 	0.8965	0.9957	0.2872	-0.2
Mof_C 	C 	0.8653	0.0041	0.3257	0.109
Mof_C 	C 	0.8675	0.9618	0.3555	-0.182
Mof_C 	C 	0.9001	0.9121	0.3469	0.122
Mof_C 	C 	0.9319	0.9026	0.3097	-0.216
Mof_C 	C 	0.9302	0.9461	0.2026	0.181
Mof_C 	C 	0.8616	0.9363	0.1998	-0.215
Mof_C 	C 	0.8305	0.9453	0.1634	0.136
Mof_C 	C 	0.8622	0.9609	0.1275	-0.197
Mof_C 	C 	0.9308	0.9688	0.13	0.12
Mof_C 	C 	0.9635	0.9619	0.1672	-0.212
Mof_C 	C 	0.2671	0.9099	0.1998	0.08
Mof_C 	C 	0.2959	0.8555	0.1929	-0.071
Mof_C 	C 	0.3209	0.8416	0.153	-0.085
Mof_C 	C 	0.3148	0.8812	0.1219	0.089
Mof_C 	C 	0.2848	0.9334	0.1285	-0.082
Mof_C 	C 	0.2622	0.9482	0.1679	-0.074
Mof_C 	C 	0.325	0.8123	0.0652	0.168
Mof_C 	C 	0.3734	0.7745	0.0506	-0.195
Mof_C 	C 	0.3563	0.7197	0.0382	0.106
Mof_C 	C 	0.2917	0.7004	0.0399	-0.173
Mof_C 	C 	0.2442	0.7372	0.0531	0.107
Mof_C 	C 	0.2589	0.7929	0.0654	-0.188
Mof_C 	C 	0.399	0.8935	0.068	0.17
Mof_C 	C 	0.4145	0.8948	0.0252	-0.196
Mof_C 	C 	0.4739	0.9163	0.0127	0.108
Mof_C 	C 	0.519	0.9403	0.0418	-0.185
Mof_C 	C 	0.4994	0.9438	0.0827	0.112
Mof_C 	C 	0.439	0.9214	0.096	-0.198
Mof_C 	C 	0.6165	0.958	0.4376	0.374
Mof_C 	C 	0.3199	0.6311	0.4518	0.402
Mof_C 	C 	0.8374	0.9724	0.3978	0.399
Mof_C 	C 	0.8273	0.971	0.0883	0.409
Mof_C 	C 	0.2757	0.638	0.0287	0.433
Mof_C 	C 	0.5843	0.9585	0.0285	0.423
Mof_N 	N 	0.7388	0.578	0.7601	-0.149
Mof_N 	N 	0.8843	0.6535	0.6205	-0.179
Mof_N 	N 	0.4619	0.5643	0.7591	-0.181
Mof_N 	N 	0.84	0.6339	0.9194	-0.179
Mof_N 	N 	0.7612	0.422	0.2601	-0.149
Mof_N 	N 	0.6157	0.3465	0.1205	-0.179
Mof_N 	N 	0.0381	0.4357	0.2591	-0.181
Mof_N 	N 	0.66	0.3661	0.4194	-0.179
Mof_N 	N 	0.2612	0.078	0.7399	-0.149
Mof_N 	N 	0.1157	0.1535	0.8795	-0.179
Mof_N 	N 	0.5381	0.0643	0.7409	-0.181
Mof_N 	N 	0.16	0.1339	0.5806	-0.179
Mof_N 	N 	0.2388	0.922	0.2399	-0.149
Mof_N 	N 	0.3843	0.8465	0.3795	-0.179
Mof_N 	N 	0.9619	0.9357	0.2409	-0.181
Mof_N 	N 	0.34	0.8661	0.0806	-0.179
Mof_O 	O 	0.2576	0.5102	0.50559	-0.956
Mof_O 	O 	0.1057	0.4998	0.53889	-0.497
Mof_O 	O 	0.1733	0.5627	0.5716	-0.492
Mof_O 	O 	0.8218	0.8747	0.50914	-0.512
Mof_O 	O 	0.8028	0.9085	0.5727	-0.509
Mof_O 	O 	0.3254	0.474	0.59383	-0.479
Mof_O 	O 	0.3285	0.5678	0.5779	-0.49
Mof_O 	O 	0.2659	0.5277	0.91094	-0.508
Mof_O 	O 	0.362	0.5232	0.945	-0.507
Mof_O 	O 	0.7182	0.8772	0.9648	-0.509
Mof_O 	O 	0.8208	0.8904	0.98693	-0.513
Mof_O 	O 	0.0983	0.5467	0.00989	-0.499
Mof_O 	O 	0.1212	0.521	0.94398	-0.504
Mof_O 	O 	0.2424	0.4898	0.00559	-0.956
Mof_O 	O 	0.3943	0.5002	0.03889	-0.497
Mof_O 	O 	0.3267	0.4373	0.0716	-0.492
Mof_O 	O 	0.6782	0.1253	0.00914	-0.512
Mof_O 	O 	0.6972	0.0915	0.0727	-0.509
Mof_O 	O 	0.1746	0.526	0.09383	-0.479
Mof_O 	O 	0.1715	0.4322	0.0779	-0.49
Mof_O 	O 	0.2341	0.4723	0.41094	-0.508
Mof_O 	O 	0.138	0.4768	0.445	-0.507
Mof_O 	O 	0.7818	0.1228	0.4648	-0.509
Mof_O 	O 	0.6792	0.1096	0.48693	-0.513
Mof_O 	O 	0.4017	0.4533	0.50989	-0.499
Mof_O 	O 	0.3788	0.479	0.44398	-0.504
Mof_O 	O 	0.7424	0.0102	0.99441	-0.955
Mof_O 	O 	0.8943	0.9998	0.96111	-0.498
Mof_O 	O 	0.8267	0.0627	0.9284	-0.492
Mof_O 	O 	0.1782	0.3747	0.99086	-0.511
Mof_O 	O 	0.1972	0.4085	0.9273	-0.509
Mof_O 	O 	0.6746	0.974	0.90617	-0.479
Mof_O 	O 	0.6715	0.0678	0.9221	-0.49
Mof_O 	O 	0.7341	0.0277	0.58906	-0.508
Mof_O 	O 	0.638	0.0232	0.555	-0.507
Mof_O 	O 	0.2818	0.3772	0.5352	-0.509
Mof_O 	O 	0.1792	0.3904	0.51307	-0.513
Mof_O 	O 	0.9017	0.0467	0.49011	-0.499
Mof_O 	O 	0.8788	0.021	0.55602	-0.504
Mof_O 	O 	0.7576	0.9898	0.49441	-0.956
Mof_O 	O 	0.6057	0.0002	0.46111	-0.497
Mof_O 	O 	0.6733	0.9373	0.4284	-0.492
Mof_O 	O 	0.3218	0.6253	0.49086	-0.512
Mof_O 	O 	0.3028	0.5915	0.4273	-0.509
Mof_O 	O 	0.8254	0.026	0.40617	-0.479
Mof_O 	O 	0.8285	0.9322	0.4221	-0.49
Mof_O 	O 	0.7659	0.9723	0.08906	-0.508
Mof_O 	O 	0.862	0.9768	0.055	-0.507
Mof_O 	O 	0.2182	0.6228	0.0352	-0.509
Mof_O 	O 	0.3208	0.6096	0.01307	-0.513
Mof_O 	O 	0.5983	0.9533	0.99011	-0.5
Mof_O 	O 	0.6212	0.979	0.05602	-0.504
_end
