data_functionalizedCrystal
_audit_creation_method	'EQeq! by Chris Wilmer'
_symmetry_space_group_name_H-M	'P1'
_symmetry_Int_Tables_number	1
_symmetry_cell_setting	triclinic
loop_
_symmetry_equiv_pos_as_xyz
  x,y,z
_cell_length_a	18.63
_cell_length_b	27.455
_cell_length_c	29.381
_cell_angle_alpha	62.676
_cell_angle_beta	89.004
_cell_angle_gamma	70.485
loop_
_atom_site_label
_atom_site_type_symbol
_atom_site_fract_x
_atom_site_fract_y
_atom_site_fract_z
_atom_site_charge
Mof_Pr	Pr	0.61728	0.17864	0.12331	2.786
Mof_Pr	Pr	0.34178	0.23469	0.12216	2.688
Mof_Pr	Pr	0.44284	0.35275	0.97815	2.901
Mof_Pr	Pr	0.47438	0.34814	0.14203	2.755
Mof_Pr	Pr	0.9016	0.24704	0.60834	2.758
Mof_Pr	Pr	0.75218	0.41396	0.44562	2.882
Mof_Pr	Pr	0.95086	0.42451	0.53507	2.734
Mof_Pr	Pr	0.71834	0.42477	0.60452	2.841
Mof_Sb	Sb	0.65582	0.29178	0.00727	0.524
Mof_Sb	Sb	0.68113	0.28649	0.13278	0.558
Mof_Sb	Sb	0.60566	0.19777	0.24047	0.53
Mof_Sb	Sb	0.50557	0.1123	0.22537	0.555
Mof_Sb	Sb	0.48181	0.11614	0.10136	0.543
Mof_Sb	Sb	0.55613	0.20597	0.991	0.551
Mof_Sb	Sb	0.55288	0.4186	0.02172	0.444
Mof_Sb	Sb	0.39886	0.24066	0.2396	0.569
Mof_Sb	Sb	0.3499	0.24698	0.99169	0.545
Mof_Sb	Sb	0.34136	0.4634	0.01854	0.457
Mof_Sb	Sb	0.26645	0.37467	0.12764	0.562
Mof_Sb	Sb	0.24181	0.37694	0.00513	0.572
Mof_Sb	Sb	0.05807	0.28465	0.54034	0.535
Mof_Sb	Sb	0.86199	0.28433	0.71433	0.532
Mof_Sb	Sb	0.70908	0.27536	0.64658	0.542
Mof_Sb	Sb	0.73054	0.2716	0.52548	0.52
Mof_Sb	Sb	0.94939	0.40768	0.41649	0.566
Mof_Sb	Sb	0.8092	0.54041	0.41648	0.509
Mof_Sb	Sb	0.89603	0.42032	0.66012	0.547
Mof_Sb	Sb	0.63476	0.5395	0.46899	0.527
Mof_Sb	Sb	0.59466	0.40041	0.52711	0.559
Mof_Sb	Sb	0.90876	0.27269	0.4718	0.56
Mof_Sb	Sb	0.78757	0.54997	0.53327	0.564
Mof_Sb	Sb	0.03667	0.2924	0.65856	0.542
Mof_Cl	Cl	0.46766	0.27786	0.09148	-1.183
Mof_Cl	Cl	0.72673	0.15466	0.05294	-0.531
Mof_Cl	Cl	0.75683	0.1531	0.19234	-0.535
Mof_Cl	Cl	0.36461	0.10514	0.17583	-0.536
Mof_Cl	Cl	0.20901	0.24973	0.06248	-0.567
Mof_Cl	Cl	0.23469	0.25063	0.19127	-0.558
Mof_Cl	Cl	0.42163	0.4805	0.919	-0.575
Mof_Cl	Cl	0.82844	0.37894	0.54839	-1.204
Mof_Cl	Cl	0.89529	0.16391	0.57184	-0.542
Mof_Cl	Cl	0.8707	0.16541	0.70771	-0.543
Mof_Cl	Cl	0.5848	0.4939	0.4029	-0.499
Mof_Cl	Cl	0.9911	0.504	0.56002	-0.801
Mof_Cl	Cl	0.11775	0.35827	0.57744	-0.61
Mof_Cl	Cl	0.5485	0.4852	0.5722	-0.602
Mof_O 	O 	0.5731	0.2579	0.0161	-0.596
Mof_O 	O 	0.6667	0.2578	0.0836	-0.572
Mof_O 	O 	0.603	0.2522	0.1655	-0.589
Mof_O 	O 	0.5859	0.1482	0.214	-0.536
Mof_O 	O 	0.5001	0.1446	0.1491	-0.568
Mof_O 	O 	0.5541	0.1547	0.0653	-0.541
Mof_O 	O 	0.5645	0.3622	0.9954	-0.571
Mof_O 	O 	0.5865	0.3607	0.0961	-0.552
Mof_O 	O 	0.4977	0.254	0.2257	-0.528
Mof_O 	O 	0.4192	0.1888	0.2062	-0.577
Mof_O 	O 	0.3911	0.1902	0.0663	-0.555
Mof_O 	O 	0.4472	0.2619	0.975	-0.555
Mof_O 	O 	0.4515	0.4083	0.0379	-0.608
Mof_O 	O 	0.3631	0.3043	0.1663	-0.565
Mof_O 	O 	0.3321	0.3058	0.0164	-0.57
Mof_O 	O 	0.3223	0.4117	0.9947	-0.539
Mof_O 	O 	0.339	0.4129	0.0926	-0.553
Mof_O 	O 	0.2654	0.3397	0.082	-0.569
Mof_O 	O 	0.9706	0.2615	0.5342	-0.56
Mof_O 	O 	0.9975	0.3052	0.59	-0.602
Mof_O 	O 	0.9488	0.2637	0.6784	-0.53
Mof_O 	O 	0.7953	0.2994	0.6531	-0.568
Mof_O 	O 	0.7664	0.2572	0.5949	-0.56
Mof_O 	O 	0.8194	0.2981	0.5043	-0.581
Mof_O 	O 	0.6734	0.3574	0.4993	-0.554
Mof_O 	O 	0.8837	0.3603	0.4307	-0.524
Mof_O 	O 	0.8688	0.454	0.4413	-0.589
Mof_O 	O 	0.6553	0.4522	0.5084	-0.558
Mof_O 	O 	0.7204	0.5141	0.4351	-0.565
Mof_O 	O 	0.0005	0.3684	0.4908	-0.583
Mof_O 	O 	0.9701	0.3771	0.6305	-0.563
Mof_O 	O 	0.8384	0.4658	0.5879	-0.571
Mof_O 	O 	0.8448	0.517	0.4892	-0.587
Mof_O 	O 	0.832	0.3719	0.6736	-0.556
Mof_O 	O 	0.657	0.3606	0.5967	-0.555
Mof_O 	O 	0.7021	0.5228	0.5302	-0.577
Mof_S 	S 	0.75984	0.91909	0.28371	0.066
Mof_O 	O 	0.6732	0.0761	0.1658	-0.608
Mof_O 	O 	0.6139	0.0205	0.2214	-0.348
Mof_O 	O 	0.9742	0.8299	0.3531	-0.578
Mof_O 	O 	0.875	0.8014	0.3507	-0.342
Mof_C 	C 	0.6717	0.0317	0.2063	0.454
Mof_C 	C 	0.7484	0.9898	0.2381	-0.13
Mof_C 	C 	0.8174	0.9973	0.2359	0.009
Mof_H 	H 	0.8237	0.0328	0.212	0.056
Mof_C 	C 	0.8781	0.9475	0.2724	0.005
Mof_H 	H 	0.9292	0.9463	0.277	0.053
Mof_C 	C 	0.8562	0.9014	0.3004	-0.125
Mof_C 	C 	0.9065	0.8399	0.3381	0.429
Mof_C 	C 	0.37	0.3757	0.2302	0.693
Mof_C 	C 	0.3507	0.408	0.2607	-0.202
Mof_C 	C 	0.3186	0.4599	0.3112	-0.039
Mof_S 	S 	0.3152	0.3946	0.31487	0.048
Mof_O 	O 	0.3949	0.3903	0.1908	-0.374
Mof_O 	O 	0.359	0.3268	0.2588	-0.315
Mof_O 	O 	0.2876	0.5163	0.353	-0.028
Mof_O 	O 	0.2646	0.4323	0.3932	-0.469
Mof_C 	C 	0.3644	0.461	0.2411	0.024
Mof_H 	H 	0.3848	0.4757	0.2098	0.015
Mof_C 	C 	0.3466	0.4906	0.2695	-0.019
Mof_H 	H 	0.3531	0.5265	0.2611	0.063
Mof_C 	C 	0.2885	0.4683	0.3579	0.87
Mof_S 	S 	0.72175	0.29958	0.31231	0.081
Mof_O 	O 	0.5631	0.351	0.1986	-0.569
Mof_O 	O 	0.6811	0.2827	0.2251	-0.349
Mof_O 	O 	0.8023	0.2898	0.405	-0.358
Mof_O 	O 	0.7166	0.3705	0.401	-0.606
Mof_C 	C 	0.6285	0.3235	0.2269	0.441
Mof_C 	C 	0.6421	0.3427	0.2644	-0.131
Mof_C 	C 	0.5979	0.3907	0.268	0.004
Mof_H 	H 	0.5514	0.4195	0.2452	0.034
Mof_C 	C 	0.6299	0.3921	0.3101	0.01
Mof_H 	H 	0.6066	0.4228	0.3185	0.036
Mof_C 	C 	0.6958	0.3468	0.3375	-0.135
Mof_C 	C 	0.7428	0.334	0.3854	0.479
Mof_S 	S 	0.7729	0.5729	0.2167	0.547
Mof_O 	O 	0.7531	0.4893	0.3551	0.015
Mof_O 	O 	0.8675	0.4804	0.3272	-0.389
Mof_O 	O 	0.6635	0.6076	0.0873	-0.643
Mof_O 	O 	0.7306	0.656	0.0995	-0.3
Mof_C 	C 	0.7939	0.5023	0.3201	0.242
Mof_C 	C 	0.7454	0.523	0.268	-0.059
Mof_C 	C 	0.6858	0.5146	0.2486	-0.121
Mof_H 	H 	0.6622	0.4886	0.2709	0.074
Mof_C 	C 	0.6621	0.5458	0.1953	-0.023
Mof_H 	H 	0.6221	0.5442	0.1771	0.053
Mof_C 	C 	0.7062	0.5794	0.1733	0.071
Mof_C 	C 	0.7016	0.6169	0.115	0.391
Mof_S 	S 	0.6328	0.3085	0.8165	-0.019
Mof_O 	O 	0.6617	0.3974	0.6761	-0.596
Mof_O 	O 	0.7006	0.2991	0.7279	-0.294
Mof_O 	O 	0.5027	0.3658	0.9021	-0.731
Mof_O 	O 	0.5886	0.2776	0.9162	-0.229
Mof_C 	C 	0.6595	0.3517	0.7141	-0.52
Mof_C 	C 	0.6164	0.3656	0.7547	0.168
Mof_C 	C 	0.5674	0.415	0.7505	-0.141
Mof_H 	H 	0.552	0.4509	0.7187	0.107
Mof_C 	C 	0.5409	0.4116	0.7934	-0.025
Mof_H 	H 	0.5052	0.4443	0.7955	0.045
Mof_C 	C 	0.5696	0.3573	0.8336	0.046
Mof_C 	C 	0.5554	0.3328	0.8905	-0.299
Mof_O 	O 	0.6141	0.4704	0.3963	0.021
Mof_O 	O 	0.5682	0.5074	0.5788	0.087
Mof_S 	S 	0.2683	0.4498	0.2707	0.067
Mof_O 	O 	0.4289	0.369	0.2089	-0.342
Mof_O 	O 	0.3039	0.382	0.213	-0.307
Mof_O 	O 	0.314	0.526	0.346	-0.298
Mof_O 	O 	0.208	0.516	0.322	-0.138
Mof_C 	C 	0.4199	0.3996	0.2856	0.027
Mof_H 	H 	0.471	0.3777	0.2845	0.021
Mof_C 	C 	0.3961	0.431	0.3127	-0.068
Mof_H 	H 	0.4339	0.4326	0.3327	0.05
Mof_C 	C 	0.28	0.4981	0.3371	-0.594
Mof_S 	S 	0.7984	0.5466	0.2141	-0.493
Mof_O 	O 	0.7504	0.4663	0.3575	-0.524
Mof_O 	O 	0.8503	0.4947	0.3299	0.111
Mof_O 	O 	0.6446	0.6218	0.0923	0.059
Mof_O 	O 	0.7731	0.5958	0.0955	-0.185
Mof_C 	C 	0.7845	0.4929	0.3235	-0.024
Mof_C 	C 	0.7502	0.5269	0.2657	-0.002
Mof_C 	C 	0.6746	0.5339	0.2562	0.071
Mof_H 	H 	0.6398	0.5252	0.28	0.012
Mof_C 	C 	0.6623	0.5568	0.2031	0.031
Mof_H 	H 	0.6127	0.5658	0.1866	0.001
Mof_C 	C 	0.718	0.5672	0.1729	-0.164
Mof_C 	C 	0.7122	0.6018	0.1144	0.076
Mof_Cl	Cl	0.5395	0.3418	0.8988	0.612
Mof_Cl	Cl	0.6708	0.3515	0.7042	0.731
Mof_Pr	Pr	0.38272	0.82136	0.87669	2.787
Mof_Pr	Pr	0.65822	0.76531	0.87784	2.689
Mof_Pr	Pr	0.55716	0.64725	0.02185	2.902
Mof_Pr	Pr	0.52562	0.65186	0.85797	2.756
Mof_Pr	Pr	0.0984	0.75296	0.39166	2.759
Mof_Pr	Pr	0.24782	0.58604	0.55437	2.883
Mof_Pr	Pr	0.04914	0.57549	0.46493	2.734
Mof_Pr	Pr	0.28166	0.57523	0.39548	2.841
Mof_Sb	Sb	0.34418	0.70822	0.99273	0.524
Mof_Sb	Sb	0.31887	0.71351	0.86722	0.558
Mof_Sb	Sb	0.39434	0.80223	0.75953	0.53
Mof_Sb	Sb	0.49443	0.8877	0.77463	0.555
Mof_Sb	Sb	0.51819	0.88386	0.89864	0.543
Mof_Sb	Sb	0.44387	0.79403	0.009	0.551
Mof_Sb	Sb	0.44712	0.5814	0.97828	0.444
Mof_Sb	Sb	0.60114	0.75934	0.7604	0.569
Mof_Sb	Sb	0.6501	0.75302	0.00831	0.545
Mof_Sb	Sb	0.65864	0.5366	0.98146	0.457
Mof_Sb	Sb	0.73355	0.62533	0.87236	0.562
Mof_Sb	Sb	0.75819	0.62306	0.99487	0.572
Mof_Sb	Sb	0.94193	0.71535	0.45966	0.535
Mof_Sb	Sb	0.13801	0.71567	0.28567	0.532
Mof_Sb	Sb	0.29092	0.72464	0.35342	0.542
Mof_Sb	Sb	0.26946	0.7284	0.47452	0.52
Mof_Sb	Sb	0.05061	0.59232	0.58351	0.566
Mof_Sb	Sb	0.1908	0.45959	0.58352	0.509
Mof_Sb	Sb	0.10397	0.57968	0.33988	0.547
Mof_Sb	Sb	0.36524	0.4605	0.53101	0.527
Mof_Sb	Sb	0.40534	0.59959	0.47289	0.559
Mof_Sb	Sb	0.09124	0.72731	0.5282	0.56
Mof_Sb	Sb	0.21243	0.45003	0.46673	0.564
Mof_Sb	Sb	0.96333	0.7076	0.34144	0.542
Mof_Cl	Cl	0.53234	0.72214	0.90852	-1.183
Mof_Cl	Cl	0.27327	0.84534	0.94706	-0.531
Mof_Cl	Cl	0.24317	0.8469	0.80766	-0.535
Mof_Cl	Cl	0.63539	0.89486	0.82417	-0.536
Mof_Cl	Cl	0.79099	0.75027	0.93752	-0.567
Mof_Cl	Cl	0.76531	0.74937	0.80873	-0.558
Mof_Cl	Cl	0.57837	0.5195	0.081	-0.575
Mof_Cl	Cl	0.17156	0.62106	0.45161	-1.204
Mof_Cl	Cl	0.10471	0.83609	0.42816	-0.542
Mof_Cl	Cl	0.1293	0.83459	0.29229	-0.543
Mof_Cl	Cl	0.4152	0.5061	0.5971	-0.499
Mof_Cl	Cl	0.0089	0.496	0.43998	-0.801
Mof_Cl	Cl	0.88225	0.64173	0.42256	-0.61
Mof_Cl	Cl	0.4515	0.5148	0.4278	-0.602
Mof_O 	O 	0.4269	0.7421	0.9839	-0.596
Mof_O 	O 	0.3333	0.7422	0.9164	-0.572
Mof_O 	O 	0.397	0.7478	0.8345	-0.589
Mof_O 	O 	0.4141	0.8518	0.786	-0.536
Mof_O 	O 	0.4999	0.8554	0.8509	-0.568
Mof_O 	O 	0.4459	0.8453	0.9347	-0.541
Mof_O 	O 	0.4355	0.6378	0.0046	-0.571
Mof_O 	O 	0.4135	0.6393	0.9039	-0.552
Mof_O 	O 	0.5023	0.746	0.7743	-0.528
Mof_O 	O 	0.5808	0.8112	0.7938	-0.577
Mof_O 	O 	0.6089	0.8098	0.9337	-0.555
Mof_O 	O 	0.5528	0.7381	0.025	-0.555
Mof_O 	O 	0.5485	0.5917	0.9621	-0.608
Mof_O 	O 	0.6369	0.6957	0.8337	-0.565
Mof_O 	O 	0.6679	0.6942	0.9836	-0.57
Mof_O 	O 	0.6777	0.5883	0.0053	-0.539
Mof_O 	O 	0.661	0.5871	0.9074	-0.553
Mof_O 	O 	0.7346	0.6603	0.918	-0.569
Mof_O 	O 	0.0294	0.7385	0.4658	-0.56
Mof_O 	O 	0.0025	0.6948	0.41	-0.602
Mof_O 	O 	0.0512	0.7363	0.3216	-0.53
Mof_O 	O 	0.2047	0.7006	0.3469	-0.568
Mof_O 	O 	0.2336	0.7428	0.4051	-0.56
Mof_O 	O 	0.1806	0.7019	0.4957	-0.581
Mof_O 	O 	0.3266	0.6426	0.5007	-0.554
Mof_O 	O 	0.1163	0.6397	0.5693	-0.524
Mof_O 	O 	0.1312	0.546	0.5587	-0.589
Mof_O 	O 	0.3447	0.5478	0.4916	-0.559
Mof_O 	O 	0.2796	0.4859	0.5649	-0.565
Mof_O 	O 	0.9995	0.6316	0.5092	-0.583
Mof_O 	O 	0.0299	0.6229	0.3695	-0.563
Mof_O 	O 	0.1616	0.5342	0.4121	-0.571
Mof_O 	O 	0.1552	0.483	0.5108	-0.587
Mof_O 	O 	0.168	0.6281	0.3264	-0.556
Mof_O 	O 	0.343	0.6394	0.4033	-0.555
Mof_O 	O 	0.2979	0.4772	0.4698	-0.577
Mof_S 	S 	0.24016	0.08091	0.71629	0.066
Mof_O 	O 	0.3268	0.9239	0.8342	-0.608
Mof_O 	O 	0.3861	0.9795	0.7786	-0.348
Mof_O 	O 	0.0258	0.1701	0.6469	-0.578
Mof_O 	O 	0.125	0.1986	0.6493	-0.342
Mof_C 	C 	0.3283	0.9683	0.7937	0.454
Mof_C 	C 	0.2516	0.0102	0.7619	-0.13
Mof_C 	C 	0.1826	0.0027	0.7641	0.009
Mof_H 	H 	0.1763	0.9672	0.788	0.056
Mof_C 	C 	0.1219	0.0525	0.7276	0.005
Mof_H 	H 	0.0708	0.0537	0.723	0.053
Mof_C 	C 	0.1438	0.0986	0.6996	-0.125
Mof_C 	C 	0.0935	0.1601	0.6619	0.429
Mof_C 	C 	0.63	0.6243	0.7698	0.693
Mof_C 	C 	0.6493	0.592	0.7393	-0.202
Mof_C 	C 	0.6814	0.5401	0.6888	-0.039
Mof_S 	S 	0.6848	0.6054	0.68513	0.048
Mof_O 	O 	0.6051	0.6097	0.8092	-0.374
Mof_O 	O 	0.641	0.6732	0.7412	-0.315
Mof_O 	O 	0.7124	0.4837	0.647	-0.028
Mof_O 	O 	0.7354	0.5677	0.6068	-0.469
Mof_C 	C 	0.6356	0.539	0.7589	0.024
Mof_H 	H 	0.6152	0.5243	0.7902	0.015
Mof_C 	C 	0.6534	0.5094	0.7305	-0.019
Mof_H 	H 	0.6469	0.4735	0.7389	0.063
Mof_C 	C 	0.7115	0.5317	0.6421	0.87
Mof_S 	S 	0.27825	0.70042	0.68769	0.081
Mof_O 	O 	0.4369	0.649	0.8014	-0.569
Mof_O 	O 	0.3189	0.7173	0.7749	-0.349
Mof_O 	O 	0.1977	0.7102	0.595	-0.358
Mof_O 	O 	0.2834	0.6295	0.599	-0.606
Mof_C 	C 	0.3715	0.6765	0.7731	0.441
Mof_C 	C 	0.3579	0.6573	0.7356	-0.131
Mof_C 	C 	0.4021	0.6093	0.732	0.004
Mof_H 	H 	0.4486	0.5805	0.7548	0.034
Mof_C 	C 	0.3701	0.6079	0.6899	0.01
Mof_H 	H 	0.3934	0.5772	0.6815	0.036
Mof_C 	C 	0.3042	0.6532	0.6625	-0.135
Mof_C 	C 	0.2572	0.666	0.6146	0.479
Mof_S 	S 	0.2271	0.4271	0.7833	0.547
Mof_O 	O 	0.2469	0.5107	0.6449	0.014
Mof_O 	O 	0.1325	0.5196	0.6728	-0.389
Mof_O 	O 	0.3365	0.3924	0.9127	-0.643
Mof_O 	O 	0.2694	0.344	0.9005	-0.3
Mof_C 	C 	0.2061	0.4977	0.6799	0.242
Mof_C 	C 	0.2546	0.477	0.732	-0.059
Mof_C 	C 	0.3142	0.4854	0.7514	-0.121
Mof_H 	H 	0.3378	0.5114	0.7291	0.074
Mof_C 	C 	0.3379	0.4542	0.8047	-0.023
Mof_H 	H 	0.3779	0.4558	0.8229	0.053
Mof_C 	C 	0.2938	0.4206	0.8267	0.071
Mof_C 	C 	0.2984	0.3831	0.885	0.391
Mof_S 	S 	0.3672	0.6915	0.1835	-0.019
Mof_O 	O 	0.3383	0.6026	0.3239	-0.596
Mof_O 	O 	0.2994	0.7009	0.2721	-0.294
Mof_O 	O 	0.4973	0.6342	0.0979	-0.731
Mof_O 	O 	0.4114	0.7224	0.0838	-0.229
Mof_C 	C 	0.3405	0.6483	0.2859	-0.52
Mof_C 	C 	0.3836	0.6344	0.2453	0.168
Mof_C 	C 	0.4326	0.585	0.2495	-0.141
Mof_H 	H 	0.448	0.5491	0.2813	0.107
Mof_C 	C 	0.4591	0.5884	0.2066	-0.025
Mof_H 	H 	0.4948	0.5557	0.2045	0.045
Mof_C 	C 	0.4304	0.6427	0.1664	0.046
Mof_C 	C 	0.4446	0.6672	0.1095	-0.299
Mof_O 	O 	0.3859	0.5296	0.6037	0.021
Mof_O 	O 	0.4318	0.4926	0.4212	0.087
Mof_S 	S 	0.7317	0.5502	0.7293	0.067
Mof_O 	O 	0.5711	0.631	0.7911	-0.342
Mof_O 	O 	0.6961	0.618	0.787	-0.307
Mof_O 	O 	0.686	0.474	0.654	-0.298
Mof_O 	O 	0.792	0.484	0.678	-0.138
Mof_C 	C 	0.5801	0.6004	0.7144	0.027
Mof_H 	H 	0.529	0.6223	0.7155	0.021
Mof_C 	C 	0.6039	0.569	0.6873	-0.068
Mof_H 	H 	0.5661	0.5674	0.6673	0.05
Mof_C 	C 	0.72	0.5019	0.6629	-0.594
Mof_S 	S 	0.2016	0.4534	0.7859	-0.493
Mof_O 	O 	0.2496	0.5337	0.6425	-0.524
Mof_O 	O 	0.1497	0.5053	0.6701	0.111
Mof_O 	O 	0.3554	0.3782	0.9077	0.059
Mof_O 	O 	0.2269	0.4042	0.9045	-0.185
Mof_C 	C 	0.2155	0.5071	0.6765	-0.024
Mof_C 	C 	0.2498	0.4731	0.7343	-0.002
Mof_C 	C 	0.3254	0.4661	0.7438	0.071
Mof_H 	H 	0.3602	0.4748	0.72	0.012
Mof_C 	C 	0.3377	0.4432	0.7969	0.031
Mof_H 	H 	0.3873	0.4342	0.8134	0.001
Mof_C 	C 	0.282	0.4328	0.8271	-0.164
Mof_C 	C 	0.2878	0.3982	0.8856	0.076
Mof_Cl	Cl	0.4605	0.6582	0.1012	0.612
Mof_Cl	Cl	0.3292	0.6485	0.2958	0.731
_end
