data_functionalizedCrystal
_audit_creation_method	'EQeq! by Chris Wilmer'
_symmetry_space_group_name_H-M	'P1'
_symmetry_Int_Tables_number	1
_symmetry_cell_setting	triclinic
loop_
_symmetry_equiv_pos_as_xyz
  x,y,z
_cell_length_a	8.5831
_cell_length_b	17.677
_cell_length_c	10.4353
_cell_angle_alpha	90
_cell_angle_beta	123.887
_cell_angle_gamma	90
loop_
_atom_site_label
_atom_site_type_symbol
_atom_site_fract_x
_atom_site_fract_y
_atom_site_fract_z
_atom_site_charge
Mof_P 	P 	0.66527	0.70675	0.47353	1.877
Mof_P 	P 	0.22987	0.83052	0.49618	1.78
Mof_P 	P 	0.00952	0.57257	0.3579	1.973
Mof_Al	Al	0.2109	0.70392	0.2872	7.724
Mof_Al	Al	0.0227	0.60927	0.66156	7.69
Mof_Al	Al	0.6666	0.67668	0.19142	7.505
Mof_O 	O 	0.1333	0.79404	0.1796	-3.45
Mof_H 	H 	0.1478	0.7853	0.1032	0.77
Mof_O 	O 	0.193	0.74898	0.4388	-2.129
Mof_O 	O 	0.0838	0.58705	0.526	-2.152
Mof_O 	O 	0.4365	0.8506	0.5701	-2.342
Mof_O 	O 	0.4615	0.69074	0.407	-2.202
Mof_O 	O 	0.7802	0.63652	0.5558	-2.123
Mof_O 	O 	0.0308	0.49072	0.3288	-1.881
Mof_O 	O 	0.8019	0.59525	0.2581	-2.334
Mof_O 	O 	0.1799	0.84138	0.6131	-1.881
Mof_O 	O 	0.6926	0.72865	0.3449	-2.31
Mof_O 	O 	0.1192	0.61793	0.3102	-2.101
Mof_O 	O 	0.1142	0.88606	0.3646	-1.976
Mof_O 	O 	0.7356	0.77215	0.589	-2.357
Mof_P 	P 	0.33473	0.20675	0.02647	1.837
Mof_P 	P 	0.77013	0.33052	0.00382	1.768
Mof_P 	P 	0.99048	0.07257	0.1421	1.89
Mof_Al	Al	0.7891	0.20392	0.2128	7.708
Mof_Al	Al	0.9773	0.10927	0.83844	7.529
Mof_Al	Al	0.3334	0.17668	0.30858	7.485
Mof_O 	O 	0.8667	0.29404	0.3204	-3.477
Mof_H 	H 	0.8522	0.2853	0.3968	0.774
Mof_O 	O 	0.807	0.24898	0.0612	-2.134
Mof_O 	O 	0.9162	0.08705	0.974	-2.108
Mof_O 	O 	0.5635	0.3506	0.9299	-2.342
Mof_O 	O 	0.5385	0.19074	0.093	-2.203
Mof_O 	O 	0.2198	0.13652	0.9442	-2.068
Mof_O 	O 	0.9692	0.99072	0.1712	-1.802
Mof_O 	O 	0.1981	0.09525	0.2419	-2.31
Mof_O 	O 	0.8201	0.34138	0.8869	-1.875
Mof_O 	O 	0.3074	0.22865	0.1551	-2.307
Mof_O 	O 	0.8808	0.11793	0.1898	-2.097
Mof_O 	O 	0.8858	0.38606	0.1354	-1.998
Mof_O 	O 	0.2644	0.27215	0.911	-2.349
Mof_P 	P 	0.33473	0.29325	0.52647	1.876
Mof_P 	P 	0.77013	0.16948	0.50382	1.779
Mof_P 	P 	0.99048	0.42743	0.6421	1.972
Mof_Al	Al	0.7891	0.29608	0.7128	7.723
Mof_Al	Al	0.9773	0.39073	0.33844	7.69
Mof_Al	Al	0.3334	0.32332	0.80858	7.505
Mof_O 	O 	0.8667	0.20596	0.8204	-3.45
Mof_H 	H 	0.8522	0.2147	0.8968	0.77
Mof_O 	O 	0.807	0.25102	0.5612	-2.129
Mof_O 	O 	0.9162	0.41295	0.474	-2.152
Mof_O 	O 	0.5635	0.1494	0.4299	-2.342
Mof_O 	O 	0.5385	0.30926	0.593	-2.202
Mof_O 	O 	0.2198	0.36348	0.4442	-2.123
Mof_O 	O 	0.9692	0.50928	0.6712	-1.881
Mof_O 	O 	0.1981	0.40475	0.7419	-2.334
Mof_O 	O 	0.8201	0.15862	0.3869	-1.881
Mof_O 	O 	0.3074	0.27135	0.6551	-2.31
Mof_O 	O 	0.8808	0.38207	0.6898	-2.101
Mof_O 	O 	0.8858	0.11394	0.6354	-1.976
Mof_O 	O 	0.2644	0.22785	0.411	-2.357
Mof_P 	P 	0.66527	0.79325	0.97353	1.837
Mof_P 	P 	0.22987	0.66948	0.99618	1.768
Mof_P 	P 	0.00952	0.92743	0.8579	1.89
Mof_Al	Al	0.2109	0.79608	0.7872	7.708
Mof_Al	Al	0.0227	0.89073	0.16156	7.529
Mof_Al	Al	0.6666	0.82332	0.69142	7.485
Mof_O 	O 	0.1333	0.70596	0.6796	-3.477
Mof_H 	H 	0.1478	0.7147	0.6032	0.774
Mof_O 	O 	0.193	0.75102	0.9388	-2.134
Mof_O 	O 	0.0838	0.91295	0.026	-2.108
Mof_O 	O 	0.4365	0.6494	0.0701	-2.342
Mof_O 	O 	0.4615	0.80926	0.907	-2.203
Mof_O 	O 	0.7802	0.86348	0.0558	-2.068
Mof_O 	O 	0.0308	0.00928	0.8288	-1.802
Mof_O 	O 	0.8019	0.90475	0.7581	-2.31
Mof_O 	O 	0.1799	0.65862	0.1131	-1.875
Mof_O 	O 	0.6926	0.77135	0.8449	-2.307
Mof_O 	O 	0.1192	0.88207	0.8102	-2.097
Mof_O 	O 	0.1142	0.61394	0.8646	-1.998
Mof_O 	O 	0.7356	0.72785	0.089	-2.349
_end
