# CIF file generated by openbabel 3.1.0, see https://openbabel.org
data_I
_chemical_name_common 'image0'
_cell_length_a 21.944
_cell_length_b 21.944
_cell_length_c 9.58
_cell_angle_alpha 90
_cell_angle_beta 90
_cell_angle_gamma 90
_space_group_name_H-M_alt 'P 1'
_space_group_name_Hall 'P 1'
loop_
    _symmetry_equiv_pos_as_xyz
    x,y,z
loop_
    _atom_site_label
    _atom_site_type_symbol
    _atom_site_fract_x
    _atom_site_fract_y
    _atom_site_fract_z
    _atom_site_occupancy
    O1       O        0.84970    0.74670    0.38750    1.000
    O2       O        0.17000    0.75640    0.61800    1.000
    C1       C        0.03720    0.71360    0.60200    1.000
    C2       C        0.03290    0.79490    0.41200    1.000
    C3       C        0.98270    0.71390    0.60600    1.000
    C4       C        0.97610    0.78970    0.42700    1.000
    Cl1      Cl       0.07200    0.84300    0.27800    1.000
    C5       C        0.78700    0.79700    0.09300    1.000
    C6       C        0.73300    0.81900    0.07500    1.000
    C7       C        0.77610    0.67280    0.10100    1.000
    Cl2      Cl       0.94700    0.84200    0.32000    1.000
    O3       O        0.15030    0.25330    0.38750    1.000
    O4       O        0.83000    0.24360    0.61800    1.000
    C8       C        0.96280    0.28640    0.60200    1.000
    C9       C        0.96710    0.20510    0.41200    1.000
    C10      C        0.01730    0.28610    0.60600    1.000
    C11      C        0.02390    0.21030    0.42700    1.000
    Cl3      Cl       0.92800    0.15700    0.27800    1.000
    C12      C        0.21300    0.20300    0.09300    1.000
    C13      C        0.26700    0.18100    0.07500    1.000
    C14      C        0.22390    0.32720    0.10100    1.000
    Cl4      Cl       0.05300    0.15800    0.32000    1.000
    O5       O        0.25330    0.84970    0.38750    1.000
    O6       O        0.24360    0.17000    0.61800    1.000
    C15      C        0.28640    0.03720    0.60200    1.000
    C16      C        0.20510    0.03290    0.41200    1.000
    C17      C        0.28610    0.98270    0.60600    1.000
    C18      C        0.21030    0.97610    0.42700    1.000
    Cl5      Cl       0.15700    0.07200    0.27800    1.000
    C19      C        0.20300    0.78700    0.09300    1.000
    C20      C        0.18100    0.73300    0.07500    1.000
    C21      C        0.32720    0.77610    0.10100    1.000
    Cl6      Cl       0.15800    0.94700    0.32000    1.000
    O7       O        0.74670    0.15030    0.38750    1.000
    O8       O        0.75640    0.83000    0.61800    1.000
    C22      C        0.71360    0.96280    0.60200    1.000
    C23      C        0.79490    0.96710    0.41200    1.000
    C24      C        0.71390    0.01730    0.60600    1.000
    C25      C        0.78970    0.02390    0.42700    1.000
    Cl7      Cl       0.84300    0.92800    0.27800    1.000
    C26      C        0.79700    0.21300    0.09300    1.000
    C27      C        0.81900    0.26700    0.07500    1.000
    C28      C        0.67280    0.22390    0.10100    1.000
    Cl8      Cl       0.84200    0.05300    0.32000    1.000
    O9       O        0.65030    0.24670    0.61250    1.000
    O10      O        0.33000    0.25640    0.38200    1.000
    C29      C        0.46280    0.21360    0.39800    1.000
    C30      C        0.46710    0.29490    0.58800    1.000
    C31      C        0.51730    0.21390    0.39400    1.000
    C32      C        0.52390    0.28970    0.57300    1.000
    Cl9      Cl       0.42800    0.34300    0.72200    1.000
    C33      C        0.71300    0.29700    0.90700    1.000
    C34      C        0.76700    0.31900    0.92500    1.000
    C35      C        0.72390    0.17280    0.89900    1.000
    Cl10     Cl       0.55300    0.34200    0.68000    1.000
    O11      O        0.34970    0.75330    0.61250    1.000
    O12      O        0.67000    0.74360    0.38200    1.000
    C36      C        0.53720    0.78640    0.39800    1.000
    C37      C        0.53290    0.70510    0.58800    1.000
    C38      C        0.48270    0.78610    0.39400    1.000
    C39      C        0.47610    0.71030    0.57300    1.000
    Cl11     Cl       0.57200    0.65700    0.72200    1.000
    C40      C        0.28700    0.70300    0.90700    1.000
    C41      C        0.23300    0.68100    0.92500    1.000
    C42      C        0.27610    0.82720    0.89900    1.000
    Cl12     Cl       0.44700    0.65800    0.68000    1.000
    O13      O        0.24670    0.34970    0.61250    1.000
    O14      O        0.25640    0.67000    0.38200    1.000
    C43      C        0.21360    0.53720    0.39800    1.000
    C44      C        0.29490    0.53290    0.58800    1.000
    C45      C        0.21390    0.48270    0.39400    1.000
    C46      C        0.28970    0.47610    0.57300    1.000
    Cl13     Cl       0.34300    0.57200    0.72200    1.000
    C47      C        0.29700    0.28700    0.90700    1.000
    C48      C        0.31900    0.23300    0.92500    1.000
    C49      C        0.17280    0.27610    0.89900    1.000
    Cl14     Cl       0.34200    0.44700    0.68000    1.000
    O15      O        0.75330    0.65030    0.61250    1.000
    O16      O        0.74360    0.33000    0.38200    1.000
    C50      C        0.78640    0.46280    0.39800    1.000
    C51      C        0.70510    0.46710    0.58800    1.000
    C52      C        0.78610    0.51730    0.39400    1.000
    C53      C        0.71030    0.52390    0.57300    1.000
    Cl15     Cl       0.65700    0.42800    0.72200    1.000
    C54      C        0.70300    0.71300    0.90700    1.000
    C55      C        0.68100    0.76700    0.92500    1.000
    C56      C        0.82720    0.72390    0.89900    1.000
    Cl16     Cl       0.65800    0.55300    0.68000    1.000
    O17      O        0.15030    0.25330    0.61250    1.000
    O18      O        0.83000    0.24360    0.38200    1.000
    C57      C        0.96280    0.28640    0.39800    1.000
    C58      C        0.96710    0.20510    0.58800    1.000
    C59      C        0.01730    0.28610    0.39400    1.000
    C60      C        0.02390    0.21030    0.57300    1.000
    Cl17     Cl       0.92800    0.15700    0.72200    1.000
    C61      C        0.21300    0.20300    0.90700    1.000
    C62      C        0.26700    0.18100    0.92500    1.000
    C63      C        0.22390    0.32720    0.89900    1.000
    Cl18     Cl       0.05300    0.15800    0.68000    1.000
    O19      O        0.84970    0.74670    0.61250    1.000
    O20      O        0.17000    0.75640    0.38200    1.000
    C64      C        0.03720    0.71360    0.39800    1.000
    C65      C        0.03290    0.79490    0.58800    1.000
    C66      C        0.98270    0.71390    0.39400    1.000
    C67      C        0.97610    0.78970    0.57300    1.000
    Cl19     Cl       0.07200    0.84300    0.72200    1.000
    C68      C        0.78700    0.79700    0.90700    1.000
    C69      C        0.73300    0.81900    0.92500    1.000
    C70      C        0.77610    0.67280    0.89900    1.000
    Cl20     Cl       0.94700    0.84200    0.68000    1.000
    O21      O        0.74670    0.15030    0.61250    1.000
    O22      O        0.75640    0.83000    0.38200    1.000
    C71      C        0.71360    0.96280    0.39800    1.000
    C72      C        0.79490    0.96710    0.58800    1.000
    C73      C        0.71390    0.01730    0.39400    1.000
    C74      C        0.78970    0.02390    0.57300    1.000
    Cl21     Cl       0.84300    0.92800    0.72200    1.000
    C75      C        0.79700    0.21300    0.90700    1.000
    C76      C        0.81900    0.26700    0.92500    1.000
    C77      C        0.67280    0.22390    0.89900    1.000
    Cl22     Cl       0.84200    0.05300    0.68000    1.000
    O23      O        0.25330    0.84970    0.61250    1.000
    O24      O        0.24360    0.17000    0.38200    1.000
    C78      C        0.28640    0.03720    0.39800    1.000
    C79      C        0.20510    0.03290    0.58800    1.000
    C80      C        0.28610    0.98270    0.39400    1.000
    C81      C        0.21030    0.97610    0.57300    1.000
    Cl23     Cl       0.15700    0.07200    0.72200    1.000
    C82      C        0.20300    0.78700    0.90700    1.000
    C83      C        0.18100    0.73300    0.92500    1.000
    C84      C        0.32720    0.77610    0.89900    1.000
    Cl24     Cl       0.15800    0.94700    0.68000    1.000
    O25      O        0.34970    0.75330    0.38750    1.000
    O26      O        0.67000    0.74360    0.61800    1.000
    C85      C        0.53720    0.78640    0.60200    1.000
    C86      C        0.53290    0.70510    0.41200    1.000
    C87      C        0.48270    0.78610    0.60600    1.000
    C88      C        0.47610    0.71030    0.42700    1.000
    Cl25     Cl       0.57200    0.65700    0.27800    1.000
    C89      C        0.28700    0.70300    0.09300    1.000
    C90      C        0.23300    0.68100    0.07500    1.000
    C91      C        0.27610    0.82720    0.10100    1.000
    Cl26     Cl       0.44700    0.65800    0.32000    1.000
    O27      O        0.65030    0.24670    0.38750    1.000
    O28      O        0.33000    0.25640    0.61800    1.000
    C92      C        0.46280    0.21360    0.60200    1.000
    C93      C        0.46710    0.29490    0.41200    1.000
    C94      C        0.51730    0.21390    0.60600    1.000
    C95      C        0.52390    0.28970    0.42700    1.000
    Cl27     Cl       0.42800    0.34300    0.27800    1.000
    C96      C        0.71300    0.29700    0.09300    1.000
    C97      C        0.76700    0.31900    0.07500    1.000
    C98      C        0.72390    0.17280    0.10100    1.000
    Cl28     Cl       0.55300    0.34200    0.32000    1.000
    O29      O        0.75330    0.65030    0.38750    1.000
    O30      O        0.74360    0.33000    0.61800    1.000
    C99      C        0.78640    0.46280    0.60200    1.000
    C100     C        0.70510    0.46710    0.41200    1.000
    C101     C        0.78610    0.51730    0.60600    1.000
    C102     C        0.71030    0.52390    0.42700    1.000
    Cl29     Cl       0.65700    0.42800    0.27800    1.000
    C103     C        0.70300    0.71300    0.09300    1.000
    C104     C        0.68100    0.76700    0.07500    1.000
    C105     C        0.82720    0.72390    0.10100    1.000
    Cl30     Cl       0.65800    0.55300    0.32000    1.000
    O31      O        0.24670    0.34970    0.38750    1.000
    O32      O        0.25640    0.67000    0.61800    1.000
    C106     C        0.21360    0.53720    0.60200    1.000
    C107     C        0.29490    0.53290    0.41200    1.000
    C108     C        0.21390    0.48270    0.60600    1.000
    C109     C        0.28970    0.47610    0.42700    1.000
    Cl31     Cl       0.34300    0.57200    0.27800    1.000
    C110     C        0.29700    0.28700    0.09300    1.000
    C111     C        0.31900    0.23300    0.07500    1.000
    C112     C        0.17280    0.27610    0.10100    1.000
    Cl32     Cl       0.34200    0.44700    0.32000    1.000
    Zn1      Zn       0.75739    0.74261    0.34900    1.000
    N1       N        0.75760    0.74240    0.13000    1.000
    Zn2      Zn       0.24261    0.25739    0.34900    1.000
    N2       N        0.24240    0.25760    0.13000    1.000
    Zn3      Zn       0.25739    0.75739    0.34900    1.000
    N3       N        0.25760    0.75760    0.13000    1.000
    Zn4      Zn       0.74261    0.24261    0.34900    1.000
    N4       N        0.74240    0.24240    0.13000    1.000
    Zn5      Zn       0.74261    0.24261    0.65100    1.000
    N5       N        0.74240    0.24240    0.87000    1.000
    Zn6      Zn       0.25739    0.75739    0.65100    1.000
    N6       N        0.25760    0.75760    0.87000    1.000
    Zn7      Zn       0.24261    0.25739    0.65100    1.000
    N7       N        0.24240    0.25760    0.87000    1.000
    Zn8      Zn       0.75739    0.74261    0.65100    1.000
    N8       N        0.75760    0.74240    0.87000    1.000
    C113     C        0.13670    0.75950    0.50000    1.000
    C114     C        0.87830    0.75530    0.50000    1.000
    C115     C        0.93970    0.75050    0.50000    1.000
    C116     C        0.07480    0.75770    0.50000    1.000
    C117     C        0.86330    0.24050    0.50000    1.000
    C118     C        0.12170    0.24470    0.50000    1.000
    C119     C        0.06030    0.24950    0.50000    1.000
    C120     C        0.92520    0.24230    0.50000    1.000
    C121     C        0.24050    0.13670    0.50000    1.000
    C122     C        0.24470    0.87830    0.50000    1.000
    C123     C        0.24950    0.93970    0.50000    1.000
    C124     C        0.24230    0.07480    0.50000    1.000
    C125     C        0.75950    0.86330    0.50000    1.000
    C126     C        0.75530    0.12170    0.50000    1.000
    C127     C        0.75050    0.06030    0.50000    1.000
    C128     C        0.75770    0.92520    0.50000    1.000
    C129     C        0.36330    0.25950    0.50000    1.000
    C130     C        0.62170    0.25530    0.50000    1.000
    C131     C        0.56030    0.25050    0.50000    1.000
    C132     C        0.42520    0.25770    0.50000    1.000
    C133     C        0.63670    0.74050    0.50000    1.000
    C134     C        0.37830    0.74470    0.50000    1.000
    C135     C        0.43970    0.74950    0.50000    1.000
    C136     C        0.57480    0.74230    0.50000    1.000
    C137     C        0.25950    0.63670    0.50000    1.000
    C138     C        0.25530    0.37830    0.50000    1.000
    C139     C        0.25050    0.43970    0.50000    1.000
    C140     C        0.25770    0.57480    0.50000    1.000
    C141     C        0.74050    0.36330    0.50000    1.000
    C142     C        0.74470    0.62170    0.50000    1.000
    C143     C        0.74950    0.56030    0.50000    1.000
    C144     C        0.74230    0.42520    0.50000    1.000
