# CIF file generated by openbabel 3.1.0, see https://openbabel.org
data_I
_chemical_name_common 'MINCIX_clean'
_cell_length_a 15.0005
_cell_length_b 15.0005
_cell_length_c 23.9639
_cell_angle_alpha 80.5058
_cell_angle_beta 76.3967
_cell_angle_gamma 111.146
_space_group_name_H-M_alt 'P 1'
_space_group_name_Hall 'P 1'
loop_
    _symmetry_equiv_pos_as_xyz
    x,y,z
loop_
    _atom_site_label
    _atom_site_type_symbol
    _atom_site_fract_x
    _atom_site_fract_y
    _atom_site_fract_z
    _atom_site_occupancy
    Tb1      Tb       0.69104    0.14589    0.96557    1.000
    Tb2      Tb       0.38854    0.34339    0.46557    1.000
    Tb3      Tb       0.61146    0.65661    0.53443    1.000
    Tb4      Tb       0.30896    0.85411    0.03443    1.000
    H1       H        0.57450    0.97610    0.50240    1.000
    H2       H        0.97850    0.07690    0.99760    1.000
    H3       H        0.67740    0.92290    0.63970    1.000
    H4       H        0.26040    0.00570    0.20270    1.000
    H5       H        0.70840    0.46310    0.29730    1.000
    H6       H        0.57790    0.25720    0.85530    1.000
    H7       H        0.14110    0.09290    0.97420    1.000
    H8       H        0.61250    0.43320    0.64470    1.000
    H9       H        0.06260    0.31710    0.86030    1.000
    H10      H        0.56080    0.23850    0.54510    1.000
    H11      H        0.69170    0.23980    0.76010    1.000
    H12      H        0.30830    0.76020    0.23990    1.000
    H13      H        0.28620    0.04020    0.28880    1.000
    H14      H        0.65780    0.33250    0.70450    1.000
    H15      H        0.28360    0.10590    0.95490    1.000
    H16      H        0.46300    0.63770    0.20450    1.000
    H17      H        0.56710    0.11530    0.52580    1.000
    H18      H        0.93740    0.68290    0.13970    1.000
    H19      H        0.34220    0.66750    0.29550    1.000
    H20      H        0.43290    0.88470    0.47420    1.000
    H21      H        0.38750    0.56680    0.35530    1.000
    H22      H        0.50010    0.54820    0.26010    1.000
    H23      H        0.53700    0.36230    0.79550    1.000
    H24      H        0.42210    0.74280    0.14470    1.000
    H25      H        0.43920    0.76150    0.45490    1.000
    H26      H        0.32260    0.07710    0.36030    1.000
    H27      H        0.85890    0.90710    0.02580    1.000
    H28      H        0.02150    0.92310    0.00240    1.000
    H29      H        0.49990    0.45180    0.73990    1.000
    H30      H        0.17100    0.42500    0.78880    1.000
    H31      H        0.71640    0.89410    0.04510    1.000
    H32      H        0.82900    0.57500    0.21120    1.000
    H33      H        0.71380    0.95980    0.71120    1.000
    H34      H        0.42550    0.02390    0.49760    1.000
    H35      H        0.73960    0.99430    0.79730    1.000
    H36      H        0.29160    0.53690    0.70270    1.000
    C1       C        0.61240    0.19530    0.61250    1.000
    C2       C        0.97060    0.87120    0.03560    1.000
    C3       C        0.61010    0.37220    0.63730    1.000
    C4       C        0.54290    0.90650    0.05360    1.000
    C5       C        0.87420    0.86090    0.04950    1.000
    C6       C        0.20460    0.21530    0.90250    1.000
    C7       C        0.42310    0.65850    0.40920    1.000
    C8       C        0.72200    0.03680    0.77240    1.000
    C9       C        0.69080    0.50560    0.27240    1.000
    C10      C        0.70530    0.01540    0.72150    1.000
    C11      C        0.30690    0.81890    0.24940    1.000
    C12      C        0.34610    0.03780    0.38310    1.000
    C13      C        0.27800    0.96320    0.22760    1.000
    C14      C        0.28590    0.88180    0.21150    1.000
    C15      C        0.51520    0.68930    0.17170    1.000
    C16      C        0.56830    0.55630    0.25060    1.000
    C17      C        0.35960    0.37120    0.80200    1.000
    C18      C        0.33460    0.15840    0.92200    1.000
    C19      C        0.45710    0.09350    0.94640    1.000
    C20      C        0.40680    0.00620    0.46440    1.000
    C21      C        0.64220    0.22430    0.66090    1.000
    C22      C        0.58960    0.07630    0.54950    1.000
    C23      C        0.46010    0.59650    0.44640    1.000
    C24      C        0.51440    0.42750    0.34530    1.000
    C25      C        0.65000    0.04700    0.63220    1.000
    C26      C        0.82080    0.71780    0.13220    1.000
    C27      C        0.36100    0.68690    0.32830    1.000
    C28      C        0.66540    0.84160    0.07800    1.000
    C29      C        0.49050    0.75260    0.13730    1.000
    C30      C        0.72720    0.14030    0.84530    1.000
    C31      C        0.32680    0.83840    0.30200    1.000
    C32      C        0.38520    0.30310    0.83910    1.000
    C33      C        0.62530    0.93420    0.57070    1.000
    C34      C        0.30920    0.49440    0.72760    1.000
    C35      C        0.74260    0.64000    0.18400    1.000
    C36      C        0.23690    0.42680    0.77850    1.000
    C37      C        0.41040    0.92370    0.45050    1.000
    C38      C        0.50950    0.24740    0.86270    1.000
    C39      C        0.12580    0.13910    0.95050    1.000
    C40      C        0.69220    0.77510    0.11250    1.000
    C41      C        0.61780    0.10710    0.59750    1.000
    C42      C        0.38220    0.89290    0.40250    1.000
    C43      C        0.53990    0.40350    0.55360    1.000
    C44      C        0.76310    0.57320    0.22150    1.000
    C45      C        0.07910    0.27080    0.88310    1.000
    C46      C        0.59320    0.99380    0.53560    1.000
    C47      C        0.25740    0.36000    0.81600    1.000
    C48      C        0.48480    0.31070    0.82830    1.000
    C49      C        0.41960    0.74340    0.42200    1.000
    C50      C        0.61480    0.69690    0.16090    1.000
    C51      C        0.17920    0.28220    0.86780    1.000
    C52      C        0.48560    0.57250    0.65470    1.000
    C53      C        0.56770    0.83230    0.09080    1.000
    C54      C        0.92090    0.72920    0.11690    1.000
    C55      C        0.63900    0.31310    0.67170    1.000
    C56      C        0.27280    0.85970    0.15470    1.000
    C57      C        0.61980    0.83750    0.55670    1.000
    C58      C        0.43230    0.16770    0.90920    1.000
    C59      C        0.00490    0.19600    0.92930    1.000
    C60      C        0.64040    0.62880    0.19800    1.000
    C61      C        0.38990    0.62780    0.36270    1.000
    C62      C        0.40670    0.50260    0.71150    1.000
    C63      C        0.37470    0.06580    0.42930    1.000
    C64      C        0.35000    0.95300    0.36780    1.000
    C65      C        0.10580    0.82350    0.05670    1.000
    C66      C        0.30780    0.22490    0.88750    1.000
    C67      C        0.35780    0.77570    0.33910    1.000
    C68      C        0.32400    0.92660    0.31600    1.000
    C69      C        0.69310    0.18110    0.75060    1.000
    C70      C        0.67600    0.07340    0.68400    1.000
    C71      C        0.89420    0.17650    0.94330    1.000
    C72      C        0.79540    0.78470    0.09750    1.000
    C73      C        0.38760    0.80470    0.38750    1.000
    C74      C        0.67320    0.16160    0.69800    1.000
    C75      C        0.29470    0.98460    0.27850    1.000
    C76      C        0.71410    0.11820    0.78850    1.000
    C77      C        0.99510    0.80400    0.07070    1.000
    C78      C        0.38020    0.16250    0.44330    1.000
    C79      C        0.65390    0.96220    0.61690    1.000
    C80      C        0.43170    0.44370    0.74940    1.000
    C81      C        0.58040    0.25660    0.57800    1.000
    C82      C        0.57690    0.34150    0.59080    1.000
    C83      C        0.59330    0.49740    0.28850    1.000
    C84      C        0.02940    0.12880    0.96440    1.000
    O1       O        0.67382    0.79788    0.57650    1.000
    O2       O        0.42441    0.40938    0.35461    1.000
    O3       O        0.38351    0.02239    0.98470    1.000
    O4       O        0.42815    0.19785    0.47480    1.000
    O5       O        0.87438    0.25032    0.92350    1.000
    O6       O        0.17265    0.90295    0.02520    1.000
    O7       O        0.32618    0.20212    0.42350    1.000
    O8       O        0.27806    0.93034    0.11440    1.000
    O9       O        0.46080    0.52030    0.43610    1.000
    O10      O        0.45640    0.89690    0.06390    1.000
    O11      O        0.57559    0.59062    0.64539    1.000
    O12      O        0.82735    0.09705    0.97480    1.000
    O13      O        0.12562    0.74968    0.07650    1.000
    O14      O        0.54360    0.10310    0.93610    1.000
    O15      O        0.45526    0.60754    0.61440    1.000
    O16      O        0.53920    0.47970    0.56390    1.000
    O17      O        0.73601    0.22098    0.85461    1.000
    O18      O        0.50709    0.36821    0.51530    1.000
    O19      O        0.49291    0.63179    0.48470    1.000
    O20      O        0.57185    0.80215    0.52520    1.000
    O21      O        0.54474    0.39246    0.38560    1.000
    O22      O        0.72194    0.06966    0.88560    1.000
    O23      O        0.26399    0.77902    0.14539    1.000
    O24      O        0.61649    0.97761    0.01530    1.000
