# CIF file generated by openbabel 3.1.0, see https://openbabel.org
data_I
_chemical_name_common 'cm301726k_si_004_clean'
_cell_length_a 12.5738
_cell_length_b 12.5738
_cell_length_c 14.334
_cell_angle_alpha 90
_cell_angle_beta 90
_cell_angle_gamma 120
_space_group_name_H-M_alt 'P 1'
_space_group_name_Hall 'P 1'
loop_
    _symmetry_equiv_pos_as_xyz
    x,y,z
loop_
    _atom_site_label
    _atom_site_type_symbol
    _atom_site_fract_x
    _atom_site_fract_y
    _atom_site_fract_z
    _atom_site_occupancy
    Mg1      Mg       0.20610    0.48650    0.50000    1.000
    Mg2      Mg       0.48650    0.28040    0.50000    1.000
    Mg3      Mg       0.28040    0.79390    0.50000    1.000
    Mg4      Mg       0.79390    0.51350    0.50000    1.000
    Mg5      Mg       0.71960    0.20610    0.50000    1.000
    Mg6      Mg       0.51350    0.71960    0.50000    1.000
    C7       C        0.48990    0.88040    0.64710    1.000
    C8       C        0.39350    0.48190    0.94850    1.000
    C9       C        0.91160    0.39380    0.94860    1.000
    C10      C        0.48940    0.88030    0.35300    1.000
    C11      C        0.70800    0.53460    0.10200    1.000
    C12      C        0.51010    0.11960    0.35290    1.000
    C13      C        0.50010    0.49990    0.10210    1.000
    C14      C        0.90770    0.39360    0.75000    1.000
    C15      C        0.60620    0.51780    0.94860    1.000
    C16      C        0.91160    0.39350    0.05150    1.000
    C17      C        0.48590    0.09220    0.25040    1.000
    C18      C        0.39090    0.51060    0.35300    1.000
    C19      C        0.49990    0.99980    0.89790    1.000
    C20      C        0.99980    0.49990    0.10210    1.000
    C21      C        0.08840    0.60620    0.05140    1.000
    C22      C        0.88040    0.39050    0.35290    1.000
    C23      C        0.70810    0.53330    0.80040    1.000
    C24      C        0.60910    0.48940    0.64700    1.000
    C25      C        0.17350    0.70800    0.10180    1.000
    C26      C        0.17440    0.70750    0.80050    1.000
    C27      C        0.08840    0.60650    0.94850    1.000
    C28      C        0.50020    0.00000    0.79740    1.000
    C29      C        0.51060    0.11970    0.64700    1.000
    C30      C        0.17480    0.70810    0.19960    1.000
    C31      C        0.49980    0.49980    0.79740    1.000
    C32      C        0.51780    0.91160    0.05140    1.000
    C33      C        0.09230    0.60640    0.25000    1.000
    C34      C        0.00020    0.50010    0.89790    1.000
    C35      C        0.50010    0.00020    0.10210    1.000
    C36      C        0.60650    0.51810    0.05150    1.000
    C37      C        0.39370    0.48590    0.74960    1.000
    C38      C        0.51410    0.90780    0.74960    1.000
    C39      C        0.60950    0.48990    0.35290    1.000
    C40      C        0.00000    0.50020    0.79740    1.000
    C41      C        0.82560    0.29250    0.19950    1.000
    C42      C        0.50020    0.50020    0.20260    1.000
    C43      C        0.46540    0.17340    0.10200    1.000
    C44      C        0.70750    0.53310    0.19950    1.000
    C45      C        0.60630    0.51410    0.25040    1.000
    C46      C        0.39360    0.48590    0.25000    1.000
    C47      C        0.29200    0.46540    0.89800    1.000
    C48      C        0.53310    0.82560    0.80050    1.000
    C49      C        0.48590    0.09230    0.75000    1.000
    C50      C        0.82660    0.29200    0.10200    1.000
    C51      C        0.29200    0.46550    0.10180    1.000
    C52      C        0.48220    0.08840    0.94860    1.000
    C53      C        0.09220    0.60630    0.74960    1.000
    C54      C        0.53330    0.82520    0.19960    1.000
    C55      C        0.46670    0.17480    0.80040    1.000
    C56      C        0.82520    0.29190    0.80040    1.000
    C57      C        0.51410    0.90770    0.25000    1.000
    C58      C        0.53460    0.82660    0.89800    1.000
    C59      C        0.90780    0.39370    0.25040    1.000
    C60      C        0.53450    0.82650    0.10180    1.000
    C61      C        0.11960    0.60950    0.64710    1.000
    C62      C        0.46690    0.17440    0.19950    1.000
    C63      C        0.60640    0.51410    0.75000    1.000
    C64      C        0.82650    0.29200    0.89820    1.000
    C65      C        0.46550    0.17350    0.89820    1.000
    C66      C        0.49990    0.50010    0.89790    1.000
    C67      C        0.51810    0.91160    0.94850    1.000
    C68      C        0.29250    0.46690    0.80050    1.000
    C69      C        0.11970    0.60910    0.35300    1.000
    C70      C        0.39380    0.48220    0.05140    1.000
    C71      C        0.29190    0.46670    0.19960    1.000
    C72      C        0.39050    0.51010    0.64710    1.000
    C73      C        0.88030    0.39090    0.64700    1.000
    C74      C        0.00000    0.49980    0.20260    1.000
    C75      C        0.49980    0.00000    0.20260    1.000
    C76      C        0.70800    0.53450    0.89820    1.000
    C77      C        0.17340    0.70800    0.89800    1.000
    C78      C        0.48190    0.08840    0.05150    1.000
    O79      O        0.48210    0.60440    0.38630    1.000
    O80      O        0.60410    0.12220    0.38620    1.000
    O81      O        0.87780    0.48190    0.38620    1.000
    O82      O        0.14560    0.70690    0.60350    1.000
    O83      O        0.14560    0.70700    0.39660    1.000
    O84      O        0.70700    0.56140    0.60340    1.000
    O85      O        0.70690    0.56130    0.39650    1.000
    O86      O        0.85440    0.29300    0.60340    1.000
    O87      O        0.56130    0.85440    0.60350    1.000
    O88      O        0.12220    0.51810    0.61380    1.000
    O89      O        0.43870    0.14560    0.39650    1.000
    O90      O        0.12230    0.51790    0.38630    1.000
    O91      O        0.33333    0.66666    0.50010    1.000
    O92      O        0.51790    0.39560    0.61370    1.000
    O93      O        0.56140    0.85440    0.39660    1.000
    O94      O        0.66667    0.33334    0.49990    1.000
    O95      O        0.60440    0.12230    0.61370    1.000
    O96      O        0.29310    0.43870    0.60350    1.000
    O97      O        0.51810    0.39590    0.38620    1.000
    O98      O        0.43860    0.14560    0.60340    1.000
    O99      O        0.39590    0.87780    0.61380    1.000
    O100     O        0.85440    0.29310    0.39650    1.000
    O101     O        0.29300    0.43860    0.39660    1.000
    O102     O        0.39560    0.87770    0.38630    1.000
    O103     O        0.87770    0.48210    0.61370    1.000
    O104     O        0.48190    0.60410    0.61380    1.000
    H105     H        0.79409    0.54977    0.06393    1.000
    H106     H        0.79435    0.54858    0.76251    1.000
    H107     H        0.24438    0.79399    0.06359    1.000
    H108     H        0.24579    0.79395    0.76306    1.000
    H109     H        0.24491    0.79327    0.23905    1.000
    H110     H        0.75548    0.20764    0.23925    1.000
    H111     H        0.45040    0.24332    0.06221    1.000
    H112     H        0.79236    0.54784    0.23925    1.000
    H113     H        0.20591    0.45023    0.93607    1.000
    H114     H        0.54816    0.75421    0.76306    1.000
    H115     H        0.75568    0.20591    0.06393    1.000
    H116     H        0.20601    0.45039    0.06359    1.000
    H117     H        0.54858    0.75423    0.23749    1.000
    H118     H        0.45142    0.24577    0.76251    1.000
    H119     H        0.75423    0.20565    0.76251    1.000
    H120     H        0.54960    0.75668    0.93779    1.000
    H121     H        0.54961    0.75562    0.06359    1.000
    H122     H        0.45216    0.24452    0.23925    1.000
    H123     H        0.75562    0.20601    0.93641    1.000
    H124     H        0.45039    0.24438    0.93641    1.000
    H125     H        0.20673    0.45164    0.23905    1.000
    H126     H        0.79399    0.54961    0.93641    1.000
    H127     H        0.24432    0.79409    0.93607    1.000
    H128     H        0.20605    0.45184    0.76306    1.000
