# CIF file generated by openbabel 3.1.0, see https://openbabel.org
data_I
_chemical_name_common 'image0'
_cell_length_a 24.03
_cell_length_b 24.03
_cell_length_c 12.815
_cell_angle_alpha 90
_cell_angle_beta 90
_cell_angle_gamma 120
_space_group_name_H-M_alt 'P 1'
_space_group_name_Hall 'P 1'
loop_
    _symmetry_equiv_pos_as_xyz
    x,y,z
loop_
    _atom_site_label
    _atom_site_type_symbol
    _atom_site_fract_x
    _atom_site_fract_y
    _atom_site_fract_z
    _atom_site_occupancy
    O1       O        0.28000    0.58150    0.31270    1.000
    N1       N        0.21740    0.54420    0.29480    1.000
    C1       C        0.19230    0.48000    0.29130    1.000
    H1       H        0.21850    0.46250    0.30370    1.000
    C2       C        0.12770    0.43980    0.26930    1.000
    H2       H        0.11140    0.39580    0.26290    1.000
    C3       C        0.08620    0.46570    0.25650    1.000
    C4       C        0.11570    0.53210    0.26540    1.000
    H3       H        0.09000    0.55090    0.26060    1.000
    C5       C        0.18150    0.57230    0.28100    1.000
    H4       H        0.19980    0.61680    0.28190    1.000
    C6       C        0.02120    0.42860    0.20240    1.000
    C7       C        0.01850    0.42570    0.29990    1.000
    O2       O        0.94667    0.91483    0.64603    1.000
    N2       N        0.88407    0.87753    0.62813    1.000
    C8       C        0.85897    0.81333    0.62463    1.000
    H5       H        0.88517    0.79583    0.63703    1.000
    C9       C        0.79437    0.77313    0.60263    1.000
    H6       H        0.77807    0.72913    0.59623    1.000
    C10      C        0.75287    0.79903    0.58983    1.000
    C11      C        0.78237    0.86543    0.59873    1.000
    H7       H        0.75667    0.88423    0.59393    1.000
    C12      C        0.84817    0.90563    0.61433    1.000
    H8       H        0.86647    0.95013    0.61523    1.000
    C13      C        0.68787    0.76193    0.53573    1.000
    C14      C        0.68517    0.75903    0.63323    1.000
    O3       O        0.61333    0.24817    0.97937    1.000
    N3       N        0.55073    0.21087    0.96147    1.000
    C15      C        0.52563    0.14667    0.95797    1.000
    H9       H        0.55183    0.12917    0.97037    1.000
    C16      C        0.46103    0.10647    0.93597    1.000
    H10      H        0.44473    0.06247    0.92957    1.000
    C17      C        0.41953    0.13237    0.92317    1.000
    C18      C        0.44903    0.19877    0.93207    1.000
    H11      H        0.42333    0.21757    0.92727    1.000
    C19      C        0.51483    0.23897    0.94767    1.000
    H12      H        0.53313    0.28347    0.94857    1.000
    C20      C        0.35453    0.09527    0.86907    1.000
    C21      C        0.35183    0.09237    0.96657    1.000
    O4       O        0.41850    0.69850    0.31270    1.000
    N4       N        0.45580    0.67320    0.29480    1.000
    C22      C        0.52000    0.71230    0.29130    1.000
    H13      H        0.53750    0.75600    0.30370    1.000
    C23      C        0.56020    0.68790    0.26930    1.000
    H14      H        0.60420    0.71560    0.26290    1.000
    C24      C        0.53430    0.62050    0.25650    1.000
    C25      C        0.46790    0.58360    0.26540    1.000
    H15      H        0.44910    0.53910    0.26060    1.000
    C26      C        0.42770    0.60920    0.28100    1.000
    H16      H        0.38320    0.58300    0.28190    1.000
    C27      C        0.57140    0.59260    0.20240    1.000
    C28      C        0.57430    0.59280    0.29990    1.000
    O5       O        0.08517    0.03183    0.64603    1.000
    N5       N        0.12247    0.00653    0.62813    1.000
    C29      C        0.18667    0.04563    0.62463    1.000
    H17      H        0.20417    0.08933    0.63703    1.000
    C30      C        0.22687    0.02123    0.60263    1.000
    H18      H        0.27087    0.04893    0.59623    1.000
    C31      C        0.20097    0.95383    0.58983    1.000
    C32      C        0.13457    0.91693    0.59873    1.000
    H19      H        0.11577    0.87243    0.59393    1.000
    C33      C        0.09437    0.94253    0.61433    1.000
    H20      H        0.04987    0.91633    0.61523    1.000
    C34      C        0.23807    0.92593    0.53573    1.000
    C35      C        0.24097    0.92613    0.63323    1.000
    O6       O        0.75183    0.36517    0.97937    1.000
    N6       N        0.78913    0.33987    0.96147    1.000
    C36      C        0.85333    0.37897    0.95797    1.000
    H21      H        0.87083    0.42267    0.97037    1.000
    C37      C        0.89353    0.35457    0.93597    1.000
    H22      H        0.93753    0.38227    0.92957    1.000
    C38      C        0.86763    0.28717    0.92317    1.000
    C39      C        0.80123    0.25027    0.93207    1.000
    H23      H        0.78243    0.20577    0.92727    1.000
    C40      C        0.76103    0.27587    0.94767    1.000
    H24      H        0.71653    0.24967    0.94857    1.000
    C41      C        0.90473    0.25927    0.86907    1.000
    C42      C        0.90763    0.25947    0.96657    1.000
    O7       O        0.30150    0.72000    0.31270    1.000
    N7       N        0.32680    0.78260    0.29480    1.000
    C43      C        0.28770    0.80770    0.29130    1.000
    H25      H        0.24400    0.78150    0.30370    1.000
    C44      C        0.31210    0.87230    0.26930    1.000
    H26      H        0.28440    0.88860    0.26290    1.000
    C45      C        0.37950    0.91380    0.25650    1.000
    C46      C        0.41640    0.88430    0.26540    1.000
    H27      H        0.46090    0.91000    0.26060    1.000
    C47      C        0.39080    0.81850    0.28100    1.000
    H28      H        0.41700    0.80020    0.28190    1.000
    C48      C        0.40740    0.97880    0.20240    1.000
    C49      C        0.40720    0.98150    0.29990    1.000
    O8       O        0.96817    0.05333    0.64603    1.000
    N8       N        0.99347    0.11593    0.62813    1.000
    C50      C        0.95437    0.14103    0.62463    1.000
    H29      H        0.91067    0.11483    0.63703    1.000
    C51      C        0.97877    0.20563    0.60263    1.000
    H30      H        0.95107    0.22193    0.59623    1.000
    C52      C        0.04617    0.24713    0.58983    1.000
    C53      C        0.08307    0.21763    0.59873    1.000
    H31      H        0.12757    0.24333    0.59393    1.000
    C54      C        0.05747    0.15183    0.61433    1.000
    H32      H        0.08367    0.13353    0.61523    1.000
    C55      C        0.07407    0.31213    0.53573    1.000
    C56      C        0.07387    0.31483    0.63323    1.000
    O9       O        0.63483    0.38667    0.97937    1.000
    N9       N        0.66013    0.44927    0.96147    1.000
    C57      C        0.62103    0.47437    0.95797    1.000
    H33      H        0.57733    0.44817    0.97037    1.000
    C58      C        0.64543    0.53897    0.93597    1.000
    H34      H        0.61773    0.55527    0.92957    1.000
    C59      C        0.71283    0.58047    0.92317    1.000
    C60      C        0.74973    0.55097    0.93207    1.000
    H35      H        0.79423    0.57667    0.92727    1.000
    C61      C        0.72413    0.48517    0.94767    1.000
    H36      H        0.75033    0.46687    0.94857    1.000
    C62      C        0.74073    0.64547    0.86907    1.000
    C63      C        0.74053    0.64817    0.96657    1.000
    O10      O        0.58150    0.28000    0.18730    1.000
    N10      N        0.54420    0.21740    0.20520    1.000
    C64      C        0.48000    0.19230    0.20870    1.000
    H37      H        0.46250    0.21850    0.19630    1.000
    C65      C        0.43980    0.12770    0.23070    1.000
    H38      H        0.39580    0.11140    0.23710    1.000
    C66      C        0.46570    0.08620    0.24350    1.000
    C67      C        0.53210    0.11570    0.23460    1.000
    H39      H        0.55090    0.09000    0.23940    1.000
    C68      C        0.57230    0.18150    0.21900    1.000
    H40      H        0.61680    0.19980    0.21810    1.000
    C69      C        0.42860    0.02120    0.29760    1.000
    C70      C        0.42570    0.01850    0.20010    1.000
    O11      O        0.24817    0.61333    0.52063    1.000
    N11      N        0.21087    0.55073    0.53853    1.000
    C71      C        0.14667    0.52563    0.54203    1.000
    H41      H        0.12917    0.55183    0.52963    1.000
    C72      C        0.10647    0.46103    0.56403    1.000
    H42      H        0.06247    0.44473    0.57043    1.000
    C73      C        0.13237    0.41953    0.57683    1.000
    C74      C        0.19877    0.44903    0.56793    1.000
    H43      H        0.21757    0.42333    0.57273    1.000
    C75      C        0.23897    0.51483    0.55233    1.000
    H44      H        0.28347    0.53313    0.55143    1.000
    C76      C        0.09527    0.35453    0.63093    1.000
    C77      C        0.09237    0.35183    0.53343    1.000
    O12      O        0.91483    0.94667    0.85397    1.000
    N12      N        0.87753    0.88407    0.87187    1.000
    C78      C        0.81333    0.85897    0.87537    1.000
    H45      H        0.79583    0.88517    0.86297    1.000
    C79      C        0.77313    0.79437    0.89737    1.000
    H46      H        0.72913    0.77807    0.90377    1.000
    C80      C        0.79903    0.75287    0.91017    1.000
    C81      C        0.86543    0.78237    0.90127    1.000
    H47      H        0.88423    0.75667    0.90607    1.000
    C82      C        0.90563    0.84817    0.88567    1.000
    H48      H        0.95013    0.86647    0.88477    1.000
    C83      C        0.76193    0.68787    0.96427    1.000
    C84      C        0.75903    0.68517    0.86677    1.000
    O13      O        0.69850    0.41850    0.18730    1.000
    N13      N        0.67320    0.45580    0.20520    1.000
    C85      C        0.71230    0.52000    0.20870    1.000
    H49      H        0.75600    0.53750    0.19630    1.000
    C86      C        0.68790    0.56020    0.23070    1.000
    H50      H        0.71560    0.60420    0.23710    1.000
    C87      C        0.62050    0.53430    0.24350    1.000
    C88      C        0.58360    0.46790    0.23460    1.000
    H51      H        0.53910    0.44910    0.23940    1.000
    C89      C        0.60920    0.42770    0.21900    1.000
    H52      H        0.58300    0.38320    0.21810    1.000
    C90      C        0.59260    0.57140    0.29760    1.000
    C91      C        0.59280    0.57430    0.20010    1.000
    O14      O        0.36517    0.75183    0.52063    1.000
    N14      N        0.33987    0.78913    0.53853    1.000
    C92      C        0.37897    0.85333    0.54203    1.000
    H53      H        0.42267    0.87083    0.52963    1.000
    C93      C        0.35457    0.89353    0.56403    1.000
    H54      H        0.38227    0.93753    0.57043    1.000
    C94      C        0.28717    0.86763    0.57683    1.000
    C95      C        0.25027    0.80123    0.56793    1.000
    H55      H        0.20577    0.78243    0.57273    1.000
    C96      C        0.27587    0.76103    0.55233    1.000
    H56      H        0.24967    0.71653    0.55143    1.000
    C97      C        0.25927    0.90473    0.63093    1.000
    C98      C        0.25947    0.90763    0.53343    1.000
    O15      O        0.03183    0.08517    0.85397    1.000
    N15      N        0.00653    0.12247    0.87187    1.000
    C99      C        0.04563    0.18667    0.87537    1.000
    H57      H        0.08933    0.20417    0.86297    1.000
    C100     C        0.02123    0.22687    0.89737    1.000
    H58      H        0.04893    0.27087    0.90377    1.000
    C101     C        0.95383    0.20097    0.91017    1.000
    C102     C        0.91693    0.13457    0.90127    1.000
    H59      H        0.87243    0.11577    0.90607    1.000
    C103     C        0.94253    0.09437    0.88567    1.000
    H60      H        0.91633    0.04987    0.88477    1.000
    C104     C        0.92593    0.23807    0.96427    1.000
    C105     C        0.92613    0.24097    0.86677    1.000
    O16      O        0.72000    0.30150    0.18730    1.000
    N16      N        0.78260    0.32680    0.20520    1.000
    C106     C        0.80770    0.28770    0.20870    1.000
    H61      H        0.78150    0.24400    0.19630    1.000
    C107     C        0.87230    0.31210    0.23070    1.000
    H62      H        0.88860    0.28440    0.23710    1.000
    C108     C        0.91380    0.37950    0.24350    1.000
    C109     C        0.88430    0.41640    0.23460    1.000
    H63      H        0.91000    0.46090    0.23940    1.000
    C110     C        0.81850    0.39080    0.21900    1.000
    H64      H        0.80020    0.41700    0.21810    1.000
    C111     C        0.97880    0.40740    0.29760    1.000
    C112     C        0.98150    0.40720    0.20010    1.000
    O17      O        0.38667    0.63483    0.52063    1.000
    N17      N        0.44927    0.66013    0.53853    1.000
    C113     C        0.47437    0.62103    0.54203    1.000
    H65      H        0.44817    0.57733    0.52963    1.000
    C114     C        0.53897    0.64543    0.56403    1.000
    H66      H        0.55527    0.61773    0.57043    1.000
    C115     C        0.58047    0.71283    0.57683    1.000
    C116     C        0.55097    0.74973    0.56793    1.000
    H67      H        0.57667    0.79423    0.57273    1.000
    C117     C        0.48517    0.72413    0.55233    1.000
    H68      H        0.46687    0.75033    0.55143    1.000
    C118     C        0.64547    0.74073    0.63093    1.000
    C119     C        0.64817    0.74053    0.53343    1.000
    O18      O        0.05333    0.96817    0.85397    1.000
    N18      N        0.11593    0.99347    0.87187    1.000
    C120     C        0.14103    0.95437    0.87537    1.000
    H69      H        0.11483    0.91067    0.86297    1.000
    C121     C        0.20563    0.97877    0.89737    1.000
    H70      H        0.22193    0.95107    0.90377    1.000
    C122     C        0.24713    0.04617    0.91017    1.000
    C123     C        0.21763    0.08307    0.90127    1.000
    H71      H        0.24333    0.12757    0.90607    1.000
    C124     C        0.15183    0.05747    0.88567    1.000
    H72      H        0.13353    0.08367    0.88477    1.000
    C125     C        0.31213    0.07407    0.96427    1.000
    C126     C        0.31483    0.07387    0.86677    1.000
    Er1      Er       0.66667    0.33333    0.08333    1.000
    Er2      Er       0.00000    0.00000    0.75000    1.000
    Er3      Er       0.33333    0.66667    0.41667    1.000
    O19      O        0.72000    0.41850    0.68730    1.000
    N19      N        0.78260    0.45580    0.70520    1.000
    C127     C        0.80770    0.52000    0.70870    1.000
    H73      H        0.78150    0.53750    0.69630    1.000
    C128     C        0.87230    0.56020    0.73070    1.000
    H74      H        0.88860    0.60420    0.73710    1.000
    C129     C        0.91380    0.53430    0.74350    1.000
    C130     C        0.88430    0.46790    0.73460    1.000
    H75      H        0.91000    0.44910    0.73940    1.000
    C131     C        0.81850    0.42770    0.71900    1.000
    H76      H        0.80020    0.38320    0.71810    1.000
    C132     C        0.97880    0.57140    0.79760    1.000
    C133     C        0.98150    0.57430    0.70010    1.000
    O20      O        0.38667    0.75183    0.02063    1.000
    N20      N        0.44927    0.78913    0.03853    1.000
    C134     C        0.47437    0.85333    0.04203    1.000
    H77      H        0.44817    0.87083    0.02963    1.000
    C135     C        0.53897    0.89353    0.06403    1.000
    H78      H        0.55527    0.93753    0.07043    1.000
    C136     C        0.58047    0.86763    0.07683    1.000
    C137     C        0.55097    0.80123    0.06793    1.000
    H79      H        0.57667    0.78243    0.07273    1.000
    C138     C        0.48517    0.76103    0.05233    1.000
    H80      H        0.46687    0.71653    0.05143    1.000
    C139     C        0.64547    0.90473    0.13093    1.000
    C140     C        0.64817    0.90763    0.03343    1.000
    O21      O        0.05333    0.08517    0.35397    1.000
    N21      N        0.11593    0.12247    0.37187    1.000
    C141     C        0.14103    0.18667    0.37537    1.000
    H81      H        0.11483    0.20417    0.36297    1.000
    C142     C        0.20563    0.22687    0.39737    1.000
    H82      H        0.22193    0.27087    0.40377    1.000
    C143     C        0.24713    0.20097    0.41017    1.000
    C144     C        0.21763    0.13457    0.40127    1.000
    H83      H        0.24333    0.11577    0.40607    1.000
    C145     C        0.15183    0.09437    0.38567    1.000
    H84      H        0.13353    0.04987    0.38477    1.000
    C146     C        0.31213    0.23807    0.46427    1.000
    C147     C        0.31483    0.24097    0.36677    1.000
    O22      O        0.58150    0.30150    0.68730    1.000
    N22      N        0.54420    0.32680    0.70520    1.000
    C148     C        0.48000    0.28770    0.70870    1.000
    H85      H        0.46250    0.24400    0.69630    1.000
    C149     C        0.43980    0.31210    0.73070    1.000
    H86      H        0.39580    0.28440    0.73710    1.000
    C150     C        0.46570    0.37950    0.74350    1.000
    C151     C        0.53210    0.41640    0.73460    1.000
    H87      H        0.55090    0.46090    0.73940    1.000
    C152     C        0.57230    0.39080    0.71900    1.000
    H88      H        0.61680    0.41700    0.71810    1.000
    C153     C        0.42860    0.40740    0.79760    1.000
    C154     C        0.42570    0.40720    0.70010    1.000
    O23      O        0.24817    0.63483    0.02063    1.000
    N23      N        0.21087    0.66013    0.03853    1.000
    C155     C        0.14667    0.62103    0.04203    1.000
    H89      H        0.12917    0.57733    0.02963    1.000
    C156     C        0.10647    0.64543    0.06403    1.000
    H90      H        0.06247    0.61773    0.07043    1.000
    C157     C        0.13237    0.71283    0.07683    1.000
    C158     C        0.19877    0.74973    0.06793    1.000
    H91      H        0.21757    0.79423    0.07273    1.000
    C159     C        0.23897    0.72413    0.05233    1.000
    H92      H        0.28347    0.75033    0.05143    1.000
    C160     C        0.09527    0.74073    0.13093    1.000
    C161     C        0.09237    0.74053    0.03343    1.000
    O24      O        0.91483    0.96817    0.35397    1.000
    N24      N        0.87753    0.99347    0.37187    1.000
    C162     C        0.81333    0.95437    0.37537    1.000
    H93      H        0.79583    0.91067    0.36297    1.000
    C163     C        0.77313    0.97877    0.39737    1.000
    H94      H        0.72913    0.95107    0.40377    1.000
    C164     C        0.79903    0.04617    0.41017    1.000
    C165     C        0.86543    0.08307    0.40127    1.000
    H95      H        0.88423    0.12757    0.40607    1.000
    C166     C        0.90563    0.05747    0.38567    1.000
    H96      H        0.95013    0.08367    0.38477    1.000
    C167     C        0.76193    0.07407    0.46427    1.000
    C168     C        0.75903    0.07387    0.36677    1.000
    O25      O        0.69850    0.28000    0.68730    1.000
    N25      N        0.67320    0.21740    0.70520    1.000
    C169     C        0.71230    0.19230    0.70870    1.000
    H97      H        0.75600    0.21850    0.69630    1.000
    C170     C        0.68790    0.12770    0.73070    1.000
    H98      H        0.71560    0.11140    0.73710    1.000
    C171     C        0.62050    0.08620    0.74350    1.000
    C172     C        0.58360    0.11570    0.73460    1.000
    H99      H        0.53910    0.09000    0.73940    1.000
    C173     C        0.60920    0.18150    0.71900    1.000
    H100     H        0.58300    0.19980    0.71810    1.000
    C174     C        0.59260    0.02120    0.79760    1.000
    C175     C        0.59280    0.01850    0.70010    1.000
    O26      O        0.36517    0.61333    0.02063    1.000
    N26      N        0.33987    0.55073    0.03853    1.000
    C176     C        0.37897    0.52563    0.04203    1.000
    H101     H        0.42267    0.55183    0.02963    1.000
    C177     C        0.35457    0.46103    0.06403    1.000
    H102     H        0.38227    0.44473    0.07043    1.000
    C178     C        0.28717    0.41953    0.07683    1.000
    C179     C        0.25027    0.44903    0.06793    1.000
    H103     H        0.20577    0.42333    0.07273    1.000
    C180     C        0.27587    0.51483    0.05233    1.000
    H104     H        0.24967    0.53313    0.05143    1.000
    C181     C        0.25927    0.35453    0.13093    1.000
    C182     C        0.25947    0.35183    0.03343    1.000
    O27      O        0.03183    0.94667    0.35397    1.000
    N27      N        0.00653    0.88407    0.37187    1.000
    C183     C        0.04563    0.85897    0.37537    1.000
    H105     H        0.08933    0.88517    0.36297    1.000
    C184     C        0.02123    0.79437    0.39737    1.000
    H106     H        0.04893    0.77807    0.40377    1.000
    C185     C        0.95383    0.75287    0.41017    1.000
    C186     C        0.91693    0.78237    0.40127    1.000
    H107     H        0.87243    0.75667    0.40607    1.000
    C187     C        0.94253    0.84817    0.38567    1.000
    H108     H        0.91633    0.86647    0.38477    1.000
    C188     C        0.92593    0.68787    0.46427    1.000
    C189     C        0.92613    0.68517    0.36677    1.000
    O28      O        0.41850    0.72000    0.81270    1.000
    N28      N        0.45580    0.78260    0.79480    1.000
    C190     C        0.52000    0.80770    0.79130    1.000
    H109     H        0.53750    0.78150    0.80370    1.000
    C191     C        0.56020    0.87230    0.76930    1.000
    H110     H        0.60420    0.88860    0.76290    1.000
    C192     C        0.53430    0.91380    0.75650    1.000
    C193     C        0.46790    0.88430    0.76540    1.000
    H111     H        0.44910    0.91000    0.76060    1.000
    C194     C        0.42770    0.81850    0.78100    1.000
    H112     H        0.38320    0.80020    0.78190    1.000
    C195     C        0.57140    0.97880    0.70240    1.000
    C196     C        0.57430    0.98150    0.79990    1.000
    O29      O        0.08517    0.05333    0.14603    1.000
    N29      N        0.12247    0.11593    0.12813    1.000
    C197     C        0.18667    0.14103    0.12463    1.000
    H113     H        0.20417    0.11483    0.13703    1.000
    C198     C        0.22687    0.20563    0.10263    1.000
    H114     H        0.27087    0.22193    0.09623    1.000
    C199     C        0.20097    0.24713    0.08983    1.000
    C200     C        0.13457    0.21763    0.09873    1.000
    H115     H        0.11577    0.24333    0.09393    1.000
    C201     C        0.09437    0.15183    0.11433    1.000
    H116     H        0.04987    0.13353    0.11523    1.000
    C202     C        0.23807    0.31213    0.03573    1.000
    C203     C        0.24097    0.31483    0.13323    1.000
    O30      O        0.75183    0.38667    0.47937    1.000
    N30      N        0.78913    0.44927    0.46147    1.000
    C204     C        0.85333    0.47437    0.45797    1.000
    H117     H        0.87083    0.44817    0.47037    1.000
    C205     C        0.89353    0.53897    0.43597    1.000
    H118     H        0.93753    0.55527    0.42957    1.000
    C206     C        0.86763    0.58047    0.42317    1.000
    C207     C        0.80123    0.55097    0.43207    1.000
    H119     H        0.78243    0.57667    0.42727    1.000
    C208     C        0.76103    0.48517    0.44767    1.000
    H120     H        0.71653    0.46687    0.44857    1.000
    C209     C        0.90473    0.64547    0.36907    1.000
    C210     C        0.90763    0.64817    0.46657    1.000
    O31      O        0.30150    0.58150    0.81270    1.000
    N31      N        0.32680    0.54420    0.79480    1.000
    C211     C        0.28770    0.48000    0.79130    1.000
    H121     H        0.24400    0.46250    0.80370    1.000
    C212     C        0.31210    0.43980    0.76930    1.000
    H122     H        0.28440    0.39580    0.76290    1.000
    C213     C        0.37950    0.46570    0.75650    1.000
    C214     C        0.41640    0.53210    0.76540    1.000
    H123     H        0.46090    0.55090    0.76060    1.000
    C215     C        0.39080    0.57230    0.78100    1.000
    H124     H        0.41700    0.61680    0.78190    1.000
    C216     C        0.40740    0.42860    0.70240    1.000
    C217     C        0.40720    0.42570    0.79990    1.000
    O32      O        0.96817    0.91483    0.14603    1.000
    N32      N        0.99347    0.87753    0.12813    1.000
    C218     C        0.95437    0.81333    0.12463    1.000
    H125     H        0.91067    0.79583    0.13703    1.000
    C219     C        0.97877    0.77313    0.10263    1.000
    H126     H        0.95107    0.72913    0.09623    1.000
    C220     C        0.04617    0.79903    0.08983    1.000
    C221     C        0.08307    0.86543    0.09873    1.000
    H127     H        0.12757    0.88423    0.09393    1.000
    C222     C        0.05747    0.90563    0.11433    1.000
    H128     H        0.08367    0.95013    0.11523    1.000
    C223     C        0.07407    0.76193    0.03573    1.000
    C224     C        0.07387    0.75903    0.13323    1.000
    O33      O        0.63483    0.24817    0.47937    1.000
    N33      N        0.66013    0.21087    0.46147    1.000
    C225     C        0.62103    0.14667    0.45797    1.000
    H129     H        0.57733    0.12917    0.47037    1.000
    C226     C        0.64543    0.10647    0.43597    1.000
    H130     H        0.61773    0.06247    0.42957    1.000
    C227     C        0.71283    0.13237    0.42317    1.000
    C228     C        0.74973    0.19877    0.43207    1.000
    H131     H        0.79423    0.21757    0.42727    1.000
    C229     C        0.72413    0.23897    0.44767    1.000
    H132     H        0.75033    0.28347    0.44857    1.000
    C230     C        0.74073    0.09527    0.36907    1.000
    C231     C        0.74053    0.09237    0.46657    1.000
    O34      O        0.28000    0.69850    0.81270    1.000
    N34      N        0.21740    0.67320    0.79480    1.000
    C232     C        0.19230    0.71230    0.79130    1.000
    H133     H        0.21850    0.75600    0.80370    1.000
    C233     C        0.12770    0.68790    0.76930    1.000
    H134     H        0.11140    0.71560    0.76290    1.000
    C234     C        0.08620    0.62050    0.75650    1.000
    C235     C        0.11570    0.58360    0.76540    1.000
    H135     H        0.09000    0.53910    0.76060    1.000
    C236     C        0.18150    0.60920    0.78100    1.000
    H136     H        0.19980    0.58300    0.78190    1.000
    C237     C        0.02120    0.59260    0.70240    1.000
    C238     C        0.01850    0.59280    0.79990    1.000
    O35      O        0.94667    0.03183    0.14603    1.000
    N35      N        0.88407    0.00653    0.12813    1.000
    C239     C        0.85897    0.04563    0.12463    1.000
    H137     H        0.88517    0.08933    0.13703    1.000
    C240     C        0.79437    0.02123    0.10263    1.000
    H138     H        0.77807    0.04893    0.09623    1.000
    C241     C        0.75287    0.95383    0.08983    1.000
    C242     C        0.78237    0.91693    0.09873    1.000
    H139     H        0.75667    0.87243    0.09393    1.000
    C243     C        0.84817    0.94253    0.11433    1.000
    H140     H        0.86647    0.91633    0.11523    1.000
    C244     C        0.68787    0.92593    0.03573    1.000
    C245     C        0.68517    0.92613    0.13323    1.000
    O36      O        0.61333    0.36517    0.47937    1.000
    N36      N        0.55073    0.33987    0.46147    1.000
    C246     C        0.52563    0.37897    0.45797    1.000
    H141     H        0.55183    0.42267    0.47037    1.000
    C247     C        0.46103    0.35457    0.43597    1.000
    H142     H        0.44473    0.38227    0.42957    1.000
    C248     C        0.41953    0.28717    0.42317    1.000
    C249     C        0.44903    0.25027    0.43207    1.000
    H143     H        0.42333    0.20577    0.42727    1.000
    C250     C        0.51483    0.27587    0.44767    1.000
    H144     H        0.53313    0.24967    0.44857    1.000
    C251     C        0.35453    0.25927    0.36907    1.000
    C252     C        0.35183    0.25947    0.46657    1.000
    Er4      Er       0.33333    0.66667    0.91667    1.000
    Er5      Er       0.00000    0.00000    0.25000    1.000
    Er6      Er       0.66667    0.33333    0.58333    1.000
