data_functionalizedCrystal
_audit_creation_method	'EQeq! by Chris Wilmer'
_symmetry_space_group_name_H-M	'P1'
_symmetry_Int_Tables_number	1
_symmetry_cell_setting	triclinic
loop_
_symmetry_equiv_pos_as_xyz
  x,y,z
_cell_length_a	14.719
_cell_length_b	14.734
_cell_length_c	17.891
_cell_angle_alpha	90
_cell_angle_beta	90
_cell_angle_gamma	90.02
loop_
_atom_site_label
_atom_site_type_symbol
_atom_site_fract_x
_atom_site_fract_y
_atom_site_fract_z
_atom_site_charge
Mof_Co	Co	0.9948	0.1186	0.3313	1.176
Mof_Co	Co	0.0132	0.8804	0.1721	1.181
Mof_Co	Co	0.3685	0.254	0.4223	1.178
Mof_Co	Co	0.8706	0.7624	0.4183	1.184
Mof_P 	P 	0.1479	0.246	0.4001	0.525
Mof_P 	P 	0.003	0.8992	0.3523	0.502
Mof_P 	P 	0.9885	0.1022	0.1499	0.543
Mof_P 	P 	0.8506	0.7612	0.1027	0.55
Mof_O 	O 	0.9858	0.9992	0.3759	-0.383
Mof_O 	O 	0.9048	0.8691	0.3564	-0.404
Mof_O 	O 	0.75	0.7689	0.1251	-0.393
Mof_O 	O 	0.1121	0.1762	0.342	-0.433
Mof_O 	O 	0.1449	0.1996	0.4794	-0.436
Mof_O 	O 	0.0569	0.8454	0.4133	-0.448
Mof_O 	O 	0.9502	0.1015	0.2281	-0.448
Mof_O 	O 	0.901	0.8161	0.1608	-0.453
Mof_O 	O 	0.0122	0.0028	0.128	-0.389
Mof_O 	O 	0.2471	0.2621	0.3772	-0.396
Mof_O 	O 	0.88	0.6592	0.1119	-0.416
Mof_O 	O 	0.8692	0.7963	0.0267	-0.465
Mof_O 	O 	0.9165	0.1332	0.0943	-0.438
Mof_O 	O 	0.0958	0.3334	0.4012	-0.435
Mof_O 	O 	0.0743	0.1584	0.1457	-0.445
Mof_O 	O 	0.0475	0.8788	0.2749	-0.454
Mof_Co	Co	0.4948	0.6186	0.8313	1.18
Mof_Co	Co	0.5132	0.3804	0.6721	1.185
Mof_Co	Co	0.8685	0.754	0.9223	1.179
Mof_Co	Co	0.3706	0.2624	0.9183	1.184
Mof_P 	P 	0.6479	0.746	0.9001	0.526
Mof_P 	P 	0.503	0.3992	0.8523	0.513
Mof_P 	P 	0.4885	0.6022	0.6499	0.553
Mof_P 	P 	0.3506	0.2612	0.6027	0.551
Mof_O 	O 	0.4858	0.4992	0.8759	-0.391
Mof_O 	O 	0.4048	0.3691	0.8564	-0.409
Mof_O 	O 	0.25	0.2689	0.6251	-0.394
Mof_O 	O 	0.6121	0.6762	0.842	-0.436
Mof_O 	O 	0.6449	0.6996	0.9794	-0.437
Mof_O 	O 	0.5569	0.3454	0.9133	-0.447
Mof_O 	O 	0.4502	0.6015	0.7281	-0.447
Mof_O 	O 	0.401	0.3161	0.6608	-0.456
Mof_O 	O 	0.5122	0.5028	0.628	-0.398
Mof_O 	O 	0.7471	0.7621	0.8772	-0.396
Mof_O 	O 	0.38	0.1592	0.6119	-0.417
Mof_O 	O 	0.3692	0.2963	0.5267	-0.467
Mof_O 	O 	0.4165	0.6332	0.5943	-0.437
Mof_O 	O 	0.5958	0.8334	0.9012	-0.436
Mof_O 	O 	0.5743	0.6584	0.6457	-0.451
Mof_O 	O 	0.5475	0.3788	0.7749	-0.453
Mof_Co	Co	0.0052	0.3814	0.3313	1.181
Mof_Co	Co	0.9868	0.6196	0.1721	1.187
Mof_Co	Co	0.6315	0.246	0.4223	1.179
Mof_Co	Co	0.1294	0.7376	0.4183	1.184
Mof_P 	P 	0.8521	0.254	0.4001	0.526
Mof_P 	P 	0.997	0.6008	0.3523	0.516
Mof_P 	P 	0.0115	0.3978	0.1499	0.556
Mof_P 	P 	0.1494	0.7388	0.1027	0.551
Mof_O 	O 	0.0142	0.5008	0.3759	-0.391
Mof_O 	O 	0.0952	0.6309	0.3564	-0.41
Mof_O 	O 	0.25	0.7311	0.1251	-0.394
Mof_O 	O 	0.8879	0.3238	0.342	-0.437
Mof_O 	O 	0.8551	0.3004	0.4794	-0.437
Mof_O 	O 	0.9431	0.6546	0.4133	-0.446
Mof_O 	O 	0.0498	0.3985	0.2281	-0.446
Mof_O 	O 	0.099	0.6839	0.1608	-0.457
Mof_O 	O 	0.9878	0.4972	0.128	-0.398
Mof_O 	O 	0.7529	0.2379	0.3772	-0.397
Mof_O 	O 	0.12	0.8408	0.1119	-0.419
Mof_O 	O 	0.1308	0.7037	0.0267	-0.467
Mof_O 	O 	0.0835	0.3668	0.0943	-0.437
Mof_O 	O 	0.9042	0.1666	0.4012	-0.439
Mof_O 	O 	0.9257	0.3416	0.1457	-0.452
Mof_O 	O 	0.9525	0.6212	0.2749	-0.453
Mof_Co	Co	0.5052	0.8814	0.8313	1.18
Mof_Co	Co	0.4868	0.1196	0.6721	1.185
Mof_Co	Co	0.1315	0.746	0.9223	1.179
Mof_Co	Co	0.6294	0.2376	0.9183	1.184
Mof_P 	P 	0.3521	0.754	0.9001	0.526
Mof_P 	P 	0.497	0.1008	0.8523	0.513
Mof_P 	P 	0.5115	0.8978	0.6499	0.553
Mof_P 	P 	0.6494	0.2388	0.6027	0.551
Mof_O 	O 	0.5142	0.0008	0.8759	-0.392
Mof_O 	O 	0.5952	0.1309	0.8564	-0.409
Mof_O 	O 	0.75	0.2311	0.6251	-0.394
Mof_O 	O 	0.3879	0.8238	0.842	-0.437
Mof_O 	O 	0.3551	0.8004	0.9794	-0.438
Mof_O 	O 	0.4431	0.1546	0.9133	-0.447
Mof_O 	O 	0.5498	0.8985	0.7281	-0.447
Mof_O 	O 	0.599	0.1839	0.6608	-0.457
Mof_O 	O 	0.4878	0.9972	0.628	-0.399
Mof_O 	O 	0.2529	0.7379	0.8772	-0.397
Mof_O 	O 	0.62	0.3408	0.6119	-0.417
Mof_O 	O 	0.6308	0.2037	0.5267	-0.467
Mof_O 	O 	0.5835	0.8668	0.5943	-0.437
Mof_O 	O 	0.4042	0.6666	0.9012	-0.436
Mof_O 	O 	0.4257	0.8416	0.6457	-0.451
Mof_O 	O 	0.4525	0.1212	0.7749	-0.453
Mof_Co	Co	0.0052	0.8814	0.6687	1.177
Mof_Co	Co	0.9868	0.1196	0.8279	1.182
Mof_Co	Co	0.6315	0.746	0.5777	1.179
Mof_Co	Co	0.1294	0.2376	0.5817	1.185
Mof_P 	P 	0.8521	0.754	0.5999	0.526
Mof_P 	P 	0.997	0.1008	0.6477	0.503
Mof_P 	P 	0.0115	0.8978	0.8501	0.544
Mof_P 	P 	0.1494	0.2388	0.8973	0.551
Mof_O 	O 	0.0142	0.0008	0.6241	-0.382
Mof_O 	O 	0.0952	0.1309	0.6436	-0.403
Mof_O 	O 	0.25	0.2311	0.8749	-0.393
Mof_O 	O 	0.8879	0.8238	0.658	-0.433
Mof_O 	O 	0.8551	0.8004	0.5206	-0.436
Mof_O 	O 	0.9431	0.1546	0.5867	-0.448
Mof_O 	O 	0.0498	0.8985	0.7719	-0.448
Mof_O 	O 	0.099	0.1839	0.8392	-0.453
Mof_O 	O 	0.9878	0.9972	0.872	-0.389
Mof_O 	O 	0.7529	0.7379	0.6228	-0.396
Mof_O 	O 	0.12	0.3408	0.8881	-0.416
Mof_O 	O 	0.1308	0.2037	0.9733	-0.465
Mof_O 	O 	0.0835	0.8668	0.9057	-0.438
Mof_O 	O 	0.9042	0.6666	0.5988	-0.435
Mof_O 	O 	0.9257	0.8416	0.8543	-0.445
Mof_O 	O 	0.9525	0.1212	0.7251	-0.454
Mof_Co	Co	0.5052	0.3814	0.1687	1.18
Mof_Co	Co	0.4868	0.6196	0.3279	1.185
Mof_Co	Co	0.1315	0.246	0.0777	1.179
Mof_Co	Co	0.6294	0.7376	0.0817	1.184
Mof_P 	P 	0.3521	0.254	0.0999	0.526
Mof_P 	P 	0.497	0.6008	0.1477	0.513
Mof_P 	P 	0.5115	0.3978	0.3501	0.553
Mof_P 	P 	0.6494	0.7388	0.3973	0.551
Mof_O 	O 	0.5142	0.5008	0.1241	-0.391
Mof_O 	O 	0.5952	0.6309	0.1436	-0.409
Mof_O 	O 	0.75	0.7311	0.3749	-0.394
Mof_O 	O 	0.3879	0.3238	0.158	-0.436
Mof_O 	O 	0.3551	0.3004	0.0206	-0.437
Mof_O 	O 	0.4431	0.6546	0.0867	-0.447
Mof_O 	O 	0.5498	0.3985	0.2719	-0.447
Mof_O 	O 	0.599	0.6839	0.3392	-0.456
Mof_O 	O 	0.4878	0.4972	0.372	-0.398
Mof_O 	O 	0.2529	0.2379	0.1228	-0.396
Mof_O 	O 	0.62	0.8408	0.3881	-0.417
Mof_O 	O 	0.6308	0.7037	0.4733	-0.467
Mof_O 	O 	0.5835	0.3668	0.4057	-0.437
Mof_O 	O 	0.4042	0.1666	0.0988	-0.436
Mof_O 	O 	0.4257	0.3416	0.3543	-0.451
Mof_O 	O 	0.4525	0.6212	0.2251	-0.453
Mof_Co	Co	0.9948	0.6186	0.6687	1.181
Mof_Co	Co	0.0132	0.3804	0.8279	1.187
Mof_Co	Co	0.3685	0.754	0.5777	1.179
Mof_Co	Co	0.8706	0.2624	0.5817	1.184
Mof_P 	P 	0.1479	0.746	0.5999	0.526
Mof_P 	P 	0.003	0.3992	0.6477	0.516
Mof_P 	P 	0.9885	0.6022	0.8501	0.556
Mof_P 	P 	0.8506	0.2612	0.8973	0.551
Mof_O 	O 	0.9858	0.4992	0.6241	-0.391
Mof_O 	O 	0.9048	0.3691	0.6436	-0.41
Mof_O 	O 	0.75	0.2689	0.8749	-0.394
Mof_O 	O 	0.1121	0.6762	0.658	-0.437
Mof_O 	O 	0.1449	0.6996	0.5206	-0.437
Mof_O 	O 	0.0569	0.3454	0.5867	-0.446
Mof_O 	O 	0.9502	0.6015	0.7719	-0.446
Mof_O 	O 	0.901	0.3161	0.8392	-0.457
Mof_O 	O 	0.0122	0.5028	0.872	-0.398
Mof_O 	O 	0.2471	0.7621	0.6228	-0.397
Mof_O 	O 	0.88	0.1592	0.8881	-0.419
Mof_O 	O 	0.8692	0.2963	0.9733	-0.467
Mof_O 	O 	0.9165	0.6332	0.9057	-0.437
Mof_O 	O 	0.0958	0.8334	0.5988	-0.439
Mof_O 	O 	0.0743	0.6584	0.8543	-0.452
Mof_O 	O 	0.0475	0.3788	0.7251	-0.453
Mof_Co	Co	0.4948	0.1186	0.1687	1.18
Mof_Co	Co	0.5132	0.8804	0.3279	1.185
Mof_Co	Co	0.8685	0.254	0.0777	1.179
Mof_Co	Co	0.3706	0.7624	0.0817	1.184
Mof_P 	P 	0.6479	0.246	0.0999	0.526
Mof_P 	P 	0.503	0.8992	0.1477	0.513
Mof_P 	P 	0.4885	0.1022	0.3501	0.553
Mof_P 	P 	0.3506	0.7612	0.3973	0.551
Mof_O 	O 	0.4858	0.9992	0.1241	-0.392
Mof_O 	O 	0.4048	0.8691	0.1436	-0.409
Mof_O 	O 	0.25	0.7689	0.3749	-0.394
Mof_O 	O 	0.6121	0.1762	0.158	-0.437
Mof_O 	O 	0.6449	0.1996	0.0206	-0.438
Mof_O 	O 	0.5569	0.8454	0.0867	-0.447
Mof_O 	O 	0.4502	0.1015	0.2719	-0.447
Mof_O 	O 	0.401	0.8161	0.3392	-0.457
Mof_O 	O 	0.5122	0.0028	0.372	-0.399
Mof_O 	O 	0.7471	0.2621	0.1228	-0.397
Mof_O 	O 	0.38	0.6592	0.3881	-0.417
Mof_O 	O 	0.3692	0.7963	0.4733	-0.467
Mof_O 	O 	0.4165	0.1332	0.4057	-0.437
Mof_O 	O 	0.5958	0.3334	0.0988	-0.436
Mof_O 	O 	0.5743	0.1584	0.3543	-0.451
Mof_O 	O 	0.5475	0.8788	0.2251	-0.453
_end
