data_functionalizedCrystal
_audit_creation_method	'EQeq! by Chris Wilmer'
_symmetry_space_group_name_H-M	'P1'
_symmetry_Int_Tables_number	1
_symmetry_cell_setting	triclinic
loop_
_symmetry_equiv_pos_as_xyz
  x,y,z
_cell_length_a	16.9489
_cell_length_b	20.4436
_cell_length_c	23.1265
_cell_angle_alpha	112.007
_cell_angle_beta	90
_cell_angle_gamma	90
loop_
_atom_site_label
_atom_site_type_symbol
_atom_site_fract_x
_atom_site_fract_y
_atom_site_fract_z
_atom_site_charge
Mof_Cu	Cu	0.18444	0.45419	0.05136	0.863
Mof_Cu	Cu	0.39922	0.54178	0.88425	0.856
Mof_Cu	Cu	0.29715	0.0613	0.34427	0.85
Mof_Cu	Cu	0.2287	0.98509	0.9421	0.876
Mof_Cu	Cu	0.68444	0.04581	0.44864	0.864
Mof_Cu	Cu	0.89922	0.95822	0.61575	0.859
Mof_Cu	Cu	0.79715	0.4387	0.15573	0.852
Mof_Cu	Cu	0.7287	0.51491	0.5579	0.873
Mof_Cu	Cu	0.81556	0.54581	0.94864	0.867
Mof_Cu	Cu	0.60078	0.45822	0.11575	0.854
Mof_Cu	Cu	0.70285	0.9387	0.65573	0.852
Mof_Cu	Cu	0.7713	0.01491	0.0579	0.868
Mof_Cu	Cu	0.31556	0.95419	0.55136	0.867
Mof_Cu	Cu	0.10078	0.04178	0.38425	0.849
Mof_Cu	Cu	0.20285	0.5613	0.84427	0.851
Mof_Cu	Cu	0.2713	0.48509	0.4421	0.872
Mof_Cu	Cu	0.5	0.5	0.5	0.874
Mof_Cu	Cu	-0	0	-0	0.859
Mof_H 	H 	0.2741	0.4308	0.3284	0.123
Mof_H 	H 	0.9511	0.4791	0.8546	0.003
Mof_H 	H 	0.3402	0.5526	0.0913	0.079
Mof_H 	H 	0.3151	0.6075	0.503	0.166
Mof_H 	H 	0.0829	0.4592	0.855	0.102
Mof_H 	H 	0.4693	0.3828	0.4277	0.139
Mof_H 	H 	0.214	0.0401	0.055	0.166
Mof_H 	H 	0.2635	0.8631	0.8867	0.123
Mof_H 	H 	0.3332	0.9357	0.2354	0.015
Mof_H 	H 	0.4147	0.4017	0.9346	0.076
Mof_H 	H 	0.9536	0.6123	0.0262	0.002
Mof_H 	H 	0.5219	0.3841	0.9897	0.044
Mof_H 	H 	0.4477	0.5352	0.1421	0.023
Mof_H 	H 	0.0864	0.5983	0.0337	0.154
Mof_H 	H 	0.3794	0.6559	0.8208	0.025
Mof_H 	H 	0.3841	0.7059	0.5254	0.094
Mof_H 	H 	0.3073	0.168	0.4746	0.021
Mof_H 	H 	0.37	0.3876	0.6588	0.159
Mof_H 	H 	0.1946	0.5784	0.1723	0.05
Mof_H 	H 	0.4891	0.5401	0.6115	0.167
Mof_H 	H 	0.5169	0.5587	0.8004	-0.013
Mof_H 	H 	0.5352	0.5391	0.6973	0.093
Mof_H 	H 	0.3037	0.4061	0.2281	0.086
Mof_H 	H 	0.3475	0.4224	0.7631	0.106
Mof_H 	H 	0.2701	0.386	0.127	-0.002
Mof_H 	H 	0.3312	0.7687	0.8487	0.102
Mof_H 	H 	0.3534	0.6646	0.9905	0.042
Mof_H 	H 	0.3602	0.2747	0.5315	0.135
Mof_H 	H 	0.3196	0.8944	0.1283	0.134
Mof_H 	H 	0.375	0.828	0.5713	0.024
Mof_H 	H 	0.2242	0.6028	0.2722	0.127
Mof_H 	H 	0.2342	0.7166	0.3929	0.12
Mof_H 	H 	0.2436	0.0852	0.143	0.138
Mof_H 	H 	0.2435	0.8365	0.4362	0.023
Mof_H 	H 	0.3383	0.7872	0.0255	0.103
Mof_H 	H 	0.2638	0.1225	0.2528	0.024
Mof_H 	H 	0.4632	0.276	0.3808	0.128
Mof_H 	H 	0.4118	0.1641	0.3264	-0.007
Mof_H 	H 	0.7741	0.0692	0.1716	0.123
Mof_H 	H 	0.4511	0.0209	0.6454	-0.007
Mof_H 	H 	0.8402	0.9474	0.4087	0.089
Mof_H 	H 	0.8151	0.8925	0.997	0.171
Mof_H 	H 	0.5829	0.0408	0.645	0.104
Mof_H 	H 	0.9693	0.1172	0.0723	0.142
Mof_H 	H 	0.714	0.4599	0.445	0.168
Mof_H 	H 	0.7635	0.6369	0.6133	0.123
Mof_H 	H 	0.8332	0.5643	0.2646	0.021
Mof_H 	H 	0.9147	0.0983	0.5654	0.101
Mof_H 	H 	0.4536	0.8877	0.4738	0.012
Mof_H 	H 	0.0219	0.1159	0.5103	0.002
Mof_H 	H 	0.9477	0.9648	0.3579	0.019
Mof_H 	H 	0.5864	0.9017	0.4663	0.157
Mof_H 	H 	0.8794	0.8441	0.6792	0.025
Mof_H 	H 	0.8841	0.7941	0.9746	0.094
Mof_H 	H 	0.8073	0.332	0.0254	0.014
Mof_H 	H 	0.87	0.1124	0.8412	0.158
Mof_H 	H 	0.6946	0.9216	0.3277	0.047
Mof_H 	H 	0.9891	0.9599	0.8885	0.172
Mof_H 	H 	0.0169	0.9413	0.6996	-0.024
Mof_H 	H 	0.0352	0.9609	0.8027	0.08
Mof_H 	H 	0.8037	0.0939	0.2719	0.093
Mof_H 	H 	0.8475	0.0776	0.7369	0.107
Mof_H 	H 	0.7701	0.114	0.373	-0.004
Mof_H 	H 	0.8312	0.7313	0.6513	0.105
Mof_H 	H 	0.8534	0.8354	0.5095	0.038
Mof_H 	H 	0.8602	0.2253	0.9685	0.152
Mof_H 	H 	0.8196	0.6056	0.3717	0.129
Mof_H 	H 	0.875	0.672	0.9287	0.026
Mof_H 	H 	0.7242	0.8972	0.2278	0.132
Mof_H 	H 	0.7342	0.7834	0.1071	0.118
Mof_H 	H 	0.7436	0.4148	0.357	0.131
Mof_H 	H 	0.7435	0.6635	0.0638	0.025
Mof_H 	H 	0.8383	0.7128	0.4745	0.113
Mof_H 	H 	0.7638	0.3775	0.2472	0.028
Mof_H 	H 	0.9632	0.224	0.1192	0.136
Mof_H 	H 	0.9118	0.3359	0.1736	-0.007
Mof_H 	H 	0.7259	0.5692	0.6716	0.124
Mof_H 	H 	0.0489	0.5209	0.1454	0.018
Mof_H 	H 	0.6598	0.4474	0.9087	0.096
Mof_H 	H 	0.6849	0.3925	0.497	0.167
Mof_H 	H 	0.9171	0.5408	0.145	0.081
Mof_H 	H 	0.5307	0.6172	0.5723	0.139
Mof_H 	H 	0.786	0.9599	0.945	0.169
Mof_H 	H 	0.7365	0.1369	0.1133	0.122
Mof_H 	H 	0.6668	0.0643	0.7646	0.022
Mof_H 	H 	0.5853	0.5983	0.0654	0.107
Mof_H 	H 	0.0464	0.3877	0.9738	0.031
Mof_H 	H 	0.4781	0.6159	0.0103	0.006
Mof_H 	H 	0.5523	0.4648	0.8579	0.013
Mof_H 	H 	0.9136	0.4017	0.9663	0.148
Mof_H 	H 	0.6206	0.3441	0.1792	0.022
Mof_H 	H 	0.6159	0.2941	0.4746	0.094
Mof_H 	H 	0.6927	0.832	0.5254	0.021
Mof_H 	H 	0.63	0.6124	0.3412	0.159
Mof_H 	H 	0.8054	0.4216	0.8277	0.052
Mof_H 	H 	0.5109	0.4599	0.3885	0.167
Mof_H 	H 	0.4831	0.4413	0.1996	-0.013
Mof_H 	H 	0.4648	0.4609	0.3027	0.093
Mof_H 	H 	0.6963	0.5939	0.7719	0.087
Mof_H 	H 	0.6525	0.5776	0.2369	0.106
Mof_H 	H 	0.7299	0.614	0.873	-0.001
Mof_H 	H 	0.6688	0.2313	0.1513	0.107
Mof_H 	H 	0.6466	0.3354	0.0095	0.03
Mof_H 	H 	0.6398	0.7253	0.4685	0.135
Mof_H 	H 	0.6804	0.1056	0.8717	0.126
Mof_H 	H 	0.625	0.172	0.4287	0.023
Mof_H 	H 	0.7758	0.3972	0.7278	0.128
Mof_H 	H 	0.7658	0.2834	0.6071	0.122
Mof_H 	H 	0.7564	0.9148	0.857	0.128
Mof_H 	H 	0.7565	0.1635	0.5638	0.023
Mof_H 	H 	0.6617	0.2128	0.9745	0.127
Mof_H 	H 	0.7362	0.8775	0.7472	0.029
Mof_H 	H 	0.5368	0.724	0.6192	0.128
Mof_H 	H 	0.5882	0.8359	0.6736	-0.006
Mof_H 	H 	0.2259	0.9308	0.8284	0.124
Mof_H 	H 	0.5489	0.9791	0.3546	0.03
Mof_H 	H 	0.1598	0.0526	0.5913	0.087
Mof_H 	H 	0.1849	0.1075	0.003	0.156
Mof_H 	H 	0.4171	0.9592	0.355	0.077
Mof_H 	H 	0.0307	0.8828	0.9277	0.137
Mof_H 	H 	0.286	0.5401	0.555	0.168
Mof_H 	H 	0.2365	0.3631	0.3867	0.122
Mof_H 	H 	0.1668	0.4357	0.7354	0.019
Mof_H 	H 	0.0853	0.9017	0.4346	0.087
Mof_H 	H 	0.5464	0.1123	0.5262	0.017
Mof_H 	H 	0.9781	0.8841	0.4897	0.039
Mof_H 	H 	0.0523	0.0352	0.6421	0.015
Mof_H 	H 	0.4136	0.0983	0.5337	0.145
Mof_H 	H 	0.1206	0.1559	0.3208	0.023
Mof_H 	H 	0.1159	0.2059	0.0254	0.097
Mof_H 	H 	0.1927	0.668	0.9746	0.026
Mof_H 	H 	0.13	0.8876	0.1588	0.163
Mof_H 	H 	0.3054	0.0784	0.6723	0.055
Mof_H 	H 	0.0109	0.0401	0.1115	0.151
Mof_H 	H 	0.9831	0.0587	0.3004	0.003
Mof_H 	H 	0.9648	0.0391	0.1973	0.116
Mof_H 	H 	0.1963	0.9061	0.7281	0.081
Mof_H 	H 	0.1525	0.9224	0.2631	0.104
Mof_H 	H 	0.2299	0.886	0.627	0.001
Mof_H 	H 	0.1688	0.2687	0.3487	0.103
Mof_H 	H 	0.1466	0.1646	0.4905	0.037
Mof_H 	H 	0.1398	0.7747	0.0315	0.125
Mof_H 	H 	0.1804	0.3944	0.6283	0.127
Mof_H 	H 	0.125	0.328	0.0713	0.019
Mof_H 	H 	0.2758	0.1028	0.7722	0.123
Mof_H 	H 	0.2658	0.2166	0.8929	0.126
Mof_H 	H 	0.2564	0.5852	0.643	0.131
Mof_H 	H 	0.2565	0.3365	0.9362	0.018
Mof_H 	H 	0.1617	0.2872	0.5255	0.111
Mof_H 	H 	0.2362	0.6225	0.7528	0.027
Mof_H 	H 	0.0368	0.776	0.8808	0.122
Mof_H 	H 	0.0882	0.6641	0.8264	-0.007
Mof_C 	C 	0.366	0.48	0.0057	-0.046
Mof_C 	C 	0.1861	0.5145	0.9481	0.108
Mof_C 	C 	0.0978	0.5213	0.945	0.052
Mof_C 	C 	0.3012	0.4938	0.9709	0.13
Mof_C 	C 	0.9786	0.5023	0.8921	0.11
Mof_C 	C 	0.3775	0.5182	0.0692	-0.082
Mof_C 	C 	0.0575	0.4893	0.8914	-0.176
Mof_C 	C 	0.3144	0.967	0.2174	0.133
Mof_C 	C 	0.4203	0.4297	0.9772	-0.056
Mof_C 	C 	0.3274	0.7906	0.9416	0.031
Mof_C 	C 	0.9795	0.5796	0.9914	0.129
Mof_C 	C 	0.4845	0.419	0.0105	0.017
Mof_C 	C 	0.2955	0.8641	0.9621	0.12
Mof_C 	C 	0.3062	0.6956	0.4555	0.042
Mof_C 	C 	0.4408	0.5071	0.0997	0.048
Mof_C 	C 	0.059	0.5717	0.9971	-0.175
Mof_C 	C 	0.3656	0.6809	0.8627	0.054
Mof_C 	C 	0.3516	0.7308	0.5078	-0.091
Mof_C 	C 	0.3394	0.1901	0.4542	0.107
Mof_C 	C 	0.2822	0.9877	0.1247	0.082
Mof_C 	C 	0.4538	0.4606	0.6649	0.058
Mof_C 	C 	0.3034	0.6179	0.4269	0.12
Mof_C 	C 	0.4457	0.3629	0.4984	0.102
Mof_C 	C 	0.3989	0.4254	0.6869	-0.116
Mof_C 	C 	0.265	0.5057	0.2634	0.054
Mof_C 	C 	0.2155	0.5424	0.1837	0.081
Mof_C 	C 	0.414	0.2887	0.4612	0.081
Mof_C 	C 	0.2792	0.5215	0.3304	0.108
Mof_C 	C 	0.4837	0.5261	0.771	0.096
Mof_C 	C 	0.4644	0.4482	0.5963	0.121
Mof_C 	C 	0.4973	0.5131	0.7093	-0.12
Mof_C 	C 	0.2798	0.4421	0.2183	-0.128
Mof_C 	C 	0.3868	0.4455	0.7493	0.069
Mof_C 	C 	0.2595	0.4308	0.1575	0.093
Mof_C 	C 	0.34	0.7497	0.8794	-0.11
Mof_C 	C 	0.3552	0.6867	0.9615	0.044
Mof_C 	C 	0.37	0.2544	0.4884	-0.15
Mof_C 	C 	0.3074	0.9417	0.1527	-0.137
Mof_C 	C 	0.3475	0.8048	0.5338	0.073
Mof_C 	C 	0.2749	0.962	0.0553	0.112
Mof_C 	C 	0.2331	0.557	0.243	-0.112
Mof_C 	C 	0.2647	0.738	0.4291	-0.101
Mof_C 	C 	0.2632	0.0536	0.1604	-0.148
Mof_C 	C 	0.2691	0.8099	0.4561	0.102
Mof_C 	C 	0.3398	0.76	0.9825	-0.083
Mof_C 	C 	0.2737	0.0751	0.2276	0.084
Mof_C 	C 	0.4302	0.2549	0.4015	-0.157
Mof_C 	C 	0.3984	0.1875	0.3686	0.117
Mof_C 	C 	0.866	0.02	0.4943	-0.003
Mof_C 	C 	0.6861	0.9855	0.5519	0.113
Mof_C 	C 	0.5978	0.9787	0.555	0.056
Mof_C 	C 	0.8012	0.0062	0.5291	0.105
Mof_C 	C 	0.4786	0.9977	0.6079	0.116
Mof_C 	C 	0.8775	0.9818	0.4308	-0.105
Mof_C 	C 	0.5575	0.0107	0.6086	-0.181
Mof_C 	C 	0.8144	0.533	0.2826	0.113
Mof_C 	C 	0.9203	0.0703	0.5228	-0.123
Mof_C 	C 	0.8274	0.7094	0.5584	0.04
Mof_C 	C 	0.4795	0.9204	0.5086	0.102
Mof_C 	C 	0.9845	0.081	0.4895	0.095
Mof_C 	C 	0.7955	0.6359	0.5379	0.114
Mof_C 	C 	0.8062	0.8044	0.0445	0.033
Mof_C 	C 	0.9408	0.9929	0.4003	0.073
Mof_C 	C 	0.559	0.9283	0.5029	-0.163
Mof_C 	C 	0.8656	0.8191	0.6373	0.058
Mof_C 	C 	0.8516	0.7692	0.9922	-0.08
Mof_C 	C 	0.8394	0.3099	0.0458	0.124
Mof_C 	C 	0.7822	0.5123	0.3753	0.059
Mof_C 	C 	0.9538	0.0394	0.8351	0.049
Mof_C 	C 	0.8034	0.8821	0.0731	0.125
Mof_C 	C 	0.9457	0.1371	0.0016	0.09
Mof_C 	C 	0.8989	0.0746	0.8131	-0.111
Mof_C 	C 	0.765	0.9943	0.2366	0.072
Mof_C 	C 	0.7155	0.9576	0.3163	0.097
Mof_C 	C 	0.914	0.2113	0.0388	0.099
Mof_C 	C 	0.7792	0.9785	0.1696	0.113
Mof_C 	C 	0.9837	0.9739	0.729	0.111
Mof_C 	C 	0.9644	0.0518	0.9037	0.127
Mof_C 	C 	0.9973	0.9869	0.7907	-0.1
Mof_C 	C 	0.7798	0.0579	0.2817	-0.147
Mof_C 	C 	0.8868	0.0545	0.7507	0.066
Mof_C 	C 	0.7595	0.0692	0.3425	0.101
Mof_C 	C 	0.84	0.7503	0.6206	-0.115
Mof_C 	C 	0.8552	0.8133	0.5385	0.052
Mof_C 	C 	0.87	0.2456	0.0116	-0.181
Mof_C 	C 	0.8074	0.5583	0.3473	-0.121
Mof_C 	C 	0.8475	0.6952	0.9662	0.071
Mof_C 	C 	0.7749	0.538	0.4447	0.11
Mof_C 	C 	0.7331	0.943	0.257	-0.124
Mof_C 	C 	0.7647	0.762	0.0709	-0.093
Mof_C 	C 	0.7632	0.4464	0.3396	-0.121
Mof_C 	C 	0.7691	0.6901	0.0439	0.093
Mof_C 	C 	0.8398	0.74	0.5175	-0.098
Mof_C 	C 	0.7737	0.4249	0.2724	0.076
Mof_C 	C 	0.9302	0.2451	0.0985	-0.168
Mof_C 	C 	0.8984	0.3125	0.1314	0.126
Mof_C 	C 	0.634	0.52	0.9943	0.029
Mof_C 	C 	0.8139	0.4855	0.0519	0.119
Mof_C 	C 	0.9022	0.4787	0.055	0.011
Mof_C 	C 	0.6988	0.5062	0.0291	0.096
Mof_C 	C 	0.0214	0.4977	0.1079	0.045
Mof_C 	C 	0.6225	0.4818	0.9308	-0.128
Mof_C 	C 	0.9425	0.5107	0.1086	-0.101
Mof_C 	C 	0.6856	0.033	0.7826	0.104
Mof_C 	C 	0.5797	0.5703	0.0228	-0.151
Mof_C 	C 	0.6726	0.2094	0.0584	0.052
Mof_C 	C 	0.0205	0.4204	0.0086	0.049
Mof_C 	C 	0.5155	0.581	0.9895	0.099
Mof_C 	C 	0.7045	0.1359	0.0379	0.1
Mof_C 	C 	0.6938	0.3044	0.5445	0.043
Mof_C 	C 	0.5592	0.4929	0.9003	0.078
Mof_C 	C 	0.941	0.4283	0.0029	-0.122
Mof_C 	C 	0.6344	0.3191	0.1373	0.062
Mof_C 	C 	0.6484	0.2692	0.4922	-0.091
Mof_C 	C 	0.6606	0.8099	0.5458	0.106
Mof_C 	C 	0.7178	0.0123	0.8753	0.05
Mof_C 	C 	0.5462	0.5394	0.3351	0.058
Mof_C 	C 	0.6966	0.3821	0.5731	0.12
Mof_C 	C 	0.5543	0.6371	0.5016	0.102
Mof_C 	C 	0.6011	0.5746	0.3131	-0.116
Mof_C 	C 	0.735	0.4943	0.7366	0.055
Mof_C 	C 	0.7845	0.4576	0.8163	0.082
Mof_C 	C 	0.586	0.7113	0.5388	0.081
Mof_C 	C 	0.7208	0.4785	0.6696	0.109
Mof_C 	C 	0.5163	0.4739	0.229	0.096
Mof_C 	C 	0.5356	0.5518	0.4037	0.121
Mof_C 	C 	0.5027	0.4869	0.2907	-0.12
Mof_C 	C 	0.7202	0.5579	0.7817	-0.127
Mof_C 	C 	0.6132	0.5545	0.2507	0.068
Mof_C 	C 	0.7405	0.5692	0.8425	0.093
Mof_C 	C 	0.66	0.2503	0.1206	-0.125
Mof_C 	C 	0.6448	0.3133	0.0385	0.063
Mof_C 	C 	0.63	0.7456	0.5116	-0.15
Mof_C 	C 	0.6926	0.0583	0.8473	-0.115
Mof_C 	C 	0.6525	0.1952	0.4662	0.074
Mof_C 	C 	0.7251	0.038	0.9447	0.111
Mof_C 	C 	0.7669	0.443	0.757	-0.111
Mof_C 	C 	0.7353	0.262	0.5709	-0.1
Mof_C 	C 	0.7368	0.9464	0.8396	-0.112
Mof_C 	C 	0.7309	0.1901	0.5439	0.103
Mof_C 	C 	0.6602	0.24	0.0175	-0.127
Mof_C 	C 	0.7263	0.9249	0.7724	0.073
Mof_C 	C 	0.5698	0.7451	0.5985	-0.156
Mof_C 	C 	0.6016	0.8125	0.6314	0.117
Mof_C 	C 	0.134	0.98	0.5057	-0.004
Mof_C 	C 	0.3139	0.0145	0.4481	0.113
Mof_C 	C 	0.4022	0.0213	0.445	0.005
Mof_C 	C 	0.1988	0.9938	0.4709	0.121
Mof_C 	C 	0.5214	0.0023	0.3921	0.034
Mof_C 	C 	0.1225	0.0182	0.5692	-0.113
Mof_C 	C 	0.4425	0.9893	0.3914	-0.09
Mof_C 	C 	0.1856	0.467	0.7174	0.112
Mof_C 	C 	0.0797	0.9297	0.4772	-0.096
Mof_C 	C 	0.1726	0.2906	0.4416	0.038
Mof_C 	C 	0.5205	0.0796	0.4914	0.082
Mof_C 	C 	0.0155	0.919	0.5105	0.037
Mof_C 	C 	0.2045	0.3641	0.4621	0.112
Mof_C 	C 	0.1938	0.1956	0.9555	0.062
Mof_C 	C 	0.0592	0.0071	0.5997	0.054
Mof_C 	C 	0.441	0.0717	0.4971	-0.135
Mof_C 	C 	0.1344	0.1809	0.3627	0.055
Mof_C 	C 	0.1484	0.2308	0.0078	-0.114
Mof_C 	C 	0.1606	0.6901	0.9542	0.096
Mof_C 	C 	0.2178	0.4877	0.6247	0.058
Mof_C 	C 	0.0462	0.9606	0.1649	0.084
Mof_C 	C 	0.1966	0.1179	0.9269	0.112
Mof_C 	C 	0.0543	0.8629	0.9984	0.108
Mof_C 	C 	0.1011	0.9254	0.1869	-0.129
Mof_C 	C 	0.235	0.0057	0.7634	0.039
Mof_C 	C 	0.2845	0.0424	0.6837	0.066
Mof_C 	C 	0.086	0.7887	0.9612	0.07
Mof_C 	C 	0.2208	0.0215	0.8304	0.107
Mof_C 	C 	0.0163	0.0261	0.271	0.075
Mof_C 	C 	0.0356	0.9482	0.0963	0.111
Mof_C 	C 	0.0027	0.0131	0.2093	-0.161
Mof_C 	C 	0.2202	0.9421	0.7183	-0.11
Mof_C 	C 	0.1132	0.9455	0.2493	0.077
Mof_C 	C 	0.2405	0.9308	0.6575	0.086
Mof_C 	C 	0.16	0.2497	0.3794	-0.116
Mof_C 	C 	0.1448	0.1867	0.4615	0.05
Mof_C 	C 	0.13	0.7544	0.9884	-0.132
Mof_C 	C 	0.1926	0.4417	0.6527	-0.123
Mof_C 	C 	0.1525	0.3048	0.0338	0.08
Mof_C 	C 	0.2251	0.462	0.5553	0.108
Mof_C 	C 	0.2669	0.057	0.743	-0.1
Mof_C 	C 	0.2353	0.238	0.9291	-0.114
Mof_C 	C 	0.2368	0.5536	0.6604	-0.122
Mof_C 	C 	0.2309	0.3099	0.9561	0.119
Mof_C 	C 	0.1602	0.26	0.4825	-0.099
Mof_C 	C 	0.2263	0.5751	0.7276	0.075
Mof_C 	C 	0.0698	0.7549	0.9015	-0.15
Mof_C 	C 	0.1016	0.6875	0.8686	0.111
Mof_N 	N 	0.2263	0.4777	0.13892	-0.238
Mof_N 	N 	0.2325	0.521	0.90432	-0.195
Mof_N 	N 	0.2248	0.497	0.99122	-0.228
Mof_N 	N 	0.3072	0.509	0.9223	-0.188
Mof_N 	N 	0.2964	0.0321	0.2554	-0.268
Mof_N 	N 	0.2752	0.4742	0.35501	-0.313
Mof_N 	N 	0.3077	0.8448	0.50941	-0.226
Mof_N 	N 	0.4284	0.4969	0.7921	-0.233
Mof_N 	N 	0.4941	0.4571	0.071	-0.213
Mof_N 	N 	0.9349	0.5456	0.94158	-0.241
Mof_N 	N 	0.2944	0.5918	0.36378	-0.14
Mof_N 	N 	0.3719	0.648	0.90239	-0.237
Mof_N 	N 	0.3016	0.5842	0.4645	-0.327
Mof_N 	N 	0.4685	0.4034	0.4681	-0.326
Mof_N 	N 	0.2371	0.0023	0.0295	-0.335
Mof_N 	N 	0.2666	0.8916	0.9255	-0.318
Mof_N 	N 	0.4445	0.3805	0.5583	-0.146
Mof_N 	N 	0.3055	0.8984	0.0269	-0.15
Mof_N 	N 	0.3518	0.157	0.39407	-0.251
Mof_N 	N 	0.4832	0.4996	0.5808	-0.339
Mof_N 	N 	0.7263	0.0223	0.36108	-0.245
Mof_N 	N 	0.7325	0.979	0.59568	-0.195
Mof_N 	N 	0.7248	0.003	0.50878	-0.231
Mof_N 	N 	0.8072	0.991	0.5777	-0.18
Mof_N 	N 	0.7964	0.4679	0.2446	-0.258
Mof_N 	N 	0.7752	0.0258	0.14499	-0.318
Mof_N 	N 	0.8077	0.6552	0.99059	-0.221
Mof_N 	N 	0.9284	0.0031	0.7079	-0.236
Mof_N 	N 	0.9941	0.0429	0.429	-0.228
Mof_N 	N 	0.4349	0.9544	0.55842	-0.238
Mof_N 	N 	0.7944	0.9082	0.13622	-0.14
Mof_N 	N 	0.8719	0.852	0.59761	-0.238
Mof_N 	N 	0.8016	0.9158	0.0355	-0.329
Mof_N 	N 	0.9685	0.0966	0.0319	-0.323
Mof_N 	N 	0.7371	0.4977	0.4705	-0.325
Mof_N 	N 	0.7666	0.6084	0.5745	-0.318
Mof_N 	N 	0.9445	0.1195	0.9417	-0.139
Mof_N 	N 	0.8055	0.6016	0.4731	-0.146
Mof_N 	N 	0.8518	0.343	0.10593	-0.255
Mof_N 	N 	0.9832	0.0004	0.9192	-0.336
Mof_N 	N 	0.7737	0.5223	0.86108	-0.237
Mof_N 	N 	0.7675	0.479	0.09568	-0.198
Mof_N 	N 	0.7752	0.503	0.00878	-0.23
Mof_N 	N 	0.6928	0.491	0.0777	-0.182
Mof_N 	N 	0.7036	0.9679	0.7446	-0.254
Mof_N 	N 	0.7248	0.5258	0.64499	-0.313
Mof_N 	N 	0.6923	0.1552	0.49059	-0.226
Mof_N 	N 	0.5716	0.5031	0.2079	-0.233
Mof_N 	N 	0.5059	0.5429	0.929	-0.231
Mof_N 	N 	0.0651	0.4544	0.05842	-0.222
Mof_N 	N 	0.7056	0.4082	0.63622	-0.14
Mof_N 	N 	0.6281	0.352	0.09761	-0.243
Mof_N 	N 	0.6984	0.4158	0.5355	-0.327
Mof_N 	N 	0.5315	0.5966	0.5319	-0.326
Mof_N 	N 	0.7629	0.9977	0.9705	-0.32
Mof_N 	N 	0.7334	0.1084	0.0745	-0.317
Mof_N 	N 	0.5555	0.6195	0.4417	-0.146
Mof_N 	N 	0.6945	0.1016	0.9731	-0.141
Mof_N 	N 	0.6482	0.843	0.60593	-0.25
Mof_N 	N 	0.5168	0.5004	0.4192	-0.339
Mof_N 	N 	0.2737	0.9777	0.63892	-0.23
Mof_N 	N 	0.2675	0.021	0.40432	-0.199
Mof_N 	N 	0.2752	0.997	0.49122	-0.225
Mof_N 	N 	0.1928	0.009	0.4223	-0.192
Mof_N 	N 	0.2036	0.5321	0.7554	-0.258
Mof_N 	N 	0.2248	0.9742	0.85501	-0.309
Mof_N 	N 	0.1923	0.3448	0.00941	-0.235
Mof_N 	N 	0.0716	0.9969	0.2921	-0.226
Mof_N 	N 	0.0059	0.9571	0.571	-0.217
Mof_N 	N 	0.5651	0.0456	0.44158	-0.224
Mof_N 	N 	0.2056	0.0918	0.86378	-0.14
Mof_N 	N 	0.1281	0.148	0.40239	-0.241
Mof_N 	N 	0.1984	0.0842	0.9645	-0.318
Mof_N 	N 	0.0315	0.9034	0.9681	-0.325
Mof_N 	N 	0.2629	0.5023	0.5295	-0.325
Mof_N 	N 	0.2334	0.3916	0.4255	-0.318
Mof_N 	N 	0.0555	0.8805	0.0583	-0.149
Mof_N 	N 	0.1945	0.3984	0.5269	-0.148
Mof_N 	N 	0.1482	0.657	0.89407	-0.248
Mof_N 	N 	0.0168	0.9996	0.0808	-0.325
Mof_B 	B 	0.1116	0.1812	0.1668	3.316
Mof_F 	F 	0.1534	0.1412	0.1128	-1.084
Mof_F 	F 	0.1622	0.1905	0.2171	-1.038
Mof_F 	F 	0.0406	0.1522	0.1726	-1.13
Mof_F 	F 	0.1024	0.2455	0.1652	-1.109
Mof_B 	B 	0.2367	0.7196	0.1333	4.268
Mof_F 	F 	0.2119	0.7844	0.145	-1.263
Mof_F 	F 	0.2354	0.7026	0.1826	-1.278
Mof_F 	F 	0.1912	0.6739	0.0876	-1.293
Mof_F 	F 	0.3112	0.7137	0.1114	-1.257
Mof_B 	B 	0.7503	0.6672	0.2074	4.029
Mof_F 	F 	0.6883	0.7013	0.19	-1.113
Mof_F 	F 	0.7501	0.6961	0.273	-1.094
Mof_F 	F 	0.8142	0.6791	0.1855	-1.388
Mof_F 	F 	0.7319	0.5995	0.1908	-1.334
Mof_B 	B 	0.6116	0.3188	0.3332	3.317
Mof_F 	F 	0.6534	0.3588	0.3872	-1.081
Mof_F 	F 	0.6622	0.3095	0.2829	-1.037
Mof_F 	F 	0.5406	0.3478	0.3274	-1.125
Mof_F 	F 	0.6024	0.2545	0.3348	-1.106
Mof_B 	B 	0.7367	0.7804	0.3667	4.268
Mof_F 	F 	0.7119	0.7156	0.355	-1.262
Mof_F 	F 	0.7354	0.7974	0.3174	-1.277
Mof_F 	F 	0.6912	0.8261	0.4124	-1.29
Mof_F 	F 	0.8112	0.7863	0.3886	-1.255
Mof_B 	B 	0.2503	0.8328	0.2926	4.029
Mof_F 	F 	0.1883	0.7987	0.31	-1.114
Mof_F 	F 	0.2501	0.8039	0.227	-1.094
Mof_F 	F 	0.3142	0.8209	0.3145	-1.389
Mof_F 	F 	0.2319	0.9005	0.3092	-1.332
Mof_B 	B 	0.8884	0.8188	0.8332	3.318
Mof_F 	F 	0.8466	0.8588	0.8872	-1.08
Mof_F 	F 	0.8378	0.8095	0.7829	-1.036
Mof_F 	F 	0.9594	0.8478	0.8274	-1.12
Mof_F 	F 	0.8976	0.7545	0.8348	-1.103
Mof_B 	B 	0.7633	0.2804	0.8667	4.268
Mof_F 	F 	0.7881	0.2156	0.855	-1.262
Mof_F 	F 	0.7646	0.2974	0.8174	-1.277
Mof_F 	F 	0.8088	0.3261	0.9124	-1.288
Mof_F 	F 	0.6888	0.2863	0.8886	-1.255
Mof_B 	B 	0.2497	0.3328	0.7926	4.03
Mof_F 	F 	0.3117	0.2987	0.81	-1.113
Mof_F 	F 	0.2499	0.3039	0.727	-1.095
Mof_F 	F 	0.1858	0.3209	0.8145	-1.391
Mof_F 	F 	0.2681	0.4005	0.8092	-1.335
Mof_B 	B 	0.3884	0.6812	0.6668	3.318
Mof_F 	F 	0.3466	0.6412	0.6128	-1.082
Mof_F 	F 	0.3378	0.6905	0.7171	-1.037
Mof_F 	F 	0.4594	0.6522	0.6726	-1.125
Mof_F 	F 	0.3976	0.7455	0.6652	-1.105
Mof_B 	B 	0.2633	0.2196	0.6333	4.268
Mof_F 	F 	0.2881	0.2844	0.645	-1.263
Mof_F 	F 	0.2646	0.2026	0.6826	-1.278
Mof_F 	F 	0.3088	0.1739	0.5876	-1.291
Mof_F 	F 	0.1888	0.2137	0.6114	-1.258
Mof_B 	B 	0.7497	0.1672	0.7074	4.029
Mof_F 	F 	0.8117	0.2013	0.69	-1.112
Mof_F 	F 	0.7499	0.1961	0.773	-1.094
Mof_F 	F 	0.6858	0.1791	0.6855	-1.39
Mof_F 	F 	0.7681	0.0995	0.6908	-1.336
_end
