data_functionalizedCrystal
_audit_creation_method	'EQeq! by Chris Wilmer'
_symmetry_space_group_name_H-M	'P1'
_symmetry_Int_Tables_number	1
_symmetry_cell_setting	triclinic
loop_
_symmetry_equiv_pos_as_xyz
  x,y,z
_cell_length_a	12.628
_cell_length_b	12.628
_cell_length_c	17.852
_cell_angle_alpha	90
_cell_angle_beta	90
_cell_angle_gamma	120
loop_
_atom_site_label
_atom_site_type_symbol
_atom_site_fract_x
_atom_site_fract_y
_atom_site_fract_z
_atom_site_charge
Mof_C 	C 	0.4605	0.1313	0.14	0.418
Mof_C 	C 	0.382	0.181	0.18	-0.088
Mof_H 	H 	0.3822	0.2468	0.1523	0.067
Mof_H 	H 	0.2978	0.116	0.1879	0.058
Mof_O 	O 	0.5673	0.1799	0.1561	-0.488
Mof_O 	O 	0.4112	0.0617	0.084	-0.328
Mof_C 	C 	0.384	0.105	0.2072	-0.083
Mof_H 	H 	0.3831	0.0393	0.2361	0.025
Mof_H 	H 	0.3013	0.0825	0.1941	0.009
Mof_C 	C 	0.8687	0.3292	0.14	0.423
Mof_C 	C 	0.819	0.201	0.18	-0.118
Mof_H 	H 	0.7532	0.1354	0.1523	0.072
Mof_H 	H 	0.884	0.1818	0.1879	0.095
Mof_O 	O 	0.8201	0.3874	0.1561	-0.481
Mof_O 	O 	0.9383	0.3495	0.084	-0.302
Mof_C 	C 	0.895	0.279	0.2072	-0.064
Mof_H 	H 	0.9607	0.3438	0.2361	0.058
Mof_H 	H 	0.9175	0.2188	0.1941	-0.012
Mof_C 	C 	0.6708	0.5395	0.14	0.427
Mof_C 	C 	0.799	0.618	0.18	-0.095
Mof_H 	H 	0.8646	0.6178	0.1523	0.081
Mof_H 	H 	0.8182	0.7022	0.1879	0.074
Mof_O 	O 	0.6126	0.4327	0.1561	-0.487
Mof_O 	O 	0.6505	0.5888	0.084	-0.316
Mof_C 	C 	0.721	0.616	0.2072	-0.09
Mof_H 	H 	0.6562	0.6169	0.2361	0.046
Mof_H 	H 	0.7812	0.6987	0.1941	0.012
Mof_C 	C 	0.5395	0.8687	0.14	0.425
Mof_C 	C 	0.618	0.819	0.18	-0.113
Mof_H 	H 	0.6178	0.7532	0.1523	0.079
Mof_H 	H 	0.7022	0.884	0.1879	0.093
Mof_O 	O 	0.4327	0.8201	0.1561	-0.481
Mof_O 	O 	0.5888	0.9383	0.084	-0.3
Mof_C 	C 	0.616	0.895	0.2072	-0.074
Mof_H 	H 	0.6169	0.9607	0.2361	0.061
Mof_H 	H 	0.6987	0.9175	0.1941	-0.003
Mof_C 	C 	0.1313	0.6708	0.14	0.423
Mof_C 	C 	0.181	0.799	0.18	-0.082
Mof_H 	H 	0.2468	0.8646	0.1523	0.075
Mof_H 	H 	0.116	0.8182	0.1879	0.056
Mof_O 	O 	0.1799	0.6126	0.1561	-0.489
Mof_O 	O 	0.0617	0.6505	0.084	-0.325
Mof_C 	C 	0.105	0.721	0.2072	-0.094
Mof_H 	H 	0.0393	0.6562	0.2361	0.028
Mof_H 	H 	0.0825	0.7812	0.1941	0.018
Mof_C 	C 	0.3292	0.4605	0.14	0.421
Mof_C 	C 	0.201	0.382	0.18	-0.105
Mof_H 	H 	0.1354	0.3822	0.1523	0.066
Mof_H 	H 	0.1818	0.2978	0.1879	0.078
Mof_O 	O 	0.3874	0.5673	0.1561	-0.486
Mof_O 	O 	0.3495	0.4112	0.084	-0.321
Mof_C 	C 	0.279	0.384	0.2072	-0.069
Mof_H 	H 	0.3438	0.3831	0.2361	0.04
Mof_H 	H 	0.2188	0.3013	0.1941	-0.007
Mof_C 	C 	0.1313	0.4605	0.36	0.42
Mof_C 	C 	0.181	0.382	0.32	-0.085
Mof_H 	H 	0.2468	0.3822	0.3477	0.07
Mof_H 	H 	0.116	0.2978	0.3121	0.059
Mof_O 	O 	0.1799	0.5673	0.3439	-0.485
Mof_O 	O 	0.0617	0.4112	0.416	-0.317
Mof_C 	C 	0.105	0.384	0.2928	-0.085
Mof_H 	H 	0.0393	0.3831	0.2639	0.025
Mof_H 	H 	0.0825	0.3013	0.3059	0.01
Mof_C 	C 	0.3292	0.8687	0.36	0.423
Mof_C 	C 	0.201	0.819	0.32	-0.116
Mof_H 	H 	0.1354	0.7532	0.3477	0.075
Mof_H 	H 	0.1818	0.884	0.3121	0.096
Mof_O 	O 	0.3874	0.8201	0.3439	-0.478
Mof_O 	O 	0.3495	0.9383	0.416	-0.292
Mof_C 	C 	0.279	0.895	0.2928	-0.065
Mof_H 	H 	0.3438	0.9607	0.2639	0.058
Mof_H 	H 	0.2188	0.9175	0.3059	-0.012
Mof_C 	C 	0.5395	0.6708	0.36	0.428
Mof_C 	C 	0.618	0.799	0.32	-0.093
Mof_H 	H 	0.6178	0.8646	0.3477	0.084
Mof_H 	H 	0.7022	0.8182	0.3121	0.075
Mof_O 	O 	0.4327	0.6126	0.3439	-0.484
Mof_O 	O 	0.5888	0.6505	0.416	-0.306
Mof_C 	C 	0.616	0.721	0.2928	-0.091
Mof_H 	H 	0.6169	0.6562	0.2639	0.046
Mof_H 	H 	0.6987	0.7812	0.3059	0.013
Mof_C 	C 	0.8687	0.5395	0.36	0.426
Mof_C 	C 	0.819	0.618	0.32	-0.111
Mof_H 	H 	0.7532	0.6178	0.3477	0.082
Mof_H 	H 	0.884	0.7022	0.3121	0.094
Mof_O 	O 	0.8201	0.4327	0.3439	-0.479
Mof_O 	O 	0.9383	0.5888	0.416	-0.289
Mof_C 	C 	0.895	0.616	0.2928	-0.076
Mof_H 	H 	0.9607	0.6169	0.2639	0.061
Mof_H 	H 	0.9175	0.6987	0.3059	-0.002
Mof_C 	C 	0.6708	0.1313	0.36	0.423
Mof_C 	C 	0.799	0.181	0.32	-0.08
Mof_H 	H 	0.8646	0.2468	0.3477	0.078
Mof_H 	H 	0.8182	0.116	0.3121	0.057
Mof_O 	O 	0.6126	0.1799	0.3439	-0.486
Mof_O 	O 	0.6505	0.0617	0.416	-0.315
Mof_C 	C 	0.721	0.105	0.2928	-0.096
Mof_H 	H 	0.6562	0.0393	0.2639	0.028
Mof_H 	H 	0.7812	0.0825	0.3059	0.019
Mof_C 	C 	0.4605	0.3292	0.36	0.421
Mof_C 	C 	0.382	0.201	0.32	-0.103
Mof_H 	H 	0.3822	0.1354	0.3477	0.069
Mof_H 	H 	0.2978	0.1818	0.3121	0.079
Mof_O 	O 	0.5673	0.3874	0.3439	-0.483
Mof_O 	O 	0.4112	0.3495	0.416	-0.311
Mof_C 	C 	0.384	0.279	0.2928	-0.07
Mof_H 	H 	0.3831	0.3438	0.2639	0.04
Mof_H 	H 	0.3013	0.2188	0.3059	-0.006
Mof_C 	C 	0.5395	0.8687	0.86	0.422
Mof_C 	C 	0.618	0.819	0.82	-0.107
Mof_H 	H 	0.6178	0.7532	0.8477	0.087
Mof_H 	H 	0.7022	0.884	0.8121	0.094
Mof_O 	O 	0.4327	0.8201	0.8439	-0.469
Mof_O 	O 	0.5888	0.9383	0.916	-0.257
Mof_C 	C 	0.616	0.895	0.7928	-0.077
Mof_H 	H 	0.6169	0.9607	0.7639	0.062
Mof_H 	H 	0.6987	0.9175	0.8059	0.001
Mof_C 	C 	0.1313	0.6708	0.86	0.419
Mof_C 	C 	0.181	0.799	0.82	-0.076
Mof_H 	H 	0.2468	0.8646	0.8477	0.082
Mof_H 	H 	0.116	0.8182	0.8121	0.058
Mof_O 	O 	0.1799	0.6126	0.8439	-0.476
Mof_O 	O 	0.0617	0.6505	0.916	-0.282
Mof_C 	C 	0.105	0.721	0.7928	-0.097
Mof_H 	H 	0.0393	0.6562	0.7639	0.029
Mof_H 	H 	0.0825	0.7812	0.8059	0.022
Mof_C 	C 	0.3292	0.4605	0.86	0.418
Mof_C 	C 	0.201	0.382	0.82	-0.099
Mof_H 	H 	0.1354	0.3822	0.8477	0.074
Mof_H 	H 	0.1818	0.2978	0.8121	0.079
Mof_O 	O 	0.3874	0.5673	0.8439	-0.473
Mof_O 	O 	0.3495	0.4112	0.916	-0.278
Mof_C 	C 	0.279	0.384	0.7928	-0.072
Mof_H 	H 	0.3438	0.3831	0.7639	0.041
Mof_H 	H 	0.2188	0.3013	0.8059	-0.003
Mof_C 	C 	0.4605	0.1313	0.86	0.416
Mof_C 	C 	0.382	0.181	0.82	-0.081
Mof_H 	H 	0.3822	0.2468	0.8477	0.075
Mof_H 	H 	0.2978	0.116	0.8121	0.06
Mof_O 	O 	0.5673	0.1799	0.8439	-0.475
Mof_O 	O 	0.4112	0.0617	0.916	-0.284
Mof_C 	C 	0.384	0.105	0.7928	-0.086
Mof_H 	H 	0.3831	0.0393	0.7639	0.026
Mof_H 	H 	0.3013	0.0825	0.8059	0.012
Mof_C 	C 	0.8687	0.3292	0.86	0.419
Mof_C 	C 	0.819	0.201	0.82	-0.111
Mof_H 	H 	0.7532	0.1354	0.8477	0.08
Mof_H 	H 	0.884	0.1818	0.8121	0.096
Mof_O 	O 	0.8201	0.3874	0.8439	-0.468
Mof_O 	O 	0.9383	0.3495	0.916	-0.259
Mof_C 	C 	0.895	0.279	0.7928	-0.067
Mof_H 	H 	0.9607	0.3438	0.7639	0.059
Mof_H 	H 	0.9175	0.2188	0.8059	-0.009
Mof_C 	C 	0.6708	0.5395	0.86	0.424
Mof_C 	C 	0.799	0.618	0.82	-0.089
Mof_H 	H 	0.8646	0.6178	0.8477	0.089
Mof_H 	H 	0.8182	0.7022	0.8121	0.075
Mof_O 	O 	0.6126	0.4327	0.8439	-0.474
Mof_O 	O 	0.6505	0.5888	0.916	-0.273
Mof_C 	C 	0.721	0.616	0.7928	-0.092
Mof_H 	H 	0.6562	0.6169	0.7639	0.047
Mof_H 	H 	0.7812	0.6987	0.8059	0.016
Mof_C 	C 	0.8687	0.5395	0.64	0.426
Mof_C 	C 	0.819	0.618	0.68	-0.11
Mof_H 	H 	0.7532	0.6178	0.6523	0.082
Mof_H 	H 	0.884	0.7022	0.6879	0.094
Mof_O 	O 	0.8201	0.4327	0.6561	-0.479
Mof_O 	O 	0.9383	0.5888	0.584	-0.289
Mof_C 	C 	0.895	0.616	0.7072	-0.076
Mof_H 	H 	0.9607	0.6169	0.7361	0.061
Mof_H 	H 	0.9175	0.6987	0.6941	-0.001
Mof_C 	C 	0.6708	0.1313	0.64	0.423
Mof_C 	C 	0.799	0.181	0.68	-0.08
Mof_H 	H 	0.8646	0.2468	0.6523	0.078
Mof_H 	H 	0.8182	0.116	0.6879	0.058
Mof_O 	O 	0.6126	0.1799	0.6561	-0.487
Mof_O 	O 	0.6505	0.0617	0.584	-0.315
Mof_C 	C 	0.721	0.105	0.7072	-0.096
Mof_H 	H 	0.6562	0.0393	0.7361	0.028
Mof_H 	H 	0.7812	0.0825	0.6941	0.02
Mof_C 	C 	0.4605	0.3292	0.64	0.422
Mof_C 	C 	0.382	0.201	0.68	-0.103
Mof_H 	H 	0.3822	0.1354	0.6523	0.069
Mof_H 	H 	0.2978	0.1818	0.6879	0.079
Mof_O 	O 	0.5673	0.3874	0.6561	-0.483
Mof_O 	O 	0.4112	0.3495	0.584	-0.311
Mof_C 	C 	0.384	0.279	0.7072	-0.071
Mof_H 	H 	0.3831	0.3438	0.7361	0.04
Mof_H 	H 	0.3013	0.2188	0.6941	-0.005
Mof_C 	C 	0.1313	0.4605	0.64	0.42
Mof_C 	C 	0.181	0.382	0.68	-0.085
Mof_H 	H 	0.2468	0.3822	0.6523	0.07
Mof_H 	H 	0.116	0.2978	0.6879	0.06
Mof_O 	O 	0.1799	0.5673	0.6561	-0.486
Mof_O 	O 	0.0617	0.4112	0.584	-0.317
Mof_C 	C 	0.105	0.384	0.7072	-0.085
Mof_H 	H 	0.0393	0.3831	0.7361	0.026
Mof_H 	H 	0.0825	0.3013	0.6941	0.01
Mof_C 	C 	0.3292	0.8687	0.64	0.423
Mof_C 	C 	0.201	0.819	0.68	-0.115
Mof_H 	H 	0.1354	0.7532	0.6523	0.075
Mof_H 	H 	0.1818	0.884	0.6879	0.096
Mof_O 	O 	0.3874	0.8201	0.6561	-0.478
Mof_O 	O 	0.3495	0.9383	0.584	-0.292
Mof_C 	C 	0.279	0.895	0.7072	-0.066
Mof_H 	H 	0.3438	0.9607	0.7361	0.058
Mof_H 	H 	0.2188	0.9175	0.6941	-0.011
Mof_C 	C 	0.5395	0.6708	0.64	0.428
Mof_C 	C 	0.618	0.799	0.68	-0.093
Mof_H 	H 	0.6178	0.8646	0.6523	0.084
Mof_H 	H 	0.7022	0.8182	0.6879	0.075
Mof_O 	O 	0.4327	0.6126	0.6561	-0.485
Mof_O 	O 	0.5888	0.6505	0.584	-0.306
Mof_C 	C 	0.616	0.721	0.7072	-0.091
Mof_H 	H 	0.6169	0.6562	0.7361	0.046
Mof_H 	H 	0.6987	0.7812	0.6941	0.014
Mof_Dy	Dy	0.66667	0.33333	0.25	2.23
Mof_Dy	Dy	0.33333	0.66667	0.25	2.23
Mof_Dy	Dy	0.33333	0.66667	0.75	2.233
Mof_Dy	Dy	0.66667	0.33333	0.75	2.233
Mof_Cd	Cd	0.5	0	-0	0.405
Mof_Cd	Cd	-0	0.5	-0	0.405
Mof_Cd	Cd	0.5	0.5	-0	0.436
Mof_Cd	Cd	5.66286e-18	0.5	0.5	0.465
Mof_Cd	Cd	0.5	0	0.5	0.465
Mof_Cd	Cd	0.5	0.5	0.5	0.497
Mof_O 	O 	0.4455	0.22275	0.25	-0.3
Mof_O 	O 	0.77725	0.22275	0.25	-0.297
Mof_O 	O 	0.77725	0.5545	0.25	-0.293
Mof_O 	O 	0.5545	0.77725	0.25	-0.293
Mof_O 	O 	0.22275	0.77725	0.25	-0.297
Mof_O 	O 	0.22275	0.4455	0.25	-0.3
Mof_O 	O 	0.5545	0.77725	0.75	-0.294
Mof_O 	O 	0.22275	0.77725	0.75	-0.298
Mof_O 	O 	0.22275	0.4455	0.75	-0.301
Mof_O 	O 	0.4455	0.22275	0.75	-0.301
Mof_O 	O 	0.77725	0.22275	0.75	-0.298
Mof_O 	O 	0.77725	0.5545	0.75	-0.294
_end
