data_functionalizedCrystal
_audit_creation_method	'EQeq! by Chris Wilmer'
_symmetry_space_group_name_H-M	'P1'
_symmetry_Int_Tables_number	1
_symmetry_cell_setting	triclinic
loop_
_symmetry_equiv_pos_as_xyz
  x,y,z
_cell_length_a	15.754
_cell_length_b	26.877
_cell_length_c	19.244
_cell_angle_alpha	90
_cell_angle_beta	90.065
_cell_angle_gamma	90
loop_
_atom_site_label
_atom_site_type_symbol
_atom_site_fract_x
_atom_site_fract_y
_atom_site_fract_z
_atom_site_charge
Mof_Co	Co	0.0453	0.61869	0.78678	1.1
Mof_Co	Co	0.5385	0.86352	0.20824	1.102
Mof_S 	S 	0.32235	0.93535	0.05822	-0.068
Mof_S 	S 	0.76762	0.77809	0.31864	-0.061
Mof_S 	S 	0.28336	0.71589	0.71046	-0.073
Mof_S 	S 	0.84811	0.56371	0.96009	-0.064
Mof_C 	C 	0.2041	0.67926	0.7243	0.089
Mof_C 	C 	0.9061	0.57626	0.8915	0.095
Mof_C 	C 	0.3975	0.91329	0.109	0.096
Mof_C 	C 	0.6829	0.80605	0.2903	0.101
Mof_N 	N 	0.1442	0.65441	0.73447	-0.266
Mof_N 	N 	0.9471	0.58582	0.84346	-0.268
Mof_N 	N 	0.4506	0.89823	0.14466	-0.273
Mof_N 	N 	0.6253	0.82666	0.26924	-0.276
Mof_N 	N 	0.6304	0.86925	0.12566	-0.238
Mof_N 	N 	0.00281	0.69128	0.82236	-0.242
Mof_N 	N 	0.9183	0.04704	0.75669	-0.243
Mof_N 	N 	0.84525	0.82895	0.94075	-0.141
Mof_N 	N 	0.8155	0.91404	0.9205	-0.141
Mof_N 	N 	0.9127	0.87128	0.84735	-0.14
Mof_C 	C 	0.6764	0.82893	0.1083	0.06
Mof_H 	H 	0.6697	0.7995	0.1351	-0.006
Mof_C 	C 	0.7328	0.82804	0.0536	-0.118
Mof_H 	H 	0.7635	0.7986	0.0428	0.075
Mof_C 	C 	0.7441	0.87118	0.01443	0.045
Mof_C 	C 	0.6975	0.91313	0.03207	-0.117
Mof_H 	H 	0.704	0.9431	0.0065	0.077
Mof_C 	C 	0.641	0.91075	0.0876	0.063
Mof_H 	H 	0.6089	0.9395	0.099	-0.006
Mof_C 	C 	0.9731	0.69835	0.88656	0.069
Mof_H 	H 	0.9746	0.6711	0.9179	-0.006
Mof_C 	C 	0.9403	0.74306	0.91014	-0.116
Mof_H 	H 	0.9197	0.7462	0.9563	0.075
Mof_C 	C 	0.9382	0.7834	0.86431	0.048
Mof_C 	C 	0.9715	0.77718	0.79813	-0.111
Mof_H 	H 	0.9731	0.8043	0.7665	0.075
Mof_C 	C 	0.0024	0.73071	0.77868	0.055
Mof_H 	H 	0.024	0.7265	0.733	-0.012
Mof_C 	C 	0.9702	0.00815	0.7512	0.054
Mof_H 	H 	0.0186	0.0111	0.7222	-0.005
Mof_C 	C 	0.957	0.96319	0.786	-0.113
Mof_H 	H 	0.9954	0.9362	0.7803	0.075
Mof_C 	C 	0.8872	0.95871	0.8287	0.047
Mof_C 	C 	0.8323	0.99901	0.835	-0.115
Mof_H 	H 	0.7836	0.997	0.8639	0.077
Mof_C 	C 	0.8499	0.04188	0.7984	0.056
Mof_H 	H 	0.812	0.0692	0.8027	-0.005
Mof_C 	C 	0.8051	0.87171	0.95495	0.1
Mof_C 	C 	0.8967	0.83071	0.88583	0.101
Mof_C 	C 	0.8709	0.91197	0.8679	0.1
Mof_N 	N 	0.1276	0.61296	0.87579	-0.239
Mof_N 	N 	0.4999	0.7897	0.17174	-0.24
Mof_N 	N 	0.42732	0.43326	0.24013	-0.245
Mof_N 	N 	0.3404	0.65135	0.05977	-0.141
Mof_N 	N 	0.4075	0.61001	0.15375	-0.141
Mof_N 	N 	0.3163	0.56472	0.07799	-0.139
Mof_C 	C 	0.1721	0.65344	0.89501	0.06
Mof_H 	H 	0.1639	0.6836	0.8701	-0.006
Mof_C 	C 	0.229	0.65283	0.94952	-0.118
Mof_H 	H 	0.2586	0.6822	0.9623	0.075
Mof_C 	C 	0.2427	0.60847	0.98569	0.047
Mof_C 	C 	0.1977	0.56636	0.96538	-0.12
Mof_H 	H 	0.206	0.5354	0.9883	0.079
Mof_C 	C 	0.1408	0.57053	0.91135	0.067
Mof_H 	H 	0.1092	0.5419	0.8984	-0.006
Mof_C 	C 	0.4693	0.78204	0.10802	0.068
Mof_H 	H 	0.4711	0.8087	0.0756	-0.006
Mof_C 	C 	0.4349	0.73682	0.08695	-0.118
Mof_H 	H 	0.4136	0.7327	0.0411	0.075
Mof_C 	C 	0.4324	0.69791	0.1343	0.052
Mof_C 	C 	0.4654	0.70526	0.1998	-0.119
Mof_H 	H 	0.4655	0.6791	0.233	0.077
Mof_C 	C 	0.4981	0.75132	0.2162	0.064
Mof_H 	H 	0.5207	0.7562	0.2615	-0.012
Mof_C 	C 	0.46	0.47693	0.2605	0.062
Mof_H 	H 	0.4972	0.4772	0.2993	-0.007
Mof_C 	C 	0.4424	0.52145	0.2279	-0.119
Mof_H 	H 	0.4667	0.5516	0.2444	0.077
Mof_C 	C 	0.3883	0.52148	0.17051	0.051
Mof_C 	C 	0.3536	0.47684	0.15012	-0.122
Mof_H 	H 	0.3156	0.4755	0.1118	0.08
Mof_C 	C 	0.3747	0.43394	0.18609	0.064
Mof_H 	H 	0.3503	0.4034	0.1714	-0.008
Mof_C 	C 	0.3028	0.6076	0.04431	0.097
Mof_C 	C 	0.3916	0.64991	0.11469	0.101
Mof_C 	C 	0.3697	0.56842	0.13216	0.099
Mof_Co	Co	0.9547	0.11869	0.71322	1.099
Mof_Co	Co	0.4615	0.36352	0.29176	1.101
Mof_S 	S 	0.67765	0.43535	0.44178	-0.067
Mof_S 	S 	0.23238	0.27809	0.18136	-0.061
Mof_S 	S 	0.71664	0.21589	0.78954	-0.073
Mof_S 	S 	0.15189	0.06371	0.53991	-0.064
Mof_C 	C 	0.7959	0.17926	0.7757	0.089
Mof_C 	C 	0.0939	0.07626	0.6085	0.095
Mof_C 	C 	0.6025	0.41329	0.391	0.096
Mof_C 	C 	0.3171	0.30605	0.2097	0.101
Mof_N 	N 	0.8558	0.15441	0.76553	-0.266
Mof_N 	N 	0.0529	0.08582	0.65654	-0.268
Mof_N 	N 	0.5494	0.39823	0.35534	-0.273
Mof_N 	N 	0.3747	0.32666	0.23076	-0.276
Mof_N 	N 	0.3696	0.36925	0.37434	-0.238
Mof_N 	N 	0.99719	0.19128	0.67764	-0.242
Mof_N 	N 	0.0817	0.54704	0.74331	-0.243
Mof_N 	N 	0.15475	0.32895	0.55925	-0.141
Mof_N 	N 	0.1845	0.41404	0.5795	-0.141
Mof_N 	N 	0.0873	0.37128	0.65265	-0.14
Mof_C 	C 	0.3236	0.32893	0.3917	0.061
Mof_H 	H 	0.3303	0.2995	0.3649	-0.006
Mof_C 	C 	0.2672	0.32804	0.4464	-0.118
Mof_H 	H 	0.2365	0.2986	0.4572	0.075
Mof_C 	C 	0.2559	0.37118	0.48557	0.046
Mof_C 	C 	0.3025	0.41313	0.46793	-0.118
Mof_H 	H 	0.296	0.4431	0.4935	0.077
Mof_C 	C 	0.359	0.41075	0.4124	0.063
Mof_H 	H 	0.3911	0.4395	0.401	-0.006
Mof_C 	C 	0.0269	0.19835	0.61344	0.069
Mof_H 	H 	0.0254	0.1711	0.5821	-0.006
Mof_C 	C 	0.0597	0.24306	0.58986	-0.116
Mof_H 	H 	0.0803	0.2462	0.5437	0.075
Mof_C 	C 	0.0618	0.2834	0.63569	0.048
Mof_C 	C 	0.0285	0.27718	0.70187	-0.112
Mof_H 	H 	0.0269	0.3043	0.7335	0.075
Mof_C 	C 	0.9976	0.23071	0.72132	0.056
Mof_H 	H 	0.976	0.2265	0.767	-0.012
Mof_C 	C 	0.0298	0.50815	0.7488	0.057
Mof_H 	H 	0.9814	0.5111	0.7778	-0.006
Mof_C 	C 	0.043	0.46319	0.714	-0.116
Mof_H 	H 	0.0046	0.4362	0.7197	0.076
Mof_C 	C 	0.1128	0.45871	0.6713	0.048
Mof_C 	C 	0.1677	0.49901	0.665	-0.117
Mof_H 	H 	0.2164	0.497	0.6361	0.078
Mof_C 	C 	0.1501	0.54188	0.7016	0.058
Mof_H 	H 	0.188	0.5692	0.6973	-0.005
Mof_C 	C 	0.1949	0.37171	0.54505	0.1
Mof_C 	C 	0.1033	0.33071	0.61417	0.1
Mof_C 	C 	0.1291	0.41197	0.6321	0.1
Mof_N 	N 	0.8724	0.11296	0.62421	-0.239
Mof_N 	N 	0.5001	0.2897	0.32826	-0.24
Mof_N 	N 	0.57268	0.93326	0.25987	-0.245
Mof_N 	N 	0.6596	0.15135	0.44023	-0.141
Mof_N 	N 	0.5925	0.11001	0.34625	-0.141
Mof_N 	N 	0.6837	0.06472	0.42201	-0.139
Mof_C 	C 	0.8279	0.15344	0.60499	0.06
Mof_H 	H 	0.8361	0.1836	0.6299	-0.006
Mof_C 	C 	0.771	0.15283	0.55048	-0.118
Mof_H 	H 	0.7414	0.1822	0.5377	0.075
Mof_C 	C 	0.7573	0.10847	0.51431	0.048
Mof_C 	C 	0.8023	0.06636	0.53462	-0.12
Mof_H 	H 	0.794	0.0354	0.5117	0.08
Mof_C 	C 	0.8592	0.07053	0.58865	0.067
Mof_H 	H 	0.8908	0.0419	0.6016	-0.006
Mof_C 	C 	0.5307	0.28204	0.39198	0.068
Mof_H 	H 	0.5289	0.3087	0.4244	-0.006
Mof_C 	C 	0.5651	0.23682	0.41305	-0.118
Mof_H 	H 	0.5864	0.2327	0.4589	0.075
Mof_C 	C 	0.5676	0.19791	0.3657	0.052
Mof_C 	C 	0.5346	0.20526	0.3002	-0.119
Mof_H 	H 	0.5345	0.1791	0.267	0.077
Mof_C 	C 	0.5019	0.25132	0.2838	0.064
Mof_H 	H 	0.4793	0.2562	0.2385	-0.012
Mof_C 	C 	0.54	0.97693	0.2395	0.061
Mof_H 	H 	0.5028	0.9772	0.2007	-0.008
Mof_C 	C 	0.5576	0.02145	0.2721	-0.119
Mof_H 	H 	0.5333	0.0516	0.2556	0.077
Mof_C 	C 	0.6117	0.02148	0.32949	0.051
Mof_C 	C 	0.6464	0.97684	0.34988	-0.122
Mof_H 	H 	0.6844	0.9755	0.3882	0.08
Mof_C 	C 	0.6253	0.93394	0.31391	0.064
Mof_H 	H 	0.6497	0.9034	0.3286	-0.008
Mof_C 	C 	0.6972	0.1076	0.45569	0.097
Mof_C 	C 	0.6084	0.14991	0.38531	0.101
Mof_C 	C 	0.6303	0.06842	0.36784	0.099
Mof_Co	Co	0.9547	0.38131	0.21322	1.099
Mof_Co	Co	0.4615	0.13648	0.79176	1.101
Mof_S 	S 	0.67765	0.06465	0.94178	-0.068
Mof_S 	S 	0.23238	0.22191	0.68136	-0.061
Mof_S 	S 	0.71664	0.28411	0.28954	-0.073
Mof_S 	S 	0.15189	0.43629	0.03991	-0.064
Mof_C 	C 	0.7959	0.32074	0.2757	0.089
Mof_C 	C 	0.0939	0.42374	0.1085	0.095
Mof_C 	C 	0.6025	0.08671	0.891	0.096
Mof_C 	C 	0.3171	0.19395	0.7097	0.101
Mof_N 	N 	0.8558	0.34559	0.26553	-0.266
Mof_N 	N 	0.0529	0.41418	0.15654	-0.268
Mof_N 	N 	0.5494	0.10177	0.85534	-0.273
Mof_N 	N 	0.3747	0.17334	0.73076	-0.276
Mof_N 	N 	0.3696	0.13075	0.87434	-0.238
Mof_N 	N 	0.99719	0.30872	0.17764	-0.242
Mof_N 	N 	0.0817	0.95296	0.24331	-0.243
Mof_N 	N 	0.15475	0.17105	0.05925	-0.141
Mof_N 	N 	0.1845	0.08596	0.0795	-0.141
Mof_N 	N 	0.0873	0.12872	0.15265	-0.14
Mof_C 	C 	0.3236	0.17107	0.8917	0.06
Mof_H 	H 	0.3303	0.2005	0.8649	-0.006
Mof_C 	C 	0.2672	0.17196	0.9464	-0.118
Mof_H 	H 	0.2365	0.2014	0.9572	0.075
Mof_C 	C 	0.2559	0.12882	0.98557	0.045
Mof_C 	C 	0.3025	0.08687	0.96793	-0.117
Mof_H 	H 	0.296	0.0569	0.9935	0.077
Mof_C 	C 	0.359	0.08925	0.9124	0.063
Mof_H 	H 	0.3911	0.0605	0.901	-0.006
Mof_C 	C 	0.0269	0.30165	0.11344	0.069
Mof_H 	H 	0.0254	0.3289	0.0821	-0.006
Mof_C 	C 	0.0597	0.25694	0.08986	-0.116
Mof_H 	H 	0.0803	0.2538	0.0437	0.075
Mof_C 	C 	0.0618	0.2166	0.13569	0.048
Mof_C 	C 	0.0285	0.22282	0.20187	-0.111
Mof_H 	H 	0.0269	0.1957	0.2335	0.075
Mof_C 	C 	0.9976	0.26929	0.22132	0.055
Mof_H 	H 	0.976	0.2735	0.267	-0.012
Mof_C 	C 	0.0298	0.99185	0.2488	0.054
Mof_H 	H 	0.9814	0.9889	0.2778	-0.005
Mof_C 	C 	0.043	0.03681	0.214	-0.113
Mof_H 	H 	0.0046	0.0638	0.2197	0.075
Mof_C 	C 	0.1128	0.04129	0.1713	0.047
Mof_C 	C 	0.1677	0.00099	0.165	-0.115
Mof_H 	H 	0.2164	0.003	0.1361	0.077
Mof_C 	C 	0.1501	0.95812	0.2016	0.056
Mof_H 	H 	0.188	0.9308	0.1973	-0.005
Mof_C 	C 	0.1949	0.12829	0.04505	0.1
Mof_C 	C 	0.1033	0.16929	0.11417	0.101
Mof_C 	C 	0.1291	0.08803	0.1321	0.1
Mof_N 	N 	0.8724	0.38704	0.12421	-0.239
Mof_N 	N 	0.5001	0.2103	0.82826	-0.24
Mof_N 	N 	0.57268	0.56674	0.75987	-0.245
Mof_N 	N 	0.6596	0.34865	0.94023	-0.141
Mof_N 	N 	0.5925	0.38999	0.84625	-0.141
Mof_N 	N 	0.6837	0.43528	0.92201	-0.139
Mof_C 	C 	0.8279	0.34656	0.10499	0.06
Mof_H 	H 	0.8361	0.3164	0.1299	-0.006
Mof_C 	C 	0.771	0.34717	0.05048	-0.118
Mof_H 	H 	0.7414	0.3178	0.0377	0.075
Mof_C 	C 	0.7573	0.39153	0.01431	0.047
Mof_C 	C 	0.8023	0.43364	0.03462	-0.12
Mof_H 	H 	0.794	0.4646	0.0117	0.079
Mof_C 	C 	0.8592	0.42947	0.08865	0.067
Mof_H 	H 	0.8908	0.4581	0.1016	-0.006
Mof_C 	C 	0.5307	0.21796	0.89198	0.068
Mof_H 	H 	0.5289	0.1913	0.9244	-0.006
Mof_C 	C 	0.5651	0.26318	0.91305	-0.118
Mof_H 	H 	0.5864	0.2673	0.9589	0.075
Mof_C 	C 	0.5676	0.30209	0.8657	0.052
Mof_C 	C 	0.5346	0.29474	0.8002	-0.119
Mof_H 	H 	0.5345	0.3209	0.767	0.077
Mof_C 	C 	0.5019	0.24868	0.7838	0.064
Mof_H 	H 	0.4793	0.2438	0.7385	-0.012
Mof_C 	C 	0.54	0.52307	0.7395	0.062
Mof_H 	H 	0.5028	0.5228	0.7007	-0.007
Mof_C 	C 	0.5576	0.47855	0.7721	-0.119
Mof_H 	H 	0.5333	0.4484	0.7556	0.077
Mof_C 	C 	0.6117	0.47852	0.82949	0.051
Mof_C 	C 	0.6464	0.52316	0.84988	-0.122
Mof_H 	H 	0.6844	0.5245	0.8882	0.08
Mof_C 	C 	0.6253	0.56606	0.81391	0.064
Mof_H 	H 	0.6497	0.5966	0.8286	-0.008
Mof_C 	C 	0.6972	0.3924	0.95569	0.097
Mof_C 	C 	0.6084	0.35009	0.88531	0.101
Mof_C 	C 	0.6303	0.43158	0.86784	0.099
Mof_Co	Co	0.0453	0.88131	0.28678	1.099
Mof_Co	Co	0.5385	0.63648	0.70824	1.101
Mof_S 	S 	0.32235	0.56465	0.55822	-0.067
Mof_S 	S 	0.76762	0.72191	0.81864	-0.061
Mof_S 	S 	0.28336	0.78411	0.21046	-0.073
Mof_S 	S 	0.84811	0.93629	0.46009	-0.064
Mof_C 	C 	0.2041	0.82074	0.2243	0.089
Mof_C 	C 	0.9061	0.92374	0.3915	0.095
Mof_C 	C 	0.3975	0.58671	0.609	0.096
Mof_C 	C 	0.6829	0.69395	0.7903	0.101
Mof_N 	N 	0.1442	0.84559	0.23447	-0.266
Mof_N 	N 	0.9471	0.91418	0.34346	-0.268
Mof_N 	N 	0.4506	0.60177	0.64466	-0.273
Mof_N 	N 	0.6253	0.67334	0.76924	-0.276
Mof_N 	N 	0.6304	0.63075	0.62566	-0.238
Mof_N 	N 	0.00281	0.80872	0.32236	-0.242
Mof_N 	N 	0.9183	0.45296	0.25669	-0.243
Mof_N 	N 	0.84525	0.67105	0.44075	-0.141
Mof_N 	N 	0.8155	0.58596	0.4205	-0.141
Mof_N 	N 	0.9127	0.62872	0.34735	-0.14
Mof_C 	C 	0.6764	0.67107	0.6083	0.061
Mof_H 	H 	0.6697	0.7005	0.6351	-0.006
Mof_C 	C 	0.7328	0.67196	0.5536	-0.118
Mof_H 	H 	0.7635	0.7014	0.5428	0.075
Mof_C 	C 	0.7441	0.62882	0.51443	0.046
Mof_C 	C 	0.6975	0.58687	0.53207	-0.118
Mof_H 	H 	0.704	0.5569	0.5065	0.077
Mof_C 	C 	0.641	0.58925	0.5876	0.063
Mof_H 	H 	0.6089	0.5605	0.599	-0.006
Mof_C 	C 	0.9731	0.80165	0.38656	0.069
Mof_H 	H 	0.9746	0.8289	0.4179	-0.006
Mof_C 	C 	0.9403	0.75694	0.41014	-0.116
Mof_H 	H 	0.9197	0.7538	0.4563	0.075
Mof_C 	C 	0.9382	0.7166	0.36431	0.048
Mof_C 	C 	0.9715	0.72282	0.29813	-0.112
Mof_H 	H 	0.9731	0.6957	0.2665	0.075
Mof_C 	C 	0.0024	0.76929	0.27868	0.056
Mof_H 	H 	0.024	0.7735	0.233	-0.012
Mof_C 	C 	0.9702	0.49185	0.2512	0.057
Mof_H 	H 	0.0186	0.4889	0.2222	-0.006
Mof_C 	C 	0.957	0.53681	0.286	-0.116
Mof_H 	H 	0.9954	0.5638	0.2803	0.076
Mof_C 	C 	0.8872	0.54129	0.3287	0.048
Mof_C 	C 	0.8323	0.50099	0.335	-0.117
Mof_H 	H 	0.7836	0.503	0.3639	0.078
Mof_C 	C 	0.8499	0.45812	0.2984	0.058
Mof_H 	H 	0.812	0.4308	0.3027	-0.005
Mof_C 	C 	0.8051	0.62829	0.45495	0.1
Mof_C 	C 	0.8967	0.66929	0.38583	0.1
Mof_C 	C 	0.8709	0.58803	0.3679	0.1
Mof_N 	N 	0.1276	0.88704	0.37579	-0.239
Mof_N 	N 	0.4999	0.7103	0.67174	-0.24
Mof_N 	N 	0.42732	0.06674	0.74013	-0.245
Mof_N 	N 	0.3404	0.84865	0.55977	-0.141
Mof_N 	N 	0.4075	0.88999	0.65375	-0.141
Mof_N 	N 	0.3163	0.93528	0.57799	-0.139
Mof_C 	C 	0.1721	0.84656	0.39501	0.06
Mof_H 	H 	0.1639	0.8164	0.3701	-0.006
Mof_C 	C 	0.229	0.84717	0.44952	-0.118
Mof_H 	H 	0.2586	0.8178	0.4623	0.075
Mof_C 	C 	0.2427	0.89153	0.48569	0.048
Mof_C 	C 	0.1977	0.93364	0.46538	-0.12
Mof_H 	H 	0.206	0.9646	0.4883	0.08
Mof_C 	C 	0.1408	0.92947	0.41135	0.067
Mof_H 	H 	0.1092	0.9581	0.3984	-0.006
Mof_C 	C 	0.4693	0.71796	0.60802	0.068
Mof_H 	H 	0.4711	0.6913	0.5756	-0.006
Mof_C 	C 	0.4349	0.76318	0.58695	-0.118
Mof_H 	H 	0.4136	0.7673	0.5411	0.075
Mof_C 	C 	0.4324	0.80209	0.6343	0.052
Mof_C 	C 	0.4654	0.79474	0.6998	-0.119
Mof_H 	H 	0.4655	0.8209	0.733	0.077
Mof_C 	C 	0.4981	0.74868	0.7162	0.064
Mof_H 	H 	0.5207	0.7438	0.7615	-0.012
Mof_C 	C 	0.46	0.02307	0.7605	0.061
Mof_H 	H 	0.4972	0.0228	0.7993	-0.008
Mof_C 	C 	0.4424	0.97855	0.7279	-0.119
Mof_H 	H 	0.4667	0.9484	0.7444	0.077
Mof_C 	C 	0.3883	0.97852	0.67051	0.051
Mof_C 	C 	0.3536	0.02316	0.65012	-0.122
Mof_H 	H 	0.3156	0.0245	0.6118	0.08
Mof_C 	C 	0.3747	0.06606	0.68609	0.064
Mof_H 	H 	0.3503	0.0966	0.6714	-0.008
Mof_C 	C 	0.3028	0.8924	0.54431	0.097
Mof_C 	C 	0.3916	0.85009	0.61469	0.101
Mof_C 	C 	0.3697	0.93158	0.63216	0.099
_end
