data_functionalizedCrystal
_audit_creation_method	'EQeq! by Chris Wilmer'
_symmetry_space_group_name_H-M	'P1'
_symmetry_Int_Tables_number	1
_symmetry_cell_setting	triclinic
loop_
_symmetry_equiv_pos_as_xyz
  x,y,z
_cell_length_a	39.073
_cell_length_b	19.229
_cell_length_c	13.798
_cell_angle_alpha	90
_cell_angle_beta	103.6
_cell_angle_gamma	90
loop_
_atom_site_label
_atom_site_type_symbol
_atom_site_fract_x
_atom_site_fract_y
_atom_site_fract_z
_atom_site_charge
Mof_C 	C 	0.1297	0.7968	0.8359	-0.167
Mof_H 	H 	0.1421	0.7618	0.8757	0.099
Mof_C 	C 	0.1021	0.8411	0.6822	-0.167
Mof_H 	H 	0.0952	0.8384	0.6131	0.093
Mof_C 	C 	0.0952	0.8979	0.7291	0.104
Mof_H 	H 	0.0827	0.9335	0.691	0.011
Mof_C 	C 	0.12556	0.7229	0.6868	0.09
Mof_C 	C 	0.119	0.7872	0.7355	0.088
Mof_C 	C 	0.0892	0.2125	0.2044	0.104
Mof_C 	C 	0.0757	0.1566	0.1346	0.078
Mof_C 	C 	0.0616	0.4444	0.6496	0.144
Mof_H 	H 	0.0734	0.402	0.6563	-0.001
Mof_C 	C 	0.0265	0.4429	0.6314	-0.202
Mof_H 	H 	0.0149	0.4005	0.6184	0.11
Mof_C 	C 	0.1224	0.2344	0.2184	-0.186
Mof_H 	H 	0.1375	0.2147	0.183	0.103
Mof_C 	C 	0.0682	0.2454	0.2546	-0.185
Mof_H 	H 	0.0447	0.2326	0.2457	0.101
Mof_C 	C 	0.1337	0.2859	0.2852	0.127
Mof_H 	H 	0.1572	0.2995	0.2964	-0.008
Mof_C 	C 	0.1515	0.4444	0.0112	-0.21
Mof_H 	H 	0.1559	0.4022	0.0447	0.111
Mof_C 	C 	0.1481	0.4465	0.905	0.147
Mof_H 	H 	0.1481	0.4042	0.8722	-0.003
Mof_C 	C 	0.0819	0.2976	0.3182	0.13
Mof_H 	H 	0.0671	0.3202	0.3519	-0.002
Mof_C 	C 	0.1224	0.8558	0.8778	0.113
Mof_H 	H 	0.13	0.8606	0.9466	0.003
Mof_Cd	Cd	0.13512	0.40686	0.43847	0.393
Mof_N 	N 	0.13818	0.6208	0.6677	-0.07
Mof_N 	N 	0.13682	0.6666	0.7358	-0.092
Mof_N 	N 	0.12821	0.6488	0.5805	-0.074
Mof_N 	N 	0.12031	0.7145	0.5907	-0.094
Mof_N 	N 	0.10516	0.907	0.8265	-0.168
Mof_N 	N 	0.0433	0.0809	0.0548	-0.072
Mof_N 	N 	0.11389	0.3173	0.3344	-0.179
Mof_N 	N 	0.14731	0.533	0.3037	-0.069
Mof_N 	N 	0.14851	0.5549	0.2152	-0.089
Mof_N 	N 	0.07263	0.0807	0.0263	-0.066
Mof_N 	N 	0.04437	0.1289	0.124	-0.099
Mof_N 	N 	0.0936	0.1285	0.0756	-0.094
Mof_N 	N 	0.91839	0.4661	0.5924	-0.068
Mof_N 	N 	0.95078	0.4442	0.6068	-0.089
Mof_H 	H 	0.0285	0.9543	0.2935	0.285
Mof_H 	H 	0.0256	0.0325	0.3226	0.29
Mof_H 	H 	0.0356	0.0133	0.2223	0.332
Mof_C 	C 	0.6297	0.2968	0.8359	-0.165
Mof_H 	H 	0.6421	0.2618	0.8757	0.099
Mof_C 	C 	0.6021	0.3411	0.6822	-0.164
Mof_H 	H 	0.5952	0.3384	0.6131	0.093
Mof_C 	C 	0.5952	0.3979	0.7291	0.104
Mof_H 	H 	0.5827	0.4335	0.691	0.017
Mof_C 	C 	0.62556	0.2229	0.6868	0.091
Mof_C 	C 	0.619	0.2872	0.7355	0.088
Mof_C 	C 	0.5892	0.7125	0.2044	0.104
Mof_C 	C 	0.5757	0.6566	0.1346	0.077
Mof_C 	C 	0.5616	0.9444	0.6496	0.141
Mof_H 	H 	0.5734	0.902	0.6563	-0.003
Mof_C 	C 	0.5265	0.9429	0.6314	-0.23
Mof_H 	H 	0.5149	0.9005	0.6184	0.118
Mof_C 	C 	0.6224	0.7344	0.2184	-0.186
Mof_H 	H 	0.6375	0.7147	0.183	0.102
Mof_C 	C 	0.5682	0.7454	0.2546	-0.186
Mof_H 	H 	0.5447	0.7326	0.2457	0.1
Mof_C 	C 	0.6337	0.7859	0.2852	0.127
Mof_H 	H 	0.6572	0.7995	0.2964	-0.009
Mof_C 	C 	0.6515	0.9444	0.0112	-0.232
Mof_H 	H 	0.6559	0.9022	0.0447	0.116
Mof_C 	C 	0.6481	0.9465	0.905	0.138
Mof_H 	H 	0.6481	0.9042	0.8722	-0.003
Mof_C 	C 	0.5819	0.7976	0.3182	0.129
Mof_H 	H 	0.5671	0.8202	0.3519	-0.003
Mof_C 	C 	0.6224	0.3558	0.8778	0.114
Mof_H 	H 	0.63	0.3606	0.9466	0.007
Mof_Cd	Cd	0.63512	0.90686	0.43847	0.385
Mof_N 	N 	0.63818	0.1208	0.6677	-0.07
Mof_N 	N 	0.63682	0.1666	0.7358	-0.092
Mof_N 	N 	0.62821	0.1488	0.5805	-0.074
Mof_N 	N 	0.62031	0.2145	0.5907	-0.093
Mof_N 	N 	0.60516	0.407	0.8265	-0.163
Mof_N 	N 	0.5433	0.5809	0.0548	-0.071
Mof_N 	N 	0.61389	0.8173	0.3344	-0.179
Mof_N 	N 	0.64731	0.033	0.3037	-0.063
Mof_N 	N 	0.64851	0.0549	0.2152	-0.089
Mof_N 	N 	0.57263	0.5807	0.0263	-0.066
Mof_N 	N 	0.54437	0.6289	0.124	-0.099
Mof_N 	N 	0.5936	0.6285	0.0756	-0.094
Mof_N 	N 	0.41839	0.9661	0.5924	-0.075
Mof_N 	N 	0.45078	0.9442	0.6068	-0.096
Mof_H 	H 	0.5285	0.4543	0.2935	0.235
Mof_H 	H 	0.5256	0.5325	0.3226	0.238
Mof_H 	H 	0.5356	0.5133	0.2223	0.241
Mof_C 	C 	0.8703	0.7968	0.1641	-0.167
Mof_H 	H 	0.8579	0.7618	0.1243	0.095
Mof_C 	C 	0.8979	0.8411	0.3178	-0.166
Mof_H 	H 	0.9048	0.8384	0.3869	0.093
Mof_C 	C 	0.9048	0.8979	0.2709	0.103
Mof_H 	H 	0.9173	0.9335	0.309	0.012
Mof_C 	C 	0.87444	0.7229	0.3132	0.089
Mof_C 	C 	0.881	0.7872	0.2645	0.087
Mof_C 	C 	0.9108	0.2125	0.7956	0.107
Mof_C 	C 	0.9243	0.1566	0.8654	0.079
Mof_C 	C 	0.9384	0.4444	0.3504	0.146
Mof_H 	H 	0.9266	0.402	0.3437	-0.003
Mof_C 	C 	0.9735	0.4429	0.3686	-0.208
Mof_H 	H 	0.9851	0.4005	0.3816	0.112
Mof_C 	C 	0.8776	0.2344	0.7816	-0.187
Mof_H 	H 	0.8625	0.2147	0.817	0.106
Mof_C 	C 	0.9318	0.2454	0.7454	-0.186
Mof_H 	H 	0.9553	0.2326	0.7543	0.104
Mof_C 	C 	0.8663	0.2859	0.7148	0.129
Mof_H 	H 	0.8428	0.2995	0.7036	-0.007
Mof_C 	C 	0.8485	0.4444	0.9888	-0.143
Mof_H 	H 	0.8441	0.4022	0.9553	0.093
Mof_C 	C 	0.8519	0.4465	0.095	0.096
Mof_H 	H 	0.8519	0.4042	0.1278	0.011
Mof_C 	C 	0.9181	0.2976	0.6818	0.132
Mof_H 	H 	0.9329	0.3202	0.6481	-0.002
Mof_C 	C 	0.8776	0.8558	0.1222	0.112
Mof_H 	H 	0.87	0.8606	0.0534	-0.001
Mof_Cd	Cd	0.86488	0.40686	0.56153	0.393
Mof_N 	N 	0.86182	0.6208	0.3323	-0.07
Mof_N 	N 	0.86318	0.6666	0.2642	-0.094
Mof_N 	N 	0.87179	0.6488	0.4195	-0.074
Mof_N 	N 	0.87969	0.7145	0.4093	-0.094
Mof_N 	N 	0.89484	0.907	0.1735	-0.169
Mof_N 	N 	0.9567	0.0809	0.9452	-0.067
Mof_N 	N 	0.88611	0.3173	0.6656	-0.179
Mof_N 	N 	0.85269	0.533	0.6963	-0.069
Mof_N 	N 	0.85149	0.5549	0.7848	-0.092
Mof_N 	N 	0.92737	0.0807	0.9737	-0.061
Mof_N 	N 	0.95563	0.1289	0.876	-0.097
Mof_N 	N 	0.9064	0.1285	0.9244	-0.091
Mof_N 	N 	0.08161	0.4661	0.4076	-0.069
Mof_N 	N 	0.04922	0.4442	0.3932	-0.089
Mof_H 	H 	0.9715	0.9543	0.7065	0.285
Mof_H 	H 	0.9744	0.0325	0.6774	0.29
Mof_H 	H 	0.9644	0.0133	0.7777	0.334
Mof_C 	C 	0.3703	0.2968	0.1641	-0.165
Mof_H 	H 	0.3579	0.2618	0.1243	0.096
Mof_C 	C 	0.3979	0.3411	0.3178	-0.164
Mof_H 	H 	0.4048	0.3384	0.3869	0.093
Mof_C 	C 	0.4048	0.3979	0.2709	0.103
Mof_H 	H 	0.4173	0.4335	0.309	0.017
Mof_C 	C 	0.37444	0.2229	0.3132	0.09
Mof_C 	C 	0.381	0.2872	0.2645	0.087
Mof_C 	C 	0.4108	0.7125	0.7956	0.106
Mof_C 	C 	0.4243	0.6566	0.8654	0.078
Mof_C 	C 	0.4384	0.9444	0.3504	0.14
Mof_H 	H 	0.4266	0.902	0.3437	-0.003
Mof_C 	C 	0.4735	0.9429	0.3686	-0.23
Mof_H 	H 	0.4851	0.9005	0.3816	0.117
Mof_C 	C 	0.3776	0.7344	0.7816	-0.187
Mof_H 	H 	0.3625	0.7147	0.817	0.105
Mof_C 	C 	0.4318	0.7454	0.7454	-0.187
Mof_H 	H 	0.4553	0.7326	0.7543	0.102
Mof_C 	C 	0.3663	0.7859	0.7148	0.128
Mof_H 	H 	0.3428	0.7995	0.7036	-0.008
Mof_C 	C 	0.3485	0.9444	0.9888	-0.169
Mof_H 	H 	0.3441	0.9022	0.9553	0.099
Mof_C 	C 	0.3519	0.9465	0.095	0.089
Mof_H 	H 	0.3519	0.9042	0.1278	0.011
Mof_C 	C 	0.4181	0.7976	0.6818	0.131
Mof_H 	H 	0.4329	0.8202	0.6481	-0.003
Mof_C 	C 	0.3776	0.3558	0.1222	0.112
Mof_H 	H 	0.37	0.3606	0.0534	0.002
Mof_Cd	Cd	0.36488	0.90686	0.56153	0.385
Mof_N 	N 	0.36182	0.1208	0.3323	-0.07
Mof_N 	N 	0.36318	0.1666	0.2642	-0.094
Mof_N 	N 	0.37179	0.1488	0.4195	-0.074
Mof_N 	N 	0.37969	0.2145	0.4093	-0.093
Mof_N 	N 	0.39484	0.407	0.1735	-0.164
Mof_N 	N 	0.4567	0.5809	0.9452	-0.068
Mof_N 	N 	0.38611	0.8173	0.6656	-0.179
Mof_N 	N 	0.35269	0.033	0.6963	-0.063
Mof_N 	N 	0.35149	0.0549	0.7848	-0.092
Mof_N 	N 	0.42737	0.5807	0.9737	-0.061
Mof_N 	N 	0.45563	0.6289	0.876	-0.097
Mof_N 	N 	0.4064	0.6285	0.9244	-0.091
Mof_N 	N 	0.58161	0.9661	0.4076	-0.075
Mof_N 	N 	0.54922	0.9442	0.3932	-0.096
Mof_H 	H 	0.4715	0.4543	0.7065	0.235
Mof_H 	H 	0.4744	0.5325	0.6774	0.237
Mof_H 	H 	0.4644	0.5133	0.7777	0.241
Mof_C 	C 	0.8703	0.2032	0.1641	-0.165
Mof_H 	H 	0.8579	0.2382	0.1243	0.096
Mof_C 	C 	0.8979	0.1589	0.3178	-0.163
Mof_H 	H 	0.9048	0.1616	0.3869	0.094
Mof_C 	C 	0.9048	0.1021	0.2709	0.104
Mof_H 	H 	0.9173	0.0665	0.309	0.019
Mof_C 	C 	0.87444	0.2771	0.3132	0.091
Mof_C 	C 	0.881	0.2128	0.2645	0.087
Mof_C 	C 	0.9108	0.7875	0.7956	0.105
Mof_C 	C 	0.9243	0.8434	0.8654	0.078
Mof_C 	C 	0.9384	0.5556	0.3504	0.146
Mof_H 	H 	0.9266	0.598	0.3437	-0.003
Mof_C 	C 	0.9735	0.5571	0.3686	-0.208
Mof_H 	H 	0.9851	0.5995	0.3816	0.112
Mof_C 	C 	0.8776	0.7656	0.7816	-0.186
Mof_H 	H 	0.8625	0.7853	0.817	0.104
Mof_C 	C 	0.9318	0.7546	0.7454	-0.186
Mof_H 	H 	0.9553	0.7674	0.7543	0.102
Mof_C 	C 	0.8663	0.7141	0.7148	0.128
Mof_H 	H 	0.8428	0.7005	0.7036	-0.008
Mof_C 	C 	0.8485	0.5556	0.9888	-0.143
Mof_H 	H 	0.8441	0.5978	0.9553	0.092
Mof_C 	C 	0.8519	0.5535	0.095	0.096
Mof_H 	H 	0.8519	0.5958	0.1278	0.011
Mof_C 	C 	0.9181	0.7024	0.6818	0.131
Mof_H 	H 	0.9329	0.6798	0.6481	-0.002
Mof_C 	C 	0.8776	0.1442	0.1222	0.112
Mof_H 	H 	0.87	0.1394	0.0534	0.002
Mof_Cd	Cd	0.86488	0.59314	0.56153	0.393
Mof_N 	N 	0.86182	0.3792	0.3323	-0.07
Mof_N 	N 	0.86318	0.3334	0.2642	-0.094
Mof_N 	N 	0.87179	0.3512	0.4195	-0.073
Mof_N 	N 	0.87969	0.2855	0.4093	-0.093
Mof_N 	N 	0.89484	0.093	0.1735	-0.164
Mof_N 	N 	0.9567	0.9191	0.9452	-0.07
Mof_N 	N 	0.88611	0.6827	0.6656	-0.179
Mof_N 	N 	0.85269	0.467	0.6963	-0.069
Mof_N 	N 	0.85149	0.4451	0.7848	-0.092
Mof_N 	N 	0.92737	0.9193	0.9737	-0.066
Mof_N 	N 	0.95563	0.8711	0.876	-0.096
Mof_N 	N 	0.9064	0.8715	0.9244	-0.093
Mof_N 	N 	0.08161	0.5339	0.4076	-0.069
Mof_N 	N 	0.04922	0.5558	0.3932	-0.089
Mof_H 	H 	0.9715	0.0457	0.7065	0.14
Mof_H 	H 	0.9744	0.9675	0.6774	0.141
Mof_H 	H 	0.9644	0.9867	0.7777	0.103
Mof_C 	C 	0.3703	0.7032	0.1641	-0.165
Mof_H 	H 	0.3579	0.7382	0.1243	0.095
Mof_C 	C 	0.3979	0.6589	0.3178	-0.163
Mof_H 	H 	0.4048	0.6616	0.3869	0.093
Mof_C 	C 	0.4048	0.6021	0.2709	0.103
Mof_H 	H 	0.4173	0.5665	0.309	0.017
Mof_C 	C 	0.37444	0.7771	0.3132	0.09
Mof_C 	C 	0.381	0.7128	0.2645	0.086
Mof_C 	C 	0.4108	0.2875	0.7956	0.107
Mof_C 	C 	0.4243	0.3434	0.8654	0.078
Mof_C 	C 	0.4384	0.0556	0.3504	0.154
Mof_H 	H 	0.4266	0.098	0.3437	-0.005
Mof_C 	C 	0.4735	0.0571	0.3686	-0.217
Mof_H 	H 	0.4851	0.0995	0.3816	0.115
Mof_C 	C 	0.3776	0.2656	0.7816	-0.187
Mof_H 	H 	0.3625	0.2853	0.817	0.106
Mof_C 	C 	0.4318	0.2546	0.7454	-0.186
Mof_H 	H 	0.4553	0.2674	0.7543	0.103
Mof_C 	C 	0.3663	0.2141	0.7148	0.129
Mof_H 	H 	0.3428	0.2005	0.7036	-0.007
Mof_C 	C 	0.3485	0.0556	0.9888	-0.154
Mof_H 	H 	0.3441	0.0978	0.9553	0.097
Mof_C 	C 	0.3519	0.0535	0.095	0.105
Mof_H 	H 	0.3519	0.0958	0.1278	0.009
Mof_C 	C 	0.4181	0.2024	0.6818	0.132
Mof_H 	H 	0.4329	0.1798	0.6481	-0.002
Mof_C 	C 	0.3776	0.6442	0.1222	0.111
Mof_H 	H 	0.37	0.6394	0.0534	0.002
Mof_Cd	Cd	0.36488	0.09314	0.56153	0.395
Mof_N 	N 	0.36182	0.8792	0.3323	-0.074
Mof_N 	N 	0.36318	0.8334	0.2642	-0.095
Mof_N 	N 	0.37179	0.8512	0.4195	-0.075
Mof_N 	N 	0.37969	0.7855	0.4093	-0.094
Mof_N 	N 	0.39484	0.593	0.1735	-0.164
Mof_N 	N 	0.4567	0.4191	0.9452	-0.068
Mof_N 	N 	0.38611	0.1827	0.6656	-0.179
Mof_N 	N 	0.35269	0.967	0.6963	-0.076
Mof_N 	N 	0.35149	0.9451	0.7848	-0.099
Mof_N 	N 	0.42737	0.4193	0.9737	-0.061
Mof_N 	N 	0.45563	0.3711	0.876	-0.097
Mof_N 	N 	0.4064	0.3715	0.9244	-0.091
Mof_N 	N 	0.58161	0.0339	0.4076	-0.063
Mof_N 	N 	0.54922	0.0558	0.3932	-0.09
Mof_H 	H 	0.4715	0.5457	0.7065	0.234
Mof_H 	H 	0.4744	0.4675	0.6774	0.237
Mof_H 	H 	0.4644	0.4867	0.7777	0.241
Mof_C 	C 	0.1297	0.2032	0.8359	-0.165
Mof_H 	H 	0.1421	0.2382	0.8757	0.099
Mof_C 	C 	0.1021	0.1589	0.6822	-0.164
Mof_H 	H 	0.0952	0.1616	0.6131	0.094
Mof_C 	C 	0.0952	0.1021	0.7291	0.105
Mof_H 	H 	0.0827	0.0665	0.691	0.019
Mof_C 	C 	0.12556	0.2771	0.6868	0.091
Mof_C 	C 	0.119	0.2128	0.7355	0.088
Mof_C 	C 	0.0892	0.7875	0.2044	0.103
Mof_C 	C 	0.0757	0.8434	0.1346	0.077
Mof_C 	C 	0.0616	0.5556	0.6496	0.143
Mof_H 	H 	0.0734	0.598	0.6563	-0.001
Mof_C 	C 	0.0265	0.5571	0.6314	-0.202
Mof_H 	H 	0.0149	0.5995	0.6184	0.11
Mof_C 	C 	0.1224	0.7656	0.2184	-0.185
Mof_H 	H 	0.1375	0.7853	0.183	0.101
Mof_C 	C 	0.0682	0.7546	0.2546	-0.185
Mof_H 	H 	0.0447	0.7674	0.2457	0.1
Mof_C 	C 	0.1337	0.7141	0.2852	0.126
Mof_H 	H 	0.1572	0.7005	0.2964	-0.008
Mof_C 	C 	0.1515	0.5556	0.0112	-0.209
Mof_H 	H 	0.1559	0.5978	0.0447	0.11
Mof_C 	C 	0.1481	0.5535	0.905	0.147
Mof_H 	H 	0.1481	0.5958	0.8722	-0.003
Mof_C 	C 	0.0819	0.7024	0.3182	0.129
Mof_H 	H 	0.0671	0.6798	0.3519	-0.002
Mof_C 	C 	0.1224	0.1442	0.8778	0.114
Mof_H 	H 	0.13	0.1394	0.9466	0.007
Mof_Cd	Cd	0.13512	0.59314	0.43847	0.392
Mof_N 	N 	0.13818	0.3792	0.6677	-0.069
Mof_N 	N 	0.13682	0.3334	0.7358	-0.092
Mof_N 	N 	0.12821	0.3512	0.5805	-0.073
Mof_N 	N 	0.12031	0.2855	0.5907	-0.093
Mof_N 	N 	0.10516	0.093	0.8265	-0.163
Mof_N 	N 	0.0433	0.9191	0.0548	-0.075
Mof_N 	N 	0.11389	0.6827	0.3344	-0.179
Mof_N 	N 	0.14731	0.467	0.3037	-0.069
Mof_N 	N 	0.14851	0.4451	0.2152	-0.089
Mof_N 	N 	0.07263	0.9193	0.0263	-0.071
Mof_N 	N 	0.04437	0.8711	0.124	-0.098
Mof_N 	N 	0.0936	0.8715	0.0756	-0.096
Mof_N 	N 	0.91839	0.5339	0.5924	-0.068
Mof_N 	N 	0.95078	0.5558	0.6068	-0.089
Mof_H 	H 	0.0285	0.0457	0.2935	0.144
Mof_H 	H 	0.0256	0.9675	0.3226	0.145
Mof_H 	H 	0.0356	0.9867	0.2223	0.109
Mof_C 	C 	0.6297	0.7032	0.8359	-0.165
Mof_H 	H 	0.6421	0.7382	0.8757	0.098
Mof_C 	C 	0.6021	0.6589	0.6822	-0.164
Mof_H 	H 	0.5952	0.6616	0.6131	0.093
Mof_C 	C 	0.5952	0.6021	0.7291	0.104
Mof_H 	H 	0.5827	0.5665	0.691	0.017
Mof_C 	C 	0.62556	0.7771	0.6868	0.09
Mof_C 	C 	0.619	0.7128	0.7355	0.087
Mof_C 	C 	0.5892	0.2875	0.2044	0.104
Mof_C 	C 	0.5757	0.3434	0.1346	0.077
Mof_C 	C 	0.5616	0.0556	0.6496	0.155
Mof_H 	H 	0.5734	0.098	0.6563	-0.005
Mof_C 	C 	0.5265	0.0571	0.6314	-0.217
Mof_H 	H 	0.5149	0.0995	0.6184	0.116
Mof_C 	C 	0.6224	0.2656	0.2184	-0.186
Mof_H 	H 	0.6375	0.2853	0.183	0.103
Mof_C 	C 	0.5682	0.2546	0.2546	-0.186
Mof_H 	H 	0.5447	0.2674	0.2457	0.101
Mof_C 	C 	0.6337	0.2141	0.2852	0.127
Mof_H 	H 	0.6572	0.2005	0.2964	-0.008
Mof_C 	C 	0.6515	0.0556	0.0112	-0.22
Mof_H 	H 	0.6559	0.0978	0.0447	0.115
Mof_C 	C 	0.6481	0.0535	0.905	0.155
Mof_H 	H 	0.6481	0.0958	0.8722	-0.005
Mof_C 	C 	0.5819	0.2024	0.3182	0.13
Mof_H 	H 	0.5671	0.1798	0.3519	-0.002
Mof_C 	C 	0.6224	0.6442	0.8778	0.113
Mof_H 	H 	0.63	0.6394	0.9466	0.007
Mof_Cd	Cd	0.63512	0.09314	0.43847	0.395
Mof_N 	N 	0.63818	0.8792	0.6677	-0.073
Mof_N 	N 	0.63682	0.8334	0.7358	-0.094
Mof_N 	N 	0.62821	0.8512	0.5805	-0.075
Mof_N 	N 	0.62031	0.7855	0.5907	-0.093
Mof_N 	N 	0.60516	0.593	0.8265	-0.163
Mof_N 	N 	0.5433	0.4191	0.0548	-0.071
Mof_N 	N 	0.61389	0.1827	0.3344	-0.179
Mof_N 	N 	0.64731	0.967	0.3037	-0.076
Mof_N 	N 	0.64851	0.9451	0.2152	-0.096
Mof_N 	N 	0.57263	0.4193	0.0263	-0.066
Mof_N 	N 	0.54437	0.3711	0.124	-0.099
Mof_N 	N 	0.5936	0.3715	0.0756	-0.094
Mof_N 	N 	0.41839	0.0339	0.5924	-0.063
Mof_N 	N 	0.45078	0.0558	0.6068	-0.089
Mof_H 	H 	0.5285	0.5457	0.2935	0.234
Mof_H 	H 	0.5256	0.4675	0.3226	0.238
Mof_H 	H 	0.5356	0.4867	0.2223	0.241
Mof_C 	C 	0.2958	0.5	0.9619	-0.138
Mof_H 	H 	0.2764	0.5	0.9903	0.092
Mof_C 	C 	0.3527	0.5	0.8897	0.096
Mof_H 	H 	0.3727	0.5	0.864	0.01
Mof_C 	C 	0.9697	0.5	0.6149	0.083
Mof_C 	C 	0.3286	0.5	0.02	0.086
Mof_H 	H 	0.3309	0.5	0.0886	0.005
Mof_C 	C 	0.2911	0.5	0.86	0.074
Mof_C 	C 	0.3207	0.5	0.8259	-0.149
Mof_H 	H 	0.319	0.5	0.7575	0.093
Mof_C 	C 	0.008	0.5	0.6314	0.127
Mof_C 	C 	0.1486	0.5	0.0603	0.139
Mof_C 	C 	0.2576	0.5	0.7927	0.094
Mof_Cd	Cd	0.14264	0.5	0.6868	0.413
Mof_N 	N 	0.35673	0.5	0.9888	-0.154
Mof_N 	N 	0.2271	0.5	0.8171	-0.087
Mof_N 	N 	0.2534	0.5	0.6956	-0.088
Mof_N 	N 	0.0802	0.5	0.6585	-0.179
Mof_N 	N 	0.2033	0.5	0.7303	-0.064
Mof_N 	N 	0.1453	0.5	0.8542	-0.19
Mof_N 	N 	0.2185	0.5	0.66	-0.039
Mof_O 	O 	0.15298	0.5	0.5317	-0.25
Mof_C 	C 	0.1483	0.5	0.1626	0.075
Mof_C 	C 	0.7958	0	0.9619	-0.137
Mof_H 	H 	0.7764	0	0.9903	0.094
Mof_C 	C 	0.8527	0	0.8897	0.098
Mof_H 	H 	0.8727	0	0.864	0.013
Mof_C 	C 	0.4697	0	0.6149	0.087
Mof_C 	C 	0.8286	0	0.02	0.087
Mof_H 	H 	0.8309	-6.26314e-34	0.0886	0.008
Mof_C 	C 	0.7911	-1.0021e-32	0.86	0.075
Mof_C 	C 	0.8207	5.01051e-33	0.8259	-0.148
Mof_H 	H 	0.819	0	0.7575	0.095
Mof_C 	C 	0.508	-5.01051e-33	0.6314	0.154
Mof_C 	C 	0.6486	0	0.0603	0.162
Mof_C 	C 	0.7576	0	0.7927	0.095
Mof_Cd	Cd	0.64264	0	0.6868	0.419
Mof_N 	N 	0.85673	1.0021e-32	0.9888	-0.153
Mof_N 	N 	0.7271	-5.01051e-33	0.8171	-0.086
Mof_N 	N 	0.7534	5.01051e-33	0.6956	-0.086
Mof_N 	N 	0.5802	-5.01051e-33	0.6585	-0.175
Mof_N 	N 	0.7033	0	0.7303	-0.063
Mof_N 	N 	0.6453	1.0021e-32	0.8542	-0.185
Mof_N 	N 	0.7185	0	0.66	-0.038
Mof_O 	O 	0.65298	0	0.5317	-0.245
Mof_C 	C 	0.6483	0	0.1626	0.081
Mof_C 	C 	0.7042	0.5	0.0381	-0.207
Mof_H 	H 	0.7236	0.5	0.0097	0.11
Mof_C 	C 	0.6473	0.5	0.1103	0.113
Mof_H 	H 	0.6273	0.5	0.136	0.003
Mof_C 	C 	0.0303	0.5	0.3851	0.078
Mof_C 	C 	0.6714	0.5	0.98	0.161
Mof_H 	H 	0.6691	0.5	0.9114	-0.017
Mof_C 	C 	0.7089	0.5	0.14	0.107
Mof_C 	C 	0.6793	0.5	0.1741	-0.179
Mof_H 	H 	0.681	0.5	0.2425	0.103
Mof_C 	C 	0.992	0.5	0.3686	0.134
Mof_C 	C 	0.8514	0.5	0.9397	0.086
Mof_C 	C 	0.7424	0.5	0.2073	0.08
Mof_Cd	Cd	0.85736	0.5	0.3132	0.411
Mof_N 	N 	0.64327	0.5	0.0112	-0.184
Mof_N 	N 	0.7729	0.5	0.1829	-0.087
Mof_N 	N 	0.7466	0.5	0.3044	-0.086
Mof_N 	N 	0.9198	0.5	0.3415	-0.18
Mof_N 	N 	0.7967	0.5	0.2697	-0.065
Mof_N 	N 	0.8547	0.5	0.1458	-0.17
Mof_N 	N 	0.7815	0.5	0.34	-0.04
Mof_O 	O 	0.84702	0.5	0.4683	-0.25
Mof_C 	C 	0.8517	0.5	0.8374	0.098
Mof_C 	C 	0.2042	3.13157e-34	0.0381	-0.207
Mof_H 	H 	0.2236	-7.82892e-35	0.0097	0.112
Mof_C 	C 	0.1473	-1.25263e-33	0.1103	0.116
Mof_H 	H 	0.1273	0	0.136	0.006
Mof_C 	C 	0.5303	0	0.3851	0.086
Mof_C 	C 	0.1714	0	0.98	0.163
Mof_H 	H 	0.1691	0	0.9114	-0.015
Mof_C 	C 	0.2089	-1.25263e-33	0.14	0.109
Mof_C 	C 	0.1793	0	0.1741	-0.179
Mof_H 	H 	0.181	0	0.2425	0.105
Mof_C 	C 	0.492	0	0.3686	0.153
Mof_C 	C 	0.3514	0	0.9397	0.111
Mof_C 	C 	0.2424	0	0.2073	0.081
Mof_Cd	Cd	0.35736	0	0.3132	0.418
Mof_N 	N 	0.14327	0	0.0112	-0.182
Mof_N 	N 	0.2729	0	0.1829	-0.085
Mof_N 	N 	0.2466	0	0.3044	-0.084
Mof_N 	N 	0.4198	0	0.3415	-0.175
Mof_N 	N 	0.2967	0	0.2697	-0.063
Mof_N 	N 	0.3547	0	0.1458	-0.165
Mof_N 	N 	0.2815	2.50526e-33	0.34	-0.038
Mof_O 	O 	0.34702	5.01051e-33	0.4683	-0.244
Mof_C 	C 	0.3517	0	0.8374	0.103
Mof_C 	C 	0.0217	0	0.2683	-1.325
Mof_C 	C 	0.9827	0	0.2147	0.835
Mof_O 	O 	0.97471	0	0.1314	-0.533
Mof_O 	O 	0.9622	0	0.2706	-0.425
Mof_C 	C 	0.5217	0.5	0.2683	-1.448
Mof_C 	C 	0.4827	0.5	0.2147	0.873
Mof_O 	O 	0.47471	0.5	0.1314	-0.552
Mof_O 	O 	0.4622	0.5	0.2706	-0.443
Mof_C 	C 	0.9783	-5.01051e-33	0.7317	-1.31
Mof_C 	C 	0.0173	5.01051e-33	0.7853	0.826
Mof_O 	O 	0.02529	-1.0021e-32	0.8686	-0.526
Mof_O 	O 	0.0378	5.01051e-33	0.7294	-0.423
Mof_C 	C 	0.4783	0.5	0.7317	-1.445
Mof_C 	C 	0.5173	0.5	0.7853	0.871
Mof_O 	O 	0.52529	0.5	0.8686	-0.546
Mof_O 	O 	0.5378	0.5	0.7294	-0.442
Mof_Cd	Cd	-0	0	-0	0.465
Mof_Cd	Cd	0.5	0.5	-0	0.459
Mof_Cd	Cd	0.08573	-1.0021e-32	0.90764	0.445
Mof_Cd	Cd	0.58573	0.5	0.90764	0.438
Mof_Cd	Cd	0.91427	6.26314e-34	0.09236	0.432
Mof_Cd	Cd	0.41427	0.5	0.09236	0.424
_end
