# CIF file generated by openbabel 3.1.0, see https://openbabel.org
data_I
_chemical_name_common 'image0'
_cell_length_a 25.6191
_cell_length_b 25.6191
_cell_length_c 6.8042
_cell_angle_alpha 90
_cell_angle_beta 90
_cell_angle_gamma 120
_space_group_name_H-M_alt 'P 1'
_space_group_name_Hall 'P 1'
loop_
    _symmetry_equiv_pos_as_xyz
    x,y,z
loop_
    _atom_site_label
    _atom_site_type_symbol
    _atom_site_fract_x
    _atom_site_fract_y
    _atom_site_fract_z
    _atom_site_occupancy
    Fe1      Fe       0.38968    0.35116    0.15400    1.000
    O1       O        0.32222    0.29670    0.35770    1.000
    O2       O        0.30050    0.22950    0.59580    1.000
    O3       O        0.35534    0.27360    0.99620    1.000
    C1       C        0.31670    0.24730    0.41560    1.000
    C2       C        0.32650    0.20510    0.29350    1.000
    C3       C        0.34310    0.22190    0.10110    1.000
    C4       C        0.34880    0.18150    0.96150    1.000
    H1       H        0.36170    0.19070    0.83400    1.000
    Fe2      Fe       0.05635    0.68449    0.48733    1.000
    O4       O        0.98889    0.63003    0.69103    1.000
    O5       O        0.96717    0.56283    0.92913    1.000
    O6       O        0.02201    0.60693    0.32953    1.000
    C5       C        0.98337    0.58063    0.74893    1.000
    C6       C        0.99317    0.53843    0.62683    1.000
    C7       C        0.00977    0.55523    0.43443    1.000
    C8       C        0.01547    0.51483    0.29483    1.000
    H2       H        0.02837    0.52403    0.16733    1.000
    Fe3      Fe       0.72301    0.01783    0.82067    1.000
    O7       O        0.65555    0.96337    0.02437    1.000
    O8       O        0.63383    0.89617    0.26247    1.000
    O9       O        0.68867    0.94027    0.66287    1.000
    C9       C        0.65003    0.91397    0.08227    1.000
    C10      C        0.65983    0.87177    0.96017    1.000
    C11      C        0.67643    0.88857    0.76777    1.000
    C12      C        0.68213    0.84817    0.62817    1.000
    H3       H        0.69503    0.85737    0.50067    1.000
    Fe4      Fe       0.64884    0.03852    0.15400    1.000
    O10      O        0.70330    0.02552    0.35770    1.000
    O11      O        0.77050    0.07100    0.59580    1.000
    O12      O        0.72640    0.08174    0.99620    1.000
    C13      C        0.75270    0.06940    0.41560    1.000
    C14      C        0.79490    0.12140    0.29350    1.000
    C15      C        0.77810    0.12120    0.10110    1.000
    C16      C        0.81850    0.16730    0.96150    1.000
    H4       H        0.80930    0.17100    0.83400    1.000
    Fe5      Fe       0.31551    0.37185    0.48733    1.000
    O13      O        0.36997    0.35885    0.69103    1.000
    O14      O        0.43717    0.40433    0.92913    1.000
    O15      O        0.39307    0.41507    0.32953    1.000
    C17      C        0.41937    0.40273    0.74893    1.000
    C18      C        0.46157    0.45473    0.62683    1.000
    C19      C        0.44477    0.45453    0.43443    1.000
    C20      C        0.48517    0.50063    0.29483    1.000
    H5       H        0.47597    0.50433    0.16733    1.000
    Fe6      Fe       0.98217    0.70519    0.82067    1.000
    O16      O        0.03663    0.69219    0.02437    1.000
    O17      O        0.10383    0.73767    0.26247    1.000
    O18      O        0.05973    0.74841    0.66287    1.000
    C21      C        0.08603    0.73607    0.08227    1.000
    C22      C        0.12823    0.78807    0.96017    1.000
    C23      C        0.11143    0.78787    0.76777    1.000
    C24      C        0.15183    0.83397    0.62817    1.000
    H6       H        0.14263    0.83767    0.50067    1.000
    Fe7      Fe       0.96148    0.61032    0.15400    1.000
    O19      O        0.97448    0.67778    0.35770    1.000
    O20      O        0.92900    0.69950    0.59580    1.000
    O21      O        0.91826    0.64466    0.99620    1.000
    C25      C        0.93060    0.68330    0.41560    1.000
    C26      C        0.87860    0.67350    0.29350    1.000
    C27      C        0.87880    0.65690    0.10110    1.000
    C28      C        0.83270    0.65120    0.96150    1.000
    H7       H        0.82900    0.63830    0.83400    1.000
    Fe8      Fe       0.62815    0.94365    0.48733    1.000
    O22      O        0.64115    0.01111    0.69103    1.000
    O23      O        0.59567    0.03283    0.92913    1.000
    O24      O        0.58493    0.97799    0.32953    1.000
    C29      C        0.59727    0.01663    0.74893    1.000
    C30      C        0.54527    0.00683    0.62683    1.000
    C31      C        0.54547    0.99023    0.43443    1.000
    C32      C        0.49937    0.98453    0.29483    1.000
    H8       H        0.49567    0.97163    0.16733    1.000
    Fe9      Fe       0.29481    0.27699    0.82067    1.000
    O25      O        0.30781    0.34445    0.02437    1.000
    O26      O        0.26233    0.36617    0.26247    1.000
    O27      O        0.25159    0.31133    0.66287    1.000
    C33      C        0.26393    0.34997    0.08227    1.000
    C34      C        0.21193    0.34017    0.96017    1.000
    C35      C        0.21213    0.32357    0.76777    1.000
    C36      C        0.16603    0.31787    0.62817    1.000
    H9       H        0.16233    0.30497    0.50067    1.000
    Fe10     Fe       0.61032    0.64884    0.84600    1.000
    O28      O        0.67778    0.70330    0.64230    1.000
    O29      O        0.69950    0.77050    0.40420    1.000
    O30      O        0.64466    0.72640    0.00380    1.000
    C37      C        0.68330    0.75270    0.58440    1.000
    C38      C        0.67350    0.79490    0.70650    1.000
    C39      C        0.65690    0.77810    0.89890    1.000
    C40      C        0.65120    0.81850    0.03850    1.000
    H10      H        0.63830    0.80930    0.16600    1.000
    Fe11     Fe       0.27699    0.98217    0.17933    1.000
    O31      O        0.34445    0.03663    0.97563    1.000
    O32      O        0.36617    0.10383    0.73753    1.000
    O33      O        0.31133    0.05973    0.33713    1.000
    C41      C        0.34997    0.08603    0.91773    1.000
    C42      C        0.34017    0.12823    0.03983    1.000
    C43      C        0.32357    0.11143    0.23223    1.000
    C44      C        0.31787    0.15183    0.37183    1.000
    H11      H        0.30497    0.14263    0.49933    1.000
    Fe12     Fe       0.94365    0.31551    0.51267    1.000
    O34      O        0.01111    0.36997    0.30897    1.000
    O35      O        0.03283    0.43717    0.07087    1.000
    O36      O        0.97799    0.39307    0.67047    1.000
    C45      C        0.01663    0.41937    0.25107    1.000
    C46      C        0.00683    0.46157    0.37317    1.000
    C47      C        0.99023    0.44477    0.56557    1.000
    C48      C        0.98453    0.48517    0.70517    1.000
    H12      H        0.97163    0.47597    0.83267    1.000
    Fe13     Fe       0.35116    0.96148    0.84600    1.000
    O37      O        0.29670    0.97448    0.64230    1.000
    O38      O        0.22950    0.92900    0.40420    1.000
    O39      O        0.27360    0.91826    0.00380    1.000
    C49      C        0.24730    0.93060    0.58440    1.000
    C50      C        0.20510    0.87860    0.70650    1.000
    C51      C        0.22190    0.87880    0.89890    1.000
    C52      C        0.18150    0.83270    0.03850    1.000
    H13      H        0.19070    0.82900    0.16600    1.000
    Fe14     Fe       0.01783    0.29481    0.17933    1.000
    O40      O        0.96337    0.30781    0.97563    1.000
    O41      O        0.89617    0.26233    0.73753    1.000
    O42      O        0.94027    0.25159    0.33713    1.000
    C53      C        0.91397    0.26393    0.91773    1.000
    C54      C        0.87177    0.21193    0.03983    1.000
    C55      C        0.88857    0.21213    0.23223    1.000
    C56      C        0.84817    0.16603    0.37183    1.000
    H14      H        0.85737    0.16233    0.49933    1.000
    Fe15     Fe       0.68449    0.62815    0.51267    1.000
    O43      O        0.63003    0.64115    0.30897    1.000
    O44      O        0.56283    0.59567    0.07087    1.000
    O45      O        0.60693    0.58493    0.67047    1.000
    C57      C        0.58063    0.59727    0.25107    1.000
    C58      C        0.53843    0.54527    0.37317    1.000
    C59      C        0.55523    0.54547    0.56557    1.000
    C60      C        0.51483    0.49937    0.70517    1.000
    H15      H        0.52403    0.49567    0.83267    1.000
    Fe16     Fe       0.03852    0.38968    0.84600    1.000
    O46      O        0.02552    0.32222    0.64230    1.000
    O47      O        0.07100    0.30050    0.40420    1.000
    O48      O        0.08174    0.35534    0.00380    1.000
    C61      C        0.06940    0.31670    0.58440    1.000
    C62      C        0.12140    0.32650    0.70650    1.000
    C63      C        0.12120    0.34310    0.89890    1.000
    C64      C        0.16730    0.34880    0.03850    1.000
    H16      H        0.17100    0.36170    0.16600    1.000
    Fe17     Fe       0.70519    0.72301    0.17933    1.000
    O49      O        0.69219    0.65555    0.97563    1.000
    O50      O        0.73767    0.63383    0.73753    1.000
    O51      O        0.74841    0.68867    0.33713    1.000
    C65      C        0.73607    0.65003    0.91773    1.000
    C66      C        0.78807    0.65983    0.03983    1.000
    C67      C        0.78787    0.67643    0.23223    1.000
    C68      C        0.83397    0.68213    0.37183    1.000
    H17      H        0.83767    0.69503    0.49933    1.000
    Fe18     Fe       0.37185    0.05635    0.51267    1.000
    O52      O        0.35885    0.98889    0.30897    1.000
    O53      O        0.40433    0.96717    0.07087    1.000
    O54      O        0.41507    0.02201    0.67047    1.000
    C69      C        0.40273    0.98337    0.25107    1.000
    C70      C        0.45473    0.99317    0.37317    1.000
    C71      C        0.45453    0.00977    0.56557    1.000
    C72      C        0.50063    0.01547    0.70517    1.000
    H18      H        0.50433    0.02837    0.83267    1.000
