data_functionalizedCrystal
_audit_creation_method	'EQeq! by Chris Wilmer'
_symmetry_space_group_name_H-M	'P1'
_symmetry_Int_Tables_number	1
_symmetry_cell_setting	triclinic
loop_
_symmetry_equiv_pos_as_xyz
  x,y,z
_cell_length_a	17.5839
_cell_length_b	18.2791
_cell_length_c	18.2791
_cell_angle_alpha	90
_cell_angle_beta	90
_cell_angle_gamma	90
loop_
_atom_site_label
_atom_site_type_symbol
_atom_site_fract_x
_atom_site_fract_y
_atom_site_fract_z
_atom_site_charge
Mof_Co	Co	0.66529	0.65367	0.06646	1.096
Mof_Co	Co	0.16529	0.34633	0.93354	1.095
Mof_Co	Co	0.41529	0.56646	0.84633	1.095
Mof_Co	Co	2.08626e-32	0.94319	0.94319	1.049
Mof_Co	Co	9.92122e-33	0.34072	0.34072	1.094
Mof_Co	Co	0.08471	0.15367	0.43354	1.085
Mof_Co	Co	0.33471	0.06646	0.65367	1.095
Mof_Co	Co	0.5	0.05681	0.05681	1.068
Mof_Co	Co	0.5	0.65928	0.65928	1.113
Mof_Co	Co	0.75	0.44319	0.55681	1.069
Mof_Co	Co	0.25	0.15928	0.84072	1.112
Mof_Co	Co	0.91529	0.43354	0.15367	1.105
Mof_Co	Co	0.25	0.55681	0.44319	1.065
Mof_Co	Co	0.83471	0.93354	0.34633	1.095
Mof_Co	Co	0.75	0.84072	0.15928	1.113
Mof_Co	Co	0.58471	0.84633	0.56646	1.094
Mof_H 	H 	0.5313	0.1552	0.4764	0.094
Mof_H 	H 	0.4687	0.4764	0.1552	0.094
Mof_H 	H 	0.9739	0.3123	0.6664	0.099
Mof_H 	H 	0.4848	0.063	0.2379	-0.021
Mof_H 	H 	0.9498	0.3232	0.7871	-0.003
Mof_H 	H 	0.6998	0.2871	0.1768	-0.017
Mof_H 	H 	0.1998	0.7129	0.8232	-0.018
Mof_H 	H 	0.1408	0.274	0.2372	-0.015
Mof_H 	H 	0.1598	0.3865	0.7569	-0.021
Mof_H 	H 	0.5979	0.3204	0.1157	0.096
Mof_H 	H 	0.8479	0.3843	0.8204	0.101
Mof_H 	H 	0.0019	0.7257	0.5325	-0.098
Mof_H 	H 	0.8002	0.8232	0.7129	-0.016
Mof_H 	H 	0.3479	0.6157	0.1796	0.095
Mof_H 	H 	0.8908	0.7372	0.226	-0.007
Mof_H 	H 	0.6528	0.9689	0.8167	0.093
Mof_H 	H 	0.2482	0.2425	0.4513	-0.013
Mof_H 	H 	0.3592	0.7628	0.726	-0.015
Mof_H 	H 	0.2519	0.9675	0.2257	-0.025
Mof_H 	H 	0.4739	0.6877	0.3336	0.086
Mof_H 	H 	0.0261	0.6664	0.3123	0.073
Mof_H 	H 	0.8472	0.1833	0.0311	0.101
Mof_H 	H 	0.5152	0.2379	0.063	-0.021
Mof_H 	H 	0.0313	0.8448	0.5236	0.053
Mof_H 	H 	0.9981	0.5325	0.7257	0.04
Mof_H 	H 	0.9028	0.6833	0.4689	0.127
Mof_H 	H 	0.4982	0.0487	0.7425	-0.013
Mof_H 	H 	0.3472	0.8167	0.9689	0.09
Mof_H 	H 	0.1521	0.8204	0.3843	0.091
Mof_H 	H 	0.0502	0.7871	0.3232	-0.03
Mof_H 	H 	0.7187	0.3448	0.9764	0.098
Mof_H 	H 	0.2239	0.8336	0.8123	0.085
Mof_H 	H 	0.5902	0.8865	0.7431	-0.032
Mof_H 	H 	0.7652	0.437	0.7379	-0.021
Mof_H 	H 	0.2761	0.1877	0.1664	0.085
Mof_H 	H 	0.7239	0.1664	0.1877	0.087
Mof_H 	H 	0.3908	0.2628	0.774	-0.014
Mof_H 	H 	0.0979	0.6796	0.8843	0.091
Mof_H 	H 	0.8592	0.2372	0.274	-0.012
Mof_H 	H 	0.6521	0.1796	0.6157	0.096
Mof_H 	H 	0.7813	0.0236	0.6552	0.095
Mof_H 	H 	0.8402	0.7569	0.3865	-0.044
Mof_H 	H 	0.4498	0.6768	0.2129	-0.017
Mof_H 	H 	0.1528	0.0311	0.1833	0.084
Mof_H 	H 	0.5019	0.2743	0.4675	-0.029
Mof_H 	H 	0.0972	0.4689	0.6833	0.059
Mof_H 	H 	0.4021	0.1157	0.3204	0.096
Mof_H 	H 	0.2348	0.7379	0.437	-0.022
Mof_H 	H 	0.5502	0.2129	0.6768	-0.017
Mof_H 	H 	0.4098	0.7431	0.8865	-0.031
Mof_H 	H 	0.3002	0.1768	0.2871	-0.017
Mof_H 	H 	0.1092	0.226	0.7372	-0.021
Mof_H 	H 	0.9021	0.8843	0.6796	0.101
Mof_H 	H 	0.7348	0.2621	0.563	-0.02
Mof_H 	H 	0.2187	0.6552	0.0236	0.087
Mof_H 	H 	0.9098	0.2569	0.1135	-0.023
Mof_H 	H 	0.5972	0.5311	0.3167	0.093
Mof_H 	H 	0.7481	0.2257	0.9675	-0.031
Mof_H 	H 	0.2518	0.5487	0.7575	-0.014
Mof_H 	H 	0.0018	0.2575	0.9513	-0.024
Mof_H 	H 	0.3402	0.2431	0.6135	-0.033
Mof_H 	H 	0.7518	0.4513	0.2425	-0.012
Mof_H 	H 	0.2481	0.7743	0.0325	-0.028
Mof_H 	H 	0.6092	0.774	0.2628	-0.014
Mof_H 	H 	0.7761	0.8123	0.8336	0.087
Mof_H 	H 	0.6598	0.6135	0.2431	-0.032
Mof_H 	H 	0.7519	0.0325	0.7743	-0.026
Mof_H 	H 	0.9687	0.5236	0.8448	0.134
Mof_H 	H 	0.7482	0.7575	0.5487	-0.012
Mof_H 	H 	0.5261	0.3336	0.6877	0.086
Mof_H 	H 	0.4981	0.4675	0.2743	-0.029
Mof_H 	H 	0.5018	0.7425	0.0487	-0.013
Mof_H 	H 	0.0152	0.7621	0.937	-0.034
Mof_H 	H 	0.4028	0.3167	0.5311	0.093
Mof_H 	H 	0.9848	0.937	0.7621	-0.007
Mof_H 	H 	0.2813	0.9764	0.3448	0.088
Mof_H 	H 	0.6408	0.726	0.7628	-0.013
Mof_H 	H 	0.9982	0.9513	0.2575	-0.001
Mof_H 	H 	0.2652	0.563	0.2621	-0.022
Mof_H 	H 	0.0902	0.1135	0.2569	-0.04
Mof_C 	C 	0.9037	0.8985	0.1334	0.053
Mof_C 	C 	0.5823	0.2476	0.656	0.126
Mof_C 	C 	0.3583	0.2906	0.8029	0.09
Mof_C 	C 	0.8794	0.7765	0.4144	0.169
Mof_C 	C 	0.1922	0.7211	0.4119	0.095
Mof_C 	C 	0.6679	0.9634	0.7683	-0.212
Mof_C 	C 	0.0395	0.2267	0.9332	0.094
Mof_C 	C 	0.0578	0.7789	0.9119	0.093
Mof_C 	C 	0.6922	0.2789	0.5881	0.098
Mof_C 	C 	0.7246	0.0015	0.7437	0.139
Mof_C 	C 	0.7214	0.9365	0.5508	0.061
Mof_C 	C 	0.2786	0.5508	0.9365	0.061
Mof_C 	C 	0.2105	0.2733	0.4332	0.097
Mof_C 	C 	0.3323	0.156	0.2524	0.125
Mof_C 	C 	0.8917	0.2094	0.3029	0.094
Mof_C 	C 	0.624	0.9388	0.1198	0.055
Mof_C 	C 	0.6453	0.0506	0.1349	0.054
Mof_C 	C 	0.4312	0.6618	0.3184	-0.168
Mof_C 	C 	0.7895	0.4332	0.2733	0.099
Mof_C 	C 	0.1537	0.3666	0.3985	0.046
Mof_C 	C 	0.31	0.378	0.8593	0.042
Mof_C 	C 	0.5077	0.505	0.1741	-0.184
Mof_C 	C 	0.876	0.8802	0.0612	0.06
Mof_C 	C 	0.1294	0.0856	0.2765	0.119
Mof_C 	C 	0.1206	0.4144	0.7765	0.089
Mof_C 	C 	0.874	0.3802	0.4388	0.06
Mof_C 	C 	0.7952	0.3718	0.0528	0.08
Mof_C 	C 	0.94	0.122	0.3593	0.04
Mof_C 	C 	0.1156	0.6293	0.3691	0.057
Mof_C 	C 	0.44	0.878	0.6407	0.042
Mof_C 	C 	0.2902	0.4458	0.896	0.067
Mof_C 	C 	0.8584	0.3795	0.7708	-0.191
Mof_C 	C 	0.9605	0.9332	0.2267	0.102
Mof_C 	C 	0.8078	0.4119	0.7211	0.101
Mof_C 	C 	0.8953	0.3651	0.5506	0.057
Mof_C 	C 	0.9598	0.0542	0.396	0.105
Mof_C 	C 	0.4714	0.0508	0.5635	0.06
Mof_C 	C 	0.6156	0.3707	0.6309	0.063
Mof_C 	C 	0.8583	0.7094	0.1971	0.093
Mof_C 	C 	0.0823	0.7524	0.344	0.12
Mof_C 	C 	0.3188	0.1618	0.1816	-0.167
Mof_C 	C 	0.9746	0.7563	0.5015	0.251
Mof_C 	C 	0.8656	0.8691	0.8707	0.068
Mof_C 	C 	0.626	0.5612	0.6198	0.057
Mof_C 	C 	0.6047	0.4494	0.6349	0.054
Mof_C 	C 	0.4548	0.1282	0.5528	0.076
Mof_C 	C 	0.7902	0.5542	0.104	0.069
Mof_C 	C 	0.19	0.1407	0.622	0.04
Mof_C 	C 	0.4605	0.0668	0.7733	0.098
Mof_C 	C 	0.6344	0.1293	0.1309	0.063
Mof_C 	C 	0.374	0.6198	0.5612	0.056
Mof_C 	C 	0.5395	0.7733	0.0668	0.098
Mof_C 	C 	0.8321	0.2317	0.0366	-0.219
Mof_C 	C 	0.3844	0.6309	0.3707	0.062
Mof_C 	C 	0.2214	0.0635	0.4492	0.061
Mof_C 	C 	0.7754	0.2563	0.9985	0.154
Mof_C 	C 	0.3656	0.1309	0.1293	0.062
Mof_C 	C 	0.2577	0.6741	0.995	-0.174
Mof_C 	C 	0.81	0.622	0.1407	0.044
Mof_C 	C 	0.9422	0.9119	0.7789	0.103
Mof_C 	C 	0.3078	0.5881	0.2789	0.098
Mof_C 	C 	0.1084	0.7292	0.8795	-0.196
Mof_C 	C 	0.5963	0.8666	0.1015	0.048
Mof_C 	C 	0.6084	0.2708	0.1205	-0.193
Mof_C 	C 	0.4037	0.1015	0.8666	0.048
Mof_C 	C 	0.2423	0.005	0.3259	-0.17
Mof_C 	C 	0.7577	0.3259	0.005	-0.191
Mof_C 	C 	0.9177	0.344	0.7524	0.132
Mof_C 	C 	0.3463	0.6015	0.6334	0.048
Mof_C 	C 	0.4746	0.2437	0.4985	0.143
Mof_C 	C 	0.0254	0.5015	0.7563	0.035
Mof_C 	C 	0.4179	0.2683	0.5366	-0.215
Mof_C 	C 	0.9312	0.3382	0.6816	-0.166
Mof_C 	C 	0.4422	0.0881	0.2211	0.097
Mof_C 	C 	0.3584	0.6205	0.2292	-0.193
Mof_C 	C 	0.124	0.0612	0.8802	0.052
Mof_C 	C 	0.4923	0.1741	0.505	-0.184
Mof_C 	C 	0.8706	0.2765	0.0856	0.136
Mof_C 	C 	0.1417	0.1971	0.7094	0.087
Mof_C 	C 	0.3706	0.7235	0.9144	0.124
Mof_C 	C 	0.0402	0.396	0.0542	0.03
Mof_C 	C 	0.1416	0.7708	0.3795	-0.195
Mof_C 	C 	0.3953	0.6349	0.4494	0.053
Mof_C 	C 	0.2098	0.104	0.5542	0.065
Mof_C 	C 	0.9179	0.7317	0.4634	-0.284
Mof_C 	C 	0.0452	0.4472	0.8718	0.083
Mof_C 	C 	0.8916	0.8795	0.7292	-0.189
Mof_C 	C 	0.3547	0.1349	0.0506	0.054
Mof_C 	C 	0.5578	0.2211	0.0881	0.098
Mof_C 	C 	0.6537	0.6334	0.6015	0.049
Mof_C 	C 	0.3916	0.1205	0.2708	-0.192
Mof_C 	C 	0.6416	0.2292	0.6205	-0.192
Mof_C 	C 	0.56	0.6407	0.878	0.042
Mof_C 	C 	0.2048	0.0528	0.3718	0.069
Mof_C 	C 	0.69	0.8593	0.378	0.042
Mof_C 	C 	0.6083	0.6971	0.7906	0.09
Mof_C 	C 	0.7105	0.7267	0.5668	0.099
Mof_C 	C 	0.2895	0.5668	0.7267	0.098
Mof_C 	C 	0.6677	0.2524	0.156	0.127
Mof_C 	C 	0.9548	0.8718	0.4472	0.068
Mof_C 	C 	0.0286	0.4365	0.9492	0.017
Mof_C 	C 	0.3917	0.7906	0.6971	0.09
Mof_C 	C 	0.1047	0.5506	0.3651	0.05
Mof_C 	C 	0.3321	0.7683	0.9634	-0.206
Mof_C 	C 	0.8188	0.8382	0.8184	-0.167
Mof_C 	C 	0.5452	0.5528	0.1282	0.076
Mof_C 	C 	0.0077	0.495	0.8259	-0.216
Mof_C 	C 	0.5402	0.604	0.9458	0.068
Mof_C 	C 	0.5254	0.4985	0.2437	0.143
Mof_C 	C 	0.5286	0.5635	0.0508	0.06
Mof_C 	C 	0.1344	0.8707	0.8691	0.059
Mof_C 	C 	0.9923	0.8259	0.495	-0.151
Mof_C 	C 	0.4598	0.9458	0.604	0.067
Mof_C 	C 	0.1083	0.3029	0.2094	0.086
Mof_C 	C 	0.0963	0.1334	0.8985	0.044
Mof_C 	C 	0.5688	0.3184	0.6618	-0.168
Mof_C 	C 	0.1812	0.8184	0.8382	-0.169
Mof_C 	C 	0.2754	0.7437	0.0015	0.131
Mof_C 	C 	0.2246	0.9985	0.2563	0.124
Mof_C 	C 	0.9714	0.9492	0.4365	0.104
Mof_C 	C 	0.1679	0.0366	0.2317	-0.204
Mof_C 	C 	0.7098	0.896	0.4458	0.067
Mof_C 	C 	0.6417	0.8029	0.2906	0.09
Mof_C 	C 	0.06	0.3593	0.122	0.045
Mof_C 	C 	0.6294	0.9144	0.7235	0.128
Mof_C 	C 	0.3794	0.2235	0.5856	0.129
Mof_C 	C 	0.1677	0.7476	0.844	0.124
Mof_C 	C 	0.7048	0.9472	0.6282	0.075
Mof_C 	C 	0.376	0.1198	0.9388	0.056
Mof_C 	C 	0.8463	0.3985	0.3666	0.051
Mof_C 	C 	0.6812	0.1816	0.1618	-0.168
Mof_C 	C 	0.2952	0.6282	0.9472	0.072
Mof_C 	C 	0.6206	0.5856	0.2235	0.129
Mof_C 	C 	0.0821	0.4634	0.7317	-0.145
Mof_C 	C 	0.5821	0.5366	0.2683	-0.215
Mof_C 	C 	0.1453	0.9494	0.8651	0.05
Mof_C 	C 	0.4177	0.656	0.2476	0.126
Mof_C 	C 	0.8844	0.3691	0.6293	0.068
Mof_C 	C 	0.7786	0.4492	0.0635	0.06
Mof_C 	C 	0.7423	0.995	0.6741	-0.181
Mof_C 	C 	0.126	0.4388	0.3802	0.053
Mof_C 	C 	0.8547	0.8651	0.9494	0.059
Mof_C 	C 	0.0688	0.6816	0.3382	-0.17
Mof_C 	C 	0.8323	0.844	0.7476	0.128
Mof_N 	N 	0.1591	0.5053	0.3891	-0.259
Mof_N 	N 	0.0714	0.8513	0.9064	-0.252
Mof_N 	N 	0.39315	0.0875	0.7487	-0.238
Mof_N 	N 	0.9091	0.8891	0.9947	-0.247
Mof_N 	N 	0.10533	0.31268	0.38908	-0.227
Mof_N 	N 	0.8792	0.1376	0.3189	-0.146
Mof_N 	N 	0.0909	0.9947	0.8891	-0.264
Mof_N 	N 	0.1032	0.4068	0.8449	-0.236
Mof_N 	N 	0.8409	0.3891	0.5053	-0.257
Mof_N 	N 	0.2209	0.5144	0.9663	-0.097
Mof_N 	N 	0.9874	0.1782	0.36894	-0.205
Mof_N 	N 	0.35533	0.11092	0.81268	-0.221
Mof_N 	N 	0.2206	0.3458	0.4263	-0.157
Mof_N 	N 	0.0291	0.9856	0.4663	-0.124
Mof_N 	N 	0.177	0.10814	0.48946	-0.249
Mof_N 	N 	0.6786	0.3513	0.5936	-0.245
Mof_N 	N 	0.5714	0.1487	0.0936	-0.246
Mof_N 	N 	0.2947	0.2642	0.833	-0.223
Mof_N 	N 	0.6928	0.9436	0.1477	-0.207
Mof_N 	N 	0.8968	0.8449	0.4068	-0.246
Mof_N 	N 	0.3072	0.1477	0.9436	-0.207
Mof_N 	N 	0.0572	0.4436	0.3523	-0.213
Mof_N 	N 	0.6032	0.5932	0.1551	-0.241
Mof_N 	N 	0.1928	0.0564	0.8523	-0.207
Mof_N 	N 	0.3792	0.8624	0.6811	-0.149
Mof_N 	N 	0.7374	0.86894	0.3218	-0.221
Mof_N 	N 	0.3968	0.1551	0.5932	-0.241
Mof_N 	N 	0.8532	0.3449	0.0932	-0.239
Mof_N 	N 	0.573	0.60814	0.01054	-0.248
Mof_N 	N 	0.8072	0.8523	0.0564	-0.207
Mof_N 	N 	0.1786	0.6487	0.4064	-0.246
Mof_N 	N 	0.9706	0.9263	0.1542	-0.146
Mof_N 	N 	0.9574	0.3411	0.5169	-0.099
Mof_N 	N 	0.14315	0.2487	0.4125	-0.242
Mof_N 	N 	0.6591	0.4947	0.6109	-0.258
Mof_N 	N 	0.7053	0.833	0.2642	-0.223
Mof_N 	N 	0.4091	0.1109	0.0053	-0.258
Mof_N 	N 	0.35685	0.5875	0.7513	-0.238
Mof_N 	N 	0.427	0.01054	0.60814	-0.248
Mof_N 	N 	0.823	0.48946	0.10814	-0.246
Mof_N 	N 	0.7074	0.0169	0.1589	-0.108
Mof_N 	N 	0.1208	0.3189	0.1376	-0.15
Mof_N 	N 	0.9428	0.3523	0.4436	-0.195
Mof_N 	N 	0.5572	0.5564	0.6477	-0.207
Mof_N 	N 	0.4553	0.7642	0.667	-0.223
Mof_N 	N 	0.8214	0.4064	0.6487	-0.245
Mof_N 	N 	0.6208	0.6811	0.8624	-0.147
Mof_N 	N 	0.927	0.98946	0.39186	-0.257
Mof_N 	N 	0.5294	0.8458	0.0737	-0.157
Mof_N 	N 	0.7791	0.9663	0.5144	-0.094
Mof_N 	N 	0.7794	0.4263	0.3458	-0.156
Mof_N 	N 	0.64315	0.7513	0.5875	-0.238
Mof_N 	N 	0.9798	0.4394	0.0543	-0.18
Mof_N 	N 	0.5202	0.9457	0.5606	-0.207
Mof_N 	N 	0.4874	0.8218	0.63106	-0.222
Mof_N 	N 	0.39467	0.61092	0.68732	-0.221
Mof_N 	N 	0.0294	0.1542	0.9263	-0.165
Mof_N 	N 	0.64467	0.81268	0.11092	-0.221
Mof_N 	N 	0.4574	0.6589	0.4831	-0.109
Mof_N 	N 	0.5426	0.4831	0.6589	-0.109
Mof_N 	N 	0.85685	0.4125	0.2487	-0.234
Mof_N 	N 	0.4706	0.0737	0.8458	-0.156
Mof_N 	N 	0.6468	0.9068	0.6551	-0.24
Mof_N 	N 	0.4286	0.0936	0.1487	-0.245
Mof_N 	N 	0.2074	0.9831	0.8411	-0.11
Mof_N 	N 	0.6292	0.8189	0.3624	-0.148
Mof_N 	N 	0.5126	0.63106	0.8218	-0.221
Mof_N 	N 	0.4798	0.5606	0.9457	-0.207
Mof_N 	N 	0.2926	0.1589	0.0169	-0.109
Mof_N 	N 	0.7206	0.6542	0.5737	-0.155
Mof_N 	N 	0.9553	0.2358	0.333	-0.211
Mof_N 	N 	0.1468	0.0932	0.3449	-0.241
Mof_N 	N 	0.85533	0.88908	0.18732	-0.221
Mof_N 	N 	0.0126	0.36894	0.1782	-0.237
Mof_N 	N 	0.4428	0.6477	0.5564	-0.207
Mof_N 	N 	0.677	0.89186	0.51054	-0.248
Mof_N 	N 	0.2053	0.167	0.7358	-0.224
Mof_N 	N 	0.3409	0.6109	0.4947	-0.259
Mof_N 	N 	0.3708	0.3624	0.8189	-0.148
Mof_N 	N 	0.7209	0.4856	0.0337	-0.095
Mof_N 	N 	0.3214	0.5936	0.3513	-0.246
Mof_N 	N 	0.89315	0.9125	0.2513	-0.236
Mof_N 	N 	0.7626	0.6782	0.13106	-0.221
Mof_N 	N 	0.2298	0.4457	0.9394	-0.207
Mof_N 	N 	0.2702	0.0606	0.5543	-0.207
Mof_N 	N 	0.5447	0.667	0.7642	-0.223
Mof_N 	N 	0.7702	0.9394	0.4457	-0.207
Mof_N 	N 	0.7926	0.8411	0.9831	-0.107
Mof_N 	N 	0.7298	0.5543	0.0606	-0.207
Mof_N 	N 	0.5291	0.0144	0.5337	-0.095
Mof_N 	N 	0.1292	0.1811	0.6376	-0.154
Mof_N 	N 	0.0202	0.0543	0.4394	-0.234
Mof_N 	N 	0.9709	0.4663	0.9856	-0.067
Mof_N 	N 	0.323	0.51054	0.89186	-0.248
Mof_N 	N 	0.89467	0.38908	0.31268	-0.211
Mof_N 	N 	0.60533	0.68732	0.61092	-0.221
Mof_N 	N 	0.2791	0.0337	0.4856	-0.096
Mof_N 	N 	0.073	0.39186	0.98946	-0.238
Mof_N 	N 	0.4709	0.5337	0.0144	-0.096
Mof_N 	N 	0.2794	0.5737	0.6542	-0.158
Mof_N 	N 	0.2626	0.3218	0.86894	-0.222
Mof_N 	N 	0.60685	0.7487	0.0875	-0.238
Mof_N 	N 	0.7947	0.7358	0.167	-0.222
Mof_N 	N 	0.10685	0.2513	0.9125	-0.24
Mof_N 	N 	0.14467	0.18732	0.88908	-0.222
Mof_N 	N 	0.8708	0.6376	0.1811	-0.141
Mof_N 	N 	0.5909	0.0053	0.1109	-0.258
Mof_N 	N 	0.9286	0.9064	0.8513	-0.234
Mof_N 	N 	0.2374	0.13106	0.6782	-0.222
Mof_N 	N 	0.3532	0.6551	0.9068	-0.239
Mof_N 	N 	0.0447	0.333	0.2358	-0.229
Mof_N 	N 	0.0426	0.5169	0.3411	-0.118
_end
