data_functionalizedCrystal
_audit_creation_method	'EQeq! by Chris Wilmer'
_symmetry_space_group_name_H-M	'P1'
_symmetry_Int_Tables_number	1
_symmetry_cell_setting	triclinic
loop_
_symmetry_equiv_pos_as_xyz
  x,y,z
_cell_length_a	8.488
_cell_length_b	17.721
_cell_length_c	9.024
_cell_angle_alpha	90
_cell_angle_beta	106.96
_cell_angle_gamma	90
loop_
_atom_site_label
_atom_site_type_symbol
_atom_site_fract_x
_atom_site_fract_y
_atom_site_fract_z
_atom_site_charge
Mof_Al	Al	0.98326	0.17661	0.80777	6.963
Mof_Al	Al	0.92775	0.29447	0.20718	7.538
Mof_Al	Al	0.3714	0.39251	0.82961	7.337
Mof_P 	P 	0.20442	0.28997	0.02454	1.792
Mof_P 	P 	0.73364	0.16925	0.00012	1.674
Mof_P 	P 	0.15737	0.07138	0.63749	1.905
Mof_O 	O 	0.1631	0.2233	0.9111	-2.197
Mof_O 	O 	0.2394	0.35908	0.9428	-1.981
Mof_O 	O 	0.0598	0.3065	0.0846	-2.146
Mof_O 	O 	0.3576	0.2689	0.157	-2.217
Mof_O 	O 	0.8741	0.1473	0.9317	-2.198
Mof_O 	O 	0.5692	0.1588	0.8796	-1.833
Mof_O 	O 	0.7434	0.1141	0.1317	-1.905
Mof_O 	O 	0.7537	0.25038	0.0566	-2.065
Mof_O 	O 	0.0444	0.0944	0.7366	-2.177
Mof_O 	O 	0.0656	0.0837	0.4688	-2.048
Mof_O 	O 	0.313	0.1187	0.6829	-2.039
Mof_O 	O 	0.2088	0.99073	0.67	-1.788
Mof_O 	O 	0.9661	0.2034	0.3099	-3.549
Mof_H 	H 	0.0628	0.2045	0.3726	0.929
Mof_Al	Al	0.51674	0.67661	0.69223	7.162
Mof_Al	Al	0.57225	0.79447	0.29282	7.621
Mof_Al	Al	0.1286	0.89251	0.67039	7.249
Mof_P 	P 	0.29558	0.78997	0.47546	1.809
Mof_P 	P 	0.76636	0.66925	0.49988	1.702
Mof_P 	P 	0.34263	0.57138	0.86251	1.898
Mof_O 	O 	0.3369	0.7233	0.5889	-2.261
Mof_O 	O 	0.2606	0.85908	0.5572	-1.977
Mof_O 	O 	0.4402	0.8065	0.4154	-2.177
Mof_O 	O 	0.1424	0.7689	0.343	-2.183
Mof_O 	O 	0.6259	0.6473	0.5683	-2.242
Mof_O 	O 	0.9308	0.6588	0.6204	-1.817
Mof_O 	O 	0.7566	0.6141	0.3683	-1.917
Mof_O 	O 	0.7463	0.75038	0.4434	-2.074
Mof_O 	O 	0.4556	0.5944	0.7634	-2.247
Mof_O 	O 	0.4344	0.5837	0.0312	-2.086
Mof_O 	O 	0.187	0.6187	0.8171	-2.032
Mof_O 	O 	0.2912	0.49073	0.83	-1.78
Mof_O 	O 	0.5339	0.7034	0.1901	-3.545
Mof_H 	H 	0.4372	0.7045	0.1274	0.905
Mof_Al	Al	0.01674	0.82339	0.19223	6.962
Mof_Al	Al	0.07225	0.70553	0.79282	7.537
Mof_Al	Al	0.6286	0.60749	0.17039	7.336
Mof_P 	P 	0.79558	0.71003	0.97546	1.791
Mof_P 	P 	0.26636	0.83075	0.99988	1.673
Mof_P 	P 	0.84263	0.92862	0.36251	1.904
Mof_O 	O 	0.8369	0.7767	0.0889	-2.197
Mof_O 	O 	0.7606	0.64092	0.0572	-1.981
Mof_O 	O 	0.9402	0.6935	0.9154	-2.146
Mof_O 	O 	0.6424	0.7311	0.843	-2.217
Mof_O 	O 	0.1259	0.8527	0.0683	-2.198
Mof_O 	O 	0.4308	0.8412	0.1204	-1.833
Mof_O 	O 	0.2566	0.8859	0.8683	-1.905
Mof_O 	O 	0.2463	0.74962	0.9434	-2.065
Mof_O 	O 	0.9556	0.9056	0.2634	-2.177
Mof_O 	O 	0.9344	0.9163	0.5312	-2.048
Mof_O 	O 	0.687	0.8813	0.3171	-2.039
Mof_O 	O 	0.7912	0.00927	0.33	-1.788
Mof_O 	O 	0.0339	0.7966	0.6901	-3.549
Mof_H 	H 	0.9372	0.7955	0.6274	0.929
Mof_Al	Al	0.48326	0.32339	0.30777	7.162
Mof_Al	Al	0.42775	0.20553	0.70718	7.621
Mof_Al	Al	0.8714	0.10749	0.32961	7.249
Mof_P 	P 	0.70442	0.21003	0.52454	1.809
Mof_P 	P 	0.23364	0.33075	0.50012	1.702
Mof_P 	P 	0.65737	0.42862	0.13749	1.898
Mof_O 	O 	0.6631	0.2767	0.4111	-2.261
Mof_O 	O 	0.7394	0.14092	0.4428	-1.977
Mof_O 	O 	0.5598	0.1935	0.5846	-2.177
Mof_O 	O 	0.8576	0.2311	0.657	-2.183
Mof_O 	O 	0.3741	0.3527	0.4317	-2.242
Mof_O 	O 	0.0692	0.3412	0.3796	-1.817
Mof_O 	O 	0.2434	0.3859	0.6317	-1.917
Mof_O 	O 	0.2537	0.24962	0.5566	-2.074
Mof_O 	O 	0.5444	0.4056	0.2366	-2.247
Mof_O 	O 	0.5656	0.4163	0.9688	-2.086
Mof_O 	O 	0.813	0.3813	0.1829	-2.032
Mof_O 	O 	0.7088	0.50927	0.17	-1.78
Mof_O 	O 	0.4661	0.2966	0.8099	-3.545
Mof_H 	H 	0.5628	0.2955	0.8726	0.905
_end
