# CIF file generated by openbabel 3.1.0, see https://openbabel.org
data_I
_chemical_name_common 'MIXKUB_clean'
_cell_length_a 8.5707
_cell_length_b 9.8985
_cell_length_c 14.2812
_cell_angle_alpha 104.986
_cell_angle_beta 102.291
_cell_angle_gamma 91.286
_space_group_name_H-M_alt 'P 1'
_space_group_name_Hall 'P 1'
loop_
    _symmetry_equiv_pos_as_xyz
    x,y,z
loop_
    _atom_site_label
    _atom_site_type_symbol
    _atom_site_fract_x
    _atom_site_fract_y
    _atom_site_fract_z
    _atom_site_occupancy
    Zn1      Zn       0.33695    0.63936    0.66121    1.000
    Zn2      Zn       0.66305    0.36064    0.33879    1.000
    Zn3      Zn       0.33220    0.41613    0.46172    1.000
    Zn4      Zn       0.66780    0.58387    0.53828    1.000
    H1       H        0.88820    0.76470    0.31420    1.000
    H2       H        0.98100    0.34180    0.70190    1.000
    H3       H        0.01900    0.65820    0.29810    1.000
    H4       H        0.80170    0.56430    0.75230    1.000
    H5       H        0.10860    0.15160    0.37790    1.000
    H6       H        0.31760    0.93760    0.12180    1.000
    H7       H        0.19830    0.43570    0.24770    1.000
    H8       H        0.98600    0.14620    0.51840    1.000
    H9       H        0.01400    0.85380    0.48160    1.000
    H10      H        0.63350    0.77010    0.01370    1.000
    H11      H        0.14090    0.86100    0.41800    1.000
    H12      H        0.58770    0.03890    0.59900    1.000
    H13      H        0.50320    0.92830    0.73860    1.000
    H14      H        0.85910    0.13900    0.58200    1.000
    H15      H        0.68240    0.06240    0.87820    1.000
    H16      H        0.41230    0.96110    0.40100    1.000
    H17      H        0.97500    0.68190    0.89770    1.000
    H18      H        0.49680    0.07170    0.26140    1.000
    H19      H        0.45410    0.64160    0.87280    1.000
    H20      H        0.92390    0.02920    0.23310    1.000
    H21      H        0.54590    0.35840    0.12720    1.000
    H22      H        0.02500    0.31810    0.10230    1.000
    H23      H        0.07610    0.97080    0.76690    1.000
    H24      H        0.59770    0.99880    0.43260    1.000
    H25      H        0.89140    0.84840    0.62210    1.000
    H26      H        0.36650    0.22990    0.98630    1.000
    H27      H        0.40230    0.00120    0.56740    1.000
    H28      H        0.11180    0.23530    0.68580    1.000
    C1       C        0.07450    0.79760    0.43780    1.000
    C2       C        0.14380    0.35190    0.24480    1.000
    C3       C        0.98050    0.11120    0.23460    1.000
    C4       C        0.52990    0.89460    0.79450    1.000
    C5       C        0.63710    0.97620    0.87840    1.000
    C6       C        0.95770    0.16040    0.15280    1.000
    C7       C        0.39180    0.19540    0.04190    1.000
    C8       C        0.92550    0.20240    0.56220    1.000
    C9       C        0.60820    0.80460    0.95810    1.000
    C10      C        0.82030    0.28950    0.50710    1.000
    C11      C        0.01950    0.88880    0.76540    1.000
    C12      C        0.50830    0.95700    0.45010    1.000
    C13      C        0.67450    0.92880    0.96040    1.000
    C14      C        0.95860    0.70560    0.34540    1.000
    C15      C        0.53470    0.80420    0.44380    1.000
    C16      C        0.04230    0.83960    0.84720    1.000
    C17      C        0.90870    0.81380    0.67780    1.000
    C18      C        0.36290    0.02380    0.12160    1.000
    C19      C        0.46530    0.19580    0.55620    1.000
    C20      C        0.85620    0.64810    0.75520    1.000
    C21      C        0.14100    0.40190    0.63000    1.000
    C22      C        0.50140    0.72710    0.87280    1.000
    C23      C        0.03960    0.28240    0.15750    1.000
    C24      C        0.96040    0.71760    0.84250    1.000
    C25      C        0.49860    0.27290    0.12720    1.000
    C26      C        0.04140    0.29440    0.65460    1.000
    C27      C        0.32550    0.07120    0.03960    1.000
    C28      C        0.09130    0.18620    0.32220    1.000
    C29      C        0.85900    0.59810    0.37000    1.000
    C30      C        0.49170    0.04300    0.54990    1.000
    C31      C        0.17970    0.71050    0.49290    1.000
    C32      C        0.47010    0.10540    0.20550    1.000
    N1       N        0.17090    0.30460    0.32640    1.000
    N2       N        0.84770    0.09600    0.05420    1.000
    N3       N        0.21190    0.00310    0.94040    1.000
    N4       N        0.46470    0.77100    0.79120    1.000
    N5       N        0.53530    0.22900    0.20880    1.000
    N6       N        0.82910    0.69540    0.67360    1.000
    N7       N        0.78810    0.99690    0.05960    1.000
    N8       N        0.15230    0.90400    0.94580    1.000
    O1       O        0.50580    0.71910    0.35930    1.000
    O2       O        0.49420    0.28090    0.64070    1.000
    O3       O        0.84550    0.61550    0.45600    1.000
    O4       O        0.15450    0.38450    0.54400    1.000
    O5       O        0.77670    0.24130    0.41320    1.000
    O6       O        0.58490    0.77280    0.52430    1.000
    O7       O        0.51170    0.47090    0.40060    1.000
    O8       O        0.79320    0.49190    0.29770    1.000
    O9       O        0.21810    0.59870    0.44360    1.000
    O10      O        0.78190    0.40130    0.55640    1.000
    O11      O        0.41510    0.22720    0.47570    1.000
    O12      O        0.48830    0.52910    0.59940    1.000
    O13      O        0.20680    0.50810    0.70230    1.000
    O14      O        0.22330    0.75870    0.58680    1.000
