data_functionalizedCrystal
_audit_creation_method	'EQeq! by Chris Wilmer'
_symmetry_space_group_name_H-M	'P1'
_symmetry_Int_Tables_number	1
_symmetry_cell_setting	triclinic
loop_
_symmetry_equiv_pos_as_xyz
  x,y,z
_cell_length_a	10.043
_cell_length_b	15.989
_cell_length_c	18.308
_cell_angle_alpha	90
_cell_angle_beta	90
_cell_angle_gamma	90
loop_
_atom_site_label
_atom_site_type_symbol
_atom_site_fract_x
_atom_site_fract_y
_atom_site_fract_z
_atom_site_charge
Mof_Ga	Ga	0.34755	0.99491	0.40569	4.251
Mof_Ga	Ga	0.31552	0.96521	0.21765	4.228
Mof_Ga	Ga	0.16442	0.14742	0.17452	4.089
Mof_P 	P 	0.11577	0.06658	0.31906	0.907
Mof_P 	P 	0.33959	0.81904	0.33169	1.043
Mof_P 	P 	0.36221	0.98475	0.5758	0.983
Mof_O 	O 	0.147	0.9912	0.271	-1.094
Mof_O 	O 	0.97	0.0635	0.3434	-0.915
Mof_O 	O 	0.2032	0.0681	0.3885	-1.03
Mof_O 	O 	0.1417	0.149	0.277	-1.06
Mof_O 	O 	0.3025	0.849	0.2552	-1.002
Mof_O 	O 	0.2567	0.7421	0.3526	-1.053
Mof_O 	O 	0.4884	0.7958	0.3361	-0.96
Mof_O 	O 	0.3034	0.8834	0.3918	-1.13
Mof_O 	O 	0.281	0.9802	0.5052	-0.956
Mof_O 	O 	0.2925	0.9332	0.6358	-0.995
Mof_O 	O 	0.3832	0.0768	0.5984	-1.232
Mof_O 	O 	0.5015	0.9462	0.5634	-1.109
Mof_O 	O 	0.3293	0.0819	0.1839	-1.396
Mof_O 	O 	0.4115	0.9972	0.3047	-1.549
Mof_Ga	Ga	0.65245	0.50509	0.90569	4.241
Mof_Ga	Ga	0.68448	0.53479	0.71765	4.219
Mof_Ga	Ga	0.83558	0.35258	0.67452	4.066
Mof_P 	P 	0.88423	0.43342	0.81906	0.888
Mof_P 	P 	0.66041	0.68096	0.83169	1.044
Mof_P 	P 	0.63779	0.51525	0.0758	0.985
Mof_O 	O 	0.853	0.5088	0.771	-1.087
Mof_O 	O 	0.03	0.4365	0.8434	-0.902
Mof_O 	O 	0.7968	0.4319	0.8885	-1.033
Mof_O 	O 	0.8583	0.351	0.777	-1.06
Mof_O 	O 	0.6975	0.651	0.7552	-1
Mof_O 	O 	0.7433	0.7579	0.8526	-1.056
Mof_O 	O 	0.5116	0.7042	0.8361	-0.96
Mof_O 	O 	0.6966	0.6166	0.8918	-1.129
Mof_O 	O 	0.719	0.5198	0.0052	-0.953
Mof_O 	O 	0.7075	0.5668	0.1358	-0.996
Mof_O 	O 	0.6168	0.4232	0.0984	-1.236
Mof_O 	O 	0.4985	0.5538	0.0634	-1.11
Mof_O 	O 	0.6707	0.4181	0.6839	-1.391
Mof_O 	O 	0.5885	0.5028	0.8047	-1.551
Mof_Ga	Ga	0.84755	0.00509	0.09431	4.155
Mof_Ga	Ga	0.81552	0.03479	0.28235	4.2
Mof_Ga	Ga	0.66442	0.85258	0.32548	4.086
Mof_P 	P 	0.61577	0.93342	0.18094	0.9
Mof_P 	P 	0.83959	0.18096	0.16831	1.04
Mof_P 	P 	0.86221	0.01525	0.9242	0.967
Mof_O 	O 	0.647	0.0088	0.229	-1.089
Mof_O 	O 	0.47	0.9365	0.1566	-0.905
Mof_O 	O 	0.7032	0.9319	0.1115	-1.007
Mof_O 	O 	0.6417	0.851	0.223	-1.059
Mof_O 	O 	0.8025	0.151	0.2448	-0.997
Mof_O 	O 	0.7567	0.2579	0.1474	-1.054
Mof_O 	O 	0.9884	0.2042	0.1639	-0.965
Mof_O 	O 	0.8034	0.1166	0.1082	-1.116
Mof_O 	O 	0.781	0.0198	0.9948	-0.937
Mof_O 	O 	0.7925	0.0668	0.8642	-0.997
Mof_O 	O 	0.8832	0.9232	0.9016	-1.232
Mof_O 	O 	0.0015	0.0538	0.9366	-1.069
Mof_O 	O 	0.8293	0.9181	0.3161	-1.38
Mof_O 	O 	0.9115	0.0028	0.1953	-1.543
Mof_Ga	Ga	0.15245	0.49491	0.59431	4.248
Mof_Ga	Ga	0.18448	0.46521	0.78235	4.219
Mof_Ga	Ga	0.33558	0.64742	0.82548	4.08
Mof_P 	P 	0.38423	0.56658	0.68094	0.893
Mof_P 	P 	0.16041	0.31904	0.66831	1.043
Mof_P 	P 	0.13779	0.48475	0.4242	0.985
Mof_O 	O 	0.353	0.4912	0.729	-1.087
Mof_O 	O 	0.53	0.5635	0.6566	-0.906
Mof_O 	O 	0.2968	0.5681	0.6115	-1.033
Mof_O 	O 	0.3583	0.649	0.723	-1.06
Mof_O 	O 	0.1975	0.349	0.7448	-0.998
Mof_O 	O 	0.2433	0.2421	0.6474	-1.053
Mof_O 	O 	0.0116	0.2958	0.6639	-0.953
Mof_O 	O 	0.1966	0.3834	0.6082	-1.128
Mof_O 	O 	0.219	0.4802	0.4948	-0.954
Mof_O 	O 	0.2075	0.4332	0.3642	-0.997
Mof_O 	O 	0.1168	0.5768	0.4016	-1.236
Mof_O 	O 	0.9985	0.4462	0.4366	-1.113
Mof_O 	O 	0.1707	0.5819	0.8161	-1.394
Mof_O 	O 	0.0885	0.4972	0.6953	-1.552
Mof_Ga	Ga	0.65245	0.00509	0.59431	4.25
Mof_Ga	Ga	0.68448	0.03479	0.78235	4.227
Mof_Ga	Ga	0.83558	0.85258	0.82548	4.089
Mof_P 	P 	0.88423	0.93342	0.68094	0.907
Mof_P 	P 	0.66041	0.18096	0.66831	1.043
Mof_P 	P 	0.63779	0.01525	0.4242	0.983
Mof_O 	O 	0.853	0.0088	0.729	-1.094
Mof_O 	O 	0.03	0.9365	0.6566	-0.915
Mof_O 	O 	0.7968	0.9319	0.6115	-1.03
Mof_O 	O 	0.8583	0.851	0.723	-1.06
Mof_O 	O 	0.6975	0.151	0.7448	-1.002
Mof_O 	O 	0.7433	0.2579	0.6474	-1.053
Mof_O 	O 	0.5116	0.2042	0.6639	-0.96
Mof_O 	O 	0.6966	0.1166	0.6082	-1.13
Mof_O 	O 	0.719	0.0198	0.4948	-0.956
Mof_O 	O 	0.7075	0.0668	0.3642	-0.995
Mof_O 	O 	0.6168	0.9232	0.4016	-1.232
Mof_O 	O 	0.4985	0.0538	0.4366	-1.109
Mof_O 	O 	0.6707	0.9181	0.8161	-1.396
Mof_O 	O 	0.5885	0.0028	0.6953	-1.549
Mof_Ga	Ga	0.34755	0.49491	0.09431	4.241
Mof_Ga	Ga	0.31552	0.46521	0.28235	4.219
Mof_Ga	Ga	0.16442	0.64742	0.32548	4.066
Mof_P 	P 	0.11577	0.56658	0.18094	0.888
Mof_P 	P 	0.33959	0.31904	0.16831	1.044
Mof_P 	P 	0.36221	0.48475	0.9242	0.985
Mof_O 	O 	0.147	0.4912	0.229	-1.087
Mof_O 	O 	0.97	0.5635	0.1566	-0.902
Mof_O 	O 	0.2032	0.5681	0.1115	-1.033
Mof_O 	O 	0.1417	0.649	0.223	-1.06
Mof_O 	O 	0.3025	0.349	0.2448	-1
Mof_O 	O 	0.2567	0.2421	0.1474	-1.056
Mof_O 	O 	0.4884	0.2958	0.1639	-0.96
Mof_O 	O 	0.3034	0.3834	0.1082	-1.129
Mof_O 	O 	0.281	0.4802	0.9948	-0.953
Mof_O 	O 	0.2925	0.4332	0.8642	-0.996
Mof_O 	O 	0.3832	0.5768	0.9016	-1.236
Mof_O 	O 	0.5015	0.4462	0.9366	-1.11
Mof_O 	O 	0.3293	0.5819	0.3161	-1.391
Mof_O 	O 	0.4115	0.4972	0.1953	-1.551
Mof_Ga	Ga	0.15245	0.99491	0.90569	4.155
Mof_Ga	Ga	0.18448	0.96521	0.71765	4.2
Mof_Ga	Ga	0.33558	0.14742	0.67452	4.086
Mof_P 	P 	0.38423	0.06658	0.81906	0.9
Mof_P 	P 	0.16041	0.81904	0.83169	1.04
Mof_P 	P 	0.13779	0.98475	0.0758	0.967
Mof_O 	O 	0.353	0.9912	0.771	-1.089
Mof_O 	O 	0.53	0.0635	0.8434	-0.905
Mof_O 	O 	0.2968	0.0681	0.8885	-1.007
Mof_O 	O 	0.3583	0.149	0.777	-1.059
Mof_O 	O 	0.1975	0.849	0.7552	-0.997
Mof_O 	O 	0.2433	0.7421	0.8526	-1.054
Mof_O 	O 	0.0116	0.7958	0.8361	-0.965
Mof_O 	O 	0.1966	0.8834	0.8918	-1.116
Mof_O 	O 	0.219	0.9802	0.0052	-0.937
Mof_O 	O 	0.2075	0.9332	0.1358	-0.997
Mof_O 	O 	0.1168	0.0768	0.0984	-1.232
Mof_O 	O 	0.9985	0.9462	0.0634	-1.069
Mof_O 	O 	0.1707	0.0819	0.6839	-1.38
Mof_O 	O 	0.0885	0.9972	0.8047	-1.543
Mof_Ga	Ga	0.84755	0.50509	0.40569	4.248
Mof_Ga	Ga	0.81552	0.53479	0.21765	4.219
Mof_Ga	Ga	0.66442	0.35258	0.17452	4.08
Mof_P 	P 	0.61577	0.43342	0.31906	0.893
Mof_P 	P 	0.83959	0.68096	0.33169	1.043
Mof_P 	P 	0.86221	0.51525	0.5758	0.985
Mof_O 	O 	0.647	0.5088	0.271	-1.087
Mof_O 	O 	0.47	0.4365	0.3434	-0.906
Mof_O 	O 	0.7032	0.4319	0.3885	-1.033
Mof_O 	O 	0.6417	0.351	0.277	-1.06
Mof_O 	O 	0.8025	0.651	0.2552	-0.998
Mof_O 	O 	0.7567	0.7579	0.3526	-1.053
Mof_O 	O 	0.9884	0.7042	0.3361	-0.953
Mof_O 	O 	0.8034	0.6166	0.3918	-1.128
Mof_O 	O 	0.781	0.5198	0.5052	-0.954
Mof_O 	O 	0.7925	0.5668	0.6358	-0.997
Mof_O 	O 	0.8832	0.4232	0.5984	-1.236
Mof_O 	O 	0.0015	0.5538	0.5634	-1.113
Mof_O 	O 	0.8293	0.4181	0.1839	-1.394
Mof_O 	O 	0.9115	0.5028	0.3047	-1.552
_end
