data_functionalizedCrystal
_audit_creation_method	'EQeq! by Chris Wilmer'
_symmetry_space_group_name_H-M	'P1'
_symmetry_Int_Tables_number	1
_symmetry_cell_setting	triclinic
loop_
_symmetry_equiv_pos_as_xyz
  x,y,z
_cell_length_a	13.006
_cell_length_b	13.821
_cell_length_c	27.982
_cell_angle_alpha	75.67
_cell_angle_beta	79.35
_cell_angle_gamma	85.62
loop_
_atom_site_label
_atom_site_type_symbol
_atom_site_fract_x
_atom_site_fract_y
_atom_site_fract_z
_atom_site_charge
Mof_Eu	Eu	0.88028	0.02118	0.55405	2.091
Mof_Eu	Eu	0.47145	0.53782	0.41508	1.934
Mof_Eu	Eu	0.03068	0.87524	0.0605	2.112
Mof_Eu	Eu	0.51709	0.48078	0.91415	1.959
Mof_O 	O 	0.9457	0.932	0.47215	-0.583
Mof_O 	O 	0.7991	0.899	0.52589	-0.497
Mof_O 	O 	0.5997	0.5673	0.4567	-0.584
Mof_O 	O 	0.6238	0.5906	0.52878	-0.598
Mof_O 	O 	0.0452	0.8896	0.14447	-0.487
Mof_O 	O 	0.9313	0.7858	0.14087	-0.471
Mof_O 	O 	0.6399	0.5169	0.35808	-0.426
Mof_O 	O 	0.5955	0.3925	0.42354	-0.439
Mof_O 	O 	0.8687	0.1351	0.47589	-0.572
Mof_O 	O 	0.0188	0.1266	0.42246	-0.488
Mof_O 	O 	0.2599	0.6593	0.14692	-0.373
Mof_O 	O 	0.3257	0.508	0.14153	-0.54
Mof_O 	O 	0.8891	0.9836	0.07757	-0.525
Mof_O 	O 	0.8759	0.1273	0.02152	-0.536
Mof_O 	O 	0.5041	0.3511	0.13833	-0.452
Mof_O 	O 	0.6124	0.3872	0.06681	-0.452
Mof_O 	O 	0.4905	0.6942	0.36318	-0.569
Mof_O 	O 	0.4439	0.8144	0.403	-0.359
Mof_O 	O 	0.5976	0.572	0.9548	-0.602
Mof_O 	O 	0.6113	0.607	0.02558	-0.618
Mof_O 	O 	0.9012	0.9679	0.96719	-0.571
Mof_O 	O 	0.8938	0.8267	0.02536	-0.537
Mof_O 	O 	0.7783	0.9354	0.63516	-0.457
Mof_O 	O 	0.913	0.0176	0.63837	-0.483
Mof_C 	C 	0.8253	0.8229	0.4573	-0.187
Mof_C 	C 	0.7507	0.7525	0.4815	0.121
Mof_H 	H 	0.7243	0.7451	0.5154	-0
Mof_C 	C 	0.7158	0.6931	0.4549	-0.216
Mof_C 	C 	0.752	0.7058	0.4045	0.08
Mof_H 	H 	0.7259	0.6671	0.3868	0.006
Mof_C 	C 	0.8284	0.7766	0.3791	-0.099
Mof_C 	C 	0.8656	0.8335	0.4067	0.059
Mof_H 	H 	0.9178	0.8789	0.3911	0.012
Mof_C 	C 	0.8661	0.7888	0.3244	0.121
Mof_C 	C 	0.9621	0.8334	0.3012	-0.162
Mof_H 	H 	0.0034	0.8551	0.3201	0.08
Mof_C 	C 	0.9949	0.8449	0.2501	0.105
Mof_H 	H 	0.0587	0.874	0.2353	-0.005
Mof_C 	C 	0.9365	0.8148	0.2208	-0.158
Mof_C 	C 	0.8467	0.7629	0.2443	0.09
Mof_H 	H 	0.8092	0.7355	0.2259	0.004
Mof_C 	C 	0.8128	0.752	0.2952	-0.178
Mof_H 	H 	0.7514	0.7184	0.3101	0.098
Mof_C 	C 	0.8598	0.8887	0.4867	0.449
Mof_C 	C 	0.6402	0.6126	0.4822	0.517
Mof_C 	C 	0.9736	0.8305	0.1654	0.385
Mof_C 	C 	0.7657	0.3835	0.3749	-0.115
Mof_C 	C 	0.7957	0.2985	0.4078	0.06
Mof_H 	H 	0.7501	0.2715	0.4371	0.013
Mof_C 	C 	0.8944	0.2529	0.3973	-0.158
Mof_C 	C 	0.9613	0.2931	0.3539	0.031
Mof_H 	H 	0.0266	0.2623	0.3469	0.031
Mof_C 	C 	0.933	0.3793	0.32	-0.072
Mof_C 	C 	0.8353	0.423	0.3315	0.015
Mof_H 	H 	0.8155	0.4806	0.3095	0.032
Mof_C 	C 	0.011	0.4264	0.2753	0.122
Mof_C 	C 	0.0166	0.5294	0.2599	-0.197
Mof_H 	H 	0.9681	0.5689	0.276	0.101
Mof_C 	C 	0.0929	0.575	0.2208	0.101
Mof_H 	H 	0.0942	0.6443	0.2106	-0.009
Mof_C 	C 	0.167	0.5173	0.1971	-0.192
Mof_C 	C 	0.1594	0.4147	0.2111	0.105
Mof_H 	H 	0.2067	0.375	0.1944	0.004
Mof_C 	C 	0.0818	0.37	0.2497	-0.189
Mof_H 	H 	0.0776	0.3008	0.2585	0.1
Mof_C 	C 	0.6611	0.4329	0.3857	0.318
Mof_C 	C 	0.9296	0.1629	0.4353	0.474
Mof_C 	C 	0.2559	0.5661	0.159	0.398
Mof_C 	C 	0.762	0.1027	0.1001	-0.179
Mof_C 	C 	0.7148	0.1969	0.0879	0.076
Mof_H 	H 	0.7382	0.2404	0.0573	0.001
Mof_C 	C 	0.6327	0.2268	0.1211	-0.127
Mof_C 	C 	0.5983	0.1617	0.1666	0.026
Mof_H 	H 	0.5439	0.1823	0.1889	0.027
Mof_C 	C 	0.6429	0.0665	0.1797	-0.083
Mof_C 	C 	0.726	0.0387	0.1456	0.04
Mof_H 	H 	0.7578	0.9756	0.1538	0.03
Mof_C 	C 	0.6007	0.9961	0.2274	0.131
Mof_C 	C 	0.5997	0.8949	0.2298	-0.189
Mof_H 	H 	0.6266	0.8714	0.2015	0.09
Mof_C 	C 	0.5591	0.8278	0.274	0.111
Mof_H 	H 	0.5584	0.7603	0.2747	-0.014
Mof_C 	C 	0.5198	0.8601	0.3169	-0.191
Mof_C 	C 	0.5213	0.9605	0.3156	0.109
Mof_H 	H 	0.4959	0.9833	0.3443	-0.001
Mof_C 	C 	0.561	0.0274	0.271	-0.187
Mof_H 	H 	0.5611	0.095	0.2704	0.093
Mof_C 	C 	0.8491	0.0684	0.064	0.486
Mof_C 	C 	0.5802	0.328	0.1081	0.327
Mof_C 	C 	0.4808	0.7848	0.3651	0.433
Mof_C 	C 	0.7	0.708	0.952	-0.257
Mof_C 	C 	0.7518	0.7534	0.979	0.165
Mof_H 	H 	0.7447	0.7295	0.0136	-0.025
Mof_C 	C 	0.8147	0.8344	0.9551	-0.238
Mof_C 	C 	0.8236	0.87	0.904	0.099
Mof_H 	H 	0.8626	0.9263	0.8882	0.001
Mof_C 	C 	0.7754	0.8233	0.8754	-0.128
Mof_C 	C 	0.7129	0.7427	0.8998	0.108
Mof_H 	H 	0.6793	0.7114	0.8815	-0.002
Mof_C 	C 	0.7904	0.8589	0.82	0.138
Mof_C 	C 	0.7143	0.8509	0.7932	-0.187
Mof_H 	H 	0.6512	0.8226	0.8102	0.101
Mof_C 	C 	0.7284	0.8833	0.7418	0.091
Mof_H 	H 	0.6749	0.8776	0.7249	0.007
Mof_C 	C 	0.8217	0.9243	0.7154	-0.149
Mof_C 	C 	0.8998	0.9316	0.7409	0.084
Mof_H 	H 	0.9637	0.9575	0.7235	0.018
Mof_C 	C 	0.8841	0.9001	0.7933	-0.177
Mof_H 	H 	0.937	0.907	0.8103	0.101
Mof_C 	C 	0.6304	0.6234	0.9789	0.569
Mof_C 	C 	0.873	0.8801	0.9847	0.516
Mof_C 	C 	0.8387	0.9611	0.6593	0.367
Mof_Tb	Tb	0.11972	0.97882	0.44595	1.871
Mof_Tb	Tb	0.96932	0.12476	0.9395	1.896
Mof_Eu	Eu	0.52855	0.46218	0.58492	1.931
Mof_Eu	Eu	0.48291	0.51922	0.08585	1.954
Mof_O 	O 	0.0543	0.068	0.52785	-0.608
Mof_O 	O 	0.2009	0.101	0.47411	-0.474
Mof_O 	O 	0.4003	0.4327	0.5433	-0.584
Mof_O 	O 	0.3762	0.4094	0.47122	-0.598
Mof_O 	O 	0.9548	0.1104	0.85553	-0.458
Mof_O 	O 	0.0687	0.2142	0.85913	-0.444
Mof_O 	O 	0.3601	0.4831	0.64192	-0.425
Mof_O 	O 	0.4045	0.6075	0.57646	-0.437
Mof_O 	O 	0.1313	0.8649	0.52411	-0.539
Mof_O 	O 	0.9812	0.8734	0.57754	-0.509
Mof_O 	O 	0.7401	0.3407	0.85308	-0.368
Mof_O 	O 	0.6743	0.492	0.85847	-0.539
Mof_O 	O 	0.1109	0.0164	0.92243	-0.503
Mof_O 	O 	0.1241	0.8727	0.97848	-0.565
Mof_O 	O 	0.4959	0.6489	0.86167	-0.452
Mof_O 	O 	0.3876	0.6128	0.93319	-0.453
Mof_O 	O 	0.5095	0.3058	0.63682	-0.569
Mof_O 	O 	0.5561	0.1856	0.597	-0.364
Mof_O 	O 	0.4024	0.428	0.0452	-0.602
Mof_O 	O 	0.3887	0.393	0.97442	-0.614
Mof_O 	O 	0.0988	0.0321	0.03281	-0.603
Mof_O 	O 	0.1062	0.1733	0.97464	-0.509
Mof_O 	O 	0.2217	0.0646	0.36484	-0.431
Mof_O 	O 	0.087	0.9824	0.36163	-0.454
Mof_C 	C 	0.1747	0.1771	0.5427	-0.198
Mof_C 	C 	0.2493	0.2475	0.5185	0.126
Mof_H 	H 	0.2757	0.2549	0.4846	-0.002
Mof_C 	C 	0.2842	0.3069	0.5451	-0.22
Mof_C 	C 	0.248	0.2942	0.5955	0.084
Mof_H 	H 	0.2741	0.3329	0.6132	0.005
Mof_C 	C 	0.1716	0.2234	0.6209	-0.105
Mof_C 	C 	0.1344	0.1665	0.5933	0.066
Mof_H 	H 	0.0822	0.1211	0.6089	0.005
Mof_C 	C 	0.1339	0.2112	0.6756	0.122
Mof_C 	C 	0.0379	0.1666	0.6988	-0.166
Mof_H 	H 	0.9966	0.1449	0.6799	0.082
Mof_C 	C 	0.0051	0.1551	0.7499	0.098
Mof_H 	H 	0.9413	0.126	0.7647	-0.001
Mof_C 	C 	0.0635	0.1852	0.7792	-0.155
Mof_C 	C 	0.1533	0.2371	0.7557	0.088
Mof_H 	H 	0.1908	0.2645	0.7741	0.005
Mof_C 	C 	0.1872	0.248	0.7048	-0.178
Mof_H 	H 	0.2486	0.2816	0.6899	0.098
Mof_C 	C 	0.1402	0.1113	0.5133	0.461
Mof_C 	C 	0.3598	0.3874	0.5178	0.518
Mof_C 	C 	0.0264	0.1695	0.8346	0.375
Mof_C 	C 	0.2343	0.6165	0.6251	-0.111
Mof_C 	C 	0.2043	0.7015	0.5922	0.055
Mof_H 	H 	0.2499	0.7285	0.5629	0.016
Mof_C 	C 	0.1056	0.7471	0.6027	-0.152
Mof_C 	C 	0.0387	0.7069	0.6461	0.022
Mof_H 	H 	0.9734	0.7377	0.6531	0.036
Mof_C 	C 	0.067	0.6207	0.68	-0.07
Mof_C 	C 	0.1647	0.577	0.6685	0.012
Mof_H 	H 	0.1845	0.5194	0.6905	0.033
Mof_C 	C 	0.989	0.5736	0.7247	0.119
Mof_C 	C 	0.9834	0.4706	0.7401	-0.186
Mof_H 	H 	0.0319	0.4311	0.724	0.095
Mof_C 	C 	0.9071	0.425	0.7792	0.093
Mof_H 	H 	0.9058	0.3557	0.7894	-0.004
Mof_C 	C 	0.833	0.4827	0.8029	-0.186
Mof_C 	C 	0.8406	0.5853	0.7889	0.101
Mof_H 	H 	0.7933	0.625	0.8056	0.005
Mof_C 	C 	0.9182	0.63	0.7503	-0.185
Mof_H 	H 	0.9224	0.6992	0.7415	0.099
Mof_C 	C 	0.3389	0.5671	0.6143	0.317
Mof_C 	C 	0.0704	0.8371	0.5647	0.468
Mof_C 	C 	0.7441	0.4339	0.841	0.397
Mof_C 	C 	0.238	0.8973	0.8999	-0.182
Mof_C 	C 	0.2852	0.8031	0.9121	0.078
Mof_H 	H 	0.2618	0.7596	0.9427	-0.001
Mof_C 	C 	0.3673	0.7732	0.8789	-0.127
Mof_C 	C 	0.4017	0.8383	0.8334	0.023
Mof_H 	H 	0.4561	0.8177	0.8111	0.028
Mof_C 	C 	0.3571	0.9335	0.8203	-0.076
Mof_C 	C 	0.274	0.9613	0.8544	0.043
Mof_H 	H 	0.2422	0.0244	0.8462	0.028
Mof_C 	C 	0.3993	0.0039	0.7726	0.115
Mof_C 	C 	0.4003	0.1051	0.7702	-0.179
Mof_H 	H 	0.3734	0.1286	0.7985	0.086
Mof_C 	C 	0.4409	0.1722	0.726	0.102
Mof_H 	H 	0.4416	0.2397	0.7253	-0.011
Mof_C 	C 	0.4802	0.1399	0.6831	-0.184
Mof_C 	C 	0.4787	0.0395	0.6844	0.094
Mof_H 	H 	0.5041	0.0167	0.6557	0.002
Mof_C 	C 	0.439	0.9726	0.729	-0.168
Mof_H 	H 	0.4389	0.905	0.7296	0.087
Mof_C 	C 	0.1509	0.9316	0.936	0.49
Mof_C 	C 	0.4198	0.672	0.8919	0.327
Mof_C 	C 	0.5192	0.2152	0.6349	0.431
Mof_C 	C 	0.3	0.292	0.048	-0.254
Mof_C 	C 	0.2482	0.2466	0.021	0.156
Mof_H 	H 	0.2553	0.2705	0.9864	-0.02
Mof_C 	C 	0.1853	0.1656	0.0449	-0.24
Mof_C 	C 	0.1764	0.13	0.096	0.101
Mof_H 	H 	0.1374	0.0737	0.1118	-0.003
Mof_C 	C 	0.2246	0.1767	0.1246	-0.128
Mof_C 	C 	0.2871	0.2573	0.1002	0.105
Mof_H 	H 	0.3207	0.2886	0.1185	-0.001
Mof_C 	C 	0.2096	0.1411	0.18	0.137
Mof_C 	C 	0.2857	0.1491	0.2068	-0.186
Mof_H 	H 	0.3488	0.1774	0.1898	0.1
Mof_C 	C 	0.2716	0.1167	0.2582	0.089
Mof_H 	H 	0.3251	0.1224	0.2751	0.008
Mof_C 	C 	0.1783	0.0757	0.2846	-0.148
Mof_C 	C 	0.1002	0.0684	0.2591	0.081
Mof_H 	H 	0.0363	0.0425	0.2765	0.017
Mof_C 	C 	0.1159	0.0999	0.2067	-0.176
Mof_H 	H 	0.063	0.093	0.1897	0.099
Mof_C 	C 	0.3696	0.3766	0.0211	0.563
Mof_C 	C 	0.127	0.1199	0.0153	0.52
Mof_C 	C 	0.1613	0.0389	0.3407	0.359
_end
