data_functionalizedCrystal
_audit_creation_method	'EQeq! by Chris Wilmer'
_symmetry_space_group_name_H-M	'P1'
_symmetry_Int_Tables_number	1
_symmetry_cell_setting	triclinic
loop_
_symmetry_equiv_pos_as_xyz
  x,y,z
_cell_length_a	18.7732
_cell_length_b	18.7732
_cell_length_c	9.4537
_cell_angle_alpha	90
_cell_angle_beta	90
_cell_angle_gamma	90
loop_
_atom_site_label
_atom_site_type_symbol
_atom_site_fract_x
_atom_site_fract_y
_atom_site_fract_z
_atom_site_charge
Mof_P 	P 	0.06413	0.55768	0.3363	1.658
Mof_O 	O 	0.0574	0.6243	0.2463	-1.829
Mof_O 	O 	0.0754	0.5807	0.4878	-1.83
Mof_O 	O 	0.1273	0.5128	0.2903	-1.746
Mof_O 	O 	0.995	0.5162	0.3239	-1.972
Mof_Al	Al	0.06412	0.66568	0.0809	5.772
Mof_P 	P 	0.05021	0.33315	0.1622	1.596
Mof_O 	O 	0.0151	0.3433	0.0189	-1.913
Mof_O 	O 	0.0026	0.3641	0.2775	-1.936
Mof_O 	O 	0.1221	0.3708	0.1598	-1.638
Mof_O 	O 	0.0624	0.2558	0.1932	-1.619
Mof_Al	Al	0.16401	0.45577	0.1578	5.122
Mof_P 	P 	0.8342	0.43376	0.0942	1.664
Mof_O 	O 	0.8449	0.5021	0.0127	-1.746
Mof_O 	O 	0.863	0.3703	0.0146	-1.892
Mof_O 	O 	0.8703	0.4401	0.2363	-1.864
Mof_O 	O 	0.7556	0.4205	0.1207	-1.811
Mof_Al	Al	0.9493	0.43481	0.3358	5.973
Mof_P 	P 	0.43587	0.94232	0.3363	1.665
Mof_O 	O 	0.4426	0.8757	0.2463	-1.844
Mof_O 	O 	0.4246	0.9193	0.4878	-1.829
Mof_O 	O 	0.3727	0.9872	0.2903	-1.746
Mof_O 	O 	0.505	0.9838	0.3239	-1.973
Mof_Al	Al	0.43588	0.83432	0.0809	5.86
Mof_P 	P 	0.44979	0.16685	0.1622	1.601
Mof_O 	O 	0.4849	0.1567	0.0189	-1.934
Mof_O 	O 	0.4974	0.1359	0.2775	-1.938
Mof_O 	O 	0.3779	0.1292	0.1598	-1.636
Mof_O 	O 	0.4376	0.2442	0.1932	-1.627
Mof_Al	Al	0.33599	0.04423	0.1578	5.109
Mof_P 	P 	0.6658	0.06624	0.0942	1.647
Mof_O 	O 	0.6551	0.9979	0.0127	-1.727
Mof_O 	O 	0.637	0.1297	0.0146	-1.915
Mof_O 	O 	0.6297	0.0599	0.2363	-1.864
Mof_O 	O 	0.7444	0.0795	0.1207	-1.793
Mof_Al	Al	0.5507	0.06519	0.3358	5.965
Mof_P 	P 	0.94232	0.06413	0.3363	1.618
Mof_O 	O 	0.8757	0.0574	0.2463	-1.82
Mof_O 	O 	0.9193	0.0754	0.4878	-1.792
Mof_O 	O 	0.9872	0.1273	0.2903	-1.746
Mof_O 	O 	0.9838	0.995	0.3239	-1.898
Mof_Al	Al	0.83432	0.06412	0.0809	5.748
Mof_P 	P 	0.16685	0.05021	0.1622	1.585
Mof_O 	O 	0.1567	0.0151	0.0189	-1.9
Mof_O 	O 	0.1359	0.0026	0.2775	-1.886
Mof_O 	O 	0.1292	0.1221	0.1598	-1.632
Mof_O 	O 	0.2442	0.0624	0.1932	-1.615
Mof_Al	Al	0.04423	0.16401	0.1578	5.121
Mof_P 	P 	0.06624	0.8342	0.0942	1.626
Mof_O 	O 	0.9979	0.8449	0.0127	-1.712
Mof_O 	O 	0.1297	0.863	0.0146	-1.885
Mof_O 	O 	0.0599	0.8703	0.2363	-1.829
Mof_O 	O 	0.0795	0.7556	0.1207	-1.796
Mof_Al	Al	0.06519	0.9493	0.3358	5.797
Mof_P 	P 	0.55768	0.43587	0.3363	1.667
Mof_O 	O 	0.6243	0.4426	0.2463	-1.841
Mof_O 	O 	0.5807	0.4246	0.4878	-1.834
Mof_O 	O 	0.5128	0.3727	0.2903	-1.752
Mof_O 	O 	0.5162	0.505	0.3239	-1.983
Mof_Al	Al	0.66568	0.43588	0.0809	5.838
Mof_P 	P 	0.33315	0.44979	0.1622	1.602
Mof_O 	O 	0.3433	0.4849	0.0189	-1.928
Mof_O 	O 	0.3641	0.4974	0.2775	-1.943
Mof_O 	O 	0.3708	0.3779	0.1598	-1.642
Mof_O 	O 	0.2558	0.4376	0.1932	-1.623
Mof_Al	Al	0.45577	0.33599	0.1578	5.138
Mof_P 	P 	0.43376	0.6658	0.0942	1.67
Mof_O 	O 	0.5021	0.6551	0.0127	-1.755
Mof_O 	O 	0.3703	0.637	0.0146	-1.911
Mof_O 	O 	0.4401	0.6297	0.2363	-1.869
Mof_O 	O 	0.4205	0.7444	0.1207	-1.816
Mof_Al	Al	0.43481	0.5507	0.3358	5.988
Mof_P 	P 	0.93587	0.44232	0.6637	1.658
Mof_O 	O 	0.9426	0.3757	0.7537	-1.829
Mof_O 	O 	0.9246	0.4193	0.5122	-1.83
Mof_O 	O 	0.8727	0.4872	0.7097	-1.746
Mof_O 	O 	0.005	0.4838	0.6761	-1.972
Mof_Al	Al	0.93588	0.33432	0.9191	5.772
Mof_P 	P 	0.94979	0.66685	0.8378	1.596
Mof_O 	O 	0.9849	0.6567	0.9811	-1.913
Mof_O 	O 	0.9974	0.6359	0.7225	-1.936
Mof_O 	O 	0.8779	0.6292	0.8402	-1.638
Mof_O 	O 	0.9376	0.7442	0.8068	-1.619
Mof_Al	Al	0.83599	0.54423	0.8422	5.122
Mof_P 	P 	0.1658	0.56624	0.9058	1.664
Mof_O 	O 	0.1551	0.4979	0.9873	-1.746
Mof_O 	O 	0.137	0.6297	0.9854	-1.892
Mof_O 	O 	0.1297	0.5599	0.7637	-1.864
Mof_O 	O 	0.2444	0.5795	0.8793	-1.811
Mof_Al	Al	0.0507	0.56519	0.6642	5.973
Mof_P 	P 	0.56413	0.05768	0.6637	1.665
Mof_O 	O 	0.5574	0.1243	0.7537	-1.844
Mof_O 	O 	0.5754	0.0807	0.5122	-1.829
Mof_O 	O 	0.6273	0.0128	0.7097	-1.746
Mof_O 	O 	0.495	0.0162	0.6761	-1.973
Mof_Al	Al	0.56412	0.16568	0.9191	5.86
Mof_P 	P 	0.55021	0.83315	0.8378	1.601
Mof_O 	O 	0.5151	0.8433	0.9811	-1.934
Mof_O 	O 	0.5026	0.8641	0.7225	-1.938
Mof_O 	O 	0.6221	0.8708	0.8402	-1.636
Mof_O 	O 	0.5624	0.7558	0.8068	-1.627
Mof_Al	Al	0.66401	0.95577	0.8422	5.109
Mof_P 	P 	0.3342	0.93376	0.9058	1.647
Mof_O 	O 	0.3449	0.0021	0.9873	-1.727
Mof_O 	O 	0.363	0.8703	0.9854	-1.915
Mof_O 	O 	0.3703	0.9401	0.7637	-1.864
Mof_O 	O 	0.2556	0.9205	0.8793	-1.793
Mof_Al	Al	0.4493	0.93481	0.6642	5.965
Mof_P 	P 	0.05768	0.93587	0.6637	1.618
Mof_O 	O 	0.1243	0.9426	0.7537	-1.82
Mof_O 	O 	0.0807	0.9246	0.5122	-1.792
Mof_O 	O 	0.0128	0.8727	0.7097	-1.746
Mof_O 	O 	0.0162	0.005	0.6761	-1.898
Mof_Al	Al	0.16568	0.93588	0.9191	5.748
Mof_P 	P 	0.83315	0.94979	0.8378	1.585
Mof_O 	O 	0.8433	0.9849	0.9811	-1.9
Mof_O 	O 	0.8641	0.9974	0.7225	-1.886
Mof_O 	O 	0.8708	0.8779	0.8402	-1.632
Mof_O 	O 	0.7558	0.9376	0.8068	-1.615
Mof_Al	Al	0.95577	0.83599	0.8422	5.121
Mof_P 	P 	0.93376	0.1658	0.9058	1.626
Mof_O 	O 	0.0021	0.1551	0.9873	-1.712
Mof_O 	O 	0.8703	0.137	0.9854	-1.885
Mof_O 	O 	0.9401	0.1297	0.7637	-1.829
Mof_O 	O 	0.9205	0.2444	0.8793	-1.796
Mof_Al	Al	0.93481	0.0507	0.6642	5.797
Mof_P 	P 	0.44232	0.56413	0.6637	1.667
Mof_O 	O 	0.3757	0.5574	0.7537	-1.841
Mof_O 	O 	0.4193	0.5754	0.5122	-1.834
Mof_O 	O 	0.4872	0.6273	0.7097	-1.752
Mof_O 	O 	0.4838	0.495	0.6761	-1.983
Mof_Al	Al	0.33432	0.56412	0.9191	5.838
Mof_P 	P 	0.66685	0.55021	0.8378	1.602
Mof_O 	O 	0.6567	0.5151	0.9811	-1.928
Mof_O 	O 	0.6359	0.5026	0.7225	-1.943
Mof_O 	O 	0.6292	0.6221	0.8402	-1.642
Mof_O 	O 	0.7442	0.5624	0.8068	-1.623
Mof_Al	Al	0.54423	0.66401	0.8422	5.138
Mof_P 	P 	0.56624	0.3342	0.9058	1.67
Mof_O 	O 	0.4979	0.3449	0.9873	-1.755
Mof_O 	O 	0.6297	0.363	0.9854	-1.911
Mof_O 	O 	0.5599	0.3703	0.7637	-1.869
Mof_O 	O 	0.5795	0.2556	0.8793	-1.816
Mof_Al	Al	0.56519	0.4493	0.6642	5.988
_end
