data_functionalizedCrystal
_audit_creation_method	'EQeq! by Chris Wilmer'
_symmetry_space_group_name_H-M	'P1'
_symmetry_Int_Tables_number	1
_symmetry_cell_setting	triclinic
loop_
_symmetry_equiv_pos_as_xyz
  x,y,z
_cell_length_a	9.378
_cell_length_b	11.9991
_cell_length_c	16.508
_cell_angle_alpha	96.1973
_cell_angle_beta	90
_cell_angle_gamma	113.003
loop_
_atom_site_label
_atom_site_type_symbol
_atom_site_fract_x
_atom_site_fract_y
_atom_site_fract_z
_atom_site_charge
Mof_Yb	Yb	0.8026	0.0094	0.9341	1.988
Mof_Yb	Yb	0.7932	0.9906	0.5659	1.996
Mof_Yb	Yb	0.2068	0.0094	0.4341	1.997
Mof_Yb	Yb	0.1974	0.9906	0.0659	1.989
Mof_Ag	Ag	0.53379	0.31804	0.57925	0.697
Mof_Ag	Ag	0.21575	0.68196	0.92075	0.697
Mof_Ag	Ag	0.78425	0.31804	0.07925	0.697
Mof_Ag	Ag	0.46621	0.68196	0.42075	0.697
Mof_H 	H 	0.0433	0.3002	0.1837	-0.001
Mof_H 	H 	0.9567	0.6998	0.8163	-0.001
Mof_H 	H 	0.4362	0.6946	0.0613	-0.005
Mof_H 	H 	0.4102	0.8042	0.275	0.019
Mof_H 	H 	0.7416	0.3054	0.4387	-0.005
Mof_H 	H 	0.5898	0.1958	0.725	0.019
Mof_H 	H 	0.2569	0.3002	0.6837	-0
Mof_H 	H 	0.8889	0.8126	0.2203	0.056
Mof_H 	H 	0.6673	0.5846	0.5392	-0.043
Mof_H 	H 	0.9895	0.3628	0.6142	-0.018
Mof_H 	H 	0.6317	0.0984	0.3319	0.049
Mof_H 	H 	0.5333	0.9016	0.1681	0.048
Mof_H 	H 	0.3733	0.3628	0.1142	-0.017
Mof_H 	H 	0.606	0.1958	0.225	0.019
Mof_H 	H 	0.4667	0.0984	0.8319	0.048
Mof_H 	H 	0.7431	0.6998	0.3163	-0
Mof_H 	H 	0.1111	0.1874	0.7797	0.056
Mof_H 	H 	0.5107	0.5686	0.1333	0.096
Mof_H 	H 	0.3683	0.9016	0.6681	0.049
Mof_H 	H 	0.0763	0.1874	0.2797	0.058
Mof_H 	H 	0.9173	0.5846	0.0392	-0.043
Mof_H 	H 	0.9237	0.8126	0.7203	0.058
Mof_H 	H 	0.6267	0.6372	0.8858	-0.017
Mof_H 	H 	0.9421	0.4314	0.3667	0.095
Mof_H 	H 	0.394	0.8042	0.775	0.019
Mof_H 	H 	0.2584	0.6946	0.5613	-0.005
Mof_H 	H 	0.5638	0.3054	0.9387	-0.005
Mof_H 	H 	0.0579	0.5686	0.6333	0.095
Mof_H 	H 	0.3327	0.4154	0.4608	-0.043
Mof_H 	H 	0.4893	0.4314	0.8667	0.096
Mof_H 	H 	0.0105	0.6372	0.3858	-0.018
Mof_H 	H 	0.0827	0.4154	0.9608	-0.043
Mof_C 	C 	0.3419	0.4142	0.0873	0.144
Mof_C 	C 	0.7027	0.1956	0.2373	0.033
Mof_C 	C 	0.2973	0.8044	0.7627	0.033
Mof_C 	C 	0.8796	0.7666	0.4762	0.5
Mof_C 	C 	0.1397	0.8714	0.6837	-0.099
Mof_C 	C 	0.2754	0.0696	0.2551	0.259
Mof_C 	C 	0.6581	0.5858	0.9127	0.144
Mof_C 	C 	0.2842	0.8652	0.6997	-0.034
Mof_C 	C 	0.7246	0.9304	0.7449	0.259
Mof_C 	C 	0.2965	0.2544	0.7115	0.036
Mof_C 	C 	0.791	0.6334	0.9639	-0.247
Mof_C 	C 	0.1702	0.0524	0.8788	0.481
Mof_C 	C 	0.6207	0.3892	0.9467	0.112
Mof_C 	C 	0.79	0.8106	0.2291	-0.034
Mof_C 	C 	0.1178	0.9476	0.6212	0.48
Mof_C 	C 	0.9277	0.5858	0.4127	0.145
Mof_C 	C 	0.9794	0.1894	0.2709	-0.037
Mof_C 	C 	0.7685	0.3892	0.4467	0.112
Mof_C 	C 	0.9579	0.2544	0.2115	0.036
Mof_C 	C 	0.2315	0.6108	0.5533	0.112
Mof_C 	C 	0.8822	0.0524	0.3788	0.48
Mof_C 	C 	0.5071	0.8044	0.2627	0.033
Mof_C 	C 	0.1722	0.4468	0.9946	0.136
Mof_C 	C 	0.5758	0.465	0.9027	-0.205
Mof_C 	C 	0.21	0.1894	0.7709	-0.034
Mof_C 	C 	0.7317	0.8714	0.1837	-0.1
Mof_C 	C 	0.4929	0.1956	0.7373	0.033
Mof_C 	C 	0.8278	0.5532	0.0054	0.136
Mof_C 	C 	0.2683	0.1286	0.8163	-0.1
Mof_C 	C 	0.1576	0.3666	0.5361	-0.247
Mof_C 	C 	0.0206	0.8106	0.7291	-0.037
Mof_C 	C 	0.113	0.2334	0.0238	0.5
Mof_C 	C 	0.8298	0.9476	0.1212	0.481
Mof_C 	C 	0.4668	0.9324	0.49	0.247
Mof_C 	C 	0.8424	0.6334	0.4639	-0.247
Mof_C 	C 	0.581	0.8652	0.1997	-0.033
Mof_C 	C 	0.7254	0.5532	0.5054	0.136
Mof_C 	C 	0.5344	0.0676	0.01	0.249
Mof_C 	C 	0.0723	0.4142	0.5873	0.145
Mof_C 	C 	0.8892	0.465	0.4027	-0.206
Mof_C 	C 	0.1108	0.535	0.5973	-0.206
Mof_C 	C 	0.419	0.1348	0.8003	-0.033
Mof_C 	C 	0.7158	0.1348	0.3003	-0.034
Mof_C 	C 	0.7942	0.0696	0.7551	0.256
Mof_C 	C 	0.4242	0.535	0.0973	-0.205
Mof_C 	C 	0.2058	0.9304	0.2449	0.256
Mof_C 	C 	0.2746	0.4468	0.4946	0.136
Mof_C 	C 	0.0421	0.7456	0.7885	0.036
Mof_C 	C 	0.5332	0.0676	0.51	0.247
Mof_C 	C 	0.209	0.3666	0.0361	-0.247
Mof_C 	C 	0.8603	0.1286	0.3163	-0.099
Mof_C 	C 	0.4656	0.9324	0.99	0.249
Mof_C 	C 	0.887	0.7666	0.9762	0.5
Mof_C 	C 	0.3793	0.6108	0.0533	0.112
Mof_C 	C 	0.7035	0.7456	0.2885	0.036
Mof_C 	C 	0.1204	0.2334	0.5238	0.5
Mof_N 	N 	0.6912	0.4342	0.4999	-0.235
Mof_N 	N 	0.257	0.5658	0.0001	-0.235
Mof_N 	N 	0.3088	0.5658	0.5001	-0.235
Mof_N 	N 	0.5655	0.7454	0.3076	-0.198
Mof_N 	N 	0.8201	0.2546	0.1924	-0.198
Mof_N 	N 	0.4345	0.2546	0.6924	-0.198
Mof_N 	N 	0.1799	0.7454	0.8076	-0.198
Mof_N 	N 	0.743	0.4342	0.9999	-0.235
Mof_O 	O 	0.975	0.1978	0.9915	-0.519
Mof_O 	O 	0.9676	0.9634	0.124	-0.522
Mof_O 	O 	0.991	0.1616	0.5449	-0.539
Mof_O 	O 	0.4618	0.1168	0.0557	-0.415
Mof_O 	O 	0.3383	0.8738	0.0208	-0.45
Mof_O 	O 	0.2228	0.1978	0.4915	-0.517
Mof_O 	O 	0.1706	0.1616	0.0449	-0.536
Mof_O 	O 	0.2236	0.9904	0.5725	-0.491
Mof_O 	O 	0.0042	0.0366	0.376	-0.522
Mof_O 	O 	0.8037	0.1226	0.8258	-0.407
Mof_O 	O 	0.5382	0.8832	0.9443	-0.415
Mof_O 	O 	0.2332	0.0096	0.9275	-0.491
Mof_O 	O 	0.9958	0.9634	0.624	-0.522
Mof_O 	O 	0.025	0.8022	0.0085	-0.519
Mof_O 	O 	0.8266	0.1188	0.6907	-0.397
Mof_O 	O 	0.7078	0.8812	0.8093	-0.395
Mof_O 	O 	0.655	0.1168	0.5557	-0.417
Mof_O 	O 	0.009	0.8384	0.4551	-0.539
Mof_O 	O 	0.345	0.8832	0.4443	-0.417
Mof_O 	O 	0.7668	0.9904	0.0725	-0.491
Mof_O 	O 	0.3189	0.1226	0.3258	-0.407
Mof_O 	O 	0.1963	0.8774	0.1742	-0.407
Mof_O 	O 	0.8294	0.8384	0.9551	-0.536
Mof_O 	O 	0.1734	0.8812	0.3093	-0.397
Mof_O 	O 	0.7772	0.8022	0.5085	-0.517
Mof_O 	O 	0.7764	0.0096	0.4275	-0.491
Mof_O 	O 	0.2922	0.1188	0.1907	-0.395
Mof_O 	O 	0.6811	0.8774	0.6742	-0.407
Mof_O 	O 	0.4645	0.1262	0.4792	-0.449
Mof_O 	O 	0.0324	0.0366	0.876	-0.522
Mof_O 	O 	0.6617	0.1262	0.9792	-0.45
Mof_O 	O 	0.5355	0.8738	0.5208	-0.449
_end
