data_functionalizedCrystal
_audit_creation_method	'EQeq! by Chris Wilmer'
_symmetry_space_group_name_H-M	'P1'
_symmetry_Int_Tables_number	1
_symmetry_cell_setting	triclinic
loop_
_symmetry_equiv_pos_as_xyz
  x,y,z
_cell_length_a	12.5757
_cell_length_b	13.4705
_cell_length_c	14.2408
_cell_angle_alpha	99.641
_cell_angle_beta	95.823
_cell_angle_gamma	117.245
loop_
_atom_site_label
_atom_site_type_symbol
_atom_site_fract_x
_atom_site_fract_y
_atom_site_fract_z
_atom_site_charge
Mof_N 	N 	0.9125	0.59264	0.49308	-0.235
Mof_N 	N 	0.8256	0.6931	0.44307	-0.097
Mof_N 	N 	0.8172	0.68649	0.53695	-0.102
Mof_N 	N 	0.5616	0.86833	0.74207	-0.098
Mof_N 	N 	0.447	0.8479	0.70288	-0.096
Mof_N 	N 	0.5015	0.93673	0.86154	-0.229
Mof_N 	N 	0.5479	0.8881	0.0405	-0.233
Mof_N 	N 	0.552	0.7302	0.04187	-0.089
Mof_N 	N 	0.6545	0.8135	0.1068	-0.096
Mof_N 	N 	0.1385	0.61749	0.44911	-0.243
Mof_N 	N 	0.2316	0.7302	0.35062	-0.101
Mof_N 	N 	0.2934	0.77883	0.44516	-0.1
Mof_C 	C 	0.8844	0.6366	0.4204	0.094
Mof_H 	H 	0.9058	0.6269	0.3587	-0.001
Mof_C 	C 	0.8692	0.6267	0.5652	0.092
Mof_H 	H 	0.8743	0.6109	0.6276	-0.01
Mof_C 	C 	0.8005	0.8531	0.6141	-0.006
Mof_C 	C 	0.9153	0.9305	0.5954	-0.031
Mof_H 	H 	0.9608	0.9011	0.5626	0.066
Mof_C 	C 	0.9598	0.0457	0.624	-0.006
Mof_H 	H 	0.0379	0.0963	0.6136	0.009
Mof_C 	C 	0.8913	0.092	0.6695	-0.027
Mof_H 	H 	0.9229	0.173	0.6877	0.054
Mof_C 	C 	0.7811	0.0211	0.6871	-0.083
Mof_H 	H 	0.7351	0.0528	0.716	0.067
Mof_C 	C 	0.7333	0.8998	0.6628	0.036
Mof_C 	C 	0.6259	0.8228	0.68767	0.03
Mof_C 	C 	0.582	0.7047	0.6691	0.009
Mof_C 	C 	0.4789	0.6293	0.703	-0.054
Mof_H 	H 	0.4365	0.6598	0.7391	0.056
Mof_C 	C 	0.4405	0.5149	0.6844	-0.026
Mof_H 	H 	0.3731	0.4662	0.7093	0.044
Mof_C 	C 	0.5002	0.4674	0.6282	-0.032
Mof_H 	H 	0.4703	0.3866	0.6131	0.047
Mof_C 	C 	0.5994	0.536	0.5956	-0.046
Mof_H 	H 	0.6382	0.5025	0.558	0.055
Mof_C 	C 	0.6467	0.6577	0.6165	-0.006
Mof_C 	C 	0.7525	0.7338	0.5897	0.043
Mof_C 	C 	0.5917	0.9199	0.8358	0.092
Mof_H 	H 	0.6662	0.9415	0.8781	0.001
Mof_C 	C 	0.4154	0.8906	0.7779	0.094
Mof_H 	H 	0.339	0.8894	0.7742	-0.008
Mof_C 	C 	0.4898	0.7753	0.0032	0.034
Mof_H 	H 	0.4155	0.7337	0.9562	0.022
Mof_C 	C 	0.6478	0.9067	0.1033	0.091
Mof_H 	H 	0.7074	0.9809	0.1411	-0.002
Mof_C 	C 	0.526	0.6126	0.0209	-0.03
Mof_C 	C 	0.5851	0.5792	0.9553	0.075
Mof_C 	C 	0.6723	0.6572	0.9101	-0.091
Mof_H 	H 	0.6911	0.7356	0.9238	0.084
Mof_C 	C 	0.7285	0.6207	0.8479	0.01
Mof_H 	H 	0.7872	0.6736	0.819	0.035
Mof_C 	C 	0.7001	0.5036	0.8258	-0.065
Mof_H 	H 	0.7405	0.4791	0.7821	0.055
Mof_C 	C 	0.6173	0.4263	0.8654	-0.009
Mof_H 	H 	0.5986	0.348	0.8485	0.042
Mof_C 	C 	0.5577	0.4615	0.9325	-0.047
Mof_C 	C 	0.399	0.892	0.47353	0.034
Mof_C 	C 	0.5045	0.9073	0.4395	0.031
Mof_C 	C 	0.5121	0.8157	0.3789	-0.046
Mof_H 	H 	0.4432	0.7408	0.3605	0.057
Mof_C 	C 	0.6166	0.8343	0.3474	-0.046
Mof_H 	H 	0.6201	0.7724	0.3073	0.053
Mof_C 	C 	0.7206	0.9457	0.374	0.017
Mof_H 	H 	0.7926	0.9581	0.3506	0.038
Mof_C 	C 	0.7179	0.0346	0.4326	-0.088
Mof_H 	H 	0.7889	0.108	0.451	0.066
Mof_C 	C 	0.61	0.0194	0.46704	-0.013
Mof_C 	C 	0.1396	0.6335	0.3571	0.083
Mof_H 	H 	0.079	0.5792	0.3023	-0.026
Mof_C 	C 	0.2376	0.7107	0.5027	0.084
Mof_H 	H 	0.2644	0.7264	0.5709	-0.007
Mof_N 	N 	0.0875	0.40736	0.50692	-0.249
Mof_N 	N 	0.1744	0.3069	0.55693	-0.1
Mof_N 	N 	0.1828	0.31351	0.46305	-0.103
Mof_N 	N 	0.4384	0.13167	0.25793	-0.107
Mof_N 	N 	0.553	0.1521	0.29712	-0.098
Mof_N 	N 	0.4985	0.06327	0.13846	-0.25
Mof_N 	N 	0.4521	0.1119	0.9595	-0.249
Mof_N 	N 	0.448	0.2698	0.95813	-0.12
Mof_N 	N 	0.3455	0.1865	0.8932	-0.097
Mof_N 	N 	0.8615	0.38251	0.55089	-0.229
Mof_N 	N 	0.7684	0.2698	0.64938	-0.097
Mof_N 	N 	0.7066	0.22117	0.55484	-0.101
Mof_C 	C 	0.1156	0.3634	0.5796	0.084
Mof_H 	H 	0.0942	0.3731	0.6413	-0.018
Mof_C 	C 	0.1308	0.3733	0.4348	0.082
Mof_H 	H 	0.1257	0.3891	0.3724	-0.021
Mof_C 	C 	0.1995	0.1469	0.3859	0.012
Mof_C 	C 	0.0847	0.0695	0.4046	-0.071
Mof_H 	H 	0.0392	0.0989	0.4374	0.046
Mof_C 	C 	0.0402	0.9543	0.376	-0.066
Mof_H 	H 	0.9621	0.9037	0.3864	0.083
Mof_C 	C 	0.1087	0.908	0.3305	-0.032
Mof_H 	H 	0.0771	0.827	0.3123	0.034
Mof_C 	C 	0.2189	0.9789	0.3129	-0.012
Mof_H 	H 	0.2649	0.9472	0.284	0.051
Mof_C 	C 	0.2667	0.1002	0.3372	-0.037
Mof_C 	C 	0.3741	0.1772	0.31233	0.047
Mof_C 	C 	0.418	0.2953	0.3309	-0.006
Mof_C 	C 	0.5211	0.3707	0.297	-0.045
Mof_H 	H 	0.5635	0.3402	0.2609	0.052
Mof_C 	C 	0.5595	0.4851	0.3156	-0.034
Mof_H 	H 	0.6269	0.5338	0.2907	0.047
Mof_C 	C 	0.4998	0.5326	0.3718	-0.024
Mof_H 	H 	0.5297	0.6134	0.3869	0.045
Mof_C 	C 	0.4006	0.464	0.4044	-0.055
Mof_H 	H 	0.3618	0.4975	0.442	0.058
Mof_C 	C 	0.3533	0.3423	0.3835	0.004
Mof_C 	C 	0.2475	0.2662	0.4103	0.027
Mof_C 	C 	0.4083	0.0801	0.1642	0.083
Mof_H 	H 	0.3338	0.0585	0.1219	-0.027
Mof_C 	C 	0.5846	0.1094	0.2221	0.086
Mof_H 	H 	0.661	0.1106	0.2258	-0.016
Mof_C 	C 	0.5102	0.2247	0.9968	0.154
Mof_H 	H 	0.5845	0.2663	0.0438	-0.056
Mof_C 	C 	0.3522	0.0933	0.8967	0.094
Mof_H 	H 	0.2926	0.0191	0.8589	-0.021
Mof_C 	C 	0.474	0.3874	0.9791	0.105
Mof_C 	C 	0.4149	0.4208	0.0447	-0.075
Mof_C 	C 	0.3277	0.3428	0.0899	-0.005
Mof_H 	H 	0.3089	0.2644	0.0762	0.029
Mof_C 	C 	0.2715	0.3793	0.1521	-0.076
Mof_H 	H 	0.2128	0.3264	0.181	0.046
Mof_C 	C 	0.2999	0.4964	0.1742	0.001
Mof_H 	H 	0.2595	0.5209	0.2179	0.024
Mof_C 	C 	0.3827	0.5737	0.1346	-0.096
Mof_H 	H 	0.4014	0.652	0.1515	0.068
Mof_C 	C 	0.4423	0.5385	0.0675	0.047
Mof_C 	C 	0.601	0.108	0.52647	0.048
Mof_C 	C 	0.4955	0.0927	0.5605	-0.016
Mof_C 	C 	0.4879	0.1843	0.6211	-0.052
Mof_H 	H 	0.5568	0.2592	0.6395	0.059
Mof_C 	C 	0.3834	0.1657	0.6526	-0.017
Mof_H 	H 	0.3799	0.2276	0.6927	0.041
Mof_C 	C 	0.2794	0.0543	0.626	-0.076
Mof_H 	H 	0.2074	0.0419	0.6494	0.044
Mof_C 	C 	0.2821	0.9654	0.5674	-0.008
Mof_H 	H 	0.2111	0.892	0.549	0.036
Mof_C 	C 	0.39	0.9806	0.53296	0.021
Mof_C 	C 	0.8604	0.3665	0.6429	0.089
Mof_H 	H 	0.921	0.4208	0.6977	-0.004
Mof_C 	C 	0.7624	0.2893	0.4973	0.087
Mof_H 	H 	0.7356	0.2736	0.4291	-0.004
Mof_Cu	Cu	8.23678e-17	0.5	0.5	0.833
Mof_Cu	Cu	0.5	0	-0	0.828
_end
