data_functionalizedCrystal
_audit_creation_method	'EQeq! by Chris Wilmer'
_symmetry_space_group_name_H-M	'P1'
_symmetry_Int_Tables_number	1
_symmetry_cell_setting	triclinic
loop_
_symmetry_equiv_pos_as_xyz
  x,y,z
_cell_length_a	8.9864
_cell_length_b	27.7885
_cell_length_c	10.953
_cell_angle_alpha	90
_cell_angle_beta	99.196
_cell_angle_gamma	90
loop_
_atom_site_label
_atom_site_type_symbol
_atom_site_fract_x
_atom_site_fract_y
_atom_site_fract_z
_atom_site_charge
Mof_Mo	Mo	0.58569	0.64903	0.87405	1.017
Mof_O 	O 	0.66937	0.18396	0.4134	-0.409
Mof_O 	O 	0.4309	0.61583	0.90657	-0.545
Mof_N 	N 	0.3716	0.57232	0.13399	-0.237
Mof_C 	C 	0.338	0.52701	0.1604	0.071
Mof_H 	H 	0.2514	0.5133	0.1162	-0.015
Mof_C 	C 	0.4247	0.49932	0.2496	-0.124
Mof_H 	H 	0.3977	0.4676	0.2621	0.054
Mof_C 	C 	0.5524	0.519	0.3207	0.053
Mof_C 	C 	0.5858	0.56648	0.2951	-0.137
Mof_H 	H 	0.6691	0.5816	0.3406	0.052
Mof_C 	C 	0.4953	0.59108	0.2024	0.072
Mof_H 	H 	0.5214	0.6226	0.1862	-0.036
Mof_C 	C 	0.6537	0.49093	0.4162	0.059
Mof_C 	C 	0.6502	0.44084	0.4142	-0.1
Mof_H 	H 	0.5814	0.4247	0.3558	0.041
Mof_C 	C 	0.7212	0.33597	0.3893	-0.122
Mof_H 	H 	0.7047	0.3525	0.3146	0.042
Mof_C 	C 	0.7167	0.2861	0.3894	0.007
Mof_H 	H 	0.6914	0.2695	0.3152	-0.001
Mof_Mo	Mo	0.08569	0.14903	0.37405	0.963
Mof_O 	O 	0.16937	0.68396	0.9134	-0.377
Mof_O 	O 	0.9309	0.11583	0.40657	-0.545
Mof_N 	N 	0.8716	0.07232	0.63399	-0.236
Mof_C 	C 	0.838	0.02701	0.6604	0.078
Mof_H 	H 	0.7514	0.0133	0.6162	-0.01
Mof_C 	C 	0.9247	0.99932	0.7496	-0.126
Mof_H 	H 	0.8977	0.9676	0.7621	0.057
Mof_C 	C 	0.0524	0.019	0.8207	0.061
Mof_C 	C 	0.0858	0.06648	0.7951	-0.155
Mof_H 	H 	0.1691	0.0816	0.8406	0.064
Mof_C 	C 	0.9953	0.09108	0.7024	0.101
Mof_H 	H 	0.0214	0.1226	0.6862	-0.046
Mof_C 	C 	0.1537	0.99093	0.9162	0.071
Mof_C 	C 	0.1502	0.94084	0.9142	-0.065
Mof_H 	H 	0.0814	0.9247	0.8558	0.034
Mof_C 	C 	0.2212	0.83597	0.8893	-0.099
Mof_H 	H 	0.2047	0.8525	0.8146	0.038
Mof_C 	C 	0.2167	0.7861	0.8894	0.036
Mof_H 	H 	0.1914	0.7695	0.8152	-0.006
Mof_Mo	Mo	0.91431	0.64903	0.12595	0.955
Mof_O 	O 	0.83063	0.18396	0.5866	-0.404
Mof_O 	O 	0.0691	0.61583	0.09343	-0.551
Mof_N 	N 	0.1284	0.57232	0.86601	-0.227
Mof_C 	C 	0.162	0.52701	0.8396	0.076
Mof_H 	H 	0.2486	0.5133	0.8838	-0.002
Mof_C 	C 	0.0753	0.49932	0.7504	-0.124
Mof_H 	H 	0.1023	0.4676	0.7379	0.055
Mof_C 	C 	0.9476	0.519	0.6793	0.058
Mof_C 	C 	0.9142	0.56648	0.7049	-0.146
Mof_H 	H 	0.8309	0.5816	0.6594	0.055
Mof_C 	C 	0.0047	0.59108	0.7976	0.089
Mof_H 	H 	0.9786	0.6226	0.8138	-0.037
Mof_C 	C 	0.8463	0.49093	0.5838	0.058
Mof_C 	C 	0.8498	0.44084	0.5858	-0.1
Mof_H 	H 	0.9186	0.4247	0.6442	0.042
Mof_C 	C 	0.7788	0.33597	0.6107	-0.121
Mof_H 	H 	0.7953	0.3525	0.6854	0.042
Mof_C 	C 	0.7833	0.2861	0.6106	0.007
Mof_H 	H 	0.8086	0.2695	0.6848	0.002
Mof_Mo	Mo	0.41431	0.14903	0.62595	0.982
Mof_O 	O 	0.33063	0.68396	0.0866	-0.406
Mof_O 	O 	0.5691	0.11583	0.59343	-0.551
Mof_N 	N 	0.6284	0.07232	0.36601	-0.232
Mof_C 	C 	0.662	0.02701	0.3396	0.074
Mof_H 	H 	0.7486	0.0133	0.3838	-0.009
Mof_C 	C 	0.5753	0.99932	0.2504	-0.124
Mof_H 	H 	0.6023	0.9676	0.2379	0.054
Mof_C 	C 	0.4476	0.019	0.1793	0.052
Mof_C 	C 	0.4142	0.06648	0.2049	-0.137
Mof_H 	H 	0.3309	0.0816	0.1594	0.049
Mof_C 	C 	0.5047	0.09108	0.2976	0.073
Mof_H 	H 	0.4786	0.1226	0.3138	-0.034
Mof_C 	C 	0.3463	0.99093	0.0838	0.051
Mof_C 	C 	0.3498	0.94084	0.0858	-0.093
Mof_H 	H 	0.4186	0.9247	0.1442	0.037
Mof_C 	C 	0.2788	0.83597	0.1107	-0.124
Mof_H 	H 	0.2953	0.8525	0.1854	0.042
Mof_C 	C 	0.2833	0.7861	0.1106	0.011
Mof_H 	H 	0.3086	0.7695	0.1848	-0.003
Mof_Ni	Ni	0.25	0.61722	-0	1.089
Mof_Ni	Ni	0.75	0.11722	0.5	1.102
Mof_O 	O 	0.75	0.63799	-0	-0.627
Mof_O 	O 	0.25	0.13799	0.5	-0.603
Mof_N 	N 	0.75	0.5159	0.5	-0.132
Mof_C 	C 	0.75	0.41499	0.5	0.032
Mof_C 	C 	0.75	0.36161	0.5	0.023
Mof_C 	C 	0.75	0.2607	0.5	-0.13
Mof_C 	C 	0.75	0.20669	0.5	0.273
Mof_N 	N 	0.25	0.0159	-0	-0.147
Mof_C 	C 	0.25	0.91499	-0	0.003
Mof_C 	C 	0.25	0.86161	-0	0.003
Mof_C 	C 	0.25	0.7607	-0	-0.156
Mof_C 	C 	0.25	0.70669	-0	0.246
Mof_Mo	Mo	0.41431	0.35097	0.12595	0.967
Mof_O 	O 	0.33063	0.81604	0.5866	-0.406
Mof_O 	O 	0.5691	0.38417	0.09343	-0.556
Mof_N 	N 	0.6284	0.42768	0.86601	-0.224
Mof_C 	C 	0.662	0.47299	0.8396	0.074
Mof_H 	H 	0.7486	0.4867	0.8838	-0.001
Mof_C 	C 	0.5753	0.50068	0.7504	-0.119
Mof_H 	H 	0.6023	0.5324	0.7379	0.054
Mof_C 	C 	0.4476	0.481	0.6793	0.052
Mof_C 	C 	0.4142	0.43352	0.7049	-0.134
Mof_H 	H 	0.3309	0.4184	0.6594	0.051
Mof_C 	C 	0.5047	0.40892	0.7976	0.075
Mof_H 	H 	0.4786	0.3774	0.8138	-0.029
Mof_C 	C 	0.3463	0.50907	0.5838	0.06
Mof_C 	C 	0.3498	0.55916	0.5858	-0.1
Mof_H 	H 	0.4186	0.5753	0.6442	0.041
Mof_C 	C 	0.2788	0.66403	0.6107	-0.122
Mof_H 	H 	0.2953	0.6475	0.6854	0.041
Mof_C 	C 	0.2833	0.7139	0.6106	0.007
Mof_H 	H 	0.3086	0.7305	0.6848	0.001
Mof_Mo	Mo	0.91431	0.85097	0.62595	0.973
Mof_O 	O 	0.83063	0.31604	0.0866	-0.404
Mof_O 	O 	0.0691	0.88417	0.59343	-0.546
Mof_N 	N 	0.1284	0.92768	0.36601	-0.236
Mof_C 	C 	0.162	0.97299	0.3396	0.077
Mof_H 	H 	0.2486	0.9867	0.3838	-0.01
Mof_C 	C 	0.0753	0.00068	0.2504	-0.128
Mof_H 	H 	0.1023	0.0324	0.2379	0.055
Mof_C 	C 	0.9476	0.981	0.1793	0.058
Mof_C 	C 	0.9142	0.93352	0.2049	-0.156
Mof_H 	H 	0.8309	0.9184	0.1594	0.055
Mof_C 	C 	0.0047	0.90892	0.2976	0.096
Mof_H 	H 	0.9786	0.8774	0.3138	-0.047
Mof_C 	C 	0.8463	0.00907	0.0838	0.05
Mof_C 	C 	0.8498	0.05916	0.0858	-0.092
Mof_H 	H 	0.9186	0.0753	0.1442	0.038
Mof_C 	C 	0.7788	0.16403	0.1107	-0.123
Mof_H 	H 	0.7953	0.1475	0.1854	0.043
Mof_C 	C 	0.7833	0.2139	0.1106	0.011
Mof_H 	H 	0.8086	0.2305	0.1848	-0.002
Mof_Mo	Mo	0.08569	0.35097	0.87405	1.003
Mof_O 	O 	0.16937	0.81604	0.4134	-0.405
Mof_O 	O 	0.9309	0.38417	0.90657	-0.538
Mof_N 	N 	0.8716	0.42768	0.13399	-0.239
Mof_C 	C 	0.838	0.47299	0.1604	0.074
Mof_H 	H 	0.7514	0.4867	0.1162	-0.016
Mof_C 	C 	0.9247	0.50068	0.2496	-0.128
Mof_H 	H 	0.8977	0.5324	0.2621	0.055
Mof_C 	C 	0.0524	0.481	0.3207	0.059
Mof_C 	C 	0.0858	0.43352	0.2951	-0.151
Mof_H 	H 	0.1691	0.4184	0.3406	0.056
Mof_C 	C 	0.9953	0.40892	0.2024	0.089
Mof_H 	H 	0.0214	0.3774	0.1862	-0.045
Mof_C 	C 	0.1537	0.50907	0.4162	0.058
Mof_C 	C 	0.1502	0.55916	0.4142	-0.1
Mof_H 	H 	0.0814	0.5753	0.3558	0.042
Mof_C 	C 	0.2212	0.66403	0.3893	-0.122
Mof_H 	H 	0.2047	0.6475	0.3146	0.043
Mof_C 	C 	0.2167	0.7139	0.3894	0.007
Mof_H 	H 	0.1914	0.7305	0.3152	-0
Mof_Mo	Mo	0.58569	0.85097	0.37405	0.973
Mof_O 	O 	0.66937	0.31604	0.9134	-0.377
Mof_O 	O 	0.4309	0.88417	0.40657	-0.55
Mof_N 	N 	0.3716	0.92768	0.63399	-0.231
Mof_C 	C 	0.338	0.97299	0.6604	0.074
Mof_H 	H 	0.2514	0.9867	0.6162	-0.009
Mof_C 	C 	0.4247	0.00068	0.7496	-0.122
Mof_H 	H 	0.3977	0.0324	0.7621	0.056
Mof_C 	C 	0.5524	0.981	0.8207	0.056
Mof_C 	C 	0.5858	0.93352	0.7951	-0.134
Mof_H 	H 	0.6691	0.9184	0.8406	0.058
Mof_C 	C 	0.4953	0.90892	0.7024	0.075
Mof_H 	H 	0.5214	0.8774	0.6862	-0.032
Mof_C 	C 	0.6537	0.00907	0.9162	0.074
Mof_C 	C 	0.6502	0.05916	0.9142	-0.064
Mof_H 	H 	0.5814	0.0753	0.8558	0.033
Mof_C 	C 	0.7212	0.16403	0.8893	-0.098
Mof_H 	H 	0.7047	0.1475	0.8146	0.037
Mof_C 	C 	0.7167	0.2139	0.8894	0.037
Mof_H 	H 	0.6914	0.2305	0.8152	-0.007
Mof_Ni	Ni	0.75	0.38278	-0	1.089
Mof_Ni	Ni	0.25	0.88278	0.5	1.102
Mof_O 	O 	0.25	0.36201	-0	-0.625
Mof_O 	O 	0.75	0.86201	0.5	-0.603
Mof_N 	N 	0.25	0.4841	0.5	-0.132
Mof_C 	C 	0.25	0.58501	0.5	0.032
Mof_C 	C 	0.25	0.63839	0.5	0.023
Mof_C 	C 	0.25	0.7393	0.5	-0.13
Mof_C 	C 	0.25	0.79331	0.5	0.273
Mof_N 	N 	0.75	0.9841	-0	-0.148
Mof_C 	C 	0.75	0.08501	-0	0.001
Mof_C 	C 	0.75	0.13839	-0	0.002
Mof_C 	C 	0.75	0.2393	-0	-0.158
Mof_C 	C 	0.75	0.29331	-0	0.244
_end
