data_functionalizedCrystal
_audit_creation_method	'EQeq! by Chris Wilmer'
_symmetry_space_group_name_H-M	'P1'
_symmetry_Int_Tables_number	1
_symmetry_cell_setting	triclinic
loop_
_symmetry_equiv_pos_as_xyz
  x,y,z
_cell_length_a	11.855
_cell_length_b	12.414
_cell_length_c	12.473
_cell_angle_alpha	90
_cell_angle_beta	99.01
_cell_angle_gamma	90
loop_
_atom_site_label
_atom_site_type_symbol
_atom_site_fract_x
_atom_site_fract_y
_atom_site_fract_z
_atom_site_charge
Mof_C 	C 	0.4851	0.3395	0.488	-0.012
Mof_C 	C 	0.3892	0.3754	0.5275	-0.196
Mof_H 	H 	0.3269	0.4025	0.4808	0.111
Mof_C 	C 	0.3881	0.3699	0.6392	0.261
Mof_C 	C 	0.482	0.3337	0.7096	-0.326
Mof_H 	H 	0.4798	0.3301	0.7838	0.151
Mof_C 	C 	0.5797	0.3029	0.6692	0.267
Mof_C 	C 	0.5811	0.3027	0.5587	-0.198
Mof_H 	H 	0.6451	0.2783	0.5314	0.115
Mof_C 	C 	0.4888	0.3416	0.369	0.456
Mof_C 	C 	0.2786	0.3816	0.7831	0.049
Mof_H 	H 	0.3017	0.3072	0.8013	0.027
Mof_C 	C 	0.3562	0.4579	0.8588	0.472
Mof_C 	C 	0.1545	0.3943	0.7943	-0.47
Mof_H 	H 	0.1091	0.3461	0.7451	0.177
Mof_H 	H 	0.131	0.4672	0.7775	0.144
Mof_H 	H 	0.1445	0.3778	0.8674	0.163
Mof_C 	C 	0.6916	0.2947	0.8444	0.079
Mof_H 	H 	0.6595	0.3661	0.8543	0.013
Mof_C 	C 	0.6317	0.2124	0.9079	0.457
Mof_C 	C 	0.8197	0.2986	0.8848	-0.511
Mof_H 	H 	0.8544	0.3511	0.8438	0.192
Mof_H 	H 	0.8524	0.2291	0.8757	0.184
Mof_H 	H 	0.8329	0.3179	0.9602	0.166
Mof_C 	C 	0.0229	0.5454	0.0915	0.074
Mof_C 	C 	0.9627	0.548	0.9868	-0.247
Mof_H 	H 	0.9996	0.5339	0.9278	0.116
Mof_C 	C 	0.8472	0.572	0.971	0.295
Mof_C 	C 	0.7915	0.5912	0.0582	-0.343
Mof_H 	H 	0.7137	0.6062	0.047	0.15
Mof_C 	C 	0.8525	0.5878	0.1635	0.298
Mof_C 	C 	0.9689	0.5652	0.1805	-0.235
Mof_H 	H 	0.0099	0.5634	0.2505	0.127
Mof_C 	C 	0.1487	0.5192	0.1085	0.257
Mof_C 	C 	0.6875	0.5729	0.2497	0.146
Mof_H 	H 	0.6367	0.6205	0.2014	-0.013
Mof_C 	C 	0.6725	0.4572	0.2102	0.331
Mof_C 	C 	0.6612	0.5815	0.3648	-0.582
Mof_H 	H 	0.6805	0.6523	0.3926	0.215
Mof_H 	H 	0.7052	0.529	0.4099	0.204
Mof_H 	H 	0.5813	0.5686	0.3646	0.191
Mof_C 	C 	0.6803	0.6001	0.8362	0.148
Mof_H 	H 	0.6323	0.5525	0.8726	-0.018
Mof_C 	C 	0.6609	0.7156	0.8648	0.312
Mof_C 	C 	0.6508	0.5872	0.7138	-0.565
Mof_H 	H 	0.659	0.513	0.6947	0.206
Mof_H 	H 	0.7014	0.6308	0.679	0.198
Mof_H 	H 	0.5734	0.6098	0.6904	0.182
Mof_O 	O 	0.5646	0.2846	0.3363	-0.547
Mof_O 	O 	0.4173	0.3987	0.3107	-0.569
Mof_O 	O 	0.2878	0.4002	0.6729	-0.268
Mof_O 	O 	0.3798	0.5471	0.8266	-0.598
Mof_O 	O 	0.3898	0.4212	0.9539	-0.579
Mof_O 	O 	0.6789	0.2728	0.7327	-0.261
Mof_O 	O 	0.6264	0.2376	0.0034	-0.591
Mof_O 	O 	0.5918	0.1271	0.861	-0.527
Mof_O 	O 	0.2003	0.4963	0.2006	-0.425
Mof_O 	O 	0.2001	0.5209	0.0265	-0.462
Mof_O 	O 	0.7967	0.5704	0.8639	-0.283
Mof_O 	O 	0.7415	0.7827	0.8771	-0.441
Mof_O 	O 	0.5594	0.7458	0.8718	-0.586
Mof_O 	O 	0.8038	0.6057	0.253	-0.28
Mof_O 	O 	0.7501	0.39	0.233	-0.474
Mof_O 	O 	0.5764	0.4313	0.1551	-0.603
Mof_O 	O 	0.7636	0.1684	0.3497	-0.875
Mof_H 	H 	0.7715	0.1115	0.3136	0.302
Mof_H 	H 	0.8046	0.1637	0.4119	0.383
Mof_Tb	Tb	0.37362	0.4454	0.13027	2.321
Mof_Tb	Tb	0.64169	0.22965	0.18693	2.228
Mof_C 	C 	0.5149	0.8395	0.512	-0.018
Mof_C 	C 	0.6108	0.8754	0.4725	-0.201
Mof_H 	H 	0.6731	0.9025	0.5192	0.103
Mof_C 	C 	0.6119	0.8699	0.3608	0.256
Mof_C 	C 	0.518	0.8337	0.2904	-0.332
Mof_H 	H 	0.5202	0.8301	0.2162	0.15
Mof_C 	C 	0.4203	0.8029	0.3308	0.259
Mof_C 	C 	0.4189	0.8027	0.4413	-0.204
Mof_H 	H 	0.3549	0.7783	0.4686	0.107
Mof_C 	C 	0.5112	0.8416	0.631	0.447
Mof_C 	C 	0.7214	0.8816	0.2169	0.062
Mof_H 	H 	0.6983	0.8072	0.1987	0.024
Mof_C 	C 	0.6438	0.9579	0.1412	0.397
Mof_C 	C 	0.8455	0.8943	0.2057	-0.458
Mof_H 	H 	0.8909	0.8461	0.2549	0.169
Mof_H 	H 	0.869	0.9672	0.2225	0.122
Mof_H 	H 	0.8555	0.8778	0.1326	0.151
Mof_C 	C 	0.3084	0.7947	0.1556	0.064
Mof_H 	H 	0.3405	0.8661	0.1457	0.004
Mof_C 	C 	0.3683	0.7124	0.0921	0.466
Mof_C 	C 	0.1803	0.7986	0.1152	-0.477
Mof_H 	H 	0.1456	0.8511	0.1562	0.168
Mof_H 	H 	0.1476	0.7291	0.1243	0.17
Mof_H 	H 	0.1671	0.8179	0.0398	0.145
Mof_C 	C 	0.9771	0.0454	0.9085	0.08
Mof_C 	C 	0.0373	0.048	0.0132	-0.248
Mof_H 	H 	0.0004	0.0339	0.0722	0.128
Mof_C 	C 	0.1528	0.072	0.029	0.305
Mof_C 	C 	0.2085	0.0912	0.9418	-0.343
Mof_H 	H 	0.2863	0.1062	0.953	0.158
Mof_C 	C 	0.1475	0.0878	0.8365	0.319
Mof_C 	C 	0.0311	0.0652	0.8195	-0.238
Mof_H 	H 	0.9901	0.0634	0.7495	0.144
Mof_C 	C 	0.8513	0.0192	0.8915	0.322
Mof_C 	C 	0.3125	0.0729	0.7503	0.255
Mof_H 	H 	0.3633	0.1205	0.7986	-0.038
Mof_C 	C 	0.3275	0.9572	0.7898	0.247
Mof_C 	C 	0.3388	0.0815	0.6352	-0.709
Mof_H 	H 	0.3195	0.1523	0.6074	0.255
Mof_H 	H 	0.2948	0.029	0.5901	0.26
Mof_H 	H 	0.4187	0.0686	0.6354	0.246
Mof_C 	C 	0.3197	0.1001	0.1638	0.158
Mof_H 	H 	0.3677	0.0525	0.1274	-0.008
Mof_C 	C 	0.3391	0.2156	0.1352	0.308
Mof_C 	C 	0.3492	0.0872	0.2862	-0.597
Mof_H 	H 	0.341	0.013	0.3053	0.234
Mof_H 	H 	0.2986	0.1308	0.321	0.211
Mof_H 	H 	0.4266	0.1098	0.3096	0.197
Mof_O 	O 	0.4354	0.7846	0.6637	-0.549
Mof_O 	O 	0.5827	0.8987	0.6893	-0.567
Mof_O 	O 	0.7122	0.9002	0.3271	-0.283
Mof_O 	O 	0.6202	0.0471	0.1734	-0.54
Mof_O 	O 	0.6102	0.9212	0.0461	-0.562
Mof_O 	O 	0.3211	0.7728	0.2673	-0.268
Mof_O 	O 	0.3736	0.7376	0.9966	-0.598
Mof_O 	O 	0.4082	0.6271	0.139	-0.563
Mof_O 	O 	0.7997	0.9963	0.7994	-0.481
Mof_O 	O 	0.7999	0.0209	0.9735	-0.439
Mof_O 	O 	0.2033	0.0704	0.1361	-0.274
Mof_O 	O 	0.2585	0.2827	0.1229	-0.443
Mof_O 	O 	0.4406	0.2458	0.1282	-0.591
Mof_O 	O 	0.1962	0.1057	0.747	-0.295
Mof_O 	O 	0.2499	0.89	0.767	-0.472
Mof_O 	O 	0.4236	0.9313	0.8449	-0.589
Mof_O 	O 	0.2364	0.6684	0.6503	-0.87
Mof_H 	H 	0.2285	0.6115	0.6864	0.286
Mof_H 	H 	0.1954	0.6637	0.5881	0.368
Mof_Tb	Tb	0.62638	0.9454	0.86973	2.21
Mof_Tb	Tb	0.35831	0.72965	0.81307	2.217
_end
