data_functionalizedCrystal
_audit_creation_method	'EQeq! by Chris Wilmer'
_symmetry_space_group_name_H-M	'P1'
_symmetry_Int_Tables_number	1
_symmetry_cell_setting	triclinic
loop_
_symmetry_equiv_pos_as_xyz
  x,y,z
_cell_length_a	8.0794
_cell_length_b	16.6042
_cell_length_c	26.8003
_cell_angle_alpha	90
_cell_angle_beta	90
_cell_angle_gamma	101.191
loop_
_atom_site_label
_atom_site_type_symbol
_atom_site_fract_x
_atom_site_fract_y
_atom_site_fract_z
_atom_site_charge
Mof_Eu	Eu	0.785	0.77266	0.25567	2.298
Mof_Eu	Eu	0.715	0.22734	0.75567	2.306
Mof_Eu	Eu	0.215	0.22734	0.74433	2.298
Mof_Eu	Eu	0.285	0.77266	0.24433	2.306
Mof_H 	H 	0.64	0.684	0.088	0.102
Mof_H 	H 	0.6408	0.8247	0.0795	0.017
Mof_H 	H 	0.4428	0.8067	0.0781	0.017
Mof_H 	H 	0.6517	0.7574	0.0039	0.06
Mof_H 	H 	0.5399	0.824	0.9966	0.061
Mof_H 	H 	0.2899	0.5932	0.0124	0.06
Mof_H 	H 	0.4874	0.6059	0.0146	0.057
Mof_H 	H 	0.2833	0.66	0.0884	0.031
Mof_H 	H 	0.385	0.5893	0.0958	0.023
Mof_H 	H 	0.0932	0.5111	0.9269	0.056
Mof_H 	H 	0.9174	0.4923	0.8998	0.053
Mof_H 	H 	0.2153	0.4477	0.864	0.043
Mof_H 	H 	0.0557	0.3859	0.8831	0.025
Mof_H 	H 	0.189	0.5265	0.7819	0.052
Mof_H 	H 	0.0142	0.5099	0.7544	0.04
Mof_H 	H 	0.8904	0.5706	0.8192	0.057
Mof_H 	H 	0.0509	0.6332	0.8013	0.057
Mof_H 	H 	0.898	0.416	0.8151	0.087
Mof_H 	H 	0.4277	0.8461	0.781	0.053
Mof_H 	H 	0.2387	0.8043	0.7902	0.059
Mof_H 	H 	0.2612	0.93	0.7468	0.022
Mof_H 	H 	0.1598	0.93	0.7967	0.042
Mof_H 	H 	0.3097	0.0036	0.873	0.035
Mof_H 	H 	0.4987	0.0482	0.8676	0.002
Mof_H 	H 	0.4781	0.9202	0.9072	0.057
Mof_H 	H 	0.5845	0.9243	0.858	0.049
Mof_H 	H 	0.502	0.006	0.7841	0.079
Mof_H 	H 	0.86	0.316	0.588	0.102
Mof_H 	H 	0.8592	0.1753	0.5795	0.015
Mof_H 	H 	0.0572	0.1933	0.5781	0.012
Mof_H 	H 	0.8483	0.2426	0.5039	0.06
Mof_H 	H 	0.9601	0.176	0.4966	0.062
Mof_H 	H 	0.2101	0.4068	0.5124	0.06
Mof_H 	H 	0.0126	0.3941	0.5146	0.057
Mof_H 	H 	0.2167	0.34	0.5884	0.031
Mof_H 	H 	0.115	0.4107	0.5958	0.023
Mof_H 	H 	0.4068	0.4889	0.4269	0.054
Mof_H 	H 	0.5826	0.5077	0.3998	0.049
Mof_H 	H 	0.2847	0.5523	0.364	0.046
Mof_H 	H 	0.4443	0.6141	0.3831	0.029
Mof_H 	H 	0.311	0.4735	0.2819	0.055
Mof_H 	H 	0.4858	0.4901	0.2544	0.045
Mof_H 	H 	0.6096	0.4294	0.3192	0.051
Mof_H 	H 	0.4491	0.3668	0.3013	0.055
Mof_H 	H 	0.602	0.584	0.3151	0.081
Mof_H 	H 	0.0723	0.1539	0.281	0.053
Mof_H 	H 	0.2613	0.1957	0.2902	0.058
Mof_H 	H 	0.2388	0.07	0.2468	0.025
Mof_H 	H 	0.3402	0.07	0.2967	0.045
Mof_H 	H 	0.1903	0.9964	0.373	0.038
Mof_H 	H 	0.0013	0.9518	0.3676	0.006
Mof_H 	H 	0.0219	0.0798	0.4072	0.055
Mof_H 	H 	0.9155	0.0757	0.358	0.046
Mof_H 	H 	0.998	0.994	0.2841	0.071
Mof_H 	H 	0.36	0.316	0.912	0.101
Mof_H 	H 	0.3592	0.1753	0.9205	0.016
Mof_H 	H 	0.5572	0.1933	0.9219	0.016
Mof_H 	H 	0.3483	0.2426	0.9961	0.059
Mof_H 	H 	0.4601	0.176	0.0034	0.061
Mof_H 	H 	0.7101	0.4068	0.9876	0.06
Mof_H 	H 	0.5126	0.3941	0.9854	0.057
Mof_H 	H 	0.7167	0.34	0.9116	0.031
Mof_H 	H 	0.615	0.4107	0.9042	0.023
Mof_H 	H 	0.9068	0.4889	0.0731	0.056
Mof_H 	H 	0.0826	0.5077	0.1002	0.053
Mof_H 	H 	0.7847	0.5523	0.136	0.043
Mof_H 	H 	0.9443	0.6141	0.1169	0.025
Mof_H 	H 	0.811	0.4735	0.2181	0.052
Mof_H 	H 	0.9858	0.4901	0.2456	0.04
Mof_H 	H 	0.1096	0.4294	0.1808	0.057
Mof_H 	H 	0.9491	0.3668	0.1987	0.057
Mof_H 	H 	0.102	0.584	0.1849	0.087
Mof_H 	H 	0.5723	0.1539	0.219	0.053
Mof_H 	H 	0.7613	0.1957	0.2098	0.059
Mof_H 	H 	0.7388	0.07	0.2532	0.022
Mof_H 	H 	0.8402	0.07	0.2033	0.042
Mof_H 	H 	0.6903	0.9964	0.127	0.035
Mof_H 	H 	0.5013	0.9518	0.1324	0.002
Mof_H 	H 	0.5219	0.0798	0.0928	0.057
Mof_H 	H 	0.4155	0.0757	0.142	0.049
Mof_H 	H 	0.498	0.994	0.2159	0.079
Mof_H 	H 	0.14	0.684	0.412	0.102
Mof_H 	H 	0.1408	0.8247	0.4205	0.015
Mof_H 	H 	0.9428	0.8067	0.4219	0.012
Mof_H 	H 	0.1517	0.7574	0.4961	0.06
Mof_H 	H 	0.0399	0.824	0.5034	0.062
Mof_H 	H 	0.7899	0.5932	0.4876	0.06
Mof_H 	H 	0.9874	0.6059	0.4854	0.057
Mof_H 	H 	0.7833	0.66	0.4116	0.031
Mof_H 	H 	0.885	0.5893	0.4042	0.023
Mof_H 	H 	0.5932	0.5111	0.5731	0.054
Mof_H 	H 	0.4174	0.4923	0.6002	0.049
Mof_H 	H 	0.7153	0.4477	0.636	0.046
Mof_H 	H 	0.5557	0.3859	0.6169	0.029
Mof_H 	H 	0.689	0.5265	0.7181	0.055
Mof_H 	H 	0.5142	0.5099	0.7456	0.045
Mof_H 	H 	0.3904	0.5706	0.6808	0.051
Mof_H 	H 	0.5509	0.6332	0.6987	0.055
Mof_H 	H 	0.398	0.416	0.6849	0.081
Mof_H 	H 	0.9277	0.8461	0.719	0.053
Mof_H 	H 	0.7387	0.8043	0.7098	0.058
Mof_H 	H 	0.7612	0.93	0.7532	0.025
Mof_H 	H 	0.6598	0.93	0.7033	0.045
Mof_H 	H 	0.8097	0.0036	0.627	0.038
Mof_H 	H 	0.9987	0.0482	0.6324	0.006
Mof_H 	H 	0.9781	0.9202	0.5928	0.055
Mof_H 	H 	0.0845	0.9243	0.642	0.046
Mof_H 	H 	0.002	0.006	0.7159	0.071
Mof_C 	C 	0.5429	0.7198	0.15301	0.503
Mof_C 	C 	0.5385	0.7041	0.09704	-0.228
Mof_C 	C 	0.542	0.785	0.0693	0.002
Mof_C 	C 	0.5462	0.7729	0.01329	-0.09
Mof_C 	C 	0.3914	0.6303	0.02321	-0.086
Mof_C 	C 	0.386	0.6415	0.07938	-0.002
Mof_C 	C 	0.3405	0.7119	0.95034	0.165
Mof_C 	C 	0.3189	0.7812	0.87934	0.168
Mof_C 	C 	0.1817	0.6506	0.887	0.168
Mof_C 	C 	0.0384	0.5056	0.8945	-0.072
Mof_C 	C 	0.0931	0.4375	0.86568	-0.031
Mof_C 	C 	0.0679	0.5131	0.78688	-0.037
Mof_C 	C 	0.0126	0.5805	0.81741	-0.071
Mof_C 	C 	0.3377	0.0835	0.7844	0.446
Mof_C 	C 	0.0213	0.4305	0.81283	-0.18
Mof_C 	C 	0.3257	0.8512	0.7988	-0.076
Mof_C 	C 	0.2705	0.9294	0.78289	-0.018
Mof_C 	C 	0.4156	0.0013	0.85656	-0.014
Mof_C 	C 	0.4723	0.9234	0.87115	-0.078
Mof_C 	C 	0.3925	0.0059	0.7998	-0.206
Mof_C 	C 	0.0829	0.3638	0.78494	0.428
Mof_C 	C 	0.9571	0.2802	0.65301	0.508
Mof_C 	C 	0.9615	0.2959	0.59704	-0.23
Mof_C 	C 	0.958	0.215	0.5693	0.009
Mof_C 	C 	0.9538	0.2271	0.51329	-0.092
Mof_C 	C 	0.1086	0.3697	0.52321	-0.087
Mof_C 	C 	0.114	0.3585	0.57938	-0.003
Mof_C 	C 	0.1595	0.2881	0.45034	0.165
Mof_C 	C 	0.1811	0.2188	0.37934	0.169
Mof_C 	C 	0.3183	0.3494	0.387	0.169
Mof_C 	C 	0.4616	0.4944	0.3945	-0.062
Mof_C 	C 	0.4069	0.5625	0.36568	-0.04
Mof_C 	C 	0.4321	0.4869	0.28688	-0.047
Mof_C 	C 	0.4874	0.4195	0.31741	-0.059
Mof_C 	C 	0.1623	0.9165	0.2844	0.442
Mof_C 	C 	0.4787	0.5695	0.31283	-0.168
Mof_C 	C 	0.1743	0.1488	0.2988	-0.071
Mof_C 	C 	0.2295	0.0706	0.28289	-0.028
Mof_C 	C 	0.0844	0.9987	0.35656	-0.023
Mof_C 	C 	0.0277	0.0766	0.37115	-0.07
Mof_C 	C 	0.1075	0.9941	0.2998	-0.191
Mof_C 	C 	0.4171	0.6362	0.28494	0.429
Mof_C 	C 	0.4571	0.2802	0.84699	0.503
Mof_C 	C 	0.4615	0.2959	0.90296	-0.228
Mof_C 	C 	0.458	0.215	0.9307	0.002
Mof_C 	C 	0.4538	0.2271	0.98671	-0.09
Mof_C 	C 	0.6086	0.3697	0.97679	-0.086
Mof_C 	C 	0.614	0.3585	0.92062	-0.002
Mof_C 	C 	0.6595	0.2881	0.04966	0.165
Mof_C 	C 	0.6811	0.2188	0.12066	0.168
Mof_C 	C 	0.8183	0.3494	0.113	0.168
Mof_C 	C 	0.9616	0.4944	0.1055	-0.072
Mof_C 	C 	0.9069	0.5625	0.13432	-0.031
Mof_C 	C 	0.9321	0.4869	0.21312	-0.037
Mof_C 	C 	0.9874	0.4195	0.18259	-0.071
Mof_C 	C 	0.6623	0.9165	0.2156	0.446
Mof_C 	C 	0.9787	0.5695	0.18717	-0.18
Mof_C 	C 	0.6743	0.1488	0.2012	-0.076
Mof_C 	C 	0.7295	0.0706	0.21711	-0.018
Mof_C 	C 	0.5844	0.9987	0.14344	-0.014
Mof_C 	C 	0.5277	0.0766	0.12885	-0.078
Mof_C 	C 	0.6075	0.9941	0.2002	-0.206
Mof_C 	C 	0.9171	0.6362	0.21506	0.428
Mof_C 	C 	0.0429	0.7198	0.34699	0.508
Mof_C 	C 	0.0385	0.7041	0.40296	-0.23
Mof_C 	C 	0.042	0.785	0.4307	0.009
Mof_C 	C 	0.0462	0.7729	0.48671	-0.092
Mof_C 	C 	0.8914	0.6303	0.47679	-0.087
Mof_C 	C 	0.886	0.6415	0.42062	-0.003
Mof_C 	C 	0.8405	0.7119	0.54966	0.165
Mof_C 	C 	0.8189	0.7812	0.62066	0.169
Mof_C 	C 	0.6817	0.6506	0.613	0.169
Mof_C 	C 	0.5384	0.5056	0.6055	-0.062
Mof_C 	C 	0.5931	0.4375	0.63432	-0.04
Mof_C 	C 	0.5679	0.5131	0.71312	-0.047
Mof_C 	C 	0.5126	0.5805	0.68259	-0.059
Mof_C 	C 	0.8377	0.0835	0.7156	0.442
Mof_C 	C 	0.5213	0.4305	0.68717	-0.168
Mof_C 	C 	0.8257	0.8512	0.7012	-0.071
Mof_C 	C 	0.7705	0.9294	0.71711	-0.028
Mof_C 	C 	0.9156	0.0013	0.64344	-0.023
Mof_C 	C 	0.9723	0.9234	0.62885	-0.07
Mof_C 	C 	0.8925	0.0059	0.7002	-0.191
Mof_C 	C 	0.5829	0.3638	0.71506	0.429
Mof_N 	N 	0.4048	0.709	0.99741	-0.109
Mof_N 	N 	0.3861	0.7826	0.92515	-0.165
Mof_N 	N 	0.2365	0.6442	0.93411	-0.164
Mof_N 	N 	0.2179	0.7168	0.85765	-0.165
Mof_N 	N 	0.3573	0.8511	0.85228	-0.113
Mof_N 	N 	0.082	0.5827	0.86742	-0.114
Mof_N 	N 	0.0952	0.291	0.49741	-0.109
Mof_N 	N 	0.1139	0.2174	0.42515	-0.165
Mof_N 	N 	0.2635	0.3558	0.43411	-0.164
Mof_N 	N 	0.2821	0.2832	0.35765	-0.165
Mof_N 	N 	0.1427	0.1489	0.35228	-0.114
Mof_N 	N 	0.418	0.4173	0.36742	-0.116
Mof_N 	N 	0.5952	0.291	0.00259	-0.109
Mof_N 	N 	0.6139	0.2174	0.07485	-0.165
Mof_N 	N 	0.7635	0.3558	0.06589	-0.164
Mof_N 	N 	0.7821	0.2832	0.14235	-0.165
Mof_N 	N 	0.6427	0.1489	0.14772	-0.113
Mof_N 	N 	0.918	0.4173	0.13258	-0.114
Mof_N 	N 	0.9048	0.709	0.50259	-0.109
Mof_N 	N 	0.8861	0.7826	0.57485	-0.165
Mof_N 	N 	0.7365	0.6442	0.56589	-0.164
Mof_N 	N 	0.7179	0.7168	0.64235	-0.165
Mof_N 	N 	0.8573	0.8511	0.64772	-0.114
Mof_N 	N 	0.582	0.5827	0.63258	-0.116
Mof_O 	O 	0.6883	0.7432	0.17195	-0.545
Mof_O 	O 	0.1865	0.0895	0.78804	-0.487
Mof_O 	O 	0.4425	0.14355	0.76624	-0.699
Mof_O 	O 	0.9889	0.29112	0.78398	-0.687
Mof_O 	O 	0.2242	0.37608	0.76528	-0.466
Mof_O 	O 	0.4065	0.71335	0.17605	-0.58
Mof_O 	O 	0.8117	0.2568	0.67195	-0.546
Mof_O 	O 	0.3135	0.9105	0.28804	-0.485
Mof_O 	O 	0.0575	0.85645	0.26624	-0.695
Mof_O 	O 	0.5111	0.70888	0.28398	-0.69
Mof_O 	O 	0.2758	0.62392	0.26528	-0.466
Mof_O 	O 	0.0935	0.28665	0.67605	-0.584
Mof_O 	O 	0.3117	0.2568	0.82805	-0.545
Mof_O 	O 	0.8135	0.9105	0.21196	-0.487
Mof_O 	O 	0.5575	0.85645	0.23376	-0.699
Mof_O 	O 	0.0111	0.70888	0.21602	-0.687
Mof_O 	O 	0.7758	0.62392	0.23472	-0.466
Mof_O 	O 	0.5935	0.28665	0.82395	-0.58
Mof_O 	O 	0.1883	0.7432	0.32805	-0.546
Mof_O 	O 	0.6865	0.0895	0.71196	-0.485
Mof_O 	O 	0.9425	0.14355	0.73376	-0.695
Mof_O 	O 	0.4889	0.29112	0.71602	-0.69
Mof_O 	O 	0.7242	0.37608	0.73472	-0.466
Mof_O 	O 	0.9065	0.71335	0.32395	-0.584
_end
