# CIF file generated by openbabel 3.1.0, see https://openbabel.org
data_I
_chemical_name_common 'image0'
_cell_length_a 31.37
_cell_length_b 31.37
_cell_length_c 7.8467
_cell_angle_alpha 90
_cell_angle_beta 90
_cell_angle_gamma 90
_space_group_name_H-M_alt 'P 1'
_space_group_name_Hall 'P 1'
loop_
    _symmetry_equiv_pos_as_xyz
    x,y,z
loop_
    _atom_site_label
    _atom_site_type_symbol
    _atom_site_fract_x
    _atom_site_fract_y
    _atom_site_fract_z
    _atom_site_occupancy
    Ag1      Ag       0.81390    0.79947    0.92353    1.000
    N1       N        0.75126    0.72461    0.48620    1.000
    N2       N        0.89850    0.73337    0.23170    1.000
    N3       N        0.93303    0.75465    0.16820    1.000
    N4       N        0.88425    0.80214    0.23150    1.000
    N5       N        0.00853    0.88563    0.94320    1.000
    N6       N        0.83095    0.84852    0.14080    1.000
    C1       C        0.80955    0.71238    0.30030    1.000
    H1       H        0.82280    0.69470    0.22140    1.000
    C2       C        0.77243    0.70055    0.37290    1.000
    H2       H        0.76090    0.67430    0.34290    1.000
    C3       C        0.76859    0.76199    0.52500    1.000
    H3       H        0.75420    0.77940    0.60180    1.000
    C4       C        0.80637    0.77640    0.45870    1.000
    H4       H        0.81730    0.80280    0.49070    1.000
    C5       C        0.82787    0.75120    0.34400    1.000
    C6       C        0.86923    0.76181    0.26950    1.000
    C7       C        0.92423    0.79558    0.16690    1.000
    C8       C        0.95247    0.82765    0.09380    1.000
    C9       C        0.99610    0.82084    0.09640    1.000
    H5       H        0.00730    0.79670    0.14900    1.000
    C10      C        0.02266    0.84995    0.02070    1.000
    H6       H        0.05190    0.84480    0.02290    1.000
    C11      C        0.96662    0.89173    0.94140    1.000
    H7       H        0.95620    0.91610    0.88840    1.000
    C12      C        0.93771    0.86422    0.01300    1.000
    H8       H        0.90870    0.87000    0.00750    1.000
    C13      C        0.86215    0.84191    0.25030    1.000
    C14      C        0.87489    0.87022    0.37250    1.000
    H9       H        0.89730    0.86410    0.44630    1.000
    C15      C        0.85297    0.90833    0.38140    1.000
    H10      H        0.86010    0.92850    0.46350    1.000
    C16      C        0.82096    0.91611    0.26960    1.000
    H11      H        0.80630    0.94190    0.27270    1.000
    C17      C        0.81049    0.88571    0.15260    1.000
    H12      H        0.78810    0.89110    0.07790    1.000
    Ag2      Ag       0.31390    0.29947    0.42353    1.000
    N7       N        0.25126    0.22461    0.98620    1.000
    N8       N        0.39850    0.23337    0.73170    1.000
    N9       N        0.43303    0.25465    0.66820    1.000
    N10      N        0.38425    0.30214    0.73150    1.000
    N11      N        0.50853    0.38563    0.44320    1.000
    N12      N        0.33095    0.34852    0.64080    1.000
    C18      C        0.30955    0.21238    0.80030    1.000
    H13      H        0.32280    0.19470    0.72140    1.000
    C19      C        0.27243    0.20055    0.87290    1.000
    H14      H        0.26090    0.17430    0.84290    1.000
    C20      C        0.26859    0.26199    0.02500    1.000
    H15      H        0.25420    0.27940    0.10180    1.000
    C21      C        0.30637    0.27640    0.95870    1.000
    H16      H        0.31730    0.30280    0.99070    1.000
    C22      C        0.32787    0.25120    0.84400    1.000
    C23      C        0.36923    0.26181    0.76950    1.000
    C24      C        0.42423    0.29558    0.66690    1.000
    C25      C        0.45247    0.32765    0.59380    1.000
    C26      C        0.49610    0.32084    0.59640    1.000
    H17      H        0.50730    0.29670    0.64900    1.000
    C27      C        0.52266    0.34995    0.52070    1.000
    H18      H        0.55190    0.34480    0.52290    1.000
    C28      C        0.46662    0.39173    0.44140    1.000
    H19      H        0.45620    0.41610    0.38840    1.000
    C29      C        0.43771    0.36422    0.51300    1.000
    H20      H        0.40870    0.37000    0.50750    1.000
    C30      C        0.36215    0.34191    0.75030    1.000
    C31      C        0.37489    0.37022    0.87250    1.000
    H21      H        0.39730    0.36410    0.94630    1.000
    C32      C        0.35297    0.40833    0.88140    1.000
    H22      H        0.36010    0.42850    0.96350    1.000
    C33      C        0.32096    0.41611    0.76960    1.000
    H23      H        0.30630    0.44190    0.77270    1.000
    C34      C        0.31049    0.38571    0.65260    1.000
    H24      H        0.28810    0.39110    0.57790    1.000
    Ag3      Ag       0.68610    0.20053    0.42353    1.000
    N13      N        0.74874    0.27539    0.98620    1.000
    N14      N        0.60150    0.26663    0.73170    1.000
    N15      N        0.56697    0.24535    0.66820    1.000
    N16      N        0.61575    0.19786    0.73150    1.000
    N17      N        0.49147    0.11437    0.44320    1.000
    N18      N        0.66905    0.15148    0.64080    1.000
    C35      C        0.69045    0.28762    0.80030    1.000
    H25      H        0.67720    0.30530    0.72140    1.000
    C36      C        0.72757    0.29945    0.87290    1.000
    H26      H        0.73910    0.32570    0.84290    1.000
    C37      C        0.73141    0.23801    0.02500    1.000
    H27      H        0.74580    0.22060    0.10180    1.000
    C38      C        0.69363    0.22360    0.95870    1.000
    H28      H        0.68270    0.19720    0.99070    1.000
    C39      C        0.67213    0.24880    0.84400    1.000
    C40      C        0.63077    0.23819    0.76950    1.000
    C41      C        0.57577    0.20442    0.66690    1.000
    C42      C        0.54753    0.17235    0.59380    1.000
    C43      C        0.50390    0.17916    0.59640    1.000
    H29      H        0.49270    0.20330    0.64900    1.000
    C44      C        0.47734    0.15005    0.52070    1.000
    H30      H        0.44810    0.15520    0.52290    1.000
    C45      C        0.53338    0.10827    0.44140    1.000
    H31      H        0.54380    0.08390    0.38840    1.000
    C46      C        0.56229    0.13578    0.51300    1.000
    H32      H        0.59130    0.13000    0.50750    1.000
    C47      C        0.63785    0.15809    0.75030    1.000
    C48      C        0.62511    0.12978    0.87250    1.000
    H33      H        0.60270    0.13590    0.94630    1.000
    C49      C        0.64703    0.09167    0.88140    1.000
    H34      H        0.63990    0.07150    0.96350    1.000
    C50      C        0.67904    0.08389    0.76960    1.000
    H35      H        0.69370    0.05810    0.77270    1.000
    C51      C        0.68951    0.11429    0.65260    1.000
    H36      H        0.71190    0.10890    0.57790    1.000
    Ag4      Ag       0.18610    0.70053    0.92353    1.000
    N19      N        0.24874    0.77539    0.48620    1.000
    N20      N        0.10150    0.76663    0.23170    1.000
    N21      N        0.06697    0.74535    0.16820    1.000
    N22      N        0.11575    0.69786    0.23150    1.000
    N23      N        0.99147    0.61437    0.94320    1.000
    N24      N        0.16905    0.65148    0.14080    1.000
    C52      C        0.19045    0.78762    0.30030    1.000
    H37      H        0.17720    0.80530    0.22140    1.000
    C53      C        0.22757    0.79945    0.37290    1.000
    H38      H        0.23910    0.82570    0.34290    1.000
    C54      C        0.23141    0.73801    0.52500    1.000
    H39      H        0.24580    0.72060    0.60180    1.000
    C55      C        0.19363    0.72360    0.45870    1.000
    H40      H        0.18270    0.69720    0.49070    1.000
    C56      C        0.17213    0.74880    0.34400    1.000
    C57      C        0.13077    0.73819    0.26950    1.000
    C58      C        0.07577    0.70442    0.16690    1.000
    C59      C        0.04753    0.67235    0.09380    1.000
    C60      C        0.00390    0.67916    0.09640    1.000
    H41      H        0.99270    0.70330    0.14900    1.000
    C61      C        0.97734    0.65005    0.02070    1.000
    H42      H        0.94810    0.65520    0.02290    1.000
    C62      C        0.03338    0.60827    0.94140    1.000
    H43      H        0.04380    0.58390    0.88840    1.000
    C63      C        0.06229    0.63578    0.01300    1.000
    H44      H        0.09130    0.63000    0.00750    1.000
    C64      C        0.13785    0.65809    0.25030    1.000
    C65      C        0.12511    0.62978    0.37250    1.000
    H45      H        0.10270    0.63590    0.44630    1.000
    C66      C        0.14703    0.59167    0.38140    1.000
    H46      H        0.13990    0.57150    0.46350    1.000
    C67      C        0.17904    0.58389    0.26960    1.000
    H47      H        0.19370    0.55810    0.27270    1.000
    C68      C        0.18951    0.61429    0.15260    1.000
    H48      H        0.21190    0.60890    0.07790    1.000
    Ag5      Ag       0.95053    0.06390    0.17353    1.000
    N25      N        0.02539    0.00126    0.73620    1.000
    N26      N        0.01663    0.14850    0.48170    1.000
    N27      N        0.99535    0.18303    0.41820    1.000
    N28      N        0.94786    0.13425    0.48150    1.000
    N29      N        0.86437    0.25853    0.19320    1.000
    N30      N        0.90148    0.08095    0.39080    1.000
    C69      C        0.03762    0.05955    0.55030    1.000
    H49      H        0.05530    0.07280    0.47140    1.000
    C70      C        0.04945    0.02243    0.62290    1.000
    H50      H        0.07570    0.01090    0.59290    1.000
    C71      C        0.98801    0.01859    0.77500    1.000
    H51      H        0.97060    0.00420    0.85180    1.000
    C72      C        0.97360    0.05637    0.70870    1.000
    H52      H        0.94720    0.06730    0.74070    1.000
    C73      C        0.99880    0.07787    0.59400    1.000
    C74      C        0.98819    0.11923    0.51950    1.000
    C75      C        0.95442    0.17423    0.41690    1.000
    C76      C        0.92235    0.20247    0.34380    1.000
    C77      C        0.92916    0.24610    0.34640    1.000
    H53      H        0.95330    0.25730    0.39900    1.000
    C78      C        0.90005    0.27266    0.27070    1.000
    H54      H        0.90520    0.30190    0.27290    1.000
    C79      C        0.85827    0.21662    0.19140    1.000
    H55      H        0.83390    0.20620    0.13840    1.000
    C80      C        0.88578    0.18771    0.26300    1.000
    H56      H        0.88000    0.15870    0.25750    1.000
    C81      C        0.90809    0.11215    0.50030    1.000
    C82      C        0.87978    0.12489    0.62250    1.000
    H57      H        0.88590    0.14730    0.69630    1.000
    C83      C        0.84167    0.10297    0.63140    1.000
    H58      H        0.82150    0.11010    0.71350    1.000
    C84      C        0.83389    0.07096    0.51960    1.000
    H59      H        0.80810    0.05630    0.52270    1.000
    C85      C        0.86429    0.06049    0.40260    1.000
    H60      H        0.85890    0.03810    0.32790    1.000
    Ag6      Ag       0.45053    0.56390    0.67353    1.000
    N31      N        0.52539    0.50126    0.23620    1.000
    N32      N        0.51663    0.64850    0.98170    1.000
    N33      N        0.49535    0.68303    0.91820    1.000
    N34      N        0.44786    0.63425    0.98150    1.000
    N35      N        0.36437    0.75853    0.69320    1.000
    N36      N        0.40148    0.58095    0.89080    1.000
    C86      C        0.53762    0.55955    0.05030    1.000
    H61      H        0.55530    0.57280    0.97140    1.000
    C87      C        0.54945    0.52243    0.12290    1.000
    H62      H        0.57570    0.51090    0.09290    1.000
    C88      C        0.48801    0.51859    0.27500    1.000
    H63      H        0.47060    0.50420    0.35180    1.000
    C89      C        0.47360    0.55637    0.20870    1.000
    H64      H        0.44720    0.56730    0.24070    1.000
    C90      C        0.49880    0.57787    0.09400    1.000
    C91      C        0.48819    0.61923    0.01950    1.000
    C92      C        0.45442    0.67423    0.91690    1.000
    C93      C        0.42235    0.70247    0.84380    1.000
    C94      C        0.42916    0.74610    0.84640    1.000
    H65      H        0.45330    0.75730    0.89900    1.000
    C95      C        0.40005    0.77266    0.77070    1.000
    H66      H        0.40520    0.80190    0.77290    1.000
    C96      C        0.35827    0.71662    0.69140    1.000
    H67      H        0.33390    0.70620    0.63840    1.000
    C97      C        0.38578    0.68771    0.76300    1.000
    H68      H        0.38000    0.65870    0.75750    1.000
    C98      C        0.40809    0.61215    0.00030    1.000
    C99      C        0.37978    0.62489    0.12250    1.000
    H69      H        0.38590    0.64730    0.19630    1.000
    C100     C        0.34167    0.60297    0.13140    1.000
    H70      H        0.32150    0.61010    0.21350    1.000
    C101     C        0.33389    0.57096    0.01960    1.000
    H71      H        0.30810    0.55630    0.02270    1.000
    C102     C        0.36429    0.56049    0.90260    1.000
    H72      H        0.35890    0.53810    0.82790    1.000
    Ag7      Ag       0.54947    0.93610    0.67353    1.000
    N37      N        0.47461    0.99874    0.23620    1.000
    N38      N        0.48337    0.85150    0.98170    1.000
    N39      N        0.50465    0.81697    0.91820    1.000
    N40      N        0.55214    0.86575    0.98150    1.000
    N41      N        0.63563    0.74147    0.69320    1.000
    N42      N        0.59852    0.91905    0.89080    1.000
    C103     C        0.46238    0.94045    0.05030    1.000
    H73      H        0.44470    0.92720    0.97140    1.000
    C104     C        0.45055    0.97757    0.12290    1.000
    H74      H        0.42430    0.98910    0.09290    1.000
    C105     C        0.51199    0.98141    0.27500    1.000
    H75      H        0.52940    0.99580    0.35180    1.000
    C106     C        0.52640    0.94363    0.20870    1.000
    H76      H        0.55280    0.93270    0.24070    1.000
    C107     C        0.50120    0.92213    0.09400    1.000
    C108     C        0.51181    0.88077    0.01950    1.000
    C109     C        0.54558    0.82577    0.91690    1.000
    C110     C        0.57765    0.79753    0.84380    1.000
    C111     C        0.57084    0.75390    0.84640    1.000
    H77      H        0.54670    0.74270    0.89900    1.000
    C112     C        0.59995    0.72734    0.77070    1.000
    H78      H        0.59480    0.69810    0.77290    1.000
    C113     C        0.64173    0.78338    0.69140    1.000
    H79      H        0.66610    0.79380    0.63840    1.000
    C114     C        0.61422    0.81229    0.76300    1.000
    H80      H        0.62000    0.84130    0.75750    1.000
    C115     C        0.59191    0.88785    0.00030    1.000
    C116     C        0.62022    0.87511    0.12250    1.000
    H81      H        0.61410    0.85270    0.19630    1.000
    C117     C        0.65833    0.89703    0.13140    1.000
    H82      H        0.67850    0.88990    0.21350    1.000
    C118     C        0.66611    0.92904    0.01960    1.000
    H83      H        0.69190    0.94370    0.02270    1.000
    C119     C        0.63571    0.93951    0.90260    1.000
    H84      H        0.64110    0.96190    0.82790    1.000
    Ag8      Ag       0.04947    0.43610    0.17353    1.000
    N43      N        0.97461    0.49874    0.73620    1.000
    N44      N        0.98337    0.35150    0.48170    1.000
    N45      N        0.00465    0.31697    0.41820    1.000
    N46      N        0.05214    0.36575    0.48150    1.000
    N47      N        0.13563    0.24147    0.19320    1.000
    N48      N        0.09852    0.41905    0.39080    1.000
    C120     C        0.96238    0.44045    0.55030    1.000
    H85      H        0.94470    0.42720    0.47140    1.000
    C121     C        0.95055    0.47757    0.62290    1.000
    H86      H        0.92430    0.48910    0.59290    1.000
    C122     C        0.01199    0.48141    0.77500    1.000
    H87      H        0.02940    0.49580    0.85180    1.000
    C123     C        0.02640    0.44363    0.70870    1.000
    H88      H        0.05280    0.43270    0.74070    1.000
    C124     C        0.00120    0.42213    0.59400    1.000
    C125     C        0.01181    0.38077    0.51950    1.000
    C126     C        0.04558    0.32577    0.41690    1.000
    C127     C        0.07765    0.29753    0.34380    1.000
    C128     C        0.07084    0.25390    0.34640    1.000
    H89      H        0.04670    0.24270    0.39900    1.000
    C129     C        0.09995    0.22734    0.27070    1.000
    H90      H        0.09480    0.19810    0.27290    1.000
    C130     C        0.14173    0.28338    0.19140    1.000
    H91      H        0.16610    0.29380    0.13840    1.000
    C131     C        0.11422    0.31229    0.26300    1.000
    H92      H        0.12000    0.34130    0.25750    1.000
    C132     C        0.09191    0.38785    0.50030    1.000
    C133     C        0.12022    0.37511    0.62250    1.000
    H93      H        0.11410    0.35270    0.69630    1.000
    C134     C        0.15833    0.39703    0.63140    1.000
    H94      H        0.17850    0.38990    0.71350    1.000
    C135     C        0.16611    0.42904    0.51960    1.000
    H95      H        0.19190    0.44370    0.52270    1.000
    C136     C        0.13571    0.43951    0.40260    1.000
    H96      H        0.14110    0.46190    0.32790    1.000
    Ag9      Ag       0.18610    0.20053    0.07647    1.000
    N49      N        0.24874    0.27539    0.51380    1.000
    N50      N        0.10150    0.26663    0.76830    1.000
    N51      N        0.06697    0.24535    0.83180    1.000
    N52      N        0.11575    0.19786    0.76850    1.000
    N53      N        0.99147    0.11437    0.05680    1.000
    N54      N        0.16905    0.15148    0.85920    1.000
    C137     C        0.19045    0.28762    0.69970    1.000
    H97      H        0.17720    0.30530    0.77860    1.000
    C138     C        0.22757    0.29945    0.62710    1.000
    H98      H        0.23910    0.32570    0.65710    1.000
    C139     C        0.23141    0.23801    0.47500    1.000
    H99      H        0.24580    0.22060    0.39820    1.000
    C140     C        0.19363    0.22360    0.54130    1.000
    H100     H        0.18270    0.19720    0.50930    1.000
    C141     C        0.17213    0.24880    0.65600    1.000
    C142     C        0.13077    0.23819    0.73050    1.000
    C143     C        0.07577    0.20442    0.83310    1.000
    C144     C        0.04753    0.17235    0.90620    1.000
    C145     C        0.00390    0.17916    0.90360    1.000
    H101     H        0.99270    0.20330    0.85100    1.000
    C146     C        0.97734    0.15005    0.97930    1.000
    H102     H        0.94810    0.15520    0.97710    1.000
    C147     C        0.03338    0.10827    0.05860    1.000
    H103     H        0.04380    0.08390    0.11160    1.000
    C148     C        0.06229    0.13578    0.98700    1.000
    H104     H        0.09130    0.13000    0.99250    1.000
    C149     C        0.13785    0.15809    0.74970    1.000
    C150     C        0.12511    0.12978    0.62750    1.000
    H105     H        0.10270    0.13590    0.55370    1.000
    C151     C        0.14703    0.09167    0.61860    1.000
    H106     H        0.13990    0.07150    0.53650    1.000
    C152     C        0.17904    0.08389    0.73040    1.000
    H107     H        0.19370    0.05810    0.72730    1.000
    C153     C        0.18951    0.11429    0.84740    1.000
    H108     H        0.21190    0.10890    0.92210    1.000
    Ag10     Ag       0.68610    0.70053    0.57647    1.000
    N55      N        0.74874    0.77539    0.01380    1.000
    N56      N        0.60150    0.76663    0.26830    1.000
    N57      N        0.56697    0.74535    0.33180    1.000
    N58      N        0.61575    0.69786    0.26850    1.000
    N59      N        0.49147    0.61437    0.55680    1.000
    N60      N        0.66905    0.65148    0.35920    1.000
    C154     C        0.69045    0.78762    0.19970    1.000
    H109     H        0.67720    0.80530    0.27860    1.000
    C155     C        0.72757    0.79945    0.12710    1.000
    H110     H        0.73910    0.82570    0.15710    1.000
    C156     C        0.73141    0.73801    0.97500    1.000
    H111     H        0.74580    0.72060    0.89820    1.000
    C157     C        0.69363    0.72360    0.04130    1.000
    H112     H        0.68270    0.69720    0.00930    1.000
    C158     C        0.67213    0.74880    0.15600    1.000
    C159     C        0.63077    0.73819    0.23050    1.000
    C160     C        0.57577    0.70442    0.33310    1.000
    C161     C        0.54753    0.67235    0.40620    1.000
    C162     C        0.50390    0.67916    0.40360    1.000
    H113     H        0.49270    0.70330    0.35100    1.000
    C163     C        0.47734    0.65005    0.47930    1.000
    H114     H        0.44810    0.65520    0.47710    1.000
    C164     C        0.53338    0.60827    0.55860    1.000
    H115     H        0.54380    0.58390    0.61160    1.000
    C165     C        0.56229    0.63578    0.48700    1.000
    H116     H        0.59130    0.63000    0.49250    1.000
    C166     C        0.63785    0.65809    0.24970    1.000
    C167     C        0.62511    0.62978    0.12750    1.000
    H117     H        0.60270    0.63590    0.05370    1.000
    C168     C        0.64703    0.59167    0.11860    1.000
    H118     H        0.63990    0.57150    0.03650    1.000
    C169     C        0.67904    0.58389    0.23040    1.000
    H119     H        0.69370    0.55810    0.22730    1.000
    C170     C        0.68951    0.61429    0.34740    1.000
    H120     H        0.71190    0.60890    0.42210    1.000
    Ag11     Ag       0.31390    0.79947    0.57647    1.000
    N61      N        0.25126    0.72461    0.01380    1.000
    N62      N        0.39850    0.73337    0.26830    1.000
    N63      N        0.43303    0.75465    0.33180    1.000
    N64      N        0.38425    0.80214    0.26850    1.000
    N65      N        0.50853    0.88563    0.55680    1.000
    N66      N        0.33095    0.84852    0.35920    1.000
    C171     C        0.30955    0.71238    0.19970    1.000
    H121     H        0.32280    0.69470    0.27860    1.000
    C172     C        0.27243    0.70055    0.12710    1.000
    H122     H        0.26090    0.67430    0.15710    1.000
    C173     C        0.26859    0.76199    0.97500    1.000
    H123     H        0.25420    0.77940    0.89820    1.000
    C174     C        0.30637    0.77640    0.04130    1.000
    H124     H        0.31730    0.80280    0.00930    1.000
    C175     C        0.32787    0.75120    0.15600    1.000
    C176     C        0.36923    0.76181    0.23050    1.000
    C177     C        0.42423    0.79558    0.33310    1.000
    C178     C        0.45247    0.82765    0.40620    1.000
    C179     C        0.49610    0.82084    0.40360    1.000
    H125     H        0.50730    0.79670    0.35100    1.000
    C180     C        0.52266    0.84995    0.47930    1.000
    H126     H        0.55190    0.84480    0.47710    1.000
    C181     C        0.46662    0.89173    0.55860    1.000
    H127     H        0.45620    0.91610    0.61160    1.000
    C182     C        0.43771    0.86422    0.48700    1.000
    H128     H        0.40870    0.87000    0.49250    1.000
    C183     C        0.36215    0.84191    0.24970    1.000
    C184     C        0.37489    0.87022    0.12750    1.000
    H129     H        0.39730    0.86410    0.05370    1.000
    C185     C        0.35297    0.90833    0.11860    1.000
    H130     H        0.36010    0.92850    0.03650    1.000
    C186     C        0.32096    0.91611    0.23040    1.000
    H131     H        0.30630    0.94190    0.22730    1.000
    C187     C        0.31049    0.88571    0.34740    1.000
    H132     H        0.28810    0.89110    0.42210    1.000
    Ag12     Ag       0.81390    0.29947    0.07647    1.000
    N67      N        0.75126    0.22461    0.51380    1.000
    N68      N        0.89850    0.23337    0.76830    1.000
    N69      N        0.93303    0.25465    0.83180    1.000
    N70      N        0.88425    0.30214    0.76850    1.000
    N71      N        0.00853    0.38563    0.05680    1.000
    N72      N        0.83095    0.34852    0.85920    1.000
    C188     C        0.80955    0.21238    0.69970    1.000
    H133     H        0.82280    0.19470    0.77860    1.000
    C189     C        0.77243    0.20055    0.62710    1.000
    H134     H        0.76090    0.17430    0.65710    1.000
    C190     C        0.76859    0.26199    0.47500    1.000
    H135     H        0.75420    0.27940    0.39820    1.000
    C191     C        0.80637    0.27640    0.54130    1.000
    H136     H        0.81730    0.30280    0.50930    1.000
    C192     C        0.82787    0.25120    0.65600    1.000
    C193     C        0.86923    0.26181    0.73050    1.000
    C194     C        0.92423    0.29558    0.83310    1.000
    C195     C        0.95247    0.32765    0.90620    1.000
    C196     C        0.99610    0.32084    0.90360    1.000
    H137     H        0.00730    0.29670    0.85100    1.000
    C197     C        0.02266    0.34995    0.97930    1.000
    H138     H        0.05190    0.34480    0.97710    1.000
    C198     C        0.96662    0.39173    0.05860    1.000
    H139     H        0.95620    0.41610    0.11160    1.000
    C199     C        0.93771    0.36422    0.98700    1.000
    H140     H        0.90870    0.37000    0.99250    1.000
    C200     C        0.86215    0.34191    0.74970    1.000
    C201     C        0.87489    0.37022    0.62750    1.000
    H141     H        0.89730    0.36410    0.55370    1.000
    C202     C        0.85297    0.40833    0.61860    1.000
    H142     H        0.86010    0.42850    0.53650    1.000
    C203     C        0.82096    0.41611    0.73040    1.000
    H143     H        0.80630    0.44190    0.72730    1.000
    C204     C        0.81049    0.38571    0.84740    1.000
    H144     H        0.78810    0.39110    0.92210    1.000
    Ag13     Ag       0.04947    0.93610    0.82647    1.000
    N73      N        0.97461    0.99874    0.26380    1.000
    N74      N        0.98337    0.85150    0.51830    1.000
    N75      N        0.00465    0.81697    0.58180    1.000
    N76      N        0.05214    0.86575    0.51850    1.000
    N77      N        0.13563    0.74147    0.80680    1.000
    N78      N        0.09852    0.91905    0.60920    1.000
    C205     C        0.96238    0.94045    0.44970    1.000
    H145     H        0.94470    0.92720    0.52860    1.000
    C206     C        0.95055    0.97757    0.37710    1.000
    H146     H        0.92430    0.98910    0.40710    1.000
    C207     C        0.01199    0.98141    0.22500    1.000
    H147     H        0.02940    0.99580    0.14820    1.000
    C208     C        0.02640    0.94363    0.29130    1.000
    H148     H        0.05280    0.93270    0.25930    1.000
    C209     C        0.00120    0.92213    0.40600    1.000
    C210     C        0.01181    0.88077    0.48050    1.000
    C211     C        0.04558    0.82577    0.58310    1.000
    C212     C        0.07765    0.79753    0.65620    1.000
    C213     C        0.07084    0.75390    0.65360    1.000
    H149     H        0.04670    0.74270    0.60100    1.000
    C214     C        0.09995    0.72734    0.72930    1.000
    H150     H        0.09480    0.69810    0.72710    1.000
    C215     C        0.14173    0.78338    0.80860    1.000
    H151     H        0.16610    0.79380    0.86160    1.000
    C216     C        0.11422    0.81229    0.73700    1.000
    H152     H        0.12000    0.84130    0.74250    1.000
    C217     C        0.09191    0.88785    0.49970    1.000
    C218     C        0.12022    0.87511    0.37750    1.000
    H153     H        0.11410    0.85270    0.30370    1.000
    C219     C        0.15833    0.89703    0.36860    1.000
    H154     H        0.17850    0.88990    0.28650    1.000
    C220     C        0.16611    0.92904    0.48040    1.000
    H155     H        0.19190    0.94370    0.47730    1.000
    C221     C        0.13571    0.93951    0.59740    1.000
    H156     H        0.14110    0.96190    0.67210    1.000
    Ag14     Ag       0.54947    0.43610    0.32647    1.000
    N79      N        0.47461    0.49874    0.76380    1.000
    N80      N        0.48337    0.35150    0.01830    1.000
    N81      N        0.50465    0.31697    0.08180    1.000
    N82      N        0.55214    0.36575    0.01850    1.000
    N83      N        0.63563    0.24147    0.30680    1.000
    N84      N        0.59852    0.41905    0.10920    1.000
    C222     C        0.46238    0.44045    0.94970    1.000
    H157     H        0.44470    0.42720    0.02860    1.000
    C223     C        0.45055    0.47757    0.87710    1.000
    H158     H        0.42430    0.48910    0.90710    1.000
    C224     C        0.51199    0.48141    0.72500    1.000
    H159     H        0.52940    0.49580    0.64820    1.000
    C225     C        0.52640    0.44363    0.79130    1.000
    H160     H        0.55280    0.43270    0.75930    1.000
    C226     C        0.50120    0.42213    0.90600    1.000
    C227     C        0.51181    0.38077    0.98050    1.000
    C228     C        0.54558    0.32577    0.08310    1.000
    C229     C        0.57765    0.29753    0.15620    1.000
    C230     C        0.57084    0.25390    0.15360    1.000
    H161     H        0.54670    0.24270    0.10100    1.000
    C231     C        0.59995    0.22734    0.22930    1.000
    H162     H        0.59480    0.19810    0.22710    1.000
    C232     C        0.64173    0.28338    0.30860    1.000
    H163     H        0.66610    0.29380    0.36160    1.000
    C233     C        0.61422    0.31229    0.23700    1.000
    H164     H        0.62000    0.34130    0.24250    1.000
    C234     C        0.59191    0.38785    0.99970    1.000
    C235     C        0.62022    0.37511    0.87750    1.000
    H165     H        0.61410    0.35270    0.80370    1.000
    C236     C        0.65833    0.39703    0.86860    1.000
    H166     H        0.67850    0.38990    0.78650    1.000
    C237     C        0.66611    0.42904    0.98040    1.000
    H167     H        0.69190    0.44370    0.97730    1.000
    C238     C        0.63571    0.43951    0.09740    1.000
    H168     H        0.64110    0.46190    0.17210    1.000
    Ag15     Ag       0.45053    0.06390    0.32647    1.000
    N85      N        0.52539    0.00126    0.76380    1.000
    N86      N        0.51663    0.14850    0.01830    1.000
    N87      N        0.49535    0.18303    0.08180    1.000
    N88      N        0.44786    0.13425    0.01850    1.000
    N89      N        0.36437    0.25853    0.30680    1.000
    N90      N        0.40148    0.08095    0.10920    1.000
    C239     C        0.53762    0.05955    0.94970    1.000
    H169     H        0.55530    0.07280    0.02860    1.000
    C240     C        0.54945    0.02243    0.87710    1.000
    H170     H        0.57570    0.01090    0.90710    1.000
    C241     C        0.48801    0.01859    0.72500    1.000
    H171     H        0.47060    0.00420    0.64820    1.000
    C242     C        0.47360    0.05637    0.79130    1.000
    H172     H        0.44720    0.06730    0.75930    1.000
    C243     C        0.49880    0.07787    0.90600    1.000
    C244     C        0.48819    0.11923    0.98050    1.000
    C245     C        0.45442    0.17423    0.08310    1.000
    C246     C        0.42235    0.20247    0.15620    1.000
    C247     C        0.42916    0.24610    0.15360    1.000
    H173     H        0.45330    0.25730    0.10100    1.000
    C248     C        0.40005    0.27266    0.22930    1.000
    H174     H        0.40520    0.30190    0.22710    1.000
    C249     C        0.35827    0.21662    0.30860    1.000
    H175     H        0.33390    0.20620    0.36160    1.000
    C250     C        0.38578    0.18771    0.23700    1.000
    H176     H        0.38000    0.15870    0.24250    1.000
    C251     C        0.40809    0.11215    0.99970    1.000
    C252     C        0.37978    0.12489    0.87750    1.000
    H177     H        0.38590    0.14730    0.80370    1.000
    C253     C        0.34167    0.10297    0.86860    1.000
    H178     H        0.32150    0.11010    0.78650    1.000
    C254     C        0.33389    0.07096    0.98040    1.000
    H179     H        0.30810    0.05630    0.97730    1.000
    C255     C        0.36429    0.06049    0.09740    1.000
    H180     H        0.35890    0.03810    0.17210    1.000
    Ag16     Ag       0.95053    0.56390    0.82647    1.000
    N91      N        0.02539    0.50126    0.26380    1.000
    N92      N        0.01663    0.64850    0.51830    1.000
    N93      N        0.99535    0.68303    0.58180    1.000
    N94      N        0.94786    0.63425    0.51850    1.000
    N95      N        0.86437    0.75853    0.80680    1.000
    N96      N        0.90148    0.58095    0.60920    1.000
    C256     C        0.03762    0.55955    0.44970    1.000
    H181     H        0.05530    0.57280    0.52860    1.000
    C257     C        0.04945    0.52243    0.37710    1.000
    H182     H        0.07570    0.51090    0.40710    1.000
    C258     C        0.98801    0.51859    0.22500    1.000
    H183     H        0.97060    0.50420    0.14820    1.000
    C259     C        0.97360    0.55637    0.29130    1.000
    H184     H        0.94720    0.56730    0.25930    1.000
    C260     C        0.99880    0.57787    0.40600    1.000
    C261     C        0.98819    0.61923    0.48050    1.000
    C262     C        0.95442    0.67423    0.58310    1.000
    C263     C        0.92235    0.70247    0.65620    1.000
    C264     C        0.92916    0.74610    0.65360    1.000
    H185     H        0.95330    0.75730    0.60100    1.000
    C265     C        0.90005    0.77266    0.72930    1.000
    H186     H        0.90520    0.80190    0.72710    1.000
    C266     C        0.85827    0.71662    0.80860    1.000
    H187     H        0.83390    0.70620    0.86160    1.000
    C267     C        0.88578    0.68771    0.73700    1.000
    H188     H        0.88000    0.65870    0.74250    1.000
    C268     C        0.90809    0.61215    0.49970    1.000
    C269     C        0.87978    0.62489    0.37750    1.000
    H189     H        0.88590    0.64730    0.30370    1.000
    C270     C        0.84167    0.60297    0.36860    1.000
    H190     H        0.82150    0.61010    0.28650    1.000
    C271     C        0.83389    0.57096    0.48040    1.000
    H191     H        0.80810    0.55630    0.47730    1.000
    C272     C        0.86429    0.56049    0.59740    1.000
    H192     H        0.85890    0.53810    0.67210    1.000
