# CIF file generated by openbabel 3.1.0, see https://openbabel.org
data_I
_chemical_name_common 'image0'
_cell_length_a 10.205
_cell_length_b 21.215
_cell_length_c 7.866
_cell_angle_alpha 90
_cell_angle_beta 98.642
_cell_angle_gamma 90
_space_group_name_H-M_alt 'P 1'
_space_group_name_Hall 'P 1'
loop_
    _symmetry_equiv_pos_as_xyz
    x,y,z
loop_
    _atom_site_label
    _atom_site_type_symbol
    _atom_site_fract_x
    _atom_site_fract_y
    _atom_site_fract_z
    _atom_site_occupancy
    C1       C        0.50000    0.12690    0.63490    1.000
    C2       C        0.49910    0.06080    0.56980    1.000
    C3       C        0.61510    0.02990    0.55620    1.000
    C4       C        0.38350    0.03020    0.50720    1.000
    C5       C        0.08980    0.20830    0.72060    1.000
    C6       C        0.13520    0.27050    0.71380    1.000
    C7       C        0.05200    0.31780    0.74860    1.000
    C8       C        0.92930    0.30420    0.79300    1.000
    C9       C        0.88500    0.24330    0.80490    1.000
    C10      C        0.96940    0.19500    0.76670    1.000
    C11      C        0.75150    0.22800    0.85700    1.000
    C12      C        0.26850    0.28370    0.65980    1.000
    O1       O        0.74530    0.18970    0.96940    1.000
    O2       O        0.65060    0.25770    0.78300    1.000
    O3       O        0.51280    0.16960    0.52970    1.000
    O4       O        0.48840    0.13330    0.79140    1.000
    O5       O        0.37030    0.25950    0.74660    1.000
    O6       O        0.27550    0.31580    0.53390    1.000
    F1       F        0.26780    0.05870    0.51640    1.000
    F2       F        0.73090    0.05900    0.61270    1.000
    F3       F        0.93120    0.13520    0.77250    1.000
    F4       F        0.16460    0.16110    0.67640    1.000
    F5       F        0.85390    0.35210    0.83590    1.000
    F6       F        0.08920    0.37810    0.74260    1.000
    Nd1      Nd       0.50925    0.21527    0.00420    1.000
    C13      C        0.50000    0.62690    0.86510    1.000
    C14      C        0.50090    0.56080    0.93020    1.000
    C15      C        0.38490    0.52990    0.94380    1.000
    C16      C        0.61650    0.53020    0.99280    1.000
    C17      C        0.91020    0.70830    0.77940    1.000
    C18      C        0.86480    0.77050    0.78620    1.000
    C19      C        0.94800    0.81780    0.75140    1.000
    C20      C        0.07070    0.80420    0.70700    1.000
    C21      C        0.11500    0.74330    0.69510    1.000
    C22      C        0.03060    0.69500    0.73330    1.000
    C23      C        0.24850    0.72800    0.64300    1.000
    C24      C        0.73150    0.78370    0.84020    1.000
    O7       O        0.25470    0.68970    0.53060    1.000
    O8       O        0.34940    0.75770    0.71700    1.000
    O9       O        0.48720    0.66960    0.97030    1.000
    O10      O        0.51160    0.63330    0.70860    1.000
    O11      O        0.62970    0.75950    0.75340    1.000
    O12      O        0.72450    0.81580    0.96610    1.000
    F7       F        0.73220    0.55870    0.98360    1.000
    F8       F        0.26910    0.55900    0.88730    1.000
    F9       F        0.06880    0.63520    0.72750    1.000
    F10      F        0.83540    0.66110    0.82360    1.000
    F11      F        0.14610    0.85210    0.66410    1.000
    F12      F        0.91080    0.87810    0.75740    1.000
    Nd2      Nd       0.49075    0.71527    0.49580    1.000
    C25      C        0.50000    0.87310    0.36510    1.000
    C26      C        0.50090    0.93920    0.43020    1.000
    C27      C        0.38490    0.97010    0.44380    1.000
    C28      C        0.61650    0.96980    0.49280    1.000
    C29      C        0.91020    0.79170    0.27940    1.000
    C30      C        0.86480    0.72950    0.28620    1.000
    C31      C        0.94800    0.68220    0.25140    1.000
    C32      C        0.07070    0.69580    0.20700    1.000
    C33      C        0.11500    0.75670    0.19510    1.000
    C34      C        0.03060    0.80500    0.23330    1.000
    C35      C        0.24850    0.77200    0.14300    1.000
    C36      C        0.73150    0.71630    0.34020    1.000
    O13      O        0.25470    0.81030    0.03060    1.000
    O14      O        0.34940    0.74230    0.21700    1.000
    O15      O        0.48720    0.83040    0.47030    1.000
    O16      O        0.51160    0.86670    0.20860    1.000
    O17      O        0.62970    0.74050    0.25340    1.000
    O18      O        0.72450    0.68420    0.46610    1.000
    F13      F        0.73220    0.94130    0.48360    1.000
    F14      F        0.26910    0.94100    0.38730    1.000
    F15      F        0.06880    0.86480    0.22750    1.000
    F16      F        0.83540    0.83890    0.32360    1.000
    F17      F        0.14610    0.64790    0.16410    1.000
    F18      F        0.91080    0.62190    0.25740    1.000
    Nd3      Nd       0.49075    0.78473    0.99580    1.000
    C37      C        0.50000    0.37310    0.13490    1.000
    C38      C        0.49910    0.43920    0.06980    1.000
    C39      C        0.61510    0.47010    0.05620    1.000
    C40      C        0.38350    0.46980    0.00720    1.000
    C41      C        0.08980    0.29170    0.22060    1.000
    C42      C        0.13520    0.22950    0.21380    1.000
    C43      C        0.05200    0.18220    0.24860    1.000
    C44      C        0.92930    0.19580    0.29300    1.000
    C45      C        0.88500    0.25670    0.30490    1.000
    C46      C        0.96940    0.30500    0.26670    1.000
    C47      C        0.75150    0.27200    0.35700    1.000
    C48      C        0.26850    0.21630    0.15980    1.000
    O19      O        0.74530    0.31030    0.46940    1.000
    O20      O        0.65060    0.24230    0.28300    1.000
    O21      O        0.51280    0.33040    0.02970    1.000
    O22      O        0.48840    0.36670    0.29140    1.000
    O23      O        0.37030    0.24050    0.24660    1.000
    O24      O        0.27550    0.18420    0.03390    1.000
    F19      F        0.26780    0.44130    0.01640    1.000
    F20      F        0.73090    0.44100    0.11270    1.000
    F21      F        0.93120    0.36480    0.27250    1.000
    F22      F        0.16460    0.33890    0.17640    1.000
    F23      F        0.85390    0.14790    0.33590    1.000
    F24      F        0.08920    0.12190    0.24260    1.000
    Nd4      Nd       0.50925    0.28473    0.50420    1.000
