data_functionalizedCrystal
_audit_creation_method	'EQeq! by Chris Wilmer'
_symmetry_space_group_name_H-M	'P1'
_symmetry_Int_Tables_number	1
_symmetry_cell_setting	triclinic
loop_
_symmetry_equiv_pos_as_xyz
  x,y,z
_cell_length_a	15.7272
_cell_length_b	23.555
_cell_length_c	23.555
_cell_angle_alpha	64.5617
_cell_angle_beta	70.498
_cell_angle_gamma	70.498
loop_
_atom_site_label
_atom_site_type_symbol
_atom_site_fract_x
_atom_site_fract_y
_atom_site_fract_z
_atom_site_charge
Mof_Mg	Mg	0.16901	0.49487	0.49487	1.464
Mof_Mg	Mg	0.65875	0.00513	0.00513	1.463
Mof_H 	H 	0.9423	0.6438	0.2466	0.116
Mof_H 	H 	0.0041	0.5983	0.3363	-0.002
Mof_H 	H 	0.2413	0.5233	0.2367	0.012
Mof_H 	H 	0.1782	0.5686	0.1466	0.113
Mof_H 	H 	0.0498	0.7347	0.1367	0.118
Mof_H 	H 	0.9631	0.8409	0.1167	0.013
Mof_H 	H 	0.7946	0.8017	0.0499	0.001
Mof_H 	H 	0.8751	0.6954	0.0766	0.112
Mof_H 	H 	0.0228	0.5178	0.1622	0.079
Mof_H 	H 	0.0642	0.459	0.0976	0.033
Mof_H 	H 	0.1078	0.6123	0.9423	0.038
Mof_H 	H 	0.0673	0.675	0.0074	0.081
Mof_H 	H 	0.3327	0.8562	0.2534	0.116
Mof_H 	H 	0.4387	0.9017	0.1637	-0.001
Mof_H 	H 	0.5013	0.9767	0.2633	0.013
Mof_H 	H 	0.3934	0.9314	0.3534	0.113
Mof_H 	H 	0.4212	0.7653	0.3633	0.119
Mof_H 	H 	0.4207	0.6591	0.3833	0.014
Mof_H 	H 	0.1462	0.6983	0.4501	0.002
Mof_H 	H 	0.1471	0.8046	0.4234	0.113
Mof_H 	H 	0.2028	0.9822	0.3378	0.084
Mof_H 	H 	0.1208	0.041	0.4024	0.029
Mof_H 	H 	0.1624	0.8877	0.5577	0.034
Mof_H 	H 	0.2497	0.825	0.4926	0.085
Mof_H 	H 	0.3327	0.2534	0.8562	0.117
Mof_H 	H 	0.4387	0.1637	0.9017	-0
Mof_H 	H 	0.5013	0.2633	0.9767	0.014
Mof_H 	H 	0.3934	0.3534	0.9314	0.114
Mof_H 	H 	0.4212	0.3633	0.7653	0.119
Mof_H 	H 	0.4207	0.3833	0.6591	0.014
Mof_H 	H 	0.1462	0.4501	0.6983	0.002
Mof_H 	H 	0.1471	0.4234	0.8046	0.113
Mof_H 	H 	0.2028	0.3378	0.9822	0.084
Mof_H 	H 	0.1208	0.4024	0.041	0.029
Mof_H 	H 	0.1624	0.5577	0.8877	0.034
Mof_H 	H 	0.2497	0.4926	0.825	0.085
Mof_H 	H 	0.9423	0.2466	0.6438	0.117
Mof_H 	H 	0.0041	0.3363	0.5983	-0.001
Mof_H 	H 	0.2413	0.2367	0.5233	0.013
Mof_H 	H 	0.1782	0.1466	0.5686	0.114
Mof_H 	H 	0.0498	0.1367	0.7347	0.119
Mof_H 	H 	0.9631	0.1167	0.8409	0.014
Mof_H 	H 	0.7946	0.0499	0.8017	0.002
Mof_H 	H 	0.8751	0.0766	0.6954	0.113
Mof_H 	H 	0.0228	0.1622	0.5178	0.08
Mof_H 	H 	0.0642	0.0976	0.459	0.034
Mof_H 	H 	0.1078	0.9423	0.6123	0.039
Mof_H 	H 	0.0673	0.0074	0.675	0.082
Mof_C 	C 	0.05386	0.61049	0.18819	0.19
Mof_C 	C 	0.00257	0.61919	0.24447	-0.228
Mof_C 	C 	0.04	0.59157	0.29843	0.128
Mof_C 	C 	0.12748	0.55502	0.29762	-0.173
Mof_C 	C 	0.18057	0.54713	0.23913	0.11
Mof_C 	C 	0.14293	0.57457	0.18497	-0.214
Mof_C 	C 	0.17409	0.52421	0.35221	0.369
Mof_C 	C 	0.96479	0.70491	0.11411	0.193
Mof_C 	C 	0.99596	0.74784	0.12184	-0.22
Mof_C 	C 	0.94595	0.81225	0.10725	0.121
Mof_C 	C 	0.87143	0.83341	0.07893	-0.171
Mof_C 	C 	0.84504	0.78847	0.06845	0.117
Mof_C 	C 	0.8923	0.7246	0.085	-0.223
Mof_C 	C 	0.81587	0.90193	0.05853	0.408
Mof_C 	C 	0.03895	0.60205	0.09245	0.125
Mof_C 	C 	0.04049	0.53781	0.11781	-0.133
Mof_C 	C 	0.06763	0.50217	0.07877	-0.008
Mof_C 	C 	0.10018	0.52812	0.01212	0.001
Mof_C 	C 	0.0939	0.5923	0.9869	-0.023
Mof_C 	C 	0.0666	0.6313	0.0261	-0.12
Mof_C 	C 	0.35254	0.88951	0.31181	0.19
Mof_C 	C 	0.36623	0.88081	0.25553	-0.228
Mof_C 	C 	0.43	0.90843	0.20157	0.128
Mof_C 	C 	0.48012	0.94498	0.20238	-0.172
Mof_C 	C 	0.46683	0.95287	0.26087	0.11
Mof_C 	C 	0.40247	0.92543	0.31503	-0.214
Mof_C 	C 	0.55051	0.97579	0.14779	0.369
Mof_C 	C 	0.28381	0.79509	0.38589	0.194
Mof_C 	C 	0.36564	0.75216	0.37816	-0.22
Mof_C 	C 	0.36545	0.68775	0.39275	0.121
Mof_C 	C 	0.28377	0.66659	0.42107	-0.171
Mof_C 	C 	0.20196	0.71153	0.43155	0.117
Mof_C 	C 	0.2019	0.7754	0.415	-0.223
Mof_C 	C 	0.27633	0.59807	0.44147	0.409
Mof_C 	C 	0.23345	0.89795	0.40755	0.132
Mof_C 	C 	0.19611	0.96219	0.38219	-0.144
Mof_C 	C 	0.14857	0.99783	0.42123	0.006
Mof_C 	C 	0.14042	0.97188	0.48788	-0.016
Mof_C 	C 	0.1731	0.9077	0.5131	-0.007
Mof_C 	C 	0.224	0.8687	0.4739	-0.132
Mof_C 	C 	0.35254	0.31181	0.88951	0.19
Mof_C 	C 	0.36623	0.25553	0.88081	-0.228
Mof_C 	C 	0.43	0.20157	0.90843	0.128
Mof_C 	C 	0.48012	0.20238	0.94498	-0.172
Mof_C 	C 	0.46683	0.26087	0.95287	0.11
Mof_C 	C 	0.40247	0.31503	0.92543	-0.214
Mof_C 	C 	0.55051	0.14779	0.97579	0.369
Mof_C 	C 	0.28381	0.38589	0.79509	0.194
Mof_C 	C 	0.36564	0.37816	0.75216	-0.22
Mof_C 	C 	0.36545	0.39275	0.68775	0.121
Mof_C 	C 	0.28377	0.42107	0.66659	-0.171
Mof_C 	C 	0.20196	0.43155	0.71153	0.117
Mof_C 	C 	0.2019	0.415	0.7754	-0.223
Mof_C 	C 	0.27633	0.44147	0.59807	0.409
Mof_C 	C 	0.23345	0.40755	0.89795	0.132
Mof_C 	C 	0.19611	0.38219	0.96219	-0.144
Mof_C 	C 	0.14857	0.42123	0.99783	0.006
Mof_C 	C 	0.14042	0.48788	0.97188	-0.016
Mof_C 	C 	0.1731	0.5131	0.9077	-0.007
Mof_C 	C 	0.224	0.4739	0.8687	-0.132
Mof_C 	C 	0.05386	0.18819	0.61049	0.19
Mof_C 	C 	0.00257	0.24447	0.61919	-0.228
Mof_C 	C 	0.04	0.29843	0.59157	0.128
Mof_C 	C 	0.12748	0.29762	0.55502	-0.173
Mof_C 	C 	0.18057	0.23913	0.54713	0.11
Mof_C 	C 	0.14293	0.18497	0.57457	-0.214
Mof_C 	C 	0.17409	0.35221	0.52421	0.369
Mof_C 	C 	0.96479	0.11411	0.70491	0.193
Mof_C 	C 	0.99596	0.12184	0.74784	-0.22
Mof_C 	C 	0.94595	0.10725	0.81225	0.121
Mof_C 	C 	0.87143	0.07893	0.83341	-0.171
Mof_C 	C 	0.84504	0.06845	0.78847	0.117
Mof_C 	C 	0.8923	0.085	0.7246	-0.223
Mof_C 	C 	0.81587	0.05853	0.90193	0.408
Mof_C 	C 	0.03895	0.09245	0.60205	0.125
Mof_C 	C 	0.04049	0.11781	0.53781	-0.133
Mof_C 	C 	0.06763	0.07877	0.50217	-0.008
Mof_C 	C 	0.10018	0.01212	0.52812	0.001
Mof_C 	C 	0.0939	0.9869	0.5923	-0.023
Mof_C 	C 	0.0666	0.0261	0.6313	-0.12
Mof_N 	N 	0.01603	0.63917	0.13197	-0.189
Mof_N 	N 	0.28717	0.86083	0.36803	-0.19
Mof_N 	N 	0.28717	0.36803	0.86083	-0.19
Mof_N 	N 	0.01603	0.13197	0.63917	-0.189
Mof_O 	O 	0.74844	0.91855	0.03757	-0.514
Mof_O 	O 	0.85398	0.9392	0.06624	-0.258
Mof_O 	O 	0.1242	0.52598	0.40762	-0.459
Mof_O 	O 	0.25866	0.50004	0.34184	-0.284
Mof_O 	O 	0.20456	0.58145	0.46243	-0.516
Mof_O 	O 	0.35942	0.5608	0.43376	-0.259
Mof_O 	O 	0.5578	0.97402	0.09238	-0.458
Mof_O 	O 	0.60054	0.99996	0.15816	-0.282
Mof_O 	O 	0.20456	0.46243	0.58145	-0.516
Mof_O 	O 	0.35942	0.43376	0.5608	-0.259
Mof_O 	O 	0.5578	0.09238	0.97402	-0.458
Mof_O 	O 	0.60054	0.15816	0.99996	-0.282
Mof_O 	O 	0.74844	0.03757	0.91855	-0.514
Mof_O 	O 	0.85398	0.06624	0.9392	-0.258
Mof_O 	O 	0.1242	0.40762	0.52598	-0.459
Mof_O 	O 	0.25866	0.34184	0.50004	-0.284
Mof_Mg	Mg	0.34125	0.99487	0.99487	1.464
Mof_Mg	Mg	0.83099	0.50513	0.50513	1.465
Mof_H 	H 	0.6673	0.7466	0.1438	0.117
Mof_H 	H 	0.5613	0.8363	0.0983	-0
Mof_H 	H 	0.4987	0.7367	0.0233	0.014
Mof_H 	H 	0.6066	0.6466	0.0686	0.114
Mof_H 	H 	0.5788	0.6367	0.2347	0.119
Mof_H 	H 	0.5793	0.6167	0.3409	0.014
Mof_H 	H 	0.8538	0.5499	0.3017	0.002
Mof_H 	H 	0.8529	0.5766	0.1954	0.113
Mof_H 	H 	0.7972	0.6622	0.0178	0.084
Mof_H 	H 	0.8792	0.5976	0.959	0.029
Mof_H 	H 	0.8376	0.4423	0.1123	0.034
Mof_H 	H 	0.7503	0.5074	0.175	0.085
Mof_H 	H 	0.0577	0.7534	0.3562	0.117
Mof_H 	H 	0.9959	0.6637	0.4017	-0.001
Mof_H 	H 	0.7587	0.7633	0.4767	0.013
Mof_H 	H 	0.8218	0.8534	0.4314	0.114
Mof_H 	H 	0.9502	0.8633	0.2653	0.119
Mof_H 	H 	0.0369	0.8833	0.1591	0.014
Mof_H 	H 	0.2054	0.9501	0.1983	0.002
Mof_H 	H 	0.1249	0.9234	0.3046	0.113
Mof_H 	H 	0.9772	0.8378	0.4822	0.08
Mof_H 	H 	0.9358	0.9024	0.541	0.034
Mof_H 	H 	0.8922	0.0577	0.3877	0.039
Mof_H 	H 	0.9327	0.9926	0.325	0.082
Mof_H 	H 	0.0577	0.3562	0.7534	0.117
Mof_H 	H 	0.9959	0.4017	0.6637	-0.001
Mof_H 	H 	0.7587	0.4767	0.7633	0.013
Mof_H 	H 	0.8218	0.4314	0.8534	0.114
Mof_H 	H 	0.9502	0.2653	0.8633	0.119
Mof_H 	H 	0.0369	0.1591	0.8833	0.014
Mof_H 	H 	0.2054	0.1983	0.9501	0.002
Mof_H 	H 	0.1249	0.3046	0.9234	0.113
Mof_H 	H 	0.9772	0.4822	0.8378	0.08
Mof_H 	H 	0.9358	0.541	0.9024	0.034
Mof_H 	H 	0.8922	0.3877	0.0577	0.039
Mof_H 	H 	0.9327	0.325	0.9926	0.082
Mof_H 	H 	0.6673	0.1438	0.7466	0.117
Mof_H 	H 	0.5613	0.0983	0.8363	-0
Mof_H 	H 	0.4987	0.0233	0.7367	0.014
Mof_H 	H 	0.6066	0.0686	0.6466	0.114
Mof_H 	H 	0.5788	0.2347	0.6367	0.119
Mof_H 	H 	0.5793	0.3409	0.6167	0.014
Mof_H 	H 	0.8538	0.3017	0.5499	0.002
Mof_H 	H 	0.8529	0.1954	0.5766	0.113
Mof_H 	H 	0.7972	0.0178	0.6622	0.084
Mof_H 	H 	0.8792	0.959	0.5976	0.029
Mof_H 	H 	0.8376	0.1123	0.4423	0.034
Mof_H 	H 	0.7503	0.175	0.5074	0.085
Mof_C 	C 	0.64746	0.68819	0.11049	0.19
Mof_C 	C 	0.63377	0.74447	0.11919	-0.228
Mof_C 	C 	0.57	0.79843	0.09157	0.128
Mof_C 	C 	0.51988	0.79762	0.05502	-0.172
Mof_C 	C 	0.53317	0.73913	0.04713	0.11
Mof_C 	C 	0.59753	0.68497	0.07457	-0.214
Mof_C 	C 	0.44949	0.85221	0.02421	0.369
Mof_C 	C 	0.71619	0.61411	0.20491	0.194
Mof_C 	C 	0.63436	0.62184	0.24784	-0.22
Mof_C 	C 	0.63455	0.60725	0.31225	0.121
Mof_C 	C 	0.71623	0.57893	0.33341	-0.171
Mof_C 	C 	0.79804	0.56845	0.28847	0.117
Mof_C 	C 	0.7981	0.585	0.2246	-0.223
Mof_C 	C 	0.72367	0.55853	0.40193	0.409
Mof_C 	C 	0.76655	0.59245	0.10205	0.132
Mof_C 	C 	0.80389	0.61781	0.03781	-0.144
Mof_C 	C 	0.85143	0.57877	0.00217	0.006
Mof_C 	C 	0.85958	0.51212	0.02812	-0.016
Mof_C 	C 	0.8269	0.4869	0.0923	-0.007
Mof_C 	C 	0.776	0.5261	0.1313	-0.132
Mof_C 	C 	0.94614	0.81181	0.38951	0.19
Mof_C 	C 	0.99743	0.75553	0.38081	-0.228
Mof_C 	C 	0.96	0.70157	0.40843	0.128
Mof_C 	C 	0.87252	0.70238	0.44498	-0.173
Mof_C 	C 	0.81943	0.76087	0.45287	0.11
Mof_C 	C 	0.85707	0.81503	0.42543	-0.214
Mof_C 	C 	0.82591	0.64779	0.47579	0.369
Mof_C 	C 	0.03521	0.88589	0.29509	0.193
Mof_C 	C 	0.00404	0.87816	0.25216	-0.22
Mof_C 	C 	0.05405	0.89275	0.18775	0.121
Mof_C 	C 	0.12857	0.92107	0.16659	-0.171
Mof_C 	C 	0.15496	0.93155	0.21153	0.117
Mof_C 	C 	0.1077	0.915	0.2754	-0.223
Mof_C 	C 	0.18413	0.94147	0.09807	0.408
Mof_C 	C 	0.96105	0.90755	0.39795	0.125
Mof_C 	C 	0.95951	0.88219	0.46219	-0.133
Mof_C 	C 	0.93237	0.92123	0.49783	-0.008
Mof_C 	C 	0.89982	0.98788	0.47188	0.001
Mof_C 	C 	0.9061	0.0131	0.4077	-0.023
Mof_C 	C 	0.9334	0.9739	0.3687	-0.12
Mof_C 	C 	0.94614	0.38951	0.81181	0.19
Mof_C 	C 	0.99743	0.38081	0.75553	-0.228
Mof_C 	C 	0.96	0.40843	0.70157	0.128
Mof_C 	C 	0.87252	0.44498	0.70238	-0.173
Mof_C 	C 	0.81943	0.45287	0.76087	0.11
Mof_C 	C 	0.85707	0.42543	0.81503	-0.214
Mof_C 	C 	0.82591	0.47579	0.64779	0.369
Mof_C 	C 	0.03521	0.29509	0.88589	0.193
Mof_C 	C 	0.00404	0.25216	0.87816	-0.22
Mof_C 	C 	0.05405	0.18775	0.89275	0.121
Mof_C 	C 	0.12857	0.16659	0.92107	-0.171
Mof_C 	C 	0.15496	0.21153	0.93155	0.117
Mof_C 	C 	0.1077	0.2754	0.915	-0.223
Mof_C 	C 	0.18413	0.09807	0.94147	0.408
Mof_C 	C 	0.96105	0.39795	0.90755	0.125
Mof_C 	C 	0.95951	0.46219	0.88219	-0.133
Mof_C 	C 	0.93237	0.49783	0.92123	-0.008
Mof_C 	C 	0.89982	0.47188	0.98788	0.001
Mof_C 	C 	0.9061	0.4077	0.0131	-0.023
Mof_C 	C 	0.9334	0.3687	0.9739	-0.12
Mof_C 	C 	0.64746	0.11049	0.68819	0.19
Mof_C 	C 	0.63377	0.11919	0.74447	-0.228
Mof_C 	C 	0.57	0.09157	0.79843	0.128
Mof_C 	C 	0.51988	0.05502	0.79762	-0.172
Mof_C 	C 	0.53317	0.04713	0.73913	0.11
Mof_C 	C 	0.59753	0.07457	0.68497	-0.214
Mof_C 	C 	0.44949	0.02421	0.85221	0.369
Mof_C 	C 	0.71619	0.20491	0.61411	0.194
Mof_C 	C 	0.63436	0.24784	0.62184	-0.22
Mof_C 	C 	0.63455	0.31225	0.60725	0.121
Mof_C 	C 	0.71623	0.33341	0.57893	-0.171
Mof_C 	C 	0.79804	0.28847	0.56845	0.117
Mof_C 	C 	0.7981	0.2246	0.585	-0.223
Mof_C 	C 	0.72367	0.40193	0.55853	0.409
Mof_C 	C 	0.76655	0.10205	0.59245	0.132
Mof_C 	C 	0.80389	0.03781	0.61781	-0.144
Mof_C 	C 	0.85143	0.00217	0.57877	0.006
Mof_C 	C 	0.85958	0.02812	0.51212	-0.016
Mof_C 	C 	0.8269	0.0923	0.4869	-0.007
Mof_C 	C 	0.776	0.1313	0.5261	-0.132
Mof_N 	N 	0.71283	0.63197	0.13917	-0.19
Mof_N 	N 	0.98397	0.86803	0.36083	-0.189
Mof_N 	N 	0.98397	0.36083	0.86803	-0.189
Mof_N 	N 	0.71283	0.13917	0.63197	-0.19
Mof_O 	O 	0.79544	0.53757	0.41855	-0.516
Mof_O 	O 	0.64058	0.56624	0.4392	-0.259
Mof_O 	O 	0.4422	0.90762	0.02598	-0.458
Mof_O 	O 	0.39946	0.84184	4e-05	-0.282
Mof_O 	O 	0.25156	0.96243	0.08145	-0.514
Mof_O 	O 	0.14602	0.93376	0.0608	-0.258
Mof_O 	O 	0.8758	0.59238	0.47402	-0.459
Mof_O 	O 	0.74134	0.65816	0.49996	-0.284
Mof_O 	O 	0.25156	0.08145	0.96243	-0.514
Mof_O 	O 	0.14602	0.0608	0.93376	-0.258
Mof_O 	O 	0.8758	0.47402	0.59238	-0.459
Mof_O 	O 	0.74134	0.49996	0.65816	-0.284
Mof_O 	O 	0.79544	0.41855	0.53757	-0.516
Mof_O 	O 	0.64058	0.4392	0.56624	-0.259
Mof_O 	O 	0.4422	0.02598	0.90762	-0.458
Mof_O 	O 	0.39946	4e-05	0.84184	-0.282
_end
