# CIF file generated by openbabel 3.1.0, see https://openbabel.org
data_I
_chemical_name_common 'image0'
_cell_length_a 36.4378
_cell_length_b 36.4378
_cell_length_c 10.9373
_cell_angle_alpha 90
_cell_angle_beta 90
_cell_angle_gamma 90
_space_group_name_H-M_alt 'P 1'
_space_group_name_Hall 'P 1'
loop_
    _symmetry_equiv_pos_as_xyz
    x,y,z
loop_
    _atom_site_label
    _atom_site_type_symbol
    _atom_site_fract_x
    _atom_site_fract_y
    _atom_site_fract_z
    _atom_site_occupancy
    N1       N        0.78591    0.50233    0.48089    1.000
    N2       N        0.80138    0.46835    0.30222    1.000
    N3       N        0.80185    0.53367    0.29740    1.000
    C1       C        0.79138    0.53455    0.41812    1.000
    C2       C        0.79091    0.46922    0.42294    1.000
    C3       C        0.80685    0.50057    0.23945    1.000
    C4       C        0.78633    0.56801    0.47668    1.000
    C5       C        0.78946    0.60011    0.41211    1.000
    C6       C        0.78447    0.63312    0.46990    1.000
    C7       C        0.77635    0.63404    0.59226    1.000
    C8       C        0.77321    0.60194    0.65684    1.000
    C9       C        0.77820    0.56893    0.59904    1.000
    C10      C        0.77089    0.67016    0.65549    1.000
    C11      C        0.78539    0.43665    0.48639    1.000
    C12      C        0.78327    0.43695    0.61155    1.000
    C13      C        0.77781    0.40481    0.67415    1.000
    C14      C        0.77448    0.37237    0.61161    1.000
    C15      C        0.77660    0.37208    0.48645    1.000
    C16      C        0.78206    0.40421    0.42384    1.000
    C17      C        0.76852    0.33721    0.68010    1.000
    C18      C        0.81743    0.49968    0.11744    1.000
    C19      C        0.82623    0.46691    0.06330    1.000
    C20      C        0.83667    0.46603    0.94290    1.000
    C21      C        0.83831    0.49793    0.87664    1.000
    C22      C        0.82951    0.53071    0.93078    1.000
    C23      C        0.81907    0.53158    0.05118    1.000
    C24      C        0.84973    0.49697    0.74492    1.000
    O1       O        0.74526    0.67375    0.73642    1.000
    O2       O        0.79182    0.69772    0.62908    1.000
    O3       O        0.78311    0.30707    0.64088    1.000
    O4       O        0.74878    0.33703    0.77839    1.000
    O5       O        0.86995    0.47037    0.70495    1.000
    O6       O        0.83937    0.52275    0.67129    1.000
    Al1      Al       0.75331    0.70776    0.86410    1.000
    O7       O        0.75872    0.74478    0.73920    1.000
    N4       N        0.28591    0.00233    0.98089    1.000
    N5       N        0.30138    0.96835    0.80222    1.000
    N6       N        0.30185    0.03367    0.79740    1.000
    C25      C        0.29138    0.03455    0.91812    1.000
    C26      C        0.29091    0.96922    0.92294    1.000
    C27      C        0.30685    0.00057    0.73945    1.000
    C28      C        0.28633    0.06801    0.97668    1.000
    C29      C        0.28946    0.10011    0.91211    1.000
    C30      C        0.28447    0.13312    0.96990    1.000
    C31      C        0.27635    0.13404    0.09226    1.000
    C32      C        0.27321    0.10194    0.15684    1.000
    C33      C        0.27820    0.06893    0.09904    1.000
    C34      C        0.27089    0.17016    0.15549    1.000
    C35      C        0.28539    0.93665    0.98639    1.000
    C36      C        0.28327    0.93695    0.11155    1.000
    C37      C        0.27781    0.90481    0.17415    1.000
    C38      C        0.27448    0.87237    0.11161    1.000
    C39      C        0.27660    0.87208    0.98645    1.000
    C40      C        0.28206    0.90421    0.92384    1.000
    C41      C        0.26852    0.83721    0.18010    1.000
    C42      C        0.31743    0.99968    0.61744    1.000
    C43      C        0.32623    0.96691    0.56330    1.000
    C44      C        0.33667    0.96603    0.44290    1.000
    C45      C        0.33831    0.99793    0.37664    1.000
    C46      C        0.32951    0.03071    0.43078    1.000
    C47      C        0.31907    0.03158    0.55118    1.000
    C48      C        0.34973    0.99697    0.24492    1.000
    O8       O        0.24526    0.17375    0.23642    1.000
    O9       O        0.29182    0.19772    0.12908    1.000
    O10      O        0.28311    0.80707    0.14088    1.000
    O11      O        0.24878    0.83703    0.27839    1.000
    O12      O        0.36995    0.97037    0.20495    1.000
    O13      O        0.33937    0.02275    0.17129    1.000
    Al2      Al       0.25331    0.20776    0.36410    1.000
    O14      O        0.25872    0.24478    0.23920    1.000
    N7       N        0.71409    0.99767    0.98089    1.000
    N8       N        0.69862    0.03165    0.80222    1.000
    N9       N        0.69815    0.96633    0.79740    1.000
    C49      C        0.70862    0.96545    0.91812    1.000
    C50      C        0.70909    0.03078    0.92294    1.000
    C51      C        0.69315    0.99943    0.73945    1.000
    C52      C        0.71367    0.93199    0.97668    1.000
    C53      C        0.71054    0.89989    0.91211    1.000
    C54      C        0.71553    0.86688    0.96990    1.000
    C55      C        0.72365    0.86596    0.09226    1.000
    C56      C        0.72679    0.89806    0.15684    1.000
    C57      C        0.72180    0.93107    0.09904    1.000
    C58      C        0.72911    0.82984    0.15549    1.000
    C59      C        0.71461    0.06335    0.98639    1.000
    C60      C        0.71673    0.06305    0.11155    1.000
    C61      C        0.72219    0.09519    0.17415    1.000
    C62      C        0.72552    0.12763    0.11161    1.000
    C63      C        0.72340    0.12792    0.98645    1.000
    C64      C        0.71794    0.09579    0.92384    1.000
    C65      C        0.73148    0.16279    0.18010    1.000
    C66      C        0.68257    0.00032    0.61744    1.000
    C67      C        0.67377    0.03309    0.56330    1.000
    C68      C        0.66333    0.03397    0.44290    1.000
    C69      C        0.66169    0.00207    0.37664    1.000
    C70      C        0.67049    0.96929    0.43078    1.000
    C71      C        0.68093    0.96842    0.55118    1.000
    C72      C        0.65027    0.00303    0.24492    1.000
    O15      O        0.75474    0.82625    0.23642    1.000
    O16      O        0.70818    0.80228    0.12908    1.000
    O17      O        0.71689    0.19293    0.14088    1.000
    O18      O        0.75122    0.16297    0.27839    1.000
    O19      O        0.63005    0.02963    0.20495    1.000
    O20      O        0.66063    0.97725    0.17129    1.000
    Al3      Al       0.74669    0.79224    0.36410    1.000
    O21      O        0.74128    0.75522    0.23920    1.000
    N10      N        0.21409    0.49767    0.48089    1.000
    N11      N        0.19862    0.53165    0.30222    1.000
    N12      N        0.19815    0.46633    0.29740    1.000
    C73      C        0.20862    0.46545    0.41812    1.000
    C74      C        0.20909    0.53078    0.42294    1.000
    C75      C        0.19315    0.49943    0.23945    1.000
    C76      C        0.21367    0.43199    0.47668    1.000
    C77      C        0.21054    0.39989    0.41211    1.000
    C78      C        0.21553    0.36688    0.46990    1.000
    C79      C        0.22365    0.36596    0.59226    1.000
    C80      C        0.22679    0.39806    0.65684    1.000
    C81      C        0.22180    0.43107    0.59904    1.000
    C82      C        0.22911    0.32984    0.65549    1.000
    C83      C        0.21461    0.56335    0.48639    1.000
    C84      C        0.21673    0.56305    0.61155    1.000
    C85      C        0.22219    0.59519    0.67415    1.000
    C86      C        0.22552    0.62763    0.61161    1.000
    C87      C        0.22340    0.62792    0.48645    1.000
    C88      C        0.21794    0.59579    0.42384    1.000
    C89      C        0.23148    0.66279    0.68010    1.000
    C90      C        0.18257    0.50032    0.11744    1.000
    C91      C        0.17377    0.53309    0.06330    1.000
    C92      C        0.16333    0.53397    0.94290    1.000
    C93      C        0.16169    0.50207    0.87664    1.000
    C94      C        0.17049    0.46929    0.93078    1.000
    C95      C        0.18093    0.46842    0.05118    1.000
    C96      C        0.15027    0.50303    0.74492    1.000
    O22      O        0.25474    0.32625    0.73642    1.000
    O23      O        0.20818    0.30228    0.62908    1.000
    O24      O        0.21689    0.69293    0.64088    1.000
    O25      O        0.25122    0.66297    0.77839    1.000
    O26      O        0.13005    0.52963    0.70495    1.000
    O27      O        0.16063    0.47725    0.67129    1.000
    Al4      Al       0.24669    0.29224    0.86410    1.000
    O28      O        0.24128    0.25522    0.73920    1.000
    N13      N        0.49767    0.28591    0.73089    1.000
    N14      N        0.53165    0.30138    0.55222    1.000
    N15      N        0.46633    0.30185    0.54740    1.000
    C97      C        0.46545    0.29138    0.66812    1.000
    C98      C        0.53078    0.29091    0.67294    1.000
    C99      C        0.49943    0.30685    0.48945    1.000
    C100     C        0.43199    0.28633    0.72668    1.000
    C101     C        0.39989    0.28946    0.66211    1.000
    C102     C        0.36688    0.28447    0.71990    1.000
    C103     C        0.36596    0.27635    0.84226    1.000
    C104     C        0.39806    0.27321    0.90684    1.000
    C105     C        0.43107    0.27820    0.84904    1.000
    C106     C        0.32984    0.27089    0.90549    1.000
    C107     C        0.56335    0.28539    0.73639    1.000
    C108     C        0.56305    0.28327    0.86155    1.000
    C109     C        0.59519    0.27781    0.92415    1.000
    C110     C        0.62763    0.27448    0.86161    1.000
    C111     C        0.62792    0.27660    0.73645    1.000
    C112     C        0.59579    0.28206    0.67384    1.000
    C113     C        0.66279    0.26852    0.93010    1.000
    C114     C        0.50032    0.31743    0.36744    1.000
    C115     C        0.53309    0.32623    0.31330    1.000
    C116     C        0.53397    0.33667    0.19290    1.000
    C117     C        0.50207    0.33831    0.12664    1.000
    C118     C        0.46929    0.32951    0.18078    1.000
    C119     C        0.46842    0.31907    0.30118    1.000
    C120     C        0.50303    0.34973    0.99492    1.000
    O29      O        0.32625    0.24526    0.98642    1.000
    O30      O        0.30228    0.29182    0.87908    1.000
    O31      O        0.69293    0.28311    0.89088    1.000
    O32      O        0.66297    0.24878    0.02839    1.000
    O33      O        0.52963    0.36995    0.95495    1.000
    O34      O        0.47725    0.33937    0.92129    1.000
    Al5      Al       0.29224    0.25331    0.11410    1.000
    O35      O        0.25522    0.25872    0.98920    1.000
    N16      N        0.99767    0.78591    0.23089    1.000
    N17      N        0.03165    0.80138    0.05222    1.000
    N18      N        0.96633    0.80185    0.04740    1.000
    C121     C        0.96545    0.79138    0.16812    1.000
    C122     C        0.03078    0.79091    0.17294    1.000
    C123     C        0.99943    0.80685    0.98945    1.000
    C124     C        0.93199    0.78633    0.22668    1.000
    C125     C        0.89989    0.78946    0.16211    1.000
    C126     C        0.86688    0.78447    0.21990    1.000
    C127     C        0.86596    0.77635    0.34226    1.000
    C128     C        0.89806    0.77321    0.40684    1.000
    C129     C        0.93107    0.77820    0.34904    1.000
    C130     C        0.82984    0.77089    0.40549    1.000
    C131     C        0.06335    0.78539    0.23639    1.000
    C132     C        0.06305    0.78327    0.36155    1.000
    C133     C        0.09519    0.77781    0.42415    1.000
    C134     C        0.12763    0.77448    0.36161    1.000
    C135     C        0.12792    0.77660    0.23645    1.000
    C136     C        0.09579    0.78206    0.17384    1.000
    C137     C        0.16279    0.76852    0.43010    1.000
    C138     C        0.00032    0.81743    0.86744    1.000
    C139     C        0.03309    0.82623    0.81330    1.000
    C140     C        0.03397    0.83667    0.69290    1.000
    C141     C        0.00207    0.83831    0.62664    1.000
    C142     C        0.96929    0.82951    0.68078    1.000
    C143     C        0.96842    0.81907    0.80118    1.000
    C144     C        0.00303    0.84973    0.49492    1.000
    O36      O        0.82625    0.74526    0.48642    1.000
    O37      O        0.80228    0.79182    0.37908    1.000
    O38      O        0.19293    0.78311    0.39088    1.000
    O39      O        0.16297    0.74878    0.52839    1.000
    O40      O        0.02963    0.86995    0.45495    1.000
    O41      O        0.97725    0.83937    0.42129    1.000
    Al6      Al       0.79224    0.75331    0.61410    1.000
    O42      O        0.75522    0.75872    0.48920    1.000
    N19      N        0.00233    0.21409    0.23089    1.000
    N20      N        0.96835    0.19862    0.05222    1.000
    N21      N        0.03367    0.19815    0.04740    1.000
    C145     C        0.03455    0.20862    0.16812    1.000
    C146     C        0.96922    0.20909    0.17294    1.000
    C147     C        0.00057    0.19315    0.98945    1.000
    C148     C        0.06801    0.21367    0.22668    1.000
    C149     C        0.10011    0.21054    0.16211    1.000
    C150     C        0.13312    0.21553    0.21990    1.000
    C151     C        0.13404    0.22365    0.34226    1.000
    C152     C        0.10194    0.22679    0.40684    1.000
    C153     C        0.06893    0.22180    0.34904    1.000
    C154     C        0.17016    0.22911    0.40549    1.000
    C155     C        0.93665    0.21461    0.23639    1.000
    C156     C        0.93695    0.21673    0.36155    1.000
    C157     C        0.90481    0.22219    0.42415    1.000
    C158     C        0.87237    0.22552    0.36161    1.000
    C159     C        0.87208    0.22340    0.23645    1.000
    C160     C        0.90421    0.21794    0.17384    1.000
    C161     C        0.83721    0.23148    0.43010    1.000
    C162     C        0.99968    0.18257    0.86744    1.000
    C163     C        0.96691    0.17377    0.81330    1.000
    C164     C        0.96603    0.16333    0.69290    1.000
    C165     C        0.99793    0.16169    0.62664    1.000
    C166     C        0.03071    0.17049    0.68078    1.000
    C167     C        0.03158    0.18093    0.80118    1.000
    C168     C        0.99697    0.15027    0.49492    1.000
    O43      O        0.17375    0.25474    0.48642    1.000
    O44      O        0.19772    0.20818    0.37908    1.000
    O45      O        0.80707    0.21689    0.39088    1.000
    O46      O        0.83703    0.25122    0.52839    1.000
    O47      O        0.97037    0.13005    0.45495    1.000
    O48      O        0.02275    0.16063    0.42129    1.000
    Al7      Al       0.20776    0.24669    0.61410    1.000
    O49      O        0.24478    0.24128    0.48920    1.000
    N22      N        0.50233    0.71409    0.73089    1.000
    N23      N        0.46835    0.69862    0.55222    1.000
    N24      N        0.53367    0.69815    0.54740    1.000
    C169     C        0.53455    0.70862    0.66812    1.000
    C170     C        0.46922    0.70909    0.67294    1.000
    C171     C        0.50057    0.69315    0.48945    1.000
    C172     C        0.56801    0.71367    0.72668    1.000
    C173     C        0.60011    0.71054    0.66211    1.000
    C174     C        0.63312    0.71553    0.71990    1.000
    C175     C        0.63404    0.72365    0.84226    1.000
    C176     C        0.60194    0.72679    0.90684    1.000
    C177     C        0.56893    0.72180    0.84904    1.000
    C178     C        0.67016    0.72911    0.90549    1.000
    C179     C        0.43665    0.71461    0.73639    1.000
    C180     C        0.43695    0.71673    0.86155    1.000
    C181     C        0.40481    0.72219    0.92415    1.000
    C182     C        0.37237    0.72552    0.86161    1.000
    C183     C        0.37208    0.72340    0.73645    1.000
    C184     C        0.40421    0.71794    0.67384    1.000
    C185     C        0.33721    0.73148    0.93010    1.000
    C186     C        0.49968    0.68257    0.36744    1.000
    C187     C        0.46691    0.67377    0.31330    1.000
    C188     C        0.46603    0.66333    0.19290    1.000
    C189     C        0.49793    0.66169    0.12664    1.000
    C190     C        0.53071    0.67049    0.18078    1.000
    C191     C        0.53158    0.68093    0.30118    1.000
    C192     C        0.49697    0.65027    0.99492    1.000
    O50      O        0.67375    0.75474    0.98642    1.000
    O51      O        0.69772    0.70818    0.87908    1.000
    O52      O        0.30707    0.71689    0.89088    1.000
    O53      O        0.33703    0.75122    0.02839    1.000
    O54      O        0.47037    0.63005    0.95495    1.000
    O55      O        0.52275    0.66063    0.92129    1.000
    Al8      Al       0.70776    0.74669    0.11410    1.000
    O56      O        0.74478    0.74128    0.98920    1.000
    N25      N        0.21409    0.99767    0.76911    1.000
    N26      N        0.19862    0.03165    0.94778    1.000
    N27      N        0.19815    0.96633    0.95260    1.000
    C193     C        0.20862    0.96545    0.83188    1.000
    C194     C        0.20909    0.03078    0.82706    1.000
    C195     C        0.19315    0.99943    0.01055    1.000
    C196     C        0.21367    0.93199    0.77332    1.000
    C197     C        0.21054    0.89989    0.83789    1.000
    C198     C        0.21553    0.86688    0.78010    1.000
    C199     C        0.22365    0.86596    0.65774    1.000
    C200     C        0.22679    0.89806    0.59316    1.000
    C201     C        0.22180    0.93107    0.65096    1.000
    C202     C        0.22911    0.82984    0.59451    1.000
    C203     C        0.21461    0.06335    0.76361    1.000
    C204     C        0.21673    0.06305    0.63845    1.000
    C205     C        0.22219    0.09519    0.57585    1.000
    C206     C        0.22552    0.12763    0.63839    1.000
    C207     C        0.22340    0.12792    0.76355    1.000
    C208     C        0.21794    0.09579    0.82616    1.000
    C209     C        0.23148    0.16279    0.56990    1.000
    C210     C        0.18257    0.00032    0.13256    1.000
    C211     C        0.17377    0.03309    0.18670    1.000
    C212     C        0.16333    0.03397    0.30710    1.000
    C213     C        0.16169    0.00207    0.37336    1.000
    C214     C        0.17049    0.96929    0.31922    1.000
    C215     C        0.18093    0.96842    0.19882    1.000
    C216     C        0.15027    0.00303    0.50508    1.000
    O57      O        0.25474    0.82625    0.51358    1.000
    O58      O        0.20818    0.80228    0.62092    1.000
    O59      O        0.21689    0.19293    0.60912    1.000
    O60      O        0.25122    0.16297    0.47161    1.000
    O61      O        0.13005    0.02963    0.54505    1.000
    O62      O        0.16063    0.97725    0.57871    1.000
    Al9      Al       0.24669    0.79224    0.38590    1.000
    O63      O        0.24128    0.75522    0.51080    1.000
    N28      N        0.71409    0.49767    0.26911    1.000
    N29      N        0.69862    0.53165    0.44778    1.000
    N30      N        0.69815    0.46633    0.45260    1.000
    C217     C        0.70862    0.46545    0.33188    1.000
    C218     C        0.70909    0.53078    0.32706    1.000
    C219     C        0.69315    0.49943    0.51055    1.000
    C220     C        0.71367    0.43199    0.27332    1.000
    C221     C        0.71054    0.39989    0.33789    1.000
    C222     C        0.71553    0.36688    0.28010    1.000
    C223     C        0.72365    0.36596    0.15774    1.000
    C224     C        0.72679    0.39806    0.09316    1.000
    C225     C        0.72180    0.43107    0.15096    1.000
    C226     C        0.72911    0.32984    0.09451    1.000
    C227     C        0.71461    0.56335    0.26361    1.000
    C228     C        0.71673    0.56305    0.13845    1.000
    C229     C        0.72219    0.59519    0.07585    1.000
    C230     C        0.72552    0.62763    0.13839    1.000
    C231     C        0.72340    0.62792    0.26355    1.000
    C232     C        0.71794    0.59579    0.32616    1.000
    C233     C        0.73148    0.66279    0.06990    1.000
    C234     C        0.68257    0.50032    0.63256    1.000
    C235     C        0.67377    0.53309    0.68670    1.000
    C236     C        0.66333    0.53397    0.80710    1.000
    C237     C        0.66169    0.50207    0.87336    1.000
    C238     C        0.67049    0.46929    0.81922    1.000
    C239     C        0.68093    0.46842    0.69882    1.000
    C240     C        0.65027    0.50303    0.00508    1.000
    O64      O        0.75474    0.32625    0.01358    1.000
    O65      O        0.70818    0.30228    0.12092    1.000
    O66      O        0.71689    0.69293    0.10912    1.000
    O67      O        0.75122    0.66297    0.97161    1.000
    O68      O        0.63005    0.52963    0.04505    1.000
    O69      O        0.66063    0.47725    0.07871    1.000
    Al10     Al       0.74669    0.29224    0.88590    1.000
    O70      O        0.74128    0.25522    0.01080    1.000
    N31      N        0.28591    0.50233    0.26911    1.000
    N32      N        0.30138    0.46835    0.44778    1.000
    N33      N        0.30185    0.53367    0.45260    1.000
    C241     C        0.29138    0.53455    0.33188    1.000
    C242     C        0.29091    0.46922    0.32706    1.000
    C243     C        0.30685    0.50057    0.51055    1.000
    C244     C        0.28633    0.56801    0.27332    1.000
    C245     C        0.28946    0.60011    0.33789    1.000
    C246     C        0.28447    0.63312    0.28010    1.000
    C247     C        0.27635    0.63404    0.15774    1.000
    C248     C        0.27321    0.60194    0.09316    1.000
    C249     C        0.27820    0.56893    0.15096    1.000
    C250     C        0.27089    0.67016    0.09451    1.000
    C251     C        0.28539    0.43665    0.26361    1.000
    C252     C        0.28327    0.43695    0.13845    1.000
    C253     C        0.27781    0.40481    0.07585    1.000
    C254     C        0.27448    0.37237    0.13839    1.000
    C255     C        0.27660    0.37208    0.26355    1.000
    C256     C        0.28206    0.40421    0.32616    1.000
    C257     C        0.26852    0.33721    0.06990    1.000
    C258     C        0.31743    0.49968    0.63256    1.000
    C259     C        0.32623    0.46691    0.68670    1.000
    C260     C        0.33667    0.46603    0.80710    1.000
    C261     C        0.33831    0.49793    0.87336    1.000
    C262     C        0.32951    0.53071    0.81922    1.000
    C263     C        0.31907    0.53158    0.69882    1.000
    C264     C        0.34973    0.49697    0.00508    1.000
    O71      O        0.24526    0.67375    0.01358    1.000
    O72      O        0.29182    0.69772    0.12092    1.000
    O73      O        0.28311    0.30707    0.10912    1.000
    O74      O        0.24878    0.33703    0.97161    1.000
    O75      O        0.36995    0.47037    0.04505    1.000
    O76      O        0.33937    0.52275    0.07871    1.000
    Al11     Al       0.25331    0.70776    0.88590    1.000
    O77      O        0.25872    0.74478    0.01080    1.000
    N34      N        0.78591    0.00233    0.76911    1.000
    N35      N        0.80138    0.96835    0.94778    1.000
    N36      N        0.80185    0.03367    0.95260    1.000
    C265     C        0.79138    0.03455    0.83188    1.000
    C266     C        0.79091    0.96922    0.82706    1.000
    C267     C        0.80685    0.00057    0.01055    1.000
    C268     C        0.78633    0.06801    0.77332    1.000
    C269     C        0.78946    0.10011    0.83789    1.000
    C270     C        0.78447    0.13312    0.78010    1.000
    C271     C        0.77635    0.13404    0.65774    1.000
    C272     C        0.77321    0.10194    0.59316    1.000
    C273     C        0.77820    0.06893    0.65096    1.000
    C274     C        0.77089    0.17016    0.59451    1.000
    C275     C        0.78539    0.93665    0.76361    1.000
    C276     C        0.78327    0.93695    0.63845    1.000
    C277     C        0.77781    0.90481    0.57585    1.000
    C278     C        0.77448    0.87237    0.63839    1.000
    C279     C        0.77660    0.87208    0.76355    1.000
    C280     C        0.78206    0.90421    0.82616    1.000
    C281     C        0.76852    0.83721    0.56990    1.000
    C282     C        0.81743    0.99968    0.13256    1.000
    C283     C        0.82623    0.96691    0.18670    1.000
    C284     C        0.83667    0.96603    0.30710    1.000
    C285     C        0.83831    0.99793    0.37336    1.000
    C286     C        0.82951    0.03071    0.31922    1.000
    C287     C        0.81907    0.03158    0.19882    1.000
    C288     C        0.84973    0.99697    0.50508    1.000
    O78      O        0.74526    0.17375    0.51358    1.000
    O79      O        0.79182    0.19772    0.62092    1.000
    O80      O        0.78311    0.80707    0.60912    1.000
    O81      O        0.74878    0.83703    0.47161    1.000
    O82      O        0.86995    0.97037    0.54505    1.000
    O83      O        0.83937    0.02275    0.57871    1.000
    Al12     Al       0.75331    0.20776    0.38590    1.000
    O84      O        0.75872    0.24478    0.51080    1.000
    N37      N        0.50233    0.21409    0.51911    1.000
    N38      N        0.46835    0.19862    0.69778    1.000
    N39      N        0.53367    0.19815    0.70260    1.000
    C289     C        0.53455    0.20862    0.58188    1.000
    C290     C        0.46922    0.20909    0.57706    1.000
    C291     C        0.50057    0.19315    0.76055    1.000
    C292     C        0.56801    0.21367    0.52332    1.000
    C293     C        0.60011    0.21054    0.58789    1.000
    C294     C        0.63312    0.21553    0.53010    1.000
    C295     C        0.63404    0.22365    0.40774    1.000
    C296     C        0.60194    0.22679    0.34316    1.000
    C297     C        0.56893    0.22180    0.40096    1.000
    C298     C        0.67016    0.22911    0.34451    1.000
    C299     C        0.43665    0.21461    0.51361    1.000
    C300     C        0.43695    0.21673    0.38845    1.000
    C301     C        0.40481    0.22219    0.32585    1.000
    C302     C        0.37237    0.22552    0.38839    1.000
    C303     C        0.37208    0.22340    0.51355    1.000
    C304     C        0.40421    0.21794    0.57616    1.000
    C305     C        0.33721    0.23148    0.31990    1.000
    C306     C        0.49968    0.18257    0.88256    1.000
    C307     C        0.46691    0.17377    0.93670    1.000
    C308     C        0.46603    0.16333    0.05710    1.000
    C309     C        0.49793    0.16169    0.12336    1.000
    C310     C        0.53071    0.17049    0.06922    1.000
    C311     C        0.53158    0.18093    0.94882    1.000
    C312     C        0.49697    0.15027    0.25508    1.000
    O85      O        0.67375    0.25474    0.26358    1.000
    O86      O        0.69772    0.20818    0.37092    1.000
    O87      O        0.30707    0.21689    0.35912    1.000
    O88      O        0.33703    0.25122    0.22161    1.000
    O89      O        0.47037    0.13005    0.29505    1.000
    O90      O        0.52275    0.16063    0.32871    1.000
    Al13     Al       0.70776    0.24669    0.13590    1.000
    O91      O        0.74478    0.24128    0.26080    1.000
    N40      N        0.00233    0.71409    0.01911    1.000
    N41      N        0.96835    0.69862    0.19778    1.000
    N42      N        0.03367    0.69815    0.20260    1.000
    C313     C        0.03455    0.70862    0.08188    1.000
    C314     C        0.96922    0.70909    0.07706    1.000
    C315     C        0.00057    0.69315    0.26055    1.000
    C316     C        0.06801    0.71367    0.02332    1.000
    C317     C        0.10011    0.71054    0.08789    1.000
    C318     C        0.13312    0.71553    0.03010    1.000
    C319     C        0.13404    0.72365    0.90774    1.000
    C320     C        0.10194    0.72679    0.84316    1.000
    C321     C        0.06893    0.72180    0.90096    1.000
    C322     C        0.17016    0.72911    0.84451    1.000
    C323     C        0.93665    0.71461    0.01361    1.000
    C324     C        0.93695    0.71673    0.88845    1.000
    C325     C        0.90481    0.72219    0.82585    1.000
    C326     C        0.87237    0.72552    0.88839    1.000
    C327     C        0.87208    0.72340    0.01355    1.000
    C328     C        0.90421    0.71794    0.07616    1.000
    C329     C        0.83721    0.73148    0.81990    1.000
    C330     C        0.99968    0.68257    0.38256    1.000
    C331     C        0.96691    0.67377    0.43670    1.000
    C332     C        0.96603    0.66333    0.55710    1.000
    C333     C        0.99793    0.66169    0.62336    1.000
    C334     C        0.03071    0.67049    0.56922    1.000
    C335     C        0.03158    0.68093    0.44882    1.000
    C336     C        0.99697    0.65027    0.75508    1.000
    O92      O        0.17375    0.75474    0.76358    1.000
    O93      O        0.19772    0.70818    0.87092    1.000
    O94      O        0.80707    0.71689    0.85912    1.000
    O95      O        0.83703    0.75122    0.72161    1.000
    O96      O        0.97037    0.63005    0.79505    1.000
    O97      O        0.02275    0.66063    0.82871    1.000
    Al14     Al       0.20776    0.74669    0.63590    1.000
    O98      O        0.24478    0.74128    0.76080    1.000
    N43      N        0.99767    0.28591    0.01911    1.000
    N44      N        0.03165    0.30138    0.19778    1.000
    N45      N        0.96633    0.30185    0.20260    1.000
    C337     C        0.96545    0.29138    0.08188    1.000
    C338     C        0.03078    0.29091    0.07706    1.000
    C339     C        0.99943    0.30685    0.26055    1.000
    C340     C        0.93199    0.28633    0.02332    1.000
    C341     C        0.89989    0.28946    0.08789    1.000
    C342     C        0.86688    0.28447    0.03010    1.000
    C343     C        0.86596    0.27635    0.90774    1.000
    C344     C        0.89806    0.27321    0.84316    1.000
    C345     C        0.93107    0.27820    0.90096    1.000
    C346     C        0.82984    0.27089    0.84451    1.000
    C347     C        0.06335    0.28539    0.01361    1.000
    C348     C        0.06305    0.28327    0.88845    1.000
    C349     C        0.09519    0.27781    0.82585    1.000
    C350     C        0.12763    0.27448    0.88839    1.000
    C351     C        0.12792    0.27660    0.01355    1.000
    C352     C        0.09579    0.28206    0.07616    1.000
    C353     C        0.16279    0.26852    0.81990    1.000
    C354     C        0.00032    0.31743    0.38256    1.000
    C355     C        0.03309    0.32623    0.43670    1.000
    C356     C        0.03397    0.33667    0.55710    1.000
    C357     C        0.00207    0.33831    0.62336    1.000
    C358     C        0.96929    0.32951    0.56922    1.000
    C359     C        0.96842    0.31907    0.44882    1.000
    C360     C        0.00303    0.34973    0.75508    1.000
    O99      O        0.82625    0.24526    0.76358    1.000
    O100     O        0.80228    0.29182    0.87092    1.000
    O101     O        0.19293    0.28311    0.85912    1.000
    O102     O        0.16297    0.24878    0.72161    1.000
    O103     O        0.02963    0.36995    0.79505    1.000
    O104     O        0.97725    0.33937    0.82871    1.000
    Al15     Al       0.79224    0.25331    0.63590    1.000
    O105     O        0.75522    0.25872    0.76080    1.000
    N46      N        0.49767    0.78591    0.51911    1.000
    N47      N        0.53165    0.80138    0.69778    1.000
    N48      N        0.46633    0.80185    0.70260    1.000
    C361     C        0.46545    0.79138    0.58188    1.000
    C362     C        0.53078    0.79091    0.57706    1.000
    C363     C        0.49943    0.80685    0.76055    1.000
    C364     C        0.43199    0.78633    0.52332    1.000
    C365     C        0.39989    0.78946    0.58789    1.000
    C366     C        0.36688    0.78447    0.53010    1.000
    C367     C        0.36596    0.77635    0.40774    1.000
    C368     C        0.39806    0.77321    0.34316    1.000
    C369     C        0.43107    0.77820    0.40096    1.000
    C370     C        0.32984    0.77089    0.34451    1.000
    C371     C        0.56335    0.78539    0.51361    1.000
    C372     C        0.56305    0.78327    0.38845    1.000
    C373     C        0.59519    0.77781    0.32585    1.000
    C374     C        0.62763    0.77448    0.38839    1.000
    C375     C        0.62792    0.77660    0.51355    1.000
    C376     C        0.59579    0.78206    0.57616    1.000
    C377     C        0.66279    0.76852    0.31990    1.000
    C378     C        0.50032    0.81743    0.88256    1.000
    C379     C        0.53309    0.82623    0.93670    1.000
    C380     C        0.53397    0.83667    0.05710    1.000
    C381     C        0.50207    0.83831    0.12336    1.000
    C382     C        0.46929    0.82951    0.06922    1.000
    C383     C        0.46842    0.81907    0.94882    1.000
    C384     C        0.50303    0.84973    0.25508    1.000
    O106     O        0.32625    0.74526    0.26358    1.000
    O107     O        0.30228    0.79182    0.37092    1.000
    O108     O        0.69293    0.78311    0.35912    1.000
    O109     O        0.66297    0.74878    0.22161    1.000
    O110     O        0.52963    0.86995    0.29505    1.000
    O111     O        0.47725    0.83937    0.32871    1.000
    Al16     Al       0.29224    0.75331    0.13590    1.000
    O112     O        0.25522    0.75872    0.26080    1.000
