# CIF file generated by openbabel 3.1.0, see https://openbabel.org
data_I
_chemical_name_common 'VIVXOP_clean'
_cell_length_a 14.178
_cell_length_b 14.178
_cell_length_c 25.7508
_cell_angle_alpha 83.3906
_cell_angle_beta 83.3906
_cell_angle_gamma 87.3374
_space_group_name_H-M_alt 'P 1'
_space_group_name_Hall 'P 1'
loop_
    _symmetry_equiv_pos_as_xyz
    x,y,z
loop_
    _atom_site_label
    _atom_site_type_symbol
    _atom_site_fract_x
    _atom_site_fract_y
    _atom_site_fract_z
    _atom_site_occupancy
    Zn1      Zn       0.18180    0.87564    0.07944    1.000
    Zn2      Zn       0.84657    0.40813    0.55841    1.000
    Zn3      Zn       0.87564    0.18180    0.57944    1.000
    Zn4      Zn       0.40813    0.84657    0.05841    1.000
    H1       H        0.30558    0.00618    0.23091    1.000
    H2       H        0.77019    0.01441    0.64341    1.000
    H3       H        0.44607    0.43003    0.67728    1.000
    H4       H        0.74815    0.83933    0.98709    1.000
    H5       H        0.88542    0.88936    0.49638    1.000
    H6       H        0.58624    0.85984    0.98691    1.000
    H7       H        0.60491    0.42375    0.63950    1.000
    H8       H        0.36965    0.84835    0.81140    1.000
    H9       H        0.98022    0.12156    0.72302    1.000
    H10      H        0.85984    0.58624    0.48691    1.000
    H11      H        0.17647    0.55007    0.07958    1.000
    H12      H        0.15567    0.03337    0.84012    1.000
    H13      H        0.17437    0.99873    0.92722    1.000
    H14      H        0.38513    0.80947    0.89874    1.000
    H15      H        0.70185    0.80111    0.14677    1.000
    H16      H        0.12156    0.98022    0.22302    1.000
    H17      H        0.80111    0.70185    0.64677    1.000
    H18      H        0.54222    0.82680    0.14175    1.000
    H19      H        0.42375    0.60491    0.13950    1.000
    H20      H        0.06293    0.09615    0.27623    1.000
    H21      H        0.15937    0.03855    0.60078    1.000
    H22      H        0.24324    0.30128    0.59736    1.000
    H23      H        0.04592    0.90384    0.00248    1.000
    H24      H        0.29056    0.15992    0.25371    1.000
    H25      H        0.55007    0.17647    0.57958    1.000
    H26      H        0.99873    0.17437    0.42722    1.000
    H27      H        0.80947    0.38513    0.39874    1.000
    H28      H        0.88936    0.88542    0.99638    1.000
    H29      H        0.97755    0.27359    0.15383    1.000
    H30      H        0.83933    0.74815    0.48709    1.000
    H31      H        0.08821    0.30993    0.57569    1.000
    H32      H        0.01441    0.77019    0.14341    1.000
    H33      H        0.03337    0.15567    0.34012    1.000
    H34      H        0.43003    0.44607    0.17728    1.000
    H35      H        0.09615    0.06293    0.77623    1.000
    H36      H        0.90384    0.04592    0.50248    1.000
    H37      H        0.30993    0.08821    0.07569    1.000
    H38      H        0.17977    0.39429    0.12122    1.000
    H39      H        0.30128    0.24324    0.09736    1.000
    H40      H        0.03855    0.15937    0.10078    1.000
    H41      H        0.85601    0.75429    0.14325    1.000
    H42      H        0.15992    0.29056    0.75371    1.000
    H43      H        0.27359    0.97755    0.65383    1.000
    H44      H        0.00618    0.30558    0.73091    1.000
    H45      H        0.82680    0.54222    0.64175    1.000
    H46      H        0.75429    0.85601    0.64325    1.000
    H47      H        0.84835    0.36965    0.31140    1.000
    H48      H        0.39429    0.17977    0.62122    1.000
    C1       C        0.20259    0.98917    0.85186    1.000
    C2       C        0.74479    0.82125    0.06715    1.000
    C3       C        0.56252    0.37484    0.63560    1.000
    C4       C        0.28211    0.90089    0.92232    1.000
    C5       C        0.79368    0.98892    0.61346    1.000
    C6       C        0.81512    0.68024    0.61372    1.000
    C7       C        0.26659    0.96539    0.75661    1.000
    C8       C        0.10275    0.30759    0.61129    1.000
    C9       C        0.09401    0.03971    0.20910    1.000
    C10      C        0.93196    0.32458    0.63830    1.000
    C11      C        0.86161    0.91279    0.52698    1.000
    C12      C        0.14697    0.04387    0.63595    1.000
    C13      C        0.37769    0.46805    0.15890    1.000
    C14      C        0.21329    0.96807    0.90405    1.000
    C15      C        0.83727    0.70783    0.51904    1.000
    C16      C        0.98892    0.79368    0.11346    1.000
    C17      C        0.53008    0.22648    0.60024    1.000
    C18      C        0.37484    0.56252    0.13560    1.000
    C19      C        0.59380    0.29806    0.60626    1.000
    C20      C        0.98917    0.20259    0.35186    1.000
    C21      C        0.21789    0.29495    0.67773    1.000
    C22      C        0.19679    0.01423    0.72071    1.000
    C23      C        0.10879    0.05787    0.74106    1.000
    C24      C        0.31017    0.31333    0.18929    1.000
    C25      C        0.88756    0.29648    0.47868    1.000
    C26      C        0.19566    0.30130    0.62435    1.000
    C27      C        0.70783    0.83727    0.01904    1.000
    C28      C        0.89373    0.78347    0.11356    1.000
    C29      C        0.40568    0.30362    0.65504    1.000
    C30      C        0.26104    0.94532    0.81648    1.000
    C31      C        0.21518    0.00716    0.66768    1.000
    C32      C        0.85540    0.33978    0.38695    1.000
    C33      C        0.31333    0.31017    0.68929    1.000
    C34      C        0.03119    0.31037    0.65118    1.000
    C35      C        0.30410    0.05372    0.20414    1.000
    C36      C        0.96539    0.26659    0.25661    1.000
    C37      C        0.81689    0.85427    0.56900    1.000
    C38      C        0.82125    0.74479    0.56715    1.000
    C39      C        0.32458    0.93196    0.13830    1.000
    C40      C        0.33978    0.85540    0.88695    1.000
    C41      C        0.32994    0.87802    0.83470    1.000
    C42      C        0.14606    0.29566    0.71795    1.000
    C43      C        0.85006    0.61022    0.51928    1.000
    C44      C        0.00716    0.21518    0.16768    1.000
    C45      C        0.29806    0.59380    0.10626    1.000
    C46      C        0.31037    0.03119    0.15118    1.000
    C47      C        0.08902    0.05976    0.15624    1.000
    C48      C        0.43648    0.22876    0.62492    1.000
    C49      C        0.05372    0.30410    0.70414    1.000
    C50      C        0.96807    0.21329    0.40405    1.000
    C51      C        0.05787    0.10879    0.24106    1.000
    C52      C        0.98335    0.11965    0.62284    1.000
    C53      C        0.03971    0.09401    0.70910    1.000
    C54      C        0.91279    0.86161    0.02698    1.000
    C55      C        0.00786    0.87094    0.03080    1.000
    C56      C        0.11965    0.98335    0.12284    1.000
    C57      C        0.68024    0.81512    0.11372    1.000
    C58      C        0.01423    0.19679    0.22071    1.000
    C59      C        0.82997    0.58431    0.61037    1.000
    C60      C        0.85427    0.81689    0.06900    1.000
    C61      C        0.22648    0.53008    0.10024    1.000
    C62      C        0.87094    0.00786    0.53080    1.000
    C63      C        0.46805    0.37769    0.65890    1.000
    C64      C        0.69891    0.29705    0.58862    1.000
    C65      C        0.29648    0.88756    0.97868    1.000
    C66      C        0.61022    0.85006    0.01928    1.000
    C67      C        0.05976    0.08902    0.65624    1.000
    C68      C        0.22876    0.43648    0.12492    1.000
    C69      C        0.58431    0.82997    0.11037    1.000
    C70      C        0.87802    0.32994    0.33470    1.000
    C71      C        0.30759    0.10275    0.11129    1.000
    C72      C        0.90089    0.28211    0.42232    1.000
    C73      C        0.30130    0.19566    0.12435    1.000
    C74      C        0.78347    0.89373    0.61356    1.000
    C75      C        0.30362    0.40568    0.15504    1.000
    C76      C        0.29495    0.21789    0.17773    1.000
    C77      C        0.29566    0.14606    0.21795    1.000
    C78      C        0.29705    0.69891    0.08862    1.000
    C79      C        0.04387    0.14697    0.13595    1.000
    C80      C        0.94532    0.26104    0.31648    1.000
    N1       N        0.04685    0.83601    0.07204    1.000
    N2       N        0.83601    0.04685    0.57204    1.000
    N3       N        0.84898    0.54894    0.56412    1.000
    N4       N        0.54894    0.84898    0.06412    1.000
    O1       O        0.21956    0.89046    0.00973    1.000
    O2       O        0.93933    0.34271    0.23264    1.000
    O3       O        0.89803    0.13457    0.64575    1.000
    O4       O        0.38003    0.87467    0.99140    1.000
    O5       O        0.31036    0.91126    0.09358    1.000
    O6       O        0.21926    0.74980    0.09478    1.000
    O7       O        0.13457    0.89803    0.14575    1.000
    O8       O        0.34271    0.93933    0.73264    1.000
    O9       O        0.34038    0.31618    0.23151    1.000
    O10      O        0.74980    0.21926    0.59478    1.000
    O11      O        0.73027    0.37991    0.57225    1.000
    O12      O        0.89046    0.21956    0.50973    1.000
    O13      O        0.31618    0.34038    0.73151    1.000
    O14      O        0.87019    0.35175    0.67303    1.000
    O15      O        0.13661    0.00217    0.07394    1.000
    O16      O        0.35175    0.87019    0.17303    1.000
    O17      O        0.37991    0.73027    0.07225    1.000
    O18      O        0.87467    0.38003    0.49140    1.000
    O19      O        0.00217    0.13661    0.57394    1.000
    O20      O        0.91126    0.31036    0.59358    1.000
    Zn5      Zn       0.12436    0.81820    0.42056    1.000
    Zn6      Zn       0.81820    0.12436    0.92056    1.000
    Zn7      Zn       0.15343    0.59187    0.44159    1.000
    Zn8      Zn       0.59187    0.15343    0.94159    1.000
    H49      H        0.82563    0.00127    0.07278    1.000
    H50      H        0.91179    0.69007    0.42431    1.000
    H51      H        0.16067    0.25185    0.51291    1.000
    H52      H        0.02245    0.72641    0.84617    1.000
    H53      H        0.57625    0.39509    0.86050    1.000
    H54      H        0.84008    0.70944    0.24629    1.000
    H55      H        0.82353    0.44993    0.92042    1.000
    H56      H        0.55393    0.56997    0.32272    1.000
    H57      H        0.96145    0.84063    0.89922    1.000
    H58      H        0.87844    0.01978    0.77698    1.000
    H59      H        0.63035    0.15165    0.18860    1.000
    H60      H        0.14016    0.41376    0.51309    1.000
    H61      H        0.69442    0.99382    0.76909    1.000
    H62      H        0.39509    0.57625    0.36050    1.000
    H63      H        0.25185    0.16067    0.01291    1.000
    H64      H        0.82023    0.60571    0.87878    1.000
    H65      H        0.60571    0.82023    0.37878    1.000
    H66      H        0.72641    0.02245    0.34617    1.000
    H67      H        0.14399    0.24571    0.85675    1.000
    H68      H        0.84433    0.96663    0.15988    1.000
    H69      H        0.99382    0.69442    0.26909    1.000
    H70      H        0.96663    0.84433    0.65988    1.000
    H71      H        0.44993    0.82353    0.42042    1.000
    H72      H        0.75676    0.69872    0.40264    1.000
    H73      H        0.56997    0.55393    0.82272    1.000
    H74      H        0.84063    0.96145    0.39922    1.000
    H75      H        0.61487    0.19053    0.10126    1.000
    H76      H        0.19053    0.61487    0.60126    1.000
    H77      H        0.93707    0.90385    0.72377    1.000
    H78      H        0.11458    0.11064    0.50362    1.000
    H79      H        0.19889    0.29815    0.35323    1.000
    H80      H        0.11064    0.11458    0.00362    1.000
    H81      H        0.29815    0.19889    0.85323    1.000
    H82      H        0.09616    0.95408    0.49752    1.000
    H83      H        0.15165    0.63035    0.68860    1.000
    H84      H        0.98559    0.22981    0.85659    1.000
    H85      H        0.90385    0.93707    0.22377    1.000
    H86      H        0.22981    0.98559    0.35659    1.000
    H87      H        0.69007    0.91179    0.92431    1.000
    H88      H        0.17320    0.45778    0.35825    1.000
    H89      H        0.45778    0.17320    0.85825    1.000
    H90      H        0.00127    0.82563    0.57278    1.000
    H91      H        0.95408    0.09616    0.99752    1.000
    H92      H        0.69872    0.75676    0.90264    1.000
    H93      H        0.01978    0.87844    0.27698    1.000
    H94      H        0.70944    0.84008    0.74629    1.000
    H95      H        0.24571    0.14399    0.35675    1.000
    H96      H        0.41376    0.14016    0.01309    1.000
    C81      C        0.12198    0.67006    0.66530    1.000
    C82      C        0.56352    0.77124    0.37508    1.000
    C83      C        0.59432    0.69638    0.34496    1.000
    C84      C        0.85394    0.70434    0.28205    1.000
    C85      C        0.85303    0.95613    0.36405    1.000
    C86      C        0.08721    0.13839    0.97302    1.000
    C87      C        0.11244    0.70352    0.52132    1.000
    C88      C        0.71789    0.09911    0.07768    1.000
    C89      C        0.66022    0.14460    0.11305    1.000
    C90      C        0.25521    0.17875    0.93285    1.000
    C91      C        0.12906    0.99214    0.46920    1.000
    C92      C        0.14994    0.38978    0.48072    1.000
    C93      C        0.21653    0.10627    0.38644    1.000
    C94      C        0.70505    0.78211    0.82227    1.000
    C95      C        0.62231    0.53195    0.84110    1.000
    C96      C        0.91098    0.94024    0.84376    1.000
    C97      C        0.80321    0.98577    0.27929    1.000
    C98      C        0.95613    0.85303    0.86405    1.000
    C99      C        0.99214    0.12906    0.96920    1.000
    C100     C        0.73341    0.03461    0.24339    1.000
    C101     C        0.94628    0.69590    0.29586    1.000
    C102     C        0.68667    0.68983    0.31071    1.000
    C103     C        0.01108    0.20632    0.88654    1.000
    C104     C        0.67542    0.06804    0.86170    1.000
    C105     C        0.69590    0.94628    0.79586    1.000
    C106     C        0.80434    0.69870    0.37565    1.000
    C107     C        0.69241    0.89725    0.88871    1.000
    C108     C        0.70295    0.30109    0.91138    1.000
    C109     C        0.62516    0.43748    0.86440    1.000
    C110     C        0.38978    0.14994    0.98072    1.000
    C111     C        0.78671    0.03193    0.09595    1.000
    C112     C        0.18311    0.14573    0.43100    1.000
    C113     C        0.88035    0.01665    0.87716    1.000
    C114     C        0.40620    0.70194    0.39374    1.000
    C115     C        0.03193    0.78671    0.59595    1.000
    C116     C        0.67006    0.12198    0.16530    1.000
    C117     C        0.06804    0.67542    0.36170    1.000
    C118     C        0.69638    0.59432    0.84496    1.000
    C119     C        0.53195    0.62231    0.34110    1.000
    C120     C        0.43748    0.62516    0.36440    1.000
    C121     C        0.16273    0.29217    0.48096    1.000
    C122     C        0.96881    0.68963    0.34882    1.000
    C123     C        0.78211    0.70505    0.32227    1.000
    C124     C        0.14460    0.66022    0.61305    1.000
    C125     C        0.98577    0.80321    0.77929    1.000
    C126     C        0.46992    0.77352    0.39976    1.000
    C127     C        0.17875    0.25521    0.43285    1.000
    C128     C        0.77352    0.46992    0.89976    1.000
    C129     C        0.13839    0.08721    0.47302    1.000
    C130     C        0.01665    0.88035    0.37716    1.000
    C131     C        0.68983    0.68667    0.81071    1.000
    C132     C        0.94213    0.89121    0.75894    1.000
    C133     C        0.70352    0.11244    0.02132    1.000
    C134     C        0.89121    0.94213    0.25894    1.000
    C135     C        0.96029    0.90599    0.29090    1.000
    C136     C        0.17003    0.41569    0.38963    1.000
    C137     C        0.78482    0.99284    0.33232    1.000
    C138     C        0.73896    0.05468    0.18352    1.000
    C139     C        0.70434    0.85394    0.78205    1.000
    C140     C        0.70194    0.40620    0.89374    1.000
    C141     C        0.09911    0.71789    0.57768    1.000
    C142     C        0.77124    0.56352    0.87508    1.000
    C143     C        0.18488    0.31976    0.38628    1.000
    C144     C        0.14573    0.18311    0.93100    1.000
    C145     C        0.79741    0.01083    0.14814    1.000
    C146     C        0.69870    0.80434    0.87565    1.000
    C147     C        0.89725    0.69241    0.38871    1.000
    C148     C        0.20632    0.01108    0.38654    1.000
    C149     C        0.05468    0.73896    0.68352    1.000
    C150     C        0.99284    0.78482    0.83232    1.000
    C151     C        0.30109    0.70295    0.41138    1.000
    C152     C        0.90599    0.96029    0.79090    1.000
    C153     C        0.94024    0.91098    0.34376    1.000
    C154     C        0.29217    0.16273    0.98096    1.000
    C155     C        0.31976    0.18488    0.88628    1.000
    C156     C        0.10627    0.21653    0.88644    1.000
    C157     C        0.03461    0.73341    0.74339    1.000
    C158     C        0.68963    0.96881    0.84882    1.000
    C159     C        0.01083    0.79741    0.64814    1.000
    C160     C        0.41569    0.17003    0.88963    1.000
    N5       N        0.45106    0.15102    0.93588    1.000
    N6       N        0.95315    0.16399    0.92796    1.000
    N7       N        0.15102    0.45106    0.43588    1.000
    N8       N        0.16399    0.95315    0.42796    1.000
    O21      O        0.61997    0.12533    0.00860    1.000
    O22      O        0.64825    0.12981    0.82697    1.000
    O23      O        0.06067    0.65729    0.76736    1.000
    O24      O        0.99783    0.86339    0.42606    1.000
    O25      O        0.12533    0.61997    0.50860    1.000
    O26      O        0.86543    0.10197    0.85425    1.000
    O27      O        0.78074    0.25020    0.90522    1.000
    O28      O        0.65962    0.68382    0.76849    1.000
    O29      O        0.65729    0.06067    0.26736    1.000
    O30      O        0.62009    0.26973    0.92775    1.000
    O31      O        0.10197    0.86543    0.35425    1.000
    O32      O        0.08874    0.68964    0.40642    1.000
    O33      O        0.68964    0.08874    0.90642    1.000
    O34      O        0.25020    0.78074    0.40522    1.000
    O35      O        0.12981    0.64825    0.32697    1.000
    O36      O        0.86339    0.99783    0.92606    1.000
    O37      O        0.68382    0.65962    0.26849    1.000
    O38      O        0.10954    0.78044    0.49027    1.000
    O39      O        0.26973    0.62009    0.42775    1.000
    O40      O        0.78044    0.10954    0.99027    1.000
