data_functionalizedCrystal
_audit_creation_method	'EQeq! by Chris Wilmer'
_symmetry_space_group_name_H-M	'P1'
_symmetry_Int_Tables_number	1
_symmetry_cell_setting	triclinic
loop_
_symmetry_equiv_pos_as_xyz
  x,y,z
_cell_length_a	14.072
_cell_length_b	14.5227
_cell_length_c	10.4461
_cell_angle_alpha	90
_cell_angle_beta	90
_cell_angle_gamma	90
loop_
_atom_site_label
_atom_site_type_symbol
_atom_site_fract_x
_atom_site_fract_y
_atom_site_fract_z
_atom_site_charge
Mof_Fe	Fe	0.89685	0.17004	0.71486	0.881
Mof_Fe	Fe	0.74631	0.53934	0.68215	0.891
Mof_Fe	Fe	0.61368	0.15153	0.65162	0.872
Mof_P 	P 	0.61543	0.3681	0.70201	0.444
Mof_P 	P 	0.89895	0.38537	0.65405	0.457
Mof_P 	P 	0.77657	0.58951	0.3973	0.475
Mof_P 	P 	0.78228	0.13863	0.45875	0.461
Mof_O 	O 	0.8554	0.4647	0.7281	-0.369
Mof_O 	O 	0.6469	0.4525	0.6257	-0.351
Mof_O 	O 	0.5187	0.3855	0.7617	-0.427
Mof_O 	O 	0.9027	0.3011	0.7366	-0.416
Mof_O 	O 	0.6983	0.096	0.5267	-0.376
Mof_O 	O 	0.6184	0.2826	0.6228	-0.405
Mof_O 	O 	0.873	0.1357	0.5377	-0.363
Mof_O 	O 	0.6861	0.614	0.3362	-0.476
Mof_O 	O 	0.9958	0.4109	0.6021	-0.423
Mof_O 	O 	0.7805	0.6138	0.5381	-0.372
Mof_O 	O 	0.8038	0.0939	0.3313	-0.433
Mof_O 	O 	0.865	0.624	0.3295	-0.446
Mof_H 	H 	0.68	0.358	0.814	-0.029
Mof_H 	H 	0.762	0.232	0.436	-0.033
Mof_H 	H 	0.837	0.367	0.556	-0.046
Mof_H 	H 	0.769	0.485	0.383	-0.013
Mof_Zn	Zn	0.39685	0.32996	0.71486	1.231
Mof_Zn	Zn	0.75369	0.03934	0.18215	1.24
Mof_Zn	Zn	0.11368	0.34847	0.65162	1.229
Mof_Fe	Fe	0.10315	0.82996	0.21486	0.892
Mof_Fe	Fe	0.25369	0.46066	0.18215	0.917
Mof_Fe	Fe	0.38632	0.84847	0.15162	0.883
Mof_P 	P 	0.38457	0.6319	0.20201	0.446
Mof_P 	P 	0.10105	0.61463	0.15405	0.46
Mof_P 	P 	0.22343	0.41049	0.8973	0.418
Mof_P 	P 	0.21772	0.86137	0.95875	0.35
Mof_O 	O 	0.1446	0.5353	0.2281	-0.356
Mof_O 	O 	0.3531	0.5475	0.1257	-0.333
Mof_O 	O 	0.4813	0.6145	0.2617	-0.412
Mof_O 	O 	0.0973	0.6989	0.2366	-0.408
Mof_O 	O 	0.3017	0.904	0.0267	-0.315
Mof_O 	O 	0.3816	0.7174	0.1228	-0.391
Mof_O 	O 	0.127	0.8643	0.0377	-0.304
Mof_O 	O 	0.3139	0.386	0.8362	-0.485
Mof_O 	O 	0.0042	0.5891	0.1021	-0.405
Mof_O 	O 	0.2195	0.3862	0.0381	-0.315
Mof_O 	O 	0.1962	0.9061	0.8313	-0.445
Mof_O 	O 	0.135	0.376	0.8295	-0.456
Mof_H 	H 	0.32	0.642	0.314	-0.018
Mof_H 	H 	0.238	0.768	0.936	-0.055
Mof_H 	H 	0.163	0.633	0.056	-0.028
Mof_H 	H 	0.231	0.515	0.883	-0.035
Mof_Zn	Zn	0.60315	0.67004	0.21486	1.234
Mof_Zn	Zn	0.24631	0.96066	0.68215	1.231
Mof_Zn	Zn	0.88632	0.65153	0.15162	1.232
Mof_P 	P 	0.11543	0.1319	0.70201	0.438
Mof_P 	P 	0.39895	0.11463	0.65405	0.455
Mof_P 	P 	0.27657	0.91049	0.3973	0.467
Mof_P 	P 	0.28228	0.36137	0.45875	0.451
Mof_O 	O 	0.3554	0.0353	0.7281	-0.428
Mof_O 	O 	0.1469	0.0475	0.6257	-0.406
Mof_O 	O 	0.0187	0.1145	0.7617	-0.36
Mof_O 	O 	0.4027	0.1989	0.7366	-0.471
Mof_O 	O 	0.1983	0.404	0.5267	-0.448
Mof_O 	O 	0.1184	0.2174	0.6228	-0.465
Mof_O 	O 	0.373	0.3643	0.5377	-0.433
Mof_O 	O 	0.1861	0.886	0.3362	-0.4
Mof_O 	O 	0.4958	0.0891	0.6021	-0.356
Mof_O 	O 	0.2805	0.8862	0.5381	-0.444
Mof_O 	O 	0.3038	0.4061	0.3313	-0.362
Mof_O 	O 	0.365	0.876	0.3295	-0.374
Mof_H 	H 	0.18	0.142	0.814	-0.043
Mof_H 	H 	0.262	0.268	0.436	-0.039
Mof_H 	H 	0.337	0.133	0.556	-0.06
Mof_H 	H 	0.269	0.015	0.383	-0.012
Mof_P 	P 	0.88457	0.8681	0.20201	0.438
Mof_P 	P 	0.60105	0.88537	0.15405	0.457
Mof_P 	P 	0.72343	0.08951	0.8973	0.42
Mof_P 	P 	0.71772	0.63863	0.95875	0.341
Mof_O 	O 	0.6446	0.9647	0.2281	-0.418
Mof_O 	O 	0.8531	0.9525	0.1257	-0.39
Mof_O 	O 	0.9813	0.8855	0.2617	-0.349
Mof_O 	O 	0.5973	0.8011	0.2366	-0.461
Mof_O 	O 	0.8017	0.596	0.0267	-0.383
Mof_O 	O 	0.8816	0.7826	0.1228	-0.449
Mof_O 	O 	0.627	0.6357	0.0377	-0.371
Mof_O 	O 	0.8139	0.114	0.8362	-0.405
Mof_O 	O 	0.5042	0.9109	0.1021	-0.341
Mof_O 	O 	0.7195	0.1138	0.0381	-0.382
Mof_O 	O 	0.6962	0.5939	0.8313	-0.366
Mof_O 	O 	0.635	0.124	0.8295	-0.38
Mof_H 	H 	0.82	0.858	0.314	-0.033
Mof_H 	H 	0.738	0.732	0.936	-0.06
Mof_H 	H 	0.663	0.867	0.056	-0.042
Mof_H 	H 	0.731	0.985	0.883	-0.041
_end
