data_functionalizedCrystal
_audit_creation_method	'EQeq! by Chris Wilmer'
_symmetry_space_group_name_H-M	'P1'
_symmetry_Int_Tables_number	1
_symmetry_cell_setting	triclinic
loop_
_symmetry_equiv_pos_as_xyz
  x,y,z
_cell_length_a	6.1008
_cell_length_b	7.5802
_cell_length_c	28.044
_cell_angle_alpha	90
_cell_angle_beta	90
_cell_angle_gamma	90
loop_
_atom_site_label
_atom_site_type_symbol
_atom_site_fract_x
_atom_site_fract_y
_atom_site_fract_z
_atom_site_charge
Mof_Pr	Pr	0.56822	0.90185	0.66889	2.665
Mof_Pr	Pr	0.56822	0.09815	0.33111	2.665
Mof_Pr	Pr	0.43178	0.59815	0.16889	2.718
Mof_Pr	Pr	0.43178	0.40185	0.83111	2.718
Mof_H 	H 	0.4716	0.5382	0.6357	0.246
Mof_H 	H 	0.1459	0.467	0.6452	0.012
Mof_H 	H 	0.2851	0.6272	0.7511	0.269
Mof_H 	H 	0.0459	0.371	0.719	0.02
Mof_H 	H 	0.7033	0.8441	0.4999	0.084
Mof_H 	H 	0.4412	0.843	0.4992	0.089
Mof_H 	H 	0.4716	0.4618	0.3643	0.246
Mof_H 	H 	0.1459	0.533	0.3548	0.012
Mof_H 	H 	0.2851	0.3728	0.2489	0.269
Mof_H 	H 	0.0459	0.629	0.281	0.02
Mof_H 	H 	0.7033	0.1559	0.5001	0.084
Mof_H 	H 	0.4412	0.157	0.5008	0.089
Mof_H 	H 	0.5284	0.9618	0.1357	0.256
Mof_H 	H 	0.8541	0.033	0.1452	-0.021
Mof_H 	H 	0.7149	0.8728	0.2511	0.26
Mof_H 	H 	0.9541	0.129	0.219	0.034
Mof_H 	H 	0.2967	0.6559	0.9999	0.082
Mof_H 	H 	0.5588	0.657	0.9992	0.089
Mof_H 	H 	0.5284	0.0382	0.8643	0.256
Mof_H 	H 	0.8541	0.967	0.8548	-0.021
Mof_H 	H 	0.7149	0.1272	0.7489	0.26
Mof_H 	H 	0.9541	0.871	0.781	0.034
Mof_H 	H 	0.2967	0.3441	0.0001	0.082
Mof_H 	H 	0.5588	0.343	0.0008	0.089
Mof_C 	C 	0.0717	0.7106	0.6752	0.429
Mof_C 	C 	0.205	0.54	0.672	0.002
Mof_C 	C 	0.1909	0.4325	0.7181	0.015
Mof_C 	C 	0.3728	0.2932	0.7168	0.432
Mof_C 	C 	0.5682	0.91	0.5646	0.322
Mof_C 	C 	0.571	0.9081	0.5108	-0.195
Mof_C 	C 	0.0717	0.2894	0.3248	0.429
Mof_C 	C 	0.205	0.46	0.328	0.002
Mof_C 	C 	0.1909	0.5675	0.2819	0.015
Mof_C 	C 	0.3728	0.7068	0.2832	0.432
Mof_C 	C 	0.5682	0.09	0.4354	0.322
Mof_C 	C 	0.571	0.0919	0.4892	-0.195
Mof_C 	C 	0.9283	0.7894	0.1752	0.418
Mof_C 	C 	0.795	0.96	0.172	0.07
Mof_C 	C 	0.8091	0.0675	0.2181	-0.051
Mof_C 	C 	0.6272	0.2068	0.2168	0.447
Mof_C 	C 	0.4318	0.59	0.0646	0.338
Mof_C 	C 	0.429	0.5919	0.0108	-0.198
Mof_C 	C 	0.9283	0.2106	0.8248	0.418
Mof_C 	C 	0.795	0.04	0.828	0.07
Mof_C 	C 	0.8091	0.9325	0.7819	-0.051
Mof_C 	C 	0.6272	0.7932	0.7832	0.447
Mof_C 	C 	0.4318	0.41	0.9354	0.338
Mof_C 	C 	0.429	0.4081	0.9892	-0.198
Mof_O 	O 	0.1724	0.854	0.6716	-0.578
Mof_O 	O 	0.8674	0.6953	0.6809	-0.562
Mof_O 	O 	0.4268	0.5876	0.66111	-0.576
Mof_O 	O 	0.2125	0.537	0.75972	-0.581
Mof_O 	O 	0.3745	0.186	0.68284	-0.548
Mof_O 	O 	0.509	0.294	0.7506	-0.581
Mof_O 	O 	0.6787	0.7958	0.5862	-0.507
Mof_O 	O 	0.453	0.0225	0.5866	-0.472
Mof_O 	O 	0.1724	0.146	0.3284	-0.578
Mof_O 	O 	0.8674	0.3047	0.3191	-0.562
Mof_O 	O 	0.4268	0.4124	0.33889	-0.576
Mof_O 	O 	0.2125	0.463	0.24028	-0.581
Mof_O 	O 	0.3745	0.814	0.31716	-0.548
Mof_O 	O 	0.509	0.706	0.2494	-0.581
Mof_O 	O 	0.6787	0.2042	0.4138	-0.507
Mof_O 	O 	0.453	0.9775	0.4134	-0.472
Mof_O 	O 	0.8276	0.646	0.1716	-0.572
Mof_O 	O 	0.1326	0.8047	0.1809	-0.559
Mof_O 	O 	0.5732	0.9124	0.16111	-0.593
Mof_O 	O 	0.7875	0.963	0.25972	-0.537
Mof_O 	O 	0.6255	0.314	0.18284	-0.568
Mof_O 	O 	0.491	0.206	0.2506	-0.591
Mof_O 	O 	0.3213	0.7042	0.0862	-0.514
Mof_O 	O 	0.547	0.4775	0.0866	-0.493
Mof_O 	O 	0.8276	0.354	0.8284	-0.572
Mof_O 	O 	0.1326	0.1953	0.8191	-0.559
Mof_O 	O 	0.5732	0.0876	0.83889	-0.593
Mof_O 	O 	0.7875	0.037	0.74028	-0.537
Mof_O 	O 	0.6255	0.686	0.81716	-0.568
Mof_O 	O 	0.491	0.794	0.7494	-0.591
Mof_O 	O 	0.3213	0.2958	0.9138	-0.514
Mof_O 	O 	0.547	0.5225	0.9134	-0.493
_end
