# CIF file generated by openbabel 3.1.0, see https://openbabel.org
data_I
_chemical_name_common 'image0'
_cell_length_a 17.3778
_cell_length_b 11.6404
_cell_length_c 18.3475
_cell_angle_alpha 90
_cell_angle_beta 110.413
_cell_angle_gamma 90
_space_group_name_H-M_alt 'P 1'
_space_group_name_Hall 'P 1'
loop_
    _symmetry_equiv_pos_as_xyz
    x,y,z
loop_
    _atom_site_label
    _atom_site_type_symbol
    _atom_site_fract_x
    _atom_site_fract_y
    _atom_site_fract_z
    _atom_site_occupancy
    Tb1      Tb       0.00103    0.91691    0.40541    1.000
    Tb2      Tb       0.49766    0.56926    0.60114    1.000
    S1       S        0.25036    0.79523    0.41038    1.000
    S2       S        0.24412    0.70701    0.61034    1.000
    S3       S        0.26399    0.27363    0.55926    1.000
    O1       O        0.10109    0.93390    0.35161    1.000
    O2       O        0.40481    0.58300    0.66402    1.000
    O3       O        0.40761    0.41400    0.55876    1.000
    O4       O        0.40391    0.53700    0.78163    1.000
    O5       O        0.07810    0.90960    0.22526    1.000
    O6       O        0.08026    0.05270    0.49489    1.000
    O7       O        0.07064    0.90840    0.62462    1.000
    O8       O        0.42418    0.56860    0.43392    1.000
    O9       O        0.42104    0.32850    0.45394    1.000
    O10      O        0.08231    0.82060    0.51974    1.000
    C1       C        0.11630    0.88820    0.29440    1.000
    O11      O        0.39592    0.68690    0.51591    1.000
    C2       C        0.37490    0.58740    0.71650    1.000
    C3       C        0.18650    0.80730    0.31500    1.000
    O12      O        0.11692    0.18320    0.58770    1.000
    C4       C        0.38940    0.34010    0.50580    1.000
    C5       C        0.29840    0.65360    0.70170    1.000
    C6       C        0.20140    0.16100    0.51240    1.000
    C7       C        0.19300    0.75390    0.72260    1.000
    H1       H        0.16280    0.78420    0.75110    1.000
    C8       C        0.26350    0.68460    0.75510    1.000
    H2       H        0.28390    0.66250    0.80710    1.000
    C9       C        0.10360    0.83890    0.59210    1.000
    C10      C        0.32280    0.25810    0.50140    1.000
    C11      C        0.17420    0.77140    0.64480    1.000
    C12      C        0.12910    0.13100    0.53250    1.000
    C13      C        0.22630    0.11350    0.45550    1.000
    H3       H        0.20010    0.05180    0.42460    1.000
    C14      C        0.38090    0.64700    0.44850    1.000
    C15      C        0.28020    0.67090    0.30790    1.000
    H4       H        0.30450    0.61850    0.28440    1.000
    C16      C        0.29550    0.16880    0.44970    1.000
    H5       H        0.32050    0.14730    0.41440    1.000
    C17      C        0.30890    0.69380    0.38580    1.000
    C18      C        0.20910    0.73590    0.26690    1.000
    H6       H        0.18120    0.73050    0.21360    1.000
    Tb3      Tb       0.99897    0.91691    0.09459    1.000
    Tb4      Tb       0.50234    0.56926    0.89886    1.000
    S4       S        0.74964    0.79523    0.08962    1.000
    S5       S        0.75588    0.70701    0.88966    1.000
    S6       S        0.73601    0.27363    0.94074    1.000
    O13      O        0.89891    0.93390    0.14839    1.000
    O14      O        0.59519    0.58300    0.83598    1.000
    O15      O        0.59239    0.41400    0.94124    1.000
    O16      O        0.59609    0.53700    0.71837    1.000
    O17      O        0.92190    0.90960    0.27474    1.000
    O18      O        0.91974    0.05270    0.00511    1.000
    O19      O        0.92936    0.90840    0.87538    1.000
    O20      O        0.57582    0.56860    0.06608    1.000
    O21      O        0.57896    0.32850    0.04606    1.000
    O22      O        0.91769    0.82060    0.98026    1.000
    C19      C        0.88370    0.88820    0.20560    1.000
    O23      O        0.60408    0.68690    0.98409    1.000
    C20      C        0.62510    0.58740    0.78350    1.000
    C21      C        0.81350    0.80730    0.18500    1.000
    O24      O        0.88308    0.18320    0.91230    1.000
    C22      C        0.61060    0.34010    0.99420    1.000
    C23      C        0.70160    0.65360    0.79830    1.000
    C24      C        0.79860    0.16100    0.98760    1.000
    C25      C        0.80700    0.75390    0.77740    1.000
    H7       H        0.83720    0.78420    0.74890    1.000
    C26      C        0.73650    0.68460    0.74490    1.000
    H8       H        0.71610    0.66250    0.69290    1.000
    C27      C        0.89640    0.83890    0.90790    1.000
    C28      C        0.67720    0.25810    0.99860    1.000
    C29      C        0.82580    0.77140    0.85520    1.000
    C30      C        0.87090    0.13100    0.96750    1.000
    C31      C        0.77370    0.11350    0.04450    1.000
    H9       H        0.79990    0.05180    0.07540    1.000
    C32      C        0.61910    0.64700    0.05150    1.000
    C33      C        0.71980    0.67090    0.19210    1.000
    H10      H        0.69550    0.61850    0.21560    1.000
    C34      C        0.70450    0.16880    0.05030    1.000
    H11      H        0.67950    0.14730    0.08560    1.000
    C35      C        0.69110    0.69380    0.11420    1.000
    C36      C        0.79090    0.73590    0.23310    1.000
    H12      H        0.81880    0.73050    0.28640    1.000
    Tb5      Tb       0.99897    0.08309    0.59459    1.000
    Tb6      Tb       0.50234    0.43074    0.39886    1.000
    S7       S        0.74964    0.20477    0.58962    1.000
    S8       S        0.75588    0.29299    0.38966    1.000
    S9       S        0.73601    0.72637    0.44074    1.000
    O25      O        0.89891    0.06610    0.64839    1.000
    O26      O        0.59519    0.41700    0.33598    1.000
    O27      O        0.59239    0.58600    0.44124    1.000
    O28      O        0.59609    0.46300    0.21837    1.000
    O29      O        0.92190    0.09040    0.77474    1.000
    O30      O        0.91974    0.94730    0.50511    1.000
    O31      O        0.92936    0.09160    0.37538    1.000
    O32      O        0.57582    0.43140    0.56608    1.000
    O33      O        0.57896    0.67150    0.54606    1.000
    O34      O        0.91769    0.17940    0.48026    1.000
    C37      C        0.88370    0.11180    0.70560    1.000
    O35      O        0.60408    0.31310    0.48409    1.000
    C38      C        0.62510    0.41260    0.28350    1.000
    C39      C        0.81350    0.19270    0.68500    1.000
    O36      O        0.88308    0.81680    0.41230    1.000
    C40      C        0.61060    0.65990    0.49420    1.000
    C41      C        0.70160    0.34640    0.29830    1.000
    C42      C        0.79860    0.83900    0.48760    1.000
    C43      C        0.80700    0.24610    0.27740    1.000
    H13      H        0.83720    0.21580    0.24890    1.000
    C44      C        0.73650    0.31540    0.24490    1.000
    H14      H        0.71610    0.33750    0.19290    1.000
    C45      C        0.89640    0.16110    0.40790    1.000
    C46      C        0.67720    0.74190    0.49860    1.000
    C47      C        0.82580    0.22860    0.35520    1.000
    C48      C        0.87090    0.86900    0.46750    1.000
    C49      C        0.77370    0.88650    0.54450    1.000
    H15      H        0.79990    0.94820    0.57540    1.000
    C50      C        0.61910    0.35300    0.55150    1.000
    C51      C        0.71980    0.32910    0.69210    1.000
    H16      H        0.69550    0.38150    0.71560    1.000
    C52      C        0.70450    0.83120    0.55030    1.000
    H17      H        0.67950    0.85270    0.58560    1.000
    C53      C        0.69110    0.30620    0.61420    1.000
    C54      C        0.79090    0.26410    0.73310    1.000
    H18      H        0.81880    0.26950    0.78640    1.000
    Tb7      Tb       0.00103    0.08309    0.90541    1.000
    Tb8      Tb       0.49766    0.43074    0.10114    1.000
    S10      S        0.25036    0.20477    0.91038    1.000
    S11      S        0.24412    0.29299    0.11034    1.000
    S12      S        0.26399    0.72637    0.05926    1.000
    O37      O        0.10109    0.06610    0.85161    1.000
    O38      O        0.40481    0.41700    0.16402    1.000
    O39      O        0.40761    0.58600    0.05876    1.000
    O40      O        0.40391    0.46300    0.28163    1.000
    O41      O        0.07810    0.09040    0.72526    1.000
    O42      O        0.08026    0.94730    0.99489    1.000
    O43      O        0.07064    0.09160    0.12462    1.000
    O44      O        0.42418    0.43140    0.93392    1.000
    O45      O        0.42104    0.67150    0.95394    1.000
    O46      O        0.08231    0.17940    0.01974    1.000
    C55      C        0.11630    0.11180    0.79440    1.000
    O47      O        0.39592    0.31310    0.01591    1.000
    C56      C        0.37490    0.41260    0.21650    1.000
    C57      C        0.18650    0.19270    0.81500    1.000
    O48      O        0.11692    0.81680    0.08770    1.000
    C58      C        0.38940    0.65990    0.00580    1.000
    C59      C        0.29840    0.34640    0.20170    1.000
    C60      C        0.20140    0.83900    0.01240    1.000
    C61      C        0.19300    0.24610    0.22260    1.000
    H19      H        0.16280    0.21580    0.25110    1.000
    C62      C        0.26350    0.31540    0.25510    1.000
    H20      H        0.28390    0.33750    0.30710    1.000
    C63      C        0.10360    0.16110    0.09210    1.000
    C64      C        0.32280    0.74190    0.00140    1.000
    C65      C        0.17420    0.22860    0.14480    1.000
    C66      C        0.12910    0.86900    0.03250    1.000
    C67      C        0.22630    0.88650    0.95550    1.000
    H21      H        0.20010    0.94820    0.92460    1.000
    C68      C        0.38090    0.35300    0.94850    1.000
    C69      C        0.28020    0.32910    0.80790    1.000
    H22      H        0.30450    0.38150    0.78440    1.000
    C70      C        0.29550    0.83120    0.94970    1.000
    H23      H        0.32050    0.85270    0.91440    1.000
    C71      C        0.30890    0.30620    0.88580    1.000
    C72      C        0.20910    0.26410    0.76690    1.000
    H24      H        0.18120    0.26950    0.71360    1.000
