data_functionalizedCrystal
_audit_creation_method	'EQeq! by Chris Wilmer'
_symmetry_space_group_name_H-M	'P1'
_symmetry_Int_Tables_number	1
_symmetry_cell_setting	triclinic
loop_
_symmetry_equiv_pos_as_xyz
  x,y,z
_cell_length_a	6.9816
_cell_length_b	15.9669
_cell_length_c	15.9669
_cell_angle_alpha	62.0867
_cell_angle_beta	81.6192
_cell_angle_gamma	98.3808
loop_
_atom_site_label
_atom_site_type_symbol
_atom_site_fract_x
_atom_site_fract_y
_atom_site_fract_z
_atom_site_charge
Mof_Ho	Ho	0.28915	0.06431	0.84704	2.054
Mof_Ho	Ho	0.13619	0.84704	0.08865	1.989
Mof_Ho	Ho	0.22484	0.08865	0.06431	2.187
Mof_Ho	Ho	0.71085	0.93569	0.15296	1.915
Mof_Ho	Ho	0.86381	0.15296	0.91135	1.965
Mof_Ho	Ho	0.77516	0.91135	0.93569	1.847
Mof_Cu	Cu	0.5	0	0.5	0.914
Mof_Cu	Cu	-3.76772e-17	0.5	0.5	0.882
Mof_Cu	Cu	0.5	0.5	-0	0.915
Mof_H 	H 	0.8458	0.91	0.5778	0.038
Mof_H 	H 	0.9588	0.8755	0.7161	-0.012
Mof_H 	H 	0.4236	0.5778	0.5122	0.044
Mof_H 	H 	0.6749	0.7161	0.4084	-0.006
Mof_H 	H 	0.9358	0.5122	0.91	0.043
Mof_H 	H 	0.0833	0.4084	0.8755	-0.031
Mof_H 	H 	0.1542	0.09	0.4222	0.051
Mof_H 	H 	0.0412	0.1245	0.2839	-0.006
Mof_H 	H 	0.5764	0.4222	0.4878	0.047
Mof_H 	H 	0.3251	0.2839	0.5916	-0.008
Mof_H 	H 	0.0642	0.4878	0.09	0.04
Mof_H 	H 	0.9167	0.5916	0.1245	0.03
Mof_C 	C 	0.6145	0.9699	0.7574	0.32
Mof_C 	C 	0.5406	0.987	0.6743	-0.28
Mof_C 	C 	0.7836	0.9242	0.6235	-0.065
Mof_C 	C 	0.8519	0.9045	0.7061	0.083
Mof_C 	C 	0.3665	0.029	0.65	0.483
Mof_C 	C 	0.3719	0.7574	0.2727	0.299
Mof_C 	C 	0.2149	0.6743	0.3387	-0.204
Mof_C 	C 	0.4071	0.6235	0.4523	-0.056
Mof_C 	C 	0.558	0.7061	0.3894	0.085
Mof_C 	C 	0.0165	0.65	0.321	0.375
Mof_C 	C 	0.6446	0.2727	0.9699	0.327
Mof_C 	C 	0.5536	0.3387	0.987	-0.293
Mof_C 	C 	0.8594	0.4523	0.9242	-0.078
Mof_C 	C 	0.9474	0.3894	0.9045	0.109
Mof_C 	C 	0.3375	0.321	0.029	0.5
Mof_C 	C 	0.3855	0.0301	0.2426	0.291
Mof_C 	C 	0.4594	0.013	0.3257	-0.139
Mof_C 	C 	0.2164	0.0758	0.3765	-0.049
Mof_C 	C 	0.1481	0.0955	0.2939	0.098
Mof_C 	C 	0.6335	0.971	0.35	0.346
Mof_C 	C 	0.6281	0.2426	0.7273	0.312
Mof_C 	C 	0.7851	0.3257	0.6613	-0.219
Mof_C 	C 	0.5929	0.3765	0.5477	-0.057
Mof_C 	C 	0.442	0.2939	0.6106	0.094
Mof_C 	C 	0.9835	0.35	0.679	0.452
Mof_C 	C 	0.3554	0.7273	0.0301	0.288
Mof_C 	C 	0.4464	0.6613	0.013	-0.144
Mof_C 	C 	0.1406	0.5477	0.0758	-0.026
Mof_C 	C 	0.0526	0.6106	0.0955	0.046
Mof_C 	C 	0.6625	0.679	0.971	0.352
Mof_N 	N 	0.76926	0.92606	0.77188	-0.279
Mof_N 	N 	0.6276	0.9637	0.6102	-0.171
Mof_N 	N 	0.54114	0.77188	0.30206	-0.274
Mof_N 	N 	0.2378	0.6102	0.4261	-0.169
Mof_N 	N 	0.8432	0.30206	0.92606	-0.29
Mof_N 	N 	0.6639	0.4261	0.9637	-0.167
Mof_N 	N 	0.23074	0.07394	0.22812	-0.277
Mof_N 	N 	0.3724	0.0363	0.3898	-0.167
Mof_N 	N 	0.45886	0.22812	0.69794	-0.28
Mof_N 	N 	0.7622	0.3898	0.5739	-0.16
Mof_N 	N 	0.1568	0.69794	0.07394	-0.263
Mof_N 	N 	0.3361	0.5739	0.0363	-0.171
Mof_O 	O 	0.54781	0.99116	0.82273	-0.621
Mof_O 	O 	0.27046	0.05082	0.70554	-0.482
Mof_O 	O 	0.3235	0.0409	0.5713	-0.432
Mof_O 	O 	0.20406	0.17334	0.90186	-0.751
Mof_O 	O 	0.37054	0.82273	0.18611	-0.588
Mof_O 	O 	0.976	0.70554	0.24364	-0.448
Mof_O 	O 	0.8948	0.5713	0.3878	-0.409
Mof_O 	O 	0.10592	0.90186	0.9248	-0.743
Mof_O 	O 	0.55665	0.18611	0.99116	-0.64
Mof_O 	O 	0.21964	0.24364	0.05082	-0.495
Mof_O 	O 	0.2826	0.3878	0.0409	-0.436
Mof_O 	O 	0.03072	0.9248	0.17334	-0.755
Mof_O 	O 	0.45219	0.00884	0.17727	-0.543
Mof_O 	O 	0.72954	0.94918	0.29446	-0.475
Mof_O 	O 	0.6765	0.9591	0.4287	-0.445
Mof_O 	O 	0.79594	0.82666	0.09814	-0.67
Mof_O 	O 	0.62946	0.17727	0.81389	-0.585
Mof_O 	O 	0.024	0.29446	0.75636	-0.496
Mof_O 	O 	0.1052	0.4287	0.6122	-0.451
Mof_O 	O 	0.89408	0.09814	0.0752	-0.657
Mof_O 	O 	0.44335	0.81389	0.00884	-0.545
Mof_O 	O 	0.78036	0.75636	0.94918	-0.466
Mof_O 	O 	0.7174	0.6122	0.9591	-0.445
Mof_O 	O 	0.96928	0.0752	0.82666	-0.676
Mof_O 	O 	0.32017	0	-0	-0.796
Mof_O 	O 	0.67983	0	-0	-0.734
Mof_O 	O 	-0	0	-0	-0.696
_end
