data_functionalizedCrystal
_audit_creation_method	'EQeq! by Chris Wilmer'
_symmetry_space_group_name_H-M	'P1'
_symmetry_Int_Tables_number	1
_symmetry_cell_setting	triclinic
loop_
_symmetry_equiv_pos_as_xyz
  x,y,z
_cell_length_a	5.6339
_cell_length_b	15.9428
_cell_length_c	9.6183
_cell_angle_alpha	90
_cell_angle_beta	91.1156
_cell_angle_gamma	90
loop_
_atom_site_label
_atom_site_type_symbol
_atom_site_fract_x
_atom_site_fract_y
_atom_site_fract_z
_atom_site_charge
Mof_Cd	Cd	0.29808	0.33175	0.93741	0.514
Mof_P 	P 	0.3075	0.19603	0.6501	0.531
Mof_O 	O 	0.3638	0.2262	0.7973	-0.237
Mof_O 	O 	0.4921	0.2244	0.5484	-0.249
Mof_O 	O 	0.0562	0.2196	0.6074	-0.228
Mof_O 	O 	0.3131	0.0963	0.6579	-0.417
Mof_H 	H 	0.448	0.0796	0.6434	0.298
Mof_O 	O 	0.5759	0.4288	0.8684	-0.218
Mof_O 	O 	0.7457	0.5497	0.928	-0.247
Mof_C 	C 	0.5924	0.4939	0.9411	0.251
Mof_Cd	Cd	0.20192	0.83175	0.56259	0.515
Mof_P 	P 	0.1925	0.69603	0.8499	0.532
Mof_O 	O 	0.1362	0.7262	0.7027	-0.236
Mof_O 	O 	0.0079	0.7244	0.9516	-0.249
Mof_O 	O 	0.4438	0.7196	0.8926	-0.227
Mof_O 	O 	0.1869	0.5963	0.8421	-0.417
Mof_H 	H 	0.052	0.5796	0.8566	0.297
Mof_O 	O 	0.9241	0.9288	0.6316	-0.218
Mof_O 	O 	0.7543	0.0497	0.572	-0.248
Mof_C 	C 	0.9076	0.9939	0.5589	0.251
Mof_Cd	Cd	0.70192	0.66825	0.06259	0.515
Mof_P 	P 	0.6925	0.80397	0.3499	0.532
Mof_O 	O 	0.6362	0.7738	0.2027	-0.236
Mof_O 	O 	0.5079	0.7756	0.4516	-0.248
Mof_O 	O 	0.9438	0.7804	0.3926	-0.228
Mof_O 	O 	0.6869	0.9037	0.3421	-0.417
Mof_H 	H 	0.552	0.9204	0.3566	0.298
Mof_O 	O 	0.4241	0.5712	0.1316	-0.218
Mof_O 	O 	0.2543	0.4503	0.072	-0.247
Mof_C 	C 	0.4076	0.5061	0.0589	0.251
Mof_Cd	Cd	0.79808	0.16825	0.43741	0.515
Mof_P 	P 	0.8075	0.30397	0.1501	0.532
Mof_O 	O 	0.8638	0.2738	0.2973	-0.236
Mof_O 	O 	0.9921	0.2756	0.0484	-0.249
Mof_O 	O 	0.5562	0.2804	0.1074	-0.227
Mof_O 	O 	0.8131	0.4037	0.1579	-0.417
Mof_H 	H 	0.948	0.4204	0.1434	0.297
Mof_O 	O 	0.0759	0.0712	0.3684	-0.218
Mof_O 	O 	0.2457	0.9503	0.428	-0.248
Mof_C 	C 	0.0924	0.0061	0.4411	0.251
_end
