data_functionalizedCrystal
_audit_creation_method	'EQeq! by Chris Wilmer'
_symmetry_space_group_name_H-M	'P1'
_symmetry_Int_Tables_number	1
_symmetry_cell_setting	triclinic
loop_
_symmetry_equiv_pos_as_xyz
  x,y,z
_cell_length_a	13.1897
_cell_length_b	16.438
_cell_length_c	15.4725
_cell_angle_alpha	90
_cell_angle_beta	102.345
_cell_angle_gamma	90
loop_
_atom_site_label
_atom_site_type_symbol
_atom_site_fract_x
_atom_site_fract_y
_atom_site_fract_z
_atom_site_charge
Mof_V 	V 	0.34037	0.83342	0.8519	1.711
Mof_V 	V 	0.78198	0.9958	0.12255	1.714
Mof_Zn	Zn	0.49027	0.80492	0.07205	1.133
Mof_V 	V 	0.7256	0.83974	0.24685	1.734
Mof_C 	C 	0.3749	0.0768	0.4094	0.091
Mof_H 	H 	0.3653	0.0187	0.4152	-0.026
Mof_H 	H 	0.3144	0.104	0.4219	-0.011
Mof_C 	C 	0.0979	0.1354	0.4729	0.063
Mof_H 	H 	0.1468	0.1645	0.5134	-0.056
Mof_C 	C 	0.2881	0.7954	0.1324	0.124
Mof_H 	H 	0.2646	0.7863	0.0721	-0.049
Mof_C 	C 	0.4285	0.3236	0.5324	0.101
Mof_H 	H 	0.3892	0.352	0.5657	-0.053
Mof_C 	C 	0.113	0.0532	0.4642	-0.165
Mof_H 	H 	0.1711	0.0281	0.4985	0.042
Mof_C 	C 	0.9477	0.1315	0.3678	0.099
Mof_H 	H 	0.8906	0.158	0.3338	-0.048
Mof_C 	C 	0.1703	0.8146	0.3327	-0.239
Mof_H 	H 	0.2015	0.7958	0.3918	0.056
Mof_H 	H 	0.1102	0.781	0.3095	0.042
Mof_C 	C 	0.9575	0.0497	0.3561	-0.13
Mof_H 	H 	0.9071	0.022	0.3154	0.035
Mof_C 	C 	0.1377	0.904	0.3354	-0.013
Mof_H 	H 	0.1989	0.9367	0.3579	0.04
Mof_H 	H 	0.1084	0.9221	0.2756	0.034
Mof_C 	C 	0.1102	0.0719	0.1809	0.136
Mof_H 	H 	0.044	0.091	0.1817	-0.048
Mof_C 	C 	0.4222	0.24	0.5305	-0.202
Mof_H 	H 	0.3783	0.2134	0.561	0.043
Mof_C 	C 	0.2165	0.7974	0.184	-0.242
Mof_H 	H 	0.1465	0.791	0.1584	0.104
Mof_C 	C 	0.546	0.3234	0.4429	0.098
Mof_H 	H 	0.588	0.3516	0.4119	-0.069
Mof_C 	C 	0.4196	0.8182	0.2499	0.141
Mof_H 	H 	0.4899	0.8264	0.2735	-0.099
Mof_C 	C 	0.3014	0.0159	0.1809	-0.372
Mof_H 	H 	0.3665	0.995	0.179	0.078
Mof_C 	C 	0.3829	0.0956	0.315	-0.319
Mof_H 	H 	0.3915	0.1538	0.3094	0.096
Mof_H 	H 	0.4445	0.0694	0.3033	0.055
Mof_C 	C 	0.2166	0.9934	0.1178	0.202
Mof_H 	H 	0.2261	0.9565	0.0746	-0.137
Mof_C 	C 	0.1905	0.0966	0.247	-0.274
Mof_H 	H 	0.1788	0.1313	0.2913	0.125
Mof_C 	C 	0.3524	0.8198	0.306	-0.251
Mof_H 	H 	0.3776	0.8282	0.3662	0.105
Mof_C 	C 	0.4732	0.1042	0.4787	-0.296
Mof_H 	H 	0.5347	0.0818	0.4628	0.083
Mof_H 	H 	0.4694	0.0833	0.5365	0.079
Mof_C 	C 	0.5458	0.239	0.4398	-0.226
Mof_H 	H 	0.5887	0.2118	0.4089	0.057
Mof_C 	C 	0.059	0.9183	0.3926	-0.191
Mof_H 	H 	0.9937	0.8927	0.3652	0.057
Mof_H 	H 	0.0836	0.8934	0.4501	0.058
Mof_N 	N 	0.3894	0.8055	0.1628	-0.302
Mof_N 	N 	0.1211	0.0213	0.1147	-0.309
Mof_C 	C 	0.4816	0.1951	0.4829	0.16
Mof_N 	N 	0.4883	0.3663	0.4889	-0.254
Mof_C 	C 	0.291	0.0688	0.2467	0.225
Mof_C 	C 	0.2474	0.8089	0.2738	0.185
Mof_N 	N 	0.016	0.1755	0.4256	-0.292
Mof_C 	C 	0.0415	0.0076	0.4043	0.058
Mof_O 	O 	0.3661	0.80805	0.958	-0.836
Mof_O 	O 	0.6232	0.8138	0.1706	-0.874
Mof_O 	O 	0.3037	0.7481	0.7816	-0.903
Mof_O 	O 	0.887	0.00119	0.0795	-0.738
Mof_O 	O 	0.7987	0.91664	0.2028	-0.91
Mof_O 	O 	0.2371	0.90788	0.8301	-0.903
Mof_V 	V 	0.15963	0.33342	0.6481	1.707
Mof_V 	V 	0.71802	0.4958	0.37745	1.716
Mof_Zn	Zn	0.00973	0.30492	0.42795	1.133
Mof_V 	V 	0.7744	0.33974	0.25315	1.736
Mof_C 	C 	0.1251	0.5768	0.0906	0.115
Mof_H 	H 	0.1347	0.5187	0.0848	-0.032
Mof_H 	H 	0.1856	0.604	0.0781	-0.02
Mof_C 	C 	0.4021	0.6354	0.0271	0.02
Mof_H 	H 	0.3532	0.6645	0.9866	-0.018
Mof_C 	C 	0.2119	0.2954	0.3676	0.122
Mof_H 	H 	0.2354	0.2863	0.4279	-0.039
Mof_C 	C 	0.0715	0.8236	0.9676	0.124
Mof_H 	H 	0.1108	0.852	0.9343	-0.055
Mof_C 	C 	0.387	0.5532	0.0358	-0.17
Mof_H 	H 	0.3289	0.5281	0.0015	0.043
Mof_C 	C 	0.5523	0.6315	0.1322	0.088
Mof_H 	H 	0.6094	0.658	0.1662	-0.051
Mof_C 	C 	0.3297	0.3146	0.1673	-0.255
Mof_H 	H 	0.2985	0.2958	0.1082	0.056
Mof_H 	H 	0.3898	0.281	0.1905	0.049
Mof_C 	C 	0.5425	0.5497	0.1439	-0.202
Mof_H 	H 	0.5929	0.522	0.1846	0.056
Mof_C 	C 	0.3623	0.404	0.1646	0.019
Mof_H 	H 	0.3011	0.4367	0.1421	0.019
Mof_H 	H 	0.3916	0.4221	0.2244	0.022
Mof_C 	C 	0.3898	0.5719	0.3191	0.115
Mof_H 	H 	0.456	0.591	0.3183	-0.026
Mof_C 	C 	0.0778	0.74	0.9695	-0.174
Mof_H 	H 	0.1217	0.7134	0.939	0.038
Mof_C 	C 	0.2835	0.2974	0.316	-0.244
Mof_H 	H 	0.3535	0.291	0.3416	0.108
Mof_C 	C 	0.954	0.8234	0.0571	0.101
Mof_H 	H 	0.912	0.8516	0.0881	-0.069
Mof_C 	C 	0.0804	0.3182	0.2501	0.139
Mof_H 	H 	0.0101	0.3264	0.2265	-0.111
Mof_C 	C 	0.1986	0.5159	0.3191	-0.245
Mof_H 	H 	0.1335	0.495	0.321	0.02
Mof_C 	C 	0.1171	0.5956	0.185	-0.296
Mof_H 	H 	0.1085	0.6538	0.1906	0.088
Mof_H 	H 	0.0555	0.5694	0.1967	0.046
Mof_C 	C 	0.2834	0.4934	0.3822	0.098
Mof_H 	H 	0.2739	0.4565	0.4254	-0.096
Mof_C 	C 	0.3095	0.5966	0.253	-0.228
Mof_H 	H 	0.3212	0.6313	0.2087	0.113
Mof_C 	C 	0.1476	0.3198	0.194	-0.255
Mof_H 	H 	0.1224	0.3282	0.1338	0.095
Mof_C 	C 	0.0268	0.6042	0.0213	-0.39
Mof_H 	H 	0.9653	0.5818	0.0372	0.124
Mof_H 	H 	0.0306	0.5833	0.9635	0.122
Mof_C 	C 	0.9542	0.739	0.0602	-0.204
Mof_H 	H 	0.9113	0.7118	0.0911	0.051
Mof_C 	C 	0.441	0.4183	0.1074	-0.237
Mof_H 	H 	0.5063	0.3927	0.1348	0.054
Mof_H 	H 	0.4164	0.3934	0.0499	0.062
Mof_N 	N 	0.1106	0.3055	0.3372	-0.304
Mof_N 	N 	0.3789	0.5213	0.3853	-0.267
Mof_C 	C 	0.0184	0.6951	0.0171	0.125
Mof_N 	N 	0.0117	0.8663	0.0111	-0.28
Mof_C 	C 	0.209	0.5688	0.2533	0.17
Mof_C 	C 	0.2526	0.3089	0.2262	0.188
Mof_N 	N 	0.484	0.6755	0.0744	-0.273
Mof_C 	C 	0.4585	0.5076	0.0957	0.138
Mof_O 	O 	0.1339	0.30805	0.542	-0.859
Mof_O 	O 	0.8768	0.3138	0.3294	-0.857
Mof_O 	O 	0.1963	0.2481	0.7184	-0.907
Mof_O 	O 	0.613	0.50119	0.4205	-0.74
Mof_O 	O 	0.7013	0.41664	0.2972	-0.913
Mof_O 	O 	0.2629	0.40788	0.6699	-0.918
Mof_V 	V 	0.65963	0.16658	0.1481	1.708
Mof_V 	V 	0.21802	0.0042	0.87745	1.699
Mof_Zn	Zn	0.50973	0.19508	0.92795	1.143
Mof_V 	V 	0.2744	0.16026	0.75315	1.734
Mof_C 	C 	0.6251	0.9232	0.5906	0.025
Mof_H 	H 	0.6347	0.9813	0.5848	0.008
Mof_H 	H 	0.6856	0.896	0.5781	0.013
Mof_C 	C 	0.9021	0.8646	0.5271	0.109
Mof_H 	H 	0.8532	0.8355	0.4866	-0.067
Mof_C 	C 	0.7119	0.2046	0.8676	0.124
Mof_H 	H 	0.7354	0.2137	0.9279	-0.033
Mof_C 	C 	0.5715	0.6764	0.4676	0.099
Mof_H 	H 	0.6108	0.648	0.4343	-0.052
Mof_C 	C 	0.887	0.9468	0.5358	-0.219
Mof_H 	H 	0.8289	0.9719	0.5015	0.074
Mof_C 	C 	0.0523	0.8685	0.6322	0.094
Mof_H 	H 	0.1094	0.842	0.6662	-0.053
Mof_C 	C 	0.8297	0.1854	0.6673	-0.265
Mof_H 	H 	0.7985	0.2042	0.6082	0.066
Mof_H 	H 	0.8898	0.219	0.6905	0.061
Mof_C 	C 	0.0425	0.9503	0.6439	-0.235
Mof_H 	H 	0.0929	0.978	0.6846	0.077
Mof_C 	C 	0.8623	0.096	0.6646	0.019
Mof_H 	H 	0.8011	0.0633	0.6421	0.013
Mof_H 	H 	0.8916	0.0779	0.7244	0.023
Mof_C 	C 	0.8898	0.9281	0.8191	0.083
Mof_H 	H 	0.956	0.909	0.8183	-0.005
Mof_C 	C 	0.5778	0.76	0.4695	-0.197
Mof_H 	H 	0.6217	0.7866	0.439	0.042
Mof_C 	C 	0.7835	0.2026	0.816	-0.25
Mof_H 	H 	0.8535	0.209	0.8416	0.117
Mof_C 	C 	0.454	0.6766	0.5571	0.095
Mof_H 	H 	0.412	0.6484	0.5881	-0.068
Mof_C 	C 	0.5804	0.1818	0.7501	0.145
Mof_H 	H 	0.5101	0.1736	0.7265	-0.102
Mof_C 	C 	0.6986	0.9841	0.8191	-0.085
Mof_H 	H 	0.6335	0.005	0.821	-0.045
Mof_C 	C 	0.6171	0.9044	0.685	-0.207
Mof_H 	H 	0.6085	0.8462	0.6906	0.065
Mof_H 	H 	0.5555	0.9306	0.6967	0.034
Mof_C 	C 	0.7834	0.0066	0.8822	-0.02
Mof_H 	H 	0.7739	0.0435	0.9254	-0.052
Mof_C 	C 	0.8095	0.9034	0.753	-0.164
Mof_H 	H 	0.8212	0.8687	0.7087	0.092
Mof_C 	C 	0.6476	0.1802	0.694	-0.262
Mof_H 	H 	0.6224	0.1718	0.6338	0.106
Mof_C 	C 	0.5268	0.8958	0.5213	-0.266
Mof_H 	H 	0.4653	0.9182	0.5372	0.085
Mof_H 	H 	0.5306	0.9167	0.4635	0.078
Mof_C 	C 	0.4542	0.761	0.5602	-0.22
Mof_H 	H 	0.4113	0.7882	0.5911	0.057
Mof_C 	C 	0.941	0.0817	0.6074	-0.21
Mof_H 	H 	0.0063	0.1073	0.6348	0.021
Mof_H 	H 	0.9164	0.1066	0.5499	0.067
Mof_N 	N 	0.6106	0.1945	0.8372	-0.3
Mof_N 	N 	0.8789	0.9787	0.8853	-0.219
Mof_C 	C 	0.5184	0.8049	0.5171	0.151
Mof_N 	N 	0.5117	0.6337	0.5111	-0.253
Mof_C 	C 	0.709	0.9312	0.7533	0.085
Mof_C 	C 	0.7526	0.1911	0.7262	0.197
Mof_N 	N 	0.984	0.8245	0.5744	-0.273
Mof_C 	C 	0.9585	0.9924	0.5957	0.19
Mof_O 	O 	0.6339	0.19195	0.042	-0.865
Mof_O 	O 	0.3768	0.1862	0.8294	-0.87
Mof_O 	O 	0.6963	0.2519	0.2184	-0.904
Mof_O 	O 	0.113	0.99881	0.9205	-0.711
Mof_O 	O 	0.2013	0.08336	0.7972	-0.927
Mof_O 	O 	0.7629	0.09212	0.1699	-0.919
Mof_V 	V 	0.84037	0.66658	0.3519	1.711
Mof_V 	V 	0.28198	0.5042	0.62255	1.714
Mof_Zn	Zn	0.99027	0.69508	0.57205	1.145
Mof_V 	V 	0.2256	0.66026	0.74685	1.735
Mof_C 	C 	0.8749	0.4232	0.9094	0.004
Mof_H 	H 	0.8653	0.4813	0.9152	0.015
Mof_H 	H 	0.8144	0.396	0.9219	0.02
Mof_C 	C 	0.5979	0.3646	0.9729	0.171
Mof_H 	H 	0.6468	0.3355	0.0134	-0.107
Mof_C 	C 	0.7881	0.7046	0.6324	0.133
Mof_H 	H 	0.7646	0.7137	0.5721	-0.042
Mof_C 	C 	0.9285	0.1764	0.0324	0.095
Mof_H 	H 	0.8892	0.148	0.0657	-0.049
Mof_C 	C 	0.613	0.4468	0.9642	-0.265
Mof_H 	H 	0.6711	0.4719	0.9985	0.095
Mof_C 	C 	0.4477	0.3685	0.8678	0.125
Mof_H 	H 	0.3906	0.342	0.8338	-0.06
Mof_C 	C 	0.6703	0.6854	0.8327	-0.302
Mof_H 	H 	0.7015	0.7042	0.8918	0.082
Mof_H 	H 	0.6102	0.719	0.8095	0.068
Mof_C 	C 	0.4575	0.4503	0.8561	-0.248
Mof_H 	H 	0.4071	0.478	0.8154	0.075
Mof_C 	C 	0.6377	0.596	0.8354	0.076
Mof_H 	H 	0.6989	0.5633	0.8579	0.005
Mof_H 	H 	0.6084	0.5779	0.7756	0.004
Mof_C 	C 	0.6102	0.4281	0.6809	0.108
Mof_H 	H 	0.544	0.409	0.6817	-0.023
Mof_C 	C 	0.9222	0.26	0.0305	-0.221
Mof_H 	H 	0.8783	0.2866	0.061	0.048
Mof_C 	C 	0.7165	0.7026	0.684	-0.261
Mof_H 	H 	0.6465	0.709	0.6584	0.116
Mof_C 	C 	0.046	0.1766	0.9429	0.072
Mof_H 	H 	0.088	0.1484	0.9119	-0.069
Mof_C 	C 	0.9196	0.6818	0.7499	0.154
Mof_H 	H 	0.9899	0.6736	0.7735	-0.095
Mof_C 	C 	0.8014	0.4841	0.6809	-0.23
Mof_H 	H 	0.8665	0.505	0.679	0.023
Mof_C 	C 	0.8829	0.4044	0.815	-0.236
Mof_H 	H 	0.8915	0.3462	0.8094	0.076
Mof_H 	H 	0.9445	0.4306	0.8033	0.043
Mof_C 	C 	0.7166	0.5066	0.6178	0.092
Mof_H 	H 	0.7261	0.5435	0.5746	-0.093
Mof_C 	C 	0.6905	0.4034	0.747	-0.213
Mof_H 	H 	0.6788	0.3687	0.7913	0.107
Mof_C 	C 	0.8524	0.6802	0.806	-0.273
Mof_H 	H 	0.8776	0.6718	0.8662	0.12
Mof_C 	C 	0.9732	0.3958	0.9787	-0.174
Mof_H 	H 	0.0347	0.4182	0.9628	0.04
Mof_H 	H 	0.9694	0.4167	0.0365	0.039
Mof_C 	C 	0.0458	0.261	0.9398	-0.25
Mof_H 	H 	0.0887	0.2882	0.9089	0.062
Mof_C 	C 	0.559	0.5817	0.8926	-0.31
Mof_H 	H 	0.4937	0.6073	0.8652	0.081
Mof_H 	H 	0.5836	0.6066	0.9501	0.1
Mof_N 	N 	0.8894	0.6945	0.6628	-0.302
Mof_N 	N 	0.6211	0.4787	0.6147	-0.264
Mof_C 	C 	0.9816	0.3049	0.9829	0.188
Mof_N 	N 	0.9883	0.1337	0.9889	-0.221
Mof_C 	C 	0.791	0.4312	0.7467	0.149
Mof_C 	C 	0.7474	0.6911	0.7738	0.217
Mof_N 	N 	0.516	0.3245	0.9256	-0.295
Mof_C 	C 	0.5415	0.4924	0.9043	0.212
Mof_O 	O 	0.8661	0.69195	0.458	-0.85
Mof_O 	O 	0.1232	0.6862	0.6706	-0.879
Mof_O 	O 	0.8037	0.7519	0.2816	-0.901
Mof_O 	O 	0.387	0.49881	0.5795	-0.741
Mof_O 	O 	0.2987	0.58336	0.7028	-0.915
Mof_O 	O 	0.7371	0.59212	0.3301	-0.915
Mof_Zn	Zn	-0	0	-0	1.183
Mof_Zn	Zn	0.5	0.5	0.5	1.208
_end
