data_functionalizedCrystal
_audit_creation_method	'EQeq! by Chris Wilmer'
_symmetry_space_group_name_H-M	'P1'
_symmetry_Int_Tables_number	1
_symmetry_cell_setting	triclinic
loop_
_symmetry_equiv_pos_as_xyz
  x,y,z
_cell_length_a	16.4174
_cell_length_b	18.1798
_cell_length_c	18.1798
_cell_angle_alpha	90
_cell_angle_beta	90
_cell_angle_gamma	90
loop_
_atom_site_label
_atom_site_type_symbol
_atom_site_fract_x
_atom_site_fract_y
_atom_site_fract_z
_atom_site_charge
Mof_La	La	0.25	0.7152	0.2848	2.289
Mof_La	La	0.75	0.2848	0.7152	2.293
Mof_La	La	0.5	0.2152	0.2152	2.29
Mof_La	La	3.25841e-33	0.7848	0.7848	2.199
Mof_H 	H 	0.099	0.887	0.016	0.054
Mof_H 	H 	0.2837	0.7174	0.9104	0.008
Mof_H 	H 	0.8113	0.8975	0.5292	-0.035
Mof_H 	H 	0.4996	0.0513	0.8056	0.052
Mof_H 	H 	0.4365	0.9287	0.9811	0.052
Mof_H 	H 	0.3886	0.6354	0.9173	0.125
Mof_H 	H 	0.3671	0.1407	0.3655	0.161
Mof_H 	H 	0.1814	0.953	0.0941	0.069
Mof_H 	H 	0.5681	0.2921	0.5316	0.019
Mof_H 	H 	0.8579	0.1633	0.9161	0.099
Mof_H 	H 	0.7966	0.5069	0.3537	0.046
Mof_H 	H 	0.2777	0.3611	0.3205	0.05
Mof_H 	H 	0.6329	0.3655	0.1407	0.161
Mof_H 	H 	0.0635	0.0189	0.0713	0.071
Mof_H 	H 	0.6814	0.047	0.9059	0.077
Mof_H 	H 	0.1452	0.3962	0.1026	-0.007
Mof_H 	H 	0.9387	0.3975	0.9708	-0.045
Mof_H 	H 	0.6586	0.615	0.6152	0.088
Mof_H 	H 	0.3135	0.4287	0.5189	0.054
Mof_H 	H 	0.2966	0.4931	0.6463	0.041
Mof_H 	H 	0.6819	0.2079	0.0316	0.019
Mof_H 	H 	0.1386	0.4173	0.8646	0.141
Mof_H 	H 	0.5337	0.5896	0.2174	0.009
Mof_H 	H 	0.6079	0.4161	0.3367	0.091
Mof_H 	H 	0.9996	0.9487	0.1944	0.047
Mof_H 	H 	0.8952	0.6026	0.1038	0.004
Mof_H 	H 	0.035	0.1127	0.715	0.009
Mof_H 	H 	0.465	0.285	0.8873	0.018
Mof_H 	H 	0.6114	0.9173	0.6354	0.124
Mof_H 	H 	0.7034	0.6463	0.4931	0.047
Mof_H 	H 	0.8135	0.5713	0.4811	0.053
Mof_H 	H 	0.3614	0.1354	0.5827	0.125
Mof_H 	H 	0.7777	0.6389	0.6795	0.052
Mof_H 	H 	0.2163	0.0896	0.2826	0.008
Mof_H 	H 	0.1153	0.8516	0.618	0.147
Mof_H 	H 	0.7504	0.4487	0.3056	0.055
Mof_H 	H 	0.599	0.113	0.984	0.059
Mof_H 	H 	0.3113	0.1025	0.4708	-0.055
Mof_H 	H 	0.3952	0.3974	0.8962	-0.004
Mof_H 	H 	0.4534	0.9931	0.8537	0.043
Mof_H 	H 	0.0686	0.547	0.5941	0.064
Mof_H 	H 	0.1887	0.5292	0.8975	-0.07
Mof_H 	H 	0.66	0.5333	0.3469	0.053
Mof_H 	H 	0.4179	0.9863	0.5406	0.108
Mof_H 	H 	0.59	0.9667	0.8469	0.056
Mof_H 	H 	0.8671	0.8593	0.6345	0.147
Mof_H 	H 	0.715	0.6127	0.785	0.018
Mof_H 	H 	0.0914	0.115	0.8848	0.098
Mof_H 	H 	0.5914	0.885	0.1152	0.091
Mof_H 	H 	0.1689	0.9133	0.5169	-0.023
Mof_H 	H 	0.6452	0.6038	0.8974	-0.004
Mof_H 	H 	0.6171	0.1345	0.6407	0.16
Mof_H 	H 	0.1079	0.5839	0.6633	0.084
Mof_H 	H 	0.0613	0.9708	0.3975	-0.064
Mof_H 	H 	0.4663	0.2174	0.5896	0.009
Mof_H 	H 	0.401	0.984	0.113	0.058
Mof_H 	H 	0.9723	0.1389	0.8205	0.047
Mof_H 	H 	0.8614	0.8646	0.4173	0.107
Mof_H 	H 	0.785	0.215	0.3873	0.02
Mof_H 	H 	0.535	0.8873	0.285	0.019
Mof_H 	H 	0.0811	0.5867	0.0169	-0.03
Mof_H 	H 	0.5466	0.8537	0.9931	0.044
Mof_H 	H 	0.1976	0.4544	0.4226	0.106
Mof_H 	H 	0.4476	0.0774	0.9544	0.11
Mof_H 	H 	0.3181	0.0316	0.2079	0.018
Mof_H 	H 	0.5821	0.5406	0.9863	0.108
Mof_H 	H 	0.8847	0.618	0.8516	0.153
Mof_H 	H 	0.1048	0.1038	0.6026	-0.008
Mof_H 	H 	0.8181	0.9684	0.7921	0.026
Mof_H 	H 	0.9663	0.7826	0.4104	0.04
Mof_H 	H 	0.1347	0.6484	0.118	0.148
Mof_H 	H 	0.9189	0.0169	0.5867	-0.016
Mof_H 	H 	0.9476	0.9226	0.0456	0.114
Mof_H 	H 	0.6386	0.5827	0.1354	0.126
Mof_H 	H 	0.3579	0.8367	0.0839	0.092
Mof_H 	H 	0.3847	0.382	0.1484	0.151
Mof_H 	H 	0.1679	0.0406	0.5137	0.107
Mof_H 	H 	0.0277	0.8205	0.1389	0.051
Mof_H 	H 	0.8921	0.6633	0.5839	0.099
Mof_H 	H 	0.7223	0.3205	0.3611	0.05
Mof_H 	H 	0.6887	0.4708	0.1025	-0.054
Mof_H 	H 	0.6976	0.5456	0.5774	0.107
Mof_H 	H 	0.3321	0.4863	0.9594	0.109
Mof_H 	H 	0.651	0.387	0.484	0.059
Mof_H 	H 	0.215	0.3873	0.215	0.017
Mof_H 	H 	0.6153	0.1484	0.382	0.149
Mof_H 	H 	0.0337	0.4104	0.7826	-0.018
Mof_H 	H 	0.8653	0.118	0.6484	0.154
Mof_H 	H 	0.4387	0.6025	0.0292	-0.054
Mof_H 	H 	0.3921	0.3367	0.4161	0.091
Mof_H 	H 	0.8321	0.5137	0.0406	0.106
Mof_H 	H 	0.8414	0.3848	0.385	0.096
Mof_H 	H 	0.9086	0.8848	0.115	0.088
Mof_H 	H 	0.7496	0.6944	0.5513	0.057
Mof_H 	H 	0.2496	0.3056	0.4487	0.053
Mof_H 	H 	0.3829	0.6407	0.1345	0.161
Mof_H 	H 	0.349	0.484	0.387	0.058
Mof_H 	H 	0.5613	0.0292	0.6025	-0.053
Mof_H 	H 	0.5635	0.9811	0.9287	0.058
Mof_H 	H 	0.4189	0.9831	0.4133	-0.023
Mof_H 	H 	0.151	0.613	0.516	0.06
Mof_H 	H 	0.3024	0.5774	0.5456	0.111
Mof_H 	H 	0.6347	0.3516	0.882	0.151
Mof_H 	H 	0.34	0.3469	0.5333	0.052
Mof_H 	H 	0.8548	0.1026	0.3962	-0
Mof_H 	H 	0.2223	0.6795	0.6389	0.048
Mof_H 	H 	0.6421	0.0839	0.8367	0.089
Mof_H 	H 	0.0466	0.1463	0.0069	0.051
Mof_H 	H 	0.5004	0.8056	0.0513	0.055
Mof_H 	H 	0.1421	0.9161	0.1633	0.078
Mof_H 	H 	0.6048	0.8962	0.3974	-0.001
Mof_H 	H 	0.0821	0.4594	0.0137	0.102
Mof_H 	H 	0.4723	0.8611	0.1795	0.05
Mof_H 	H 	0.9534	0.0069	0.1463	0.027
Mof_H 	H 	0.3186	0.9059	0.047	0.08
Mof_H 	H 	0.9319	0.4684	0.7079	0.004
Mof_H 	H 	0.0524	0.0456	0.9226	0.114
Mof_H 	H 	0.901	0.016	0.887	0.069
Mof_H 	H 	0.6689	0.0867	0.4831	-0.02
Mof_H 	H 	0.8886	0.3646	0.0827	0.131
Mof_H 	H 	0.1586	0.385	0.3848	0.084
Mof_H 	H 	0.6679	0.9594	0.4863	0.105
Mof_H 	H 	0.16	0.4667	0.6531	0.053
Mof_H 	H 	0.4314	0.4059	0.453	0.079
Mof_H 	H 	0.5524	0.9544	0.0774	0.11
Mof_H 	H 	0.849	0.516	0.613	0.057
Mof_H 	H 	0.2504	0.5513	0.6944	0.052
Mof_H 	H 	0.8024	0.4226	0.4544	0.113
Mof_H 	H 	0.1865	0.4811	0.5713	0.056
Mof_H 	H 	0.84	0.6531	0.4667	0.051
Mof_H 	H 	0.6865	0.5189	0.4287	0.055
Mof_H 	H 	0.9179	0.0137	0.4594	0.114
Mof_H 	H 	0.1819	0.7921	0.9684	0.018
Mof_H 	H 	0.1329	0.6345	0.8593	0.174
Mof_H 	H 	0.4319	0.5316	0.2921	0.019
Mof_H 	H 	0.91	0.1531	0.0333	0.041
Mof_H 	H 	0.8311	0.5169	0.9133	-0.019
Mof_H 	H 	0.9365	0.0713	0.0189	0.045
Mof_H 	H 	0.41	0.8469	0.9667	0.051
Mof_H 	H 	0.3311	0.4831	0.0867	-0.023
Mof_H 	H 	0.7163	0.9104	0.7174	0.01
Mof_H 	H 	0.3548	0.8974	0.6038	-0.004
Mof_H 	H 	0.3414	0.6152	0.615	0.092
Mof_H 	H 	0.5811	0.4133	0.9831	-0.023
Mof_H 	H 	0.5686	0.453	0.4059	0.078
Mof_H 	H 	0.8186	0.0941	0.953	0.084
Mof_H 	H 	0.0681	0.7079	0.4684	0.037
Mof_H 	H 	0.0004	0.1944	0.9487	0.055
Mof_H 	H 	0.7837	0.2826	0.0896	0.01
Mof_H 	H 	0.285	0.785	0.6127	0.018
Mof_H 	H 	0.1171	0.8655	0.3593	0.156
Mof_H 	H 	0.1114	0.0827	0.3646	0.121
Mof_H 	H 	0.965	0.715	0.1127	0.03
Mof_H 	H 	0.2034	0.3537	0.5069	0.041
Mof_H 	H 	0.09	0.0333	0.1531	0.07
Mof_H 	H 	0.9314	0.5941	0.547	0.093
Mof_H 	H 	0.3653	0.882	0.3516	0.151
Mof_H 	H 	0.5277	0.1795	0.8611	0.05
Mof_H 	H 	0.8829	0.3593	0.8655	0.166
Mof_H 	H 	0.4086	0.1152	0.885	0.09
Mof_C 	C 	0.0373	0.0624	0.7236	0.095
Mof_C 	C 	0.4779	0.9101	0.1576	0.048
Mof_C 	C 	0.4267	0.3326	0.981	-0.16
Mof_C 	C 	0.5742	0.0603	0.3272	0.322
Mof_C 	C 	0.6309	0.0659	0.8859	-0.135
Mof_C 	C 	0.6113	0.4098	0.1573	-0.363
Mof_C 	C 	0.5221	0.1576	0.9101	0.05
Mof_C 	C 	0.9859	0.772	0.5206	-0.096
Mof_C 	C 	0.3545	0.4448	0.0602	0.164
Mof_C 	C 	0.0221	0.8424	0.0899	-0.002
Mof_C 	C 	0.9478	0.7983	0.4561	0.066
Mof_C 	C 	0.5071	0.8553	0.0327	-0.06
Mof_C 	C 	0.8938	0.0527	0.4843	-0.216
Mof_C 	C 	0.1309	0.9341	0.1141	-0.11
Mof_C 	C 	0.45	0.4847	0.2797	0.099
Mof_C 	C 	0.8545	0.5552	0.9398	0.158
Mof_C 	C 	0.6472	0.3702	0.4329	0.022
Mof_C 	C 	0.2952	0.7059	0.0915	0.359
Mof_C 	C 	0.4627	0.2764	0.9376	0.095
Mof_C 	C 	0.9267	0.6674	0.019	-0.145
Mof_C 	C 	0.7127	0.5624	0.7764	0.094
Mof_C 	C 	0.7873	0.2236	0.4376	0.096
Mof_C 	C 	0.3972	0.9329	0.1298	0.024
Mof_C 	C 	0.2127	0.4376	0.2236	0.093
Mof_C 	C 	0.8559	0.8661	0.5271	0.183
Mof_C 	C 	0.5141	0.4794	0.228	-0.179
Mof_C 	C 	0.7048	0.0915	0.7059	0.357
Mof_C 	C 	0.1059	0.9729	0.3661	0.236
Mof_C 	C 	0.4929	0.0327	0.8553	-0.053
Mof_C 	C 	0.2641	0.728	0.0206	-0.179
Mof_C 	C 	0.3955	0.9448	0.4398	0.164
Mof_C 	C 	0.1758	0.5603	0.1728	0.326
Mof_C 	C 	0.2048	0.9085	0.2941	0.358
Mof_C 	C 	0.8691	0.1141	0.9341	-0.157
Mof_C 	C 	0.9589	0.9037	0.0944	-0.149
Mof_C 	C 	0.1153	0.46	0.8459	-0.317
Mof_C 	C 	0.7571	0.4673	0.3553	-0.057
Mof_C 	C 	0.888	0.616	0.9026	-0.288
Mof_C 	C 	0.3941	0.6339	0.0271	0.238
Mof_C 	C 	0.9929	0.9673	0.1447	0.014
Mof_C 	C 	0.8203	0.6192	0.5038	-0.064
Mof_C 	C 	0.6191	0.4341	0.3859	-0.139
Mof_C 	C 	0.7279	0.3424	0.4101	0.051
Mof_C 	C 	0.6425	0.5528	0.8938	0.113
Mof_C 	C 	0.3	0.9847	0.2203	0.1
Mof_C 	C 	0.8242	0.1728	0.5603	0.328
Mof_C 	C 	0.3809	0.3859	0.4341	-0.142
Mof_C 	C 	0.2089	0.4056	0.4037	-0.168
Mof_C 	C 	0.3575	0.8938	0.5528	0.114
Mof_C 	C 	0.5452	0.4085	0.2059	0.359
Mof_C 	C 	0.3562	0.4473	0.9843	-0.22
Mof_C 	C 	0.9779	0.0899	0.8424	0.105
Mof_C 	C 	0.1425	0.4472	0.1062	0.112
Mof_C 	C 	0.5411	0.9056	0.0963	-0.171
Mof_C 	C 	0.1347	0.04	0.3459	-0.268
Mof_C 	C 	0.1075	0.0528	0.6062	0.112
Mof_C 	C 	0.6059	0.0271	0.6339	0.232
Mof_C 	C 	0.8941	0.3661	0.9729	0.239
Mof_C 	C 	0.7952	0.2941	0.9085	0.36
Mof_C 	C 	0.4589	0.0963	0.9056	-0.174
Mof_C 	C 	0.2873	0.7764	0.5624	0.094
Mof_C 	C 	0.1062	0.4843	0.0527	-0.222
Mof_C 	C 	0.6758	0.4397	0.8272	0.327
Mof_C 	C 	0.7	0.2203	0.9847	0.099
Mof_C 	C 	0.0141	0.5206	0.772	-0.253
Mof_C 	C 	0.4548	0.2059	0.4085	0.359
Mof_C 	C 	0.2911	0.5963	0.5944	-0.178
Mof_C 	C 	0.3887	0.1573	0.4098	-0.363
Mof_C 	C 	0.9297	0.1192	0.9962	-0.016
Mof_C 	C 	0.4297	0.8808	0.0038	-0.071
Mof_C 	C 	0.8955	0.0552	0.5602	0.166
Mof_C 	C 	0.112	0.9026	0.616	-0.303
Mof_C 	C 	0.2	0.7797	0.0153	0.098
Mof_C 	C 	0.1767	0.481	0.1674	-0.162
Mof_C 	C 	0.8	0.0153	0.7797	0.095
Mof_C 	C 	0.55	0.2797	0.4847	0.098
Mof_C 	C 	0.8809	0.6141	0.5659	-0.156
Mof_C 	C 	0.6347	0.96	0.6541	-0.261
Mof_C 	C 	0.5703	0.0038	0.8808	-0.085
Mof_C 	C 	0.7911	0.4037	0.4056	-0.175
Mof_C 	C 	0.862	0.116	0.5974	-0.298
Mof_C 	C 	0.0742	0.9397	0.6728	0.321
Mof_C 	C 	0.7359	0.0206	0.728	-0.177
Mof_C 	C 	0.1472	0.6298	0.5671	0.012
Mof_C 	C 	0.2279	0.6576	0.5899	0.054
Mof_C 	C 	0.0733	0.019	0.6674	-0.165
Mof_C 	C 	0.3022	0.7017	0.9561	0.126
Mof_C 	C 	0.3938	0.9473	0.5157	-0.219
Mof_C 	C 	0.8613	0.3427	0.9098	-0.361
Mof_C 	C 	0.8653	0.3459	0.04	-0.263
Mof_C 	C 	0.388	0.384	0.0974	-0.302
Mof_C 	C 	0.6978	0.9561	0.7017	0.125
Mof_C 	C 	0.6441	0.4729	0.1339	0.237
Mof_C 	C 	0.4478	0.2017	0.5439	0.126
Mof_C 	C 	0.138	0.5974	0.116	-0.305
Mof_C 	C 	0.7429	0.6447	0.5327	-0.067
Mof_C 	C 	0.3242	0.8272	0.4397	0.327
Mof_C 	C 	0.5522	0.5439	0.2017	0.126
Mof_C 	C 	0.3691	0.8859	0.0659	-0.143
Mof_C 	C 	0.1045	0.5602	0.0552	0.161
Mof_C 	C 	0.1978	0.0439	0.2983	0.124
Mof_C 	C 	0.8233	0.1674	0.481	-0.157
Mof_C 	C 	0.8528	0.5671	0.6298	0.035
Mof_C 	C 	0.3203	0.3808	0.4962	-0.074
Mof_C 	C 	0.3925	0.3938	0.9472	0.114
Mof_C 	C 	0.1113	0.5902	0.8427	-0.404
Mof_C 	C 	0.1441	0.5271	0.8661	0.281
Mof_C 	C 	0.612	0.0974	0.384	-0.295
Mof_C 	C 	0.95	0.5153	0.7203	0.169
Mof_C 	C 	0.4258	0.3272	0.0603	0.327
Mof_C 	C 	0.638	0.4026	0.884	-0.301
Mof_C 	C 	0.5373	0.9376	0.2764	0.092
Mof_C 	C 	0.6797	0.4962	0.3808	-0.077
Mof_C 	C 	0.6438	0.9843	0.4473	-0.209
Mof_C 	C 	0.6153	0.54	0.1541	-0.265
Mof_C 	C 	0.1191	0.5659	0.6141	-0.126
Mof_C 	C 	0.0452	0.5915	0.7941	0.389
Mof_C 	C 	0.1797	0.5038	0.6192	-0.086
Mof_C 	C 	0.8562	0.5527	0.0157	-0.208
Mof_C 	C 	0.6767	0.519	0.8326	-0.16
Mof_C 	C 	0.6387	0.0902	0.6573	-0.36
Mof_C 	C 	0.0411	0.0944	0.9037	-0.207
Mof_C 	C 	0.9548	0.7941	0.5915	0.317
Mof_C 	C 	0.2429	0.3553	0.4673	-0.06
Mof_C 	C 	0.362	0.884	0.4026	-0.301
Mof_C 	C 	0.6062	0.5157	0.9473	-0.219
Mof_C 	C 	0.6045	0.4398	0.9448	0.164
Mof_C 	C 	0.2721	0.4101	0.3424	0.046
Mof_C 	C 	0.9627	0.7236	0.0624	0.091
Mof_C 	C 	0.2571	0.5327	0.6447	-0.05
Mof_C 	C 	0.0071	0.1447	0.9673	-0.104
Mof_C 	C 	0.7721	0.5899	0.6576	0.042
Mof_C 	C 	0.8575	0.1062	0.4472	0.115
Mof_C 	C 	0.8972	0.0671	0.8702	0.015
Mof_C 	C 	0.3233	0.8326	0.519	-0.16
Mof_C 	C 	0.3653	0.6541	0.96	-0.266
Mof_C 	C 	0.2359	0.9794	0.272	-0.179
Mof_C 	C 	0.3528	0.4329	0.3702	0.024
Mof_C 	C 	0.1028	0.8702	0.0671	0.023
Mof_C 	C 	0.5733	0.981	0.3326	-0.154
Mof_C 	C 	0.3847	0.1541	0.54	-0.266
Mof_C 	C 	0.0703	0.9962	0.1192	-0.156
Mof_C 	C 	0.6028	0.1298	0.9329	0.021
Mof_C 	C 	0.1387	0.9098	0.3427	-0.366
Mof_C 	C 	0.6455	0.0602	0.4448	0.155
Mof_C 	C 	0.8887	0.8427	0.5902	-0.311
Mof_C 	C 	0.7089	0.5944	0.5963	-0.165
Mof_C 	C 	0.3559	0.1339	0.4729	0.237
Mof_C 	C 	0.8847	0.8459	0.46	-0.204
Mof_C 	C 	0.6075	0.9472	0.3938	0.106
Mof_C 	C 	0.7641	0.272	0.9794	-0.179
Mof_C 	C 	0.0522	0.4561	0.7983	0.177
Mof_C 	C 	0.8925	0.6062	0.0528	0.106
Mof_C 	C 	0.9258	0.6728	0.9397	0.321
Mof_C 	C 	0.1455	0.9398	0.5552	0.16
Mof_C 	C 	0.1438	0.0157	0.5527	-0.221
Mof_C 	C 	0.8022	0.2983	0.0439	0.127
Mof_C 	C 	0.4859	0.228	0.4794	-0.179
Mof_C 	C 	0.3613	0.6573	0.0902	-0.363
Mof_C 	C 	0.05	0.7203	0.5153	0.023
Mof_N 	N 	0.6645	0.1888	0.9292	-0.116
Mof_N 	N 	0.9145	0.5708	0.6888	-0.123
Mof_N 	N 	0.4145	0.4292	0.3112	-0.117
Mof_N 	N 	0.5648	0.2658	0.7224	0.058
Mof_N 	N 	0.6852	0.2342	0.2224	0.058
Mof_N 	N 	0.1645	0.8112	0.0708	-0.118
Mof_N 	N 	0.0648	0.7342	0.2776	0.042
Mof_N 	N 	0.7426	0.5398	0.7144	-0.111
Mof_N 	N 	0.8148	0.7776	0.7658	0.056
Mof_N 	N 	0.4352	0.7224	0.2658	0.058
Mof_N 	N 	0.2426	0.4602	0.2856	-0.112
Mof_N 	N 	0.0855	0.6888	0.5708	-0.108
Mof_N 	N 	0.4926	0.2144	0.9602	-0.112
Mof_N 	N 	0.5855	0.3112	0.4292	-0.117
Mof_N 	N 	0.9926	0.7856	0.0398	-0.085
Mof_N 	N 	0.1852	0.7658	0.7776	0.059
Mof_N 	N 	0.7574	0.2856	0.4602	-0.111
Mof_N 	N 	0.0074	0.0398	0.7856	-0.133
Mof_N 	N 	0.3355	0.9292	0.1888	-0.117
Mof_N 	N 	0.9352	0.2776	0.7342	0.074
Mof_N 	N 	0.2574	0.7144	0.5398	-0.112
Mof_N 	N 	0.3148	0.2224	0.2342	0.058
Mof_N 	N 	0.5074	0.9602	0.2144	-0.11
Mof_N 	N 	0.8355	0.0708	0.8112	-0.113
Mof_Cl	Cl	0.5	0.10338	0.10338	-0.498
Mof_Cl	Cl	0.25	0.60338	0.39662	-0.499
Mof_Cl	Cl	3.72267e-33	0.89662	0.89662	-0.517
Mof_Cl	Cl	0.75	0.39662	0.60338	-0.495
Mof_O 	O 	0.644	0.2397	0.279	-0.269
Mof_O 	O 	0.2647	0.7321	0.15094	-0.457
Mof_O 	O 	0.2906	0.7711	0.4061	-0.426
Mof_O 	O 	0.9913	0.7626	0.2757	-0.105
Mof_O 	O 	0.6013	0.2793	0.6625	-0.295
Mof_O 	O 	0.7587	0.2626	0.2243	-0.128
Mof_O 	O 	0.7094	0.4061	0.7711	-0.425
Mof_O 	O 	0.0406	0.9061	0.7289	-0.426
Mof_O 	O 	0.3987	0.6625	0.2793	-0.294
Mof_O 	O 	0.9853	0.7679	0.65094	-0.414
Mof_O 	O 	0.606	0.2603	0.779	-0.27
Mof_O 	O 	0.2413	0.2243	0.2626	-0.135
Mof_O 	O 	0.9594	0.7289	0.9061	-0.397
Mof_O 	O 	0.4594	0.2711	0.0939	-0.426
Mof_O 	O 	0.1487	0.7793	0.8375	-0.291
Mof_O 	O 	0.1013	0.7207	0.3375	-0.303
Mof_O 	O 	0.5147	0.34906	0.2321	-0.456
Mof_O 	O 	0.7353	0.15094	0.7321	-0.456
Mof_O 	O 	0.8513	0.8375	0.7793	-0.277
Mof_O 	O 	0.894	0.221	0.7397	-0.264
Mof_O 	O 	0.0087	0.2757	0.7626	-0.157
Mof_O 	O 	0.5087	0.7243	0.2374	-0.131
Mof_O 	O 	0.7413	0.7757	0.7374	-0.131
Mof_O 	O 	0.8987	0.3375	0.7207	-0.287
Mof_O 	O 	0.6487	0.2207	0.1625	-0.294
Mof_O 	O 	0.0147	0.65094	0.7679	-0.474
Mof_O 	O 	0.2587	0.7374	0.7757	-0.132
Mof_O 	O 	0.4913	0.2374	0.7243	-0.132
Mof_O 	O 	0.394	0.779	0.2603	-0.27
Mof_O 	O 	0.3513	0.1625	0.2207	-0.295
Mof_O 	O 	0.106	0.7397	0.221	-0.275
Mof_O 	O 	0.5406	0.0939	0.2711	-0.424
Mof_O 	O 	0.356	0.279	0.2397	-0.27
Mof_O 	O 	0.2353	0.84906	0.2679	-0.457
Mof_O 	O 	0.7647	0.2679	0.84906	-0.456
Mof_O 	O 	0.856	0.721	0.7603	-0.256
Mof_O 	O 	0.2094	0.5939	0.2289	-0.427
Mof_O 	O 	0.4853	0.2321	0.34906	-0.456
Mof_O 	O 	0.144	0.7603	0.721	-0.268
Mof_O 	O 	0.7906	0.2289	0.5939	-0.424
_end
