data_functionalizedCrystal
_audit_creation_method	'EQeq! by Chris Wilmer'
_symmetry_space_group_name_H-M	'P1'
_symmetry_Int_Tables_number	1
_symmetry_cell_setting	triclinic
loop_
_symmetry_equiv_pos_as_xyz
  x,y,z
_cell_length_a	11.849
_cell_length_b	17.711
_cell_length_c	18.903
_cell_angle_alpha	114.86
_cell_angle_beta	90
_cell_angle_gamma	90
loop_
_atom_site_label
_atom_site_type_symbol
_atom_site_fract_x
_atom_site_fract_y
_atom_site_fract_z
_atom_site_charge
Mof_Mn	Mn	0.58027	0.71185	0.97237	0.966
Mof_Mn	Mn	0.81966	0.83341	0.12435	0.813
Mof_Mn	Mn	0.44999	0.72182	0.80013	0.894
Mof_Mn	Mn	0.08027	0.28815	0.52763	0.97
Mof_Mn	Mn	0.31966	0.16659	0.37565	0.811
Mof_Mn	Mn	0.94999	0.27818	0.69987	0.893
Mof_Mn	Mn	0.41973	0.28815	0.02763	0.966
Mof_Mn	Mn	0.18034	0.16659	0.87565	0.813
Mof_Mn	Mn	0.55001	0.27818	0.19987	0.894
Mof_Mn	Mn	0.91973	0.71185	0.47237	0.97
Mof_Mn	Mn	0.68034	0.83341	0.62435	0.811
Mof_Mn	Mn	0.05001	0.72182	0.30013	0.893
Mof_H 	H 	0.6556	0.8321	0.8837	0.017
Mof_H 	H 	0.5579	0.0399	0.8672	0.023
Mof_H 	H 	0.6785	0.0505	0.07	0.037
Mof_H 	H 	0.7892	0.499	0.7616	0.024
Mof_H 	H 	0.8955	0.5212	0.5704	0.026
Mof_H 	H 	0.6991	0.6963	0.7223	0.005
Mof_H 	H 	0.3214	0.8691	0.7779	-0.012
Mof_H 	H 	0.173	0.8973	0.7161	0.123
Mof_H 	H 	0.0562	0.7892	0.6417	-0.021
Mof_H 	H 	0.0797	0.6605	0.6381	0.13
Mof_H 	H 	0.2232	0.6407	0.708	-0.017
Mof_H 	H 	0.1556	0.1679	0.6163	0.018
Mof_H 	H 	0.0579	0.9601	0.6328	0.024
Mof_H 	H 	0.1785	0.9495	0.43	0.037
Mof_H 	H 	0.2892	0.501	0.7384	0.024
Mof_H 	H 	0.3955	0.4788	0.9296	0.026
Mof_H 	H 	0.1991	0.3037	0.7777	0.005
Mof_H 	H 	0.8214	0.1309	0.7221	-0.012
Mof_H 	H 	0.673	0.1027	0.7839	0.124
Mof_H 	H 	0.5562	0.2108	0.8583	-0.021
Mof_H 	H 	0.5797	0.3395	0.8619	0.13
Mof_H 	H 	0.7232	0.3593	0.792	-0.018
Mof_H 	H 	0.3444	0.1679	0.1163	0.017
Mof_H 	H 	0.4421	0.9601	0.1328	0.023
Mof_H 	H 	0.3215	0.9495	0.93	0.037
Mof_H 	H 	0.2108	0.501	0.2384	0.024
Mof_H 	H 	0.1045	0.4788	0.4296	0.026
Mof_H 	H 	0.3009	0.3037	0.2777	0.005
Mof_H 	H 	0.6786	0.1309	0.2221	-0.012
Mof_H 	H 	0.827	0.1027	0.2839	0.123
Mof_H 	H 	0.9438	0.2108	0.3583	-0.021
Mof_H 	H 	0.9203	0.3395	0.3619	0.13
Mof_H 	H 	0.7768	0.3593	0.292	-0.017
Mof_H 	H 	0.8444	0.8321	0.3837	0.018
Mof_H 	H 	0.9421	0.0399	0.3672	0.024
Mof_H 	H 	0.8215	0.0505	0.57	0.037
Mof_H 	H 	0.7108	0.499	0.2616	0.024
Mof_H 	H 	0.6045	0.5212	0.0704	0.026
Mof_H 	H 	0.8009	0.6963	0.2223	0.005
Mof_H 	H 	0.1786	0.8691	0.2779	-0.012
Mof_H 	H 	0.327	0.8973	0.2161	0.124
Mof_H 	H 	0.4438	0.7892	0.1417	-0.021
Mof_H 	H 	0.4203	0.6605	0.1381	0.13
Mof_H 	H 	0.2768	0.6407	0.208	-0.018
Mof_C 	C 	0.7251	0.892	0.0338	0.346
Mof_C 	C 	0.6786	0.9339	0.9837	-0.127
Mof_C 	C 	0.6478	0.8897	0.9064	0.065
Mof_C 	C 	0.6057	0.9284	0.8616	-0.145
Mof_C 	C 	0.5772	0.8757	0.776	0.372
Mof_C 	C 	0.587	0.0134	0.8965	0.071
Mof_C 	C 	0.6115	0.0599	0.9754	-0.123
Mof_C 	C 	0.5762	0.1513	0.0196	0.381
Mof_C 	C 	0.6593	0.0196	0.018	0.053
Mof_C 	C 	0.6825	0.6418	0.8357	0.339
Mof_C 	C 	0.7368	0.6055	0.7562	-0.145
Mof_C 	C 	0.7901	0.5283	0.7308	0.078
Mof_C 	C 	0.8441	0.4961	0.6599	-0.147
Mof_C 	C 	0.8948	0.4099	0.6321	0.387
Mof_C 	C 	0.8531	0.5414	0.616	0.087
Mof_C 	C 	0.7983	0.6173	0.6405	-0.155
Mof_C 	C 	0.7976	0.6689	0.5934	0.395
Mof_C 	C 	0.7392	0.6469	0.7079	0.083
Mof_C 	C 	0.271	0.8267	0.7505	0.147
Mof_C 	C 	0.1843	0.844	0.7128	-0.23
Mof_C 	C 	0.1146	0.7798	0.6699	0.17
Mof_C 	C 	0.1278	0.7041	0.6672	-0.239
Mof_C 	C 	0.2143	0.6932	0.7086	0.145
Mof_C 	C 	0.2251	0.108	0.4662	0.342
Mof_C 	C 	0.1786	0.0661	0.5163	-0.121
Mof_C 	C 	0.1478	0.1103	0.5936	0.061
Mof_C 	C 	0.1057	0.0716	0.6384	-0.138
Mof_C 	C 	0.0772	0.1243	0.724	0.37
Mof_C 	C 	0.087	0.9866	0.6035	0.065
Mof_C 	C 	0.1115	0.9401	0.5246	-0.126
Mof_C 	C 	0.0762	0.8487	0.4804	0.386
Mof_C 	C 	0.1593	0.9804	0.482	0.055
Mof_C 	C 	0.1825	0.3582	0.6643	0.339
Mof_C 	C 	0.2368	0.3945	0.7438	-0.145
Mof_C 	C 	0.2901	0.4717	0.7692	0.078
Mof_C 	C 	0.3441	0.5039	0.8401	-0.147
Mof_C 	C 	0.3948	0.5901	0.8679	0.387
Mof_C 	C 	0.3531	0.4586	0.884	0.087
Mof_C 	C 	0.2983	0.3827	0.8595	-0.155
Mof_C 	C 	0.2976	0.3311	0.9066	0.394
Mof_C 	C 	0.2392	0.3531	0.7921	0.083
Mof_C 	C 	0.771	0.1733	0.7495	0.147
Mof_C 	C 	0.6843	0.156	0.7872	-0.231
Mof_C 	C 	0.6146	0.2202	0.8301	0.171
Mof_C 	C 	0.6278	0.2959	0.8328	-0.239
Mof_C 	C 	0.7143	0.3068	0.7914	0.145
Mof_C 	C 	0.2749	0.108	0.9662	0.346
Mof_C 	C 	0.3214	0.0661	0.0163	-0.127
Mof_C 	C 	0.3522	0.1103	0.0936	0.065
Mof_C 	C 	0.3943	0.0716	0.1384	-0.145
Mof_C 	C 	0.4228	0.1243	0.224	0.372
Mof_C 	C 	0.413	0.9866	0.1035	0.071
Mof_C 	C 	0.3885	0.9401	0.0246	-0.123
Mof_C 	C 	0.4238	0.8487	0.9804	0.381
Mof_C 	C 	0.3407	0.9804	0.982	0.053
Mof_C 	C 	0.3175	0.3582	0.1643	0.339
Mof_C 	C 	0.2632	0.3945	0.2438	-0.145
Mof_C 	C 	0.2099	0.4717	0.2692	0.078
Mof_C 	C 	0.1559	0.5039	0.3401	-0.147
Mof_C 	C 	0.1052	0.5901	0.3679	0.387
Mof_C 	C 	0.1469	0.4586	0.384	0.087
Mof_C 	C 	0.2017	0.3827	0.3595	-0.155
Mof_C 	C 	0.2024	0.3311	0.4066	0.395
Mof_C 	C 	0.2608	0.3531	0.2921	0.083
Mof_C 	C 	0.729	0.1733	0.2495	0.147
Mof_C 	C 	0.8157	0.156	0.2872	-0.23
Mof_C 	C 	0.8854	0.2202	0.3301	0.17
Mof_C 	C 	0.8722	0.2959	0.3328	-0.239
Mof_C 	C 	0.7857	0.3068	0.2914	0.145
Mof_C 	C 	0.7749	0.892	0.5338	0.342
Mof_C 	C 	0.8214	0.9339	0.4837	-0.121
Mof_C 	C 	0.8522	0.8897	0.4064	0.061
Mof_C 	C 	0.8943	0.9284	0.3616	-0.138
Mof_C 	C 	0.9228	0.8757	0.276	0.37
Mof_C 	C 	0.913	0.0134	0.3965	0.065
Mof_C 	C 	0.8885	0.0599	0.4754	-0.126
Mof_C 	C 	0.9238	0.1513	0.5196	0.386
Mof_C 	C 	0.8407	0.0196	0.518	0.055
Mof_C 	C 	0.8175	0.6418	0.3357	0.339
Mof_C 	C 	0.7632	0.6055	0.2562	-0.145
Mof_C 	C 	0.7099	0.5283	0.2308	0.078
Mof_C 	C 	0.6559	0.4961	0.1599	-0.147
Mof_C 	C 	0.6052	0.4099	0.1321	0.387
Mof_C 	C 	0.6469	0.5414	0.116	0.087
Mof_C 	C 	0.7017	0.6173	0.1405	-0.155
Mof_C 	C 	0.7024	0.6689	0.0934	0.394
Mof_C 	C 	0.7608	0.6469	0.2079	0.083
Mof_C 	C 	0.229	0.8267	0.2505	0.147
Mof_C 	C 	0.3157	0.844	0.2128	-0.231
Mof_C 	C 	0.3854	0.7798	0.1699	0.171
Mof_C 	C 	0.3722	0.7041	0.1672	-0.239
Mof_C 	C 	0.2857	0.6932	0.2086	0.145
Mof_N 	N 	0.2879	0.7522	0.7504	-0.211
Mof_N 	N 	0.7879	0.2478	0.7496	-0.211
Mof_N 	N 	0.7121	0.2478	0.2496	-0.211
Mof_N 	N 	0.2121	0.7522	0.2504	-0.211
Mof_O 	O 	0.7167	0.8131	0.0073	-0.396
Mof_O 	O 	0.7701	0.9355	0.0965	-0.363
Mof_O 	O 	0.5411	0.8027	0.7577	-0.385
Mof_O 	O 	0.5944	0.9077	0.7298	-0.382
Mof_O 	O 	0.5298	0.1847	0.9797	-0.387
Mof_O 	O 	0.5969	0.1835	0.0912	-0.387
Mof_O 	O 	0.6038	0.6964	0.8481	-0.431
Mof_O 	O 	0.7152	0.6221	0.8886	-0.322
Mof_O 	O 	0.8706	0.3705	0.673	-0.386
Mof_O 	O 	0.9547	0.384	0.572	-0.373
Mof_O 	O 	0.8865	0.6682	0.5576	-0.394
Mof_O 	O 	0.7077	0.7069	0.5941	-0.4
Mof_O 	O 	0.2167	0.1869	0.4927	-0.397
Mof_O 	O 	0.2701	0.0645	0.4035	-0.363
Mof_O 	O 	0.0411	0.1973	0.7423	-0.384
Mof_O 	O 	0.0944	0.0923	0.7702	-0.38
Mof_O 	O 	0.0298	0.8153	0.5203	-0.39
Mof_O 	O 	0.0969	0.8165	0.4088	-0.388
Mof_O 	O 	0.1038	0.3036	0.6519	-0.431
Mof_O 	O 	0.2152	0.3779	0.6114	-0.322
Mof_O 	O 	0.3706	0.6295	0.827	-0.386
Mof_O 	O 	0.4547	0.616	0.928	-0.373
Mof_O 	O 	0.3865	0.3318	0.9424	-0.393
Mof_O 	O 	0.2077	0.2931	0.9059	-0.4
Mof_O 	O 	0.2833	0.1869	0.9927	-0.396
Mof_O 	O 	0.2299	0.0645	0.9035	-0.363
Mof_O 	O 	0.4589	0.1973	0.2423	-0.385
Mof_O 	O 	0.4056	0.0923	0.2702	-0.382
Mof_O 	O 	0.4702	0.8153	0.0203	-0.387
Mof_O 	O 	0.4031	0.8165	0.9088	-0.387
Mof_O 	O 	0.3962	0.3036	0.1519	-0.431
Mof_O 	O 	0.2848	0.3779	0.1114	-0.322
Mof_O 	O 	0.1294	0.6295	0.327	-0.386
Mof_O 	O 	0.0453	0.616	0.428	-0.373
Mof_O 	O 	0.1135	0.3318	0.4424	-0.394
Mof_O 	O 	0.2923	0.2931	0.4059	-0.4
Mof_O 	O 	0.7833	0.8131	0.5073	-0.397
Mof_O 	O 	0.7299	0.9355	0.5965	-0.363
Mof_O 	O 	0.9589	0.8027	0.2577	-0.384
Mof_O 	O 	0.9056	0.9077	0.2298	-0.38
Mof_O 	O 	0.9702	0.1847	0.4797	-0.39
Mof_O 	O 	0.9031	0.1835	0.5912	-0.388
Mof_O 	O 	0.8962	0.6964	0.3481	-0.431
Mof_O 	O 	0.7848	0.6221	0.3886	-0.322
Mof_O 	O 	0.6294	0.3705	0.173	-0.386
Mof_O 	O 	0.5453	0.384	0.072	-0.373
Mof_O 	O 	0.6135	0.6682	0.0576	-0.393
Mof_O 	O 	0.7923	0.7069	0.0941	-0.4
_end
