# CIF file generated by openbabel 3.1.0, see https://openbabel.org
data_I
_chemical_name_common 'WENKEH_clean'
_cell_length_a 9.3379
_cell_length_b 15.71
_cell_length_c 22.431
_cell_angle_alpha 102.47
_cell_angle_beta 101.71
_cell_angle_gamma 104.9
_space_group_name_H-M_alt 'P 1'
_space_group_name_Hall 'P 1'
loop_
    _symmetry_equiv_pos_as_xyz
    x,y,z
loop_
    _atom_site_label
    _atom_site_type_symbol
    _atom_site_fract_x
    _atom_site_fract_y
    _atom_site_fract_z
    _atom_site_occupancy
    Pr1      Pr       0.52254    0.86191    0.80190    1.000
    Pr2      Pr       0.03597    0.91253    0.85751    1.000
    Pr3      Pr       0.47746    0.13809    0.19810    1.000
    Pr4      Pr       0.96403    0.08747    0.14249    1.000
    H1       H        0.87560    0.83620    0.66730    1.000
    H2       H        0.74730    0.83510    0.56850    1.000
    H3       H        0.27860    0.91120    0.62550    1.000
    H4       H        0.66460    0.78700    0.44980    1.000
    H5       H        0.67050    0.88570    0.48580    1.000
    H6       H        0.67970    0.86440    0.41530    1.000
    H7       H        0.97740    0.84840    0.37040    1.000
    H8       H        0.96070    0.90420    0.28260    1.000
    H9       H        0.41680    0.00660    0.32930    1.000
    H10      H        0.43950    0.95330    0.41920    1.000
    H11      H        0.00930    0.66150    0.90760    1.000
    H12      H        0.95360    0.52020    0.92570    1.000
    H13      H        0.28370    0.46640    0.84900    1.000
    H14      H        0.34180    0.60940    0.83210    1.000
    H15      H        0.13400    0.27530    0.02310    1.000
    H16      H        0.50330    0.18840    0.02990    1.000
    H17      H        0.59590    0.28720    0.97400    1.000
    H18      H        0.69790    0.42830    0.96130    1.000
    H19      H        0.61690    0.36060    0.89310    1.000
    H20      H        0.64370    0.46620    0.90440    1.000
    H21      H        0.59470    0.56040    0.80110    1.000
    H22      H        0.99180    0.56560    0.70610    1.000
    H23      H        0.92780    0.69700    0.73610    1.000
    H24      H        0.96060    0.41250    0.65390    1.000
    H25      H        0.08170    0.43680    0.71960    1.000
    H26      H        0.98500    0.33420    0.68390    1.000
    H27      H        0.26580    0.27160    0.79060    1.000
    H28      H        0.23940    0.15950    0.84220    1.000
    H29      H        0.59430    0.09590    0.78820    1.000
    H30      H        0.61850    0.20970    0.73760    1.000
    H31      H        0.51910    0.73720    0.69630    1.000
    H32      H        0.47890    0.81590    0.69050    1.000
    H33      H        0.12440    0.16380    0.33270    1.000
    H34      H        0.25270    0.16490    0.43150    1.000
    H35      H        0.72140    0.08880    0.37450    1.000
    H36      H        0.33540    0.21300    0.55020    1.000
    H37      H        0.32950    0.11430    0.51420    1.000
    H38      H        0.32030    0.13560    0.58470    1.000
    H39      H        0.02260    0.15160    0.62960    1.000
    H40      H        0.03930    0.09580    0.71740    1.000
    H41      H        0.58320    0.99340    0.67070    1.000
    H42      H        0.56050    0.04670    0.58080    1.000
    H43      H        0.99070    0.33850    0.09240    1.000
    H44      H        0.04640    0.47980    0.07430    1.000
    H45      H        0.71630    0.53360    0.15100    1.000
    H46      H        0.65820    0.39060    0.16790    1.000
    H47      H        0.86600    0.72470    0.97690    1.000
    H48      H        0.49670    0.81160    0.97010    1.000
    H49      H        0.40410    0.71280    0.02600    1.000
    H50      H        0.30210    0.57170    0.03870    1.000
    H51      H        0.38310    0.63940    0.10690    1.000
    H52      H        0.35630    0.53380    0.09560    1.000
    H53      H        0.40530    0.43960    0.19890    1.000
    H54      H        0.00820    0.43440    0.29390    1.000
    H55      H        0.07220    0.30300    0.26390    1.000
    H56      H        0.03940    0.58750    0.34610    1.000
    H57      H        0.91830    0.56320    0.28040    1.000
    H58      H        0.01500    0.66580    0.31610    1.000
    H59      H        0.73420    0.72840    0.20940    1.000
    H60      H        0.76060    0.84050    0.15780    1.000
    H61      H        0.40570    0.90410    0.21180    1.000
    H62      H        0.38150    0.79030    0.26240    1.000
    H63      H        0.48090    0.26280    0.30370    1.000
    H64      H        0.52110    0.18410    0.30950    1.000
    C1       C        0.17380    0.87540    0.72190    1.000
    C2       C        0.09210    0.87650    0.65790    1.000
    C3       C        0.93130    0.85220    0.63910    1.000
    C4       C        0.85420    0.85140    0.57980    1.000
    C5       C        0.93350    0.87460    0.53650    1.000
    C6       C        0.09370    0.89930    0.55570    1.000
    C7       C        0.17210    0.89780    0.61490    1.000
    C8       C        0.70840    0.85150    0.45520    1.000
    C9       C        0.20800    0.89430    0.40190    1.000
    C10      C        0.06650    0.88040    0.36220    1.000
    C11      C        0.05660    0.91410    0.30980    1.000
    C12      C        0.18820    0.96200    0.29810    1.000
    C13      C        0.32820    0.97510    0.33810    1.000
    C14      C        0.34360    0.94280    0.39170    1.000
    C15      C        0.17500    0.99880    0.24160    1.000
    C16      C        0.21280    0.74140    0.85430    1.000
    C17      C        0.18110    0.64990    0.86770    1.000
    C18      C        0.06500    0.62240    0.89600    1.000
    C19      C        0.03180    0.53820    0.90680    1.000
    C20      C        0.11420    0.47920    0.88980    1.000
    C21      C        0.22920    0.50590    0.86120    1.000
    C22      C        0.26310    0.59120    0.85070    1.000
    C23      C        0.28480    0.33720    0.98210    1.000
    C24      C        0.22750    0.27800    0.01390    1.000
    C25      C        0.30930    0.22200    0.03240    1.000
    C26      C        0.44790    0.22600    0.01740    1.000
    C27      C        0.50380    0.28540    0.98430    1.000
    C28      C        0.42280    0.34240    0.96630    1.000
    C29      C        0.24750    0.15980    0.06960    1.000
    C30      C        0.62000    0.41590    0.92250    1.000
    C31      C        0.70140    0.72480    0.78830    1.000
    C32      C        0.75470    0.64280    0.77190    1.000
    C33      C        0.67560    0.56220    0.78250    1.000
    C34      C        0.71850    0.48550    0.76530    1.000
    C35      C        0.83640    0.48500    0.73750    1.000
    C36      C        0.91330    0.56500    0.72580    1.000
    C37      C        0.87420    0.64320    0.74340    1.000
    C38      C        0.98310    0.39640    0.69290    1.000
    C39      C        0.44780    0.25220    0.76130    1.000
    C40      C        0.33230    0.23660    0.79110    1.000
    C41      C        0.31600    0.16960    0.82130    1.000
    C42      C        0.41470    0.11620    0.82080    1.000
    C43      C        0.52870    0.13160    0.78910    1.000
    C44      C        0.54350    0.19950    0.75920    1.000
    C45      C        0.40130    0.04100    0.85510    1.000
    C46      C        0.82620    0.12460    0.27810    1.000
    C47      C        0.90790    0.12350    0.34210    1.000
    C48      C        0.06870    0.14780    0.36090    1.000
    C49      C        0.14580    0.14860    0.42020    1.000
    C50      C        0.06650    0.12540    0.46350    1.000
    C51      C        0.90630    0.10070    0.44430    1.000
    C52      C        0.82790    0.10220    0.38510    1.000
    C53      C        0.29160    0.14850    0.54480    1.000
    C54      C        0.79200    0.10570    0.59810    1.000
    C55      C        0.93350    0.11960    0.63780    1.000
    C56      C        0.94340    0.08590    0.69020    1.000
    C57      C        0.81180    0.03800    0.70190    1.000
    C58      C        0.67180    0.02490    0.66190    1.000
    C59      C        0.65640    0.05720    0.60830    1.000
    C60      C        0.82500    0.00120    0.75840    1.000
    C61      C        0.78720    0.25860    0.14570    1.000
    C62      C        0.81890    0.35010    0.13230    1.000
    C63      C        0.93500    0.37760    0.10400    1.000
    C64      C        0.96820    0.46180    0.09320    1.000
    C65      C        0.88580    0.52080    0.11020    1.000
    C66      C        0.77080    0.49410    0.13880    1.000
    C67      C        0.73690    0.40880    0.14930    1.000
    C68      C        0.71520    0.66280    0.01790    1.000
    C69      C        0.77250    0.72200    0.98610    1.000
    C70      C        0.69070    0.77800    0.96760    1.000
    C71      C        0.55210    0.77400    0.98260    1.000
    C72      C        0.49620    0.71460    0.01570    1.000
    C73      C        0.57720    0.65760    0.03370    1.000
    C74      C        0.75250    0.84020    0.93040    1.000
    C75      C        0.38000    0.58410    0.07750    1.000
    C76      C        0.29860    0.27520    0.21170    1.000
    C77      C        0.24530    0.35720    0.22810    1.000
    C78      C        0.32440    0.43780    0.21750    1.000
    C79      C        0.28150    0.51450    0.23470    1.000
    C80      C        0.16360    0.51500    0.26250    1.000
    C81      C        0.08670    0.43500    0.27420    1.000
    C82      C        0.12580    0.35680    0.25660    1.000
    C83      C        0.01690    0.60360    0.30710    1.000
    C84      C        0.55220    0.74780    0.23870    1.000
    C85      C        0.66770    0.76340    0.20890    1.000
    C86      C        0.68400    0.83040    0.17870    1.000
    C87      C        0.58530    0.88380    0.17920    1.000
    C88      C        0.47130    0.86840    0.21090    1.000
    C89      C        0.45650    0.80050    0.24080    1.000
    C90      C        0.59870    0.95900    0.14490    1.000
    S1       S        0.22240    0.84961    0.46792    1.000
    S2       S        0.07420    0.37221    0.90464    1.000
    S3       S        0.47850    0.34373    0.72817    1.000
    S4       S        0.77760    0.15039    0.53208    1.000
    S5       S        0.92580    0.62779    0.09536    1.000
    S6       S        0.52150    0.65627    0.27183    1.000
    O1       O        0.09510    0.85970    0.76080    1.000
    O2       O        0.31760    0.89090    0.73410    1.000
    O3       O        0.87240    0.87730    0.47700    1.000
    O4       O        0.17730    0.92530    0.51370    1.000
    O5       O        0.10630    0.76310    0.45270    1.000
    O6       O        0.37920    0.85830    0.49490    1.000
    O7       O        0.04800    0.99620    0.21140    1.000
    O8       O        0.29970    0.03100    0.22790    1.000
    O9       O        0.14050    0.79190    0.87420    1.000
    O10      O        0.30970    0.76030    0.82350    1.000
    O11      O        0.93380    0.35060    0.92120    1.000
    O12      O        0.09700    0.30510    0.85730    1.000
    O13      O        0.21090    0.40000    0.96790    1.000
    O14      O        0.50750    0.00740    0.86360    1.000
    O15      O        0.28230    0.01990    0.87370    1.000
    O16      O        0.11690    0.15420    0.07620    1.000
    O17      O        0.33110    0.11500    0.09240    1.000
    O18      O        0.36680    0.38930    0.73550    1.000
    O19      O        0.63870    0.40490    0.77780    1.000
    O20      O        0.44570    0.75940    0.68820    1.000
    O21      O        0.57300    0.71330    0.80040    1.000
    O22      O        0.47070    0.40460    0.93550    1.000
    O23      O        0.78220    0.80460    0.78910    1.000
    O24      O        0.86810    0.40480    0.72420    1.000
    O25      O        0.50410    0.31770    0.66780    1.000
    O26      O        0.90490    0.14030    0.23920    1.000
    O27      O        0.68240    0.10910    0.26590    1.000
    O28      O        0.12760    0.12270    0.52300    1.000
    O29      O        0.82270    0.07470    0.48630    1.000
    O30      O        0.89370    0.23690    0.54730    1.000
    O31      O        0.62080    0.14170    0.50510    1.000
    O32      O        0.95200    0.00380    0.78860    1.000
    O33      O        0.70030    0.96900    0.77210    1.000
    O34      O        0.85950    0.20810    0.12580    1.000
    O35      O        0.69030    0.23970    0.17650    1.000
    O36      O        0.06620    0.64940    0.07880    1.000
    O37      O        0.90300    0.69490    0.14270    1.000
    O38      O        0.78910    0.60000    0.03210    1.000
    O39      O        0.49250    0.99260    0.13640    1.000
    O40      O        0.71770    0.98010    0.12630    1.000
    O41      O        0.88310    0.84580    0.92380    1.000
    O42      O        0.66890    0.88500    0.90760    1.000
    O43      O        0.63320    0.61070    0.26450    1.000
    O44      O        0.36130    0.59510    0.22220    1.000
    O45      O        0.55430    0.24060    0.31180    1.000
    O46      O        0.42700    0.28670    0.19960    1.000
    O47      O        0.52930    0.59540    0.06450    1.000
    O48      O        0.21780    0.19540    0.21090    1.000
    O49      O        0.13190    0.59520    0.27580    1.000
    O50      O        0.49590    0.68230    0.33220    1.000
