data_functionalizedCrystal
_audit_creation_method	'EQeq! by Chris Wilmer'
_symmetry_space_group_name_H-M	'P1'
_symmetry_Int_Tables_number	1
_symmetry_cell_setting	triclinic
loop_
_symmetry_equiv_pos_as_xyz
  x,y,z
_cell_length_a	12.8987
_cell_length_b	12.8987
_cell_length_c	12.8987
_cell_angle_alpha	90
_cell_angle_beta	90
_cell_angle_gamma	90
loop_
_atom_site_label
_atom_site_type_symbol
_atom_site_fract_x
_atom_site_fract_y
_atom_site_fract_z
_atom_site_charge
Mof_N 	N 	0.64301	0.93989	0.95619	-0.012
Mof_N 	N 	0.72548	0.98096	0.96543	0.094
Mof_N 	N 	0.80704	0.01736	0.97196	-0.164
Mof_N 	N 	0.85699	0.06011	0.45619	-0.078
Mof_N 	N 	0.77452	0.01904	0.46543	-0.118
Mof_N 	N 	0.69296	0.98264	0.47196	-0.108
Mof_N 	N 	0.35699	0.43989	0.54381	-0.147
Mof_N 	N 	0.27452	0.48096	0.53457	-0.034
Mof_N 	N 	0.19296	0.51736	0.52804	-0.249
Mof_N 	N 	0.14301	0.56011	0.04381	-0.169
Mof_N 	N 	0.22548	0.51904	0.03457	-0.051
Mof_N 	N 	0.30704	0.48264	0.02804	-0.271
Mof_N 	N 	0.95619	0.64301	0.93989	-0.011
Mof_N 	N 	0.96543	0.72548	0.98096	0.095
Mof_N 	N 	0.97196	0.80704	0.01736	-0.163
Mof_N 	N 	0.45619	0.85699	0.06011	-0.077
Mof_N 	N 	0.46543	0.77452	0.01904	-0.117
Mof_N 	N 	0.47196	0.69296	0.98264	-0.107
Mof_N 	N 	0.54381	0.35699	0.43989	-0.146
Mof_N 	N 	0.53457	0.27452	0.48096	-0.033
Mof_N 	N 	0.52804	0.19296	0.51736	-0.249
Mof_N 	N 	0.04381	0.14301	0.56011	-0.169
Mof_N 	N 	0.03457	0.22548	0.51904	-0.051
Mof_N 	N 	0.02804	0.30704	0.48264	-0.271
Mof_N 	N 	0.93989	0.95619	0.64301	-0.011
Mof_N 	N 	0.98096	0.96543	0.72548	0.095
Mof_N 	N 	0.01736	0.97196	0.80704	-0.163
Mof_N 	N 	0.06011	0.45619	0.85699	-0.077
Mof_N 	N 	0.01904	0.46543	0.77452	-0.117
Mof_N 	N 	0.98264	0.47196	0.69296	-0.107
Mof_N 	N 	0.43989	0.54381	0.35699	-0.146
Mof_N 	N 	0.48096	0.53457	0.27452	-0.033
Mof_N 	N 	0.51736	0.52804	0.19296	-0.249
Mof_N 	N 	0.56011	0.04381	0.14301	-0.169
Mof_N 	N 	0.51904	0.03457	0.22548	-0.051
Mof_N 	N 	0.48264	0.02804	0.30704	-0.271
Mof_N 	N 	0.35699	0.06011	0.04381	-0.159
Mof_N 	N 	0.27452	0.01904	0.03457	-0.149
Mof_N 	N 	0.19296	0.98264	0.02804	-0.089
Mof_N 	N 	0.14301	0.93989	0.54381	-0.1
Mof_N 	N 	0.22548	0.98096	0.53457	0.071
Mof_N 	N 	0.30704	0.01736	0.52804	-0.334
Mof_N 	N 	0.64301	0.56011	0.45619	-0.135
Mof_N 	N 	0.72548	0.51904	0.46543	-0.025
Mof_N 	N 	0.80704	0.48264	0.47196	-0.198
Mof_N 	N 	0.85699	0.43989	0.95619	-0.008
Mof_N 	N 	0.77452	0.48096	0.96543	0.002
Mof_N 	N 	0.69296	0.51736	0.97196	-0.169
Mof_N 	N 	0.04381	0.35699	0.06011	-0.159
Mof_N 	N 	0.03457	0.27452	0.01904	-0.149
Mof_N 	N 	0.02804	0.19296	0.98264	-0.089
Mof_N 	N 	0.54381	0.14301	0.93989	-0.1
Mof_N 	N 	0.53457	0.22548	0.98096	0.071
Mof_N 	N 	0.52804	0.30704	0.01736	-0.334
Mof_N 	N 	0.45619	0.64301	0.56011	-0.135
Mof_N 	N 	0.46543	0.72548	0.51904	-0.025
Mof_N 	N 	0.47196	0.80704	0.48264	-0.198
Mof_N 	N 	0.95619	0.85699	0.43989	-0.008
Mof_N 	N 	0.96543	0.77452	0.48096	0.002
Mof_N 	N 	0.97196	0.69296	0.51736	-0.169
Mof_N 	N 	0.06011	0.04381	0.35699	-0.159
Mof_N 	N 	0.01904	0.03457	0.27452	-0.149
Mof_N 	N 	0.98264	0.02804	0.19296	-0.089
Mof_N 	N 	0.93989	0.54381	0.14301	-0.1
Mof_N 	N 	0.98096	0.53457	0.22548	0.071
Mof_N 	N 	0.01736	0.52804	0.30704	-0.334
Mof_N 	N 	0.56011	0.45619	0.64301	-0.135
Mof_N 	N 	0.51904	0.46543	0.72548	-0.025
Mof_N 	N 	0.48264	0.47196	0.80704	-0.198
Mof_N 	N 	0.43989	0.95619	0.85699	-0.008
Mof_N 	N 	0.48096	0.96543	0.77452	0.002
Mof_N 	N 	0.51736	0.97196	0.69296	-0.169
Mof_Fe	Fe	0.5	0	-0	0.329
Mof_Fe	Fe	-4.00673e-33	-5.88143e-33	0.5	0.329
Mof_Fe	Fe	0.5	0.5	0.5	0.713
Mof_Fe	Fe	-5.88143e-33	0.5	-0	0.329
Mof_Na	Na	-0	0	-0	0.879
Mof_Na	Na	0.5	-5.88143e-33	0.5	1.735
Mof_Na	Na	-9.88815e-33	0.5	0.5	1.735
Mof_Na	Na	0.5	0.5	-0	1.735
_end
