# CIF file generated by openbabel 3.1.0, see https://openbabel.org
data_I
_chemical_name_common 'image0'
_cell_length_a 10.4236
_cell_length_b 10.4236
_cell_length_c 8.9487
_cell_angle_alpha 90
_cell_angle_beta 90
_cell_angle_gamma 90
_space_group_name_H-M_alt 'P 1'
_space_group_name_Hall 'P 1'
loop_
    _symmetry_equiv_pos_as_xyz
    x,y,z
loop_
    _atom_site_label
    _atom_site_type_symbol
    _atom_site_fract_x
    _atom_site_fract_y
    _atom_site_fract_z
    _atom_site_occupancy
    P1       P        0.61010    0.40660    0.20160    1.000
    Co1      Co       0.37150    0.60960    0.16000    1.000
    O1       O        0.50400    0.50010    0.24650    1.000
    O2       O        0.66020    0.43740    0.04560    1.000
    O3       O        0.71590    0.42630    0.31710    1.000
    O4       O        0.55730    0.27110    0.21160    1.000
    P2       P        0.88990    0.09340    0.20160    1.000
    Co2      Co       0.12850    0.89040    0.16000    1.000
    O5       O        0.99600    0.99990    0.24650    1.000
    O6       O        0.83980    0.06260    0.04560    1.000
    O7       O        0.78410    0.07370    0.31710    1.000
    O8       O        0.94270    0.22890    0.21160    1.000
    P3       P        0.59340    0.11010    0.70160    1.000
    Co3      Co       0.39040    0.87150    0.66000    1.000
    O9       O        0.49990    0.00400    0.74650    1.000
    O10      O        0.56260    0.16020    0.54560    1.000
    O11      O        0.57370    0.21590    0.81710    1.000
    O12      O        0.72890    0.05730    0.71160    1.000
    P4       P        0.90660    0.38990    0.70160    1.000
    Co4      Co       0.10960    0.62850    0.66000    1.000
    O13      O        0.00010    0.49600    0.74650    1.000
    O14      O        0.93740    0.33980    0.54560    1.000
    O15      O        0.92630    0.28410    0.81710    1.000
    O16      O        0.77110    0.44270    0.71160    1.000
    P5       P        0.38990    0.59340    0.79840    1.000
    Co5      Co       0.62850    0.39040    0.84000    1.000
    O17      O        0.49600    0.49990    0.75350    1.000
    O18      O        0.33980    0.56260    0.95440    1.000
    O19      O        0.28410    0.57370    0.68290    1.000
    O20      O        0.44270    0.72890    0.78840    1.000
    P6       P        0.11010    0.90660    0.79840    1.000
    Co6      Co       0.87150    0.10960    0.84000    1.000
    O21      O        0.00400    0.00010    0.75350    1.000
    O22      O        0.16020    0.93740    0.95440    1.000
    O23      O        0.21590    0.92630    0.68290    1.000
    O24      O        0.05730    0.77110    0.78840    1.000
    P7       P        0.40660    0.88990    0.29840    1.000
    Co7      Co       0.60960    0.12850    0.34000    1.000
    O25      O        0.50010    0.99600    0.25350    1.000
    O26      O        0.43740    0.83980    0.45440    1.000
    O27      O        0.42630    0.78410    0.18290    1.000
    O28      O        0.27110    0.94270    0.28840    1.000
    P8       P        0.09340    0.61010    0.29840    1.000
    Co8      Co       0.89040    0.37150    0.34000    1.000
    O29      O        0.99990    0.50400    0.25350    1.000
    O30      O        0.06260    0.66020    0.45440    1.000
    O31      O        0.07370    0.71590    0.18290    1.000
    O32      O        0.22890    0.55730    0.28840    1.000
