data_functionalizedCrystal
_audit_creation_method	'EQeq! by Chris Wilmer'
_symmetry_space_group_name_H-M	'P1'
_symmetry_Int_Tables_number	1
_symmetry_cell_setting	triclinic
loop_
_symmetry_equiv_pos_as_xyz
  x,y,z
_cell_length_a	6.592
_cell_length_b	6.6862
_cell_length_c	6.6862
_cell_angle_alpha	115.365
_cell_angle_beta	106.435
_cell_angle_gamma	73.5646
loop_
_atom_site_label
_atom_site_type_symbol
_atom_site_fract_x
_atom_site_fract_y
_atom_site_fract_z
_atom_site_charge
Mof_Dy	Dy	-0	0	-0	1.232
Mof_H 	H 	0.886	0.464	0.846	0.025
Mof_H 	H 	0.114	0.846	0.464	-0.252
Mof_H 	H 	0.5	0.07	0.07	-0.238
Mof_C 	C 	0.0349	0.4677	0.9377	0.346
Mof_C 	C 	0.9651	0.9377	0.4677	0.777
Mof_C 	C 	0.5	0.9299	0.9299	0.676
Mof_O 	O 	0.1203	0.3112	0.0038	-0.514
Mof_O 	O 	0.1168	0.6298	0.9748	-0.369
Mof_O 	O 	0.6633	0.8593	0.8449	-0.368
Mof_O 	O 	0.8797	0.0038	0.3112	-0.507
Mof_O 	O 	0.8832	0.9748	0.6298	-0.396
Mof_O 	O 	0.3367	0.8449	0.8593	-0.412
_end
