# CIF file generated by openbabel 3.1.0, see https://openbabel.org
data_I
_chemical_name_common 'image0'
_cell_length_a 30.095
_cell_length_b 30.095
_cell_length_c 6.7707
_cell_angle_alpha 90
_cell_angle_beta 90
_cell_angle_gamma 120
_space_group_name_H-M_alt 'P 1'
_space_group_name_Hall 'P 1'
loop_
    _symmetry_equiv_pos_as_xyz
    x,y,z
loop_
    _atom_site_label
    _atom_site_type_symbol
    _atom_site_fract_x
    _atom_site_fract_y
    _atom_site_fract_z
    _atom_site_occupancy
    C1       C        0.20062    0.29965    0.29880    1.000
    Zn1      Zn       0.18109    0.21764    0.57502    1.000
    Zn2      Zn       0.22094    0.22715    0.07339    1.000
    O1       O        0.18156    0.18628    0.84680    1.000
    O2       O        0.19858    0.25167    0.29880    1.000
    N1       N        0.18983    0.16001    0.45800    1.000
    N2       N        0.20517    0.16068    0.27010    1.000
    N3       N        0.21440    0.12346    0.24040    1.000
    N4       N        0.20446    0.09693    0.41220    1.000
    N5       N        0.28440    0.36863    0.73860    1.000
    N6       N        0.27619    0.34376    0.91220    1.000
    N7       N        0.24402    0.29525    0.88120    1.000
    N8       N        0.23050    0.28784    0.68960    1.000
    C2       C        0.18969    0.12026    0.54290    1.000
    C3       C        0.17548    0.10506    0.75480    1.000
    H1       H        0.20620    0.11310    0.82910    1.000
    H2       H        0.15240    0.06830    0.76210    1.000
    C4       C        0.14962    0.13253    0.84800    1.000
    H3       H        0.11830    0.12350    0.77630    1.000
    H4       H        0.14030    0.12090    0.98330    1.000
    C5       C        0.25605    0.33389    0.60460    1.000
    C6       C        0.25111    0.34190    0.38880    1.000
    H5       H        0.27970    0.34290    0.31850    1.000
    H6       H        0.25310    0.37480    0.37090    1.000
    C7       C        0.17790    0.29810    0.36700    1.000
    C8       C        0.86729    0.63298    0.63213    1.000
    Zn3      Zn       0.84775    0.55097    0.90835    1.000
    Zn4      Zn       0.88761    0.56049    0.40672    1.000
    O3       O        0.84823    0.51961    0.18013    1.000
    O4       O        0.86525    0.58500    0.63213    1.000
    N9       N        0.85650    0.49334    0.79133    1.000
    N10      N        0.87184    0.49401    0.60343    1.000
    N11      N        0.88107    0.45679    0.57373    1.000
    N12      N        0.87113    0.43026    0.74553    1.000
    N13      N        0.95107    0.70196    0.07193    1.000
    N14      N        0.94286    0.67709    0.24553    1.000
    N15      N        0.91069    0.62858    0.21453    1.000
    N16      N        0.89717    0.62117    0.02293    1.000
    C9       C        0.85636    0.45359    0.87623    1.000
    C10      C        0.84215    0.43839    0.08813    1.000
    H7       H        0.87287    0.44643    0.16243    1.000
    H8       H        0.81907    0.40163    0.09543    1.000
    C11      C        0.81629    0.46586    0.18133    1.000
    H9       H        0.78497    0.45683    0.10963    1.000
    H10      H        0.80697    0.45423    0.31663    1.000
    C12      C        0.92272    0.66722    0.93793    1.000
    C13      C        0.91778    0.67523    0.72213    1.000
    H11      H        0.94637    0.67623    0.65183    1.000
    H12      H        0.91977    0.70813    0.70423    1.000
    C14      C        0.84457    0.63143    0.70033    1.000
    C15      C        0.53395    0.96632    0.96547    1.000
    Zn5      Zn       0.51442    0.88430    0.24169    1.000
    Zn6      Zn       0.55428    0.89382    0.74006    1.000
    O5       O        0.51489    0.85295    0.51347    1.000
    O6       O        0.53191    0.91834    0.96547    1.000
    N17      N        0.52316    0.82668    0.12467    1.000
    N18      N        0.53850    0.82735    0.93677    1.000
    N19      N        0.54773    0.79013    0.90707    1.000
    N20      N        0.53779    0.76360    0.07887    1.000
    N21      N        0.61773    0.03530    0.40527    1.000
    N22      N        0.60952    0.01043    0.57887    1.000
    N23      N        0.57735    0.96192    0.54787    1.000
    N24      N        0.56383    0.95451    0.35627    1.000
    C16      C        0.52302    0.78693    0.20957    1.000
    C17      C        0.50881    0.77173    0.42147    1.000
    H13      H        0.53953    0.77977    0.49577    1.000
    H14      H        0.48573    0.73497    0.42877    1.000
    C18      C        0.48295    0.79920    0.51467    1.000
    H15      H        0.45163    0.79017    0.44297    1.000
    H16      H        0.47363    0.78757    0.64997    1.000
    C19      C        0.58938    0.00056    0.27127    1.000
    C20      C        0.58444    0.00857    0.05547    1.000
    H17      H        0.61303    0.00957    0.98517    1.000
    H18      H        0.58643    0.04147    0.03757    1.000
    C21      C        0.51123    0.96477    0.03367    1.000
    C22      C        0.70035    0.90097    0.29880    1.000
    Zn7      Zn       0.78236    0.96345    0.57502    1.000
    Zn8      Zn       0.77285    0.99379    0.07339    1.000
    O7       O        0.81372    0.99528    0.84680    1.000
    O8       O        0.74833    0.94691    0.29880    1.000
    N25      N        0.83999    0.02982    0.45800    1.000
    N26      N        0.83932    0.04449    0.27010    1.000
    N27      N        0.87654    0.09094    0.24040    1.000
    N28      N        0.90307    0.10753    0.41220    1.000
    N29      N        0.63137    0.91577    0.73860    1.000
    N30      N        0.65624    0.93243    0.91220    1.000
    N31      N        0.70475    0.94877    0.88120    1.000
    N32      N        0.71216    0.94266    0.68960    1.000
    C23      C        0.87974    0.06943    0.54290    1.000
    C24      C        0.89494    0.07042    0.75480    1.000
    H19      H        0.88690    0.09310    0.82910    1.000
    H20      H        0.93170    0.08410    0.76210    1.000
    C25      C        0.86747    0.01709    0.84800    1.000
    H21      H        0.87650    0.99480    0.77630    1.000
    H22      H        0.87910    0.01940    0.98330    1.000
    C26      C        0.66611    0.92216    0.60460    1.000
    C27      C        0.65810    0.90921    0.38880    1.000
    H23      H        0.65710    0.93680    0.31850    1.000
    H24      H        0.62520    0.87830    0.37090    1.000
    C28      C        0.70190    0.87980    0.36700    1.000
    C29      C        0.36702    0.23430    0.63213    1.000
    Zn9      Zn       0.44903    0.29678    0.90835    1.000
    Zn10     Zn       0.43951    0.32712    0.40672    1.000
    O9       O        0.48039    0.32861    0.18013    1.000
    O10      O        0.41500    0.28024    0.63213    1.000
    N33      N        0.50666    0.36315    0.79133    1.000
    N34      N        0.50599    0.37782    0.60343    1.000
    N35      N        0.54321    0.42427    0.57373    1.000
    N36      N        0.56974    0.44086    0.74553    1.000
    N37      N        0.29804    0.24910    0.07193    1.000
    N38      N        0.32291    0.26576    0.24553    1.000
    N39      N        0.37142    0.28210    0.21453    1.000
    N40      N        0.37883    0.27599    0.02293    1.000
    C30      C        0.54641    0.40276    0.87623    1.000
    C31      C        0.56161    0.40375    0.08813    1.000
    H25      H        0.55357    0.42643    0.16243    1.000
    H26      H        0.59837    0.41743    0.09543    1.000
    C32      C        0.53414    0.35042    0.18133    1.000
    H27      H        0.54317    0.32813    0.10963    1.000
    H28      H        0.54577    0.35273    0.31663    1.000
    C33      C        0.33278    0.25549    0.93793    1.000
    C34      C        0.32477    0.24254    0.72213    1.000
    H29      H        0.32377    0.27013    0.65183    1.000
    H30      H        0.29187    0.21163    0.70423    1.000
    C35      C        0.36857    0.21313    0.70033    1.000
    C36      C        0.03368    0.56764    0.96547    1.000
    Zn11     Zn       0.11570    0.63012    0.24169    1.000
    Zn12     Zn       0.10618    0.66046    0.74006    1.000
    O11      O        0.14705    0.66195    0.51347    1.000
    O12      O        0.08166    0.61358    0.96547    1.000
    N41      N        0.17332    0.69649    0.12467    1.000
    N42      N        0.17265    0.71116    0.93677    1.000
    N43      N        0.20987    0.75761    0.90707    1.000
    N44      N        0.23640    0.77420    0.07887    1.000
    N45      N        0.96470    0.58244    0.40527    1.000
    N46      N        0.98957    0.59910    0.57887    1.000
    N47      N        0.03808    0.61544    0.54787    1.000
    N48      N        0.04549    0.60933    0.35627    1.000
    C37      C        0.21307    0.73610    0.20957    1.000
    C38      C        0.22827    0.73709    0.42147    1.000
    H31      H        0.22023    0.75977    0.49577    1.000
    H32      H        0.26503    0.75077    0.42877    1.000
    C39      C        0.20080    0.68376    0.51467    1.000
    H33      H        0.20983    0.66147    0.44297    1.000
    H34      H        0.21243    0.68607    0.64997    1.000
    C40      C        0.99944    0.58883    0.27127    1.000
    C41      C        0.99143    0.57588    0.05547    1.000
    H35      H        0.99043    0.60347    0.98517    1.000
    H36      H        0.95853    0.54497    0.03757    1.000
    C42      C        0.03523    0.54647    0.03367    1.000
    C43      C        0.09903    0.79938    0.29880    1.000
    Zn13     Zn       0.03655    0.81891    0.57502    1.000
    Zn14     Zn       0.00621    0.77906    0.07339    1.000
    O13      O        0.00472    0.81844    0.84680    1.000
    O14      O        0.05309    0.80142    0.29880    1.000
    N49      N        0.97018    0.81017    0.45800    1.000
    N50      N        0.95551    0.79483    0.27010    1.000
    N51      N        0.90906    0.78560    0.24040    1.000
    N52      N        0.89247    0.79554    0.41220    1.000
    N53      N        0.08423    0.71560    0.73860    1.000
    N54      N        0.06757    0.72381    0.91220    1.000
    N55      N        0.05123    0.75598    0.88120    1.000
    N56      N        0.05734    0.76950    0.68960    1.000
    C44      C        0.93057    0.81031    0.54290    1.000
    C45      C        0.92958    0.82452    0.75480    1.000
    H37      H        0.90690    0.79380    0.82910    1.000
    H38      H        0.91590    0.84760    0.76210    1.000
    C46      C        0.98291    0.85038    0.84800    1.000
    H39      H        0.00520    0.88170    0.77630    1.000
    H40      H        0.98060    0.85970    0.98330    1.000
    C47      C        0.07784    0.74395    0.60460    1.000
    C48      C        0.09079    0.74889    0.38880    1.000
    H41      H        0.06320    0.72030    0.31850    1.000
    H42      H        0.12170    0.74690    0.37090    1.000
    C49      C        0.12020    0.82210    0.36700    1.000
    C50      C        0.76570    0.13271    0.63213    1.000
    Zn15     Zn       0.70322    0.15225    0.90835    1.000
    Zn16     Zn       0.67288    0.11239    0.40672    1.000
    O15      O        0.67139    0.15177    0.18013    1.000
    O16      O        0.71976    0.13475    0.63213    1.000
    N57      N        0.63685    0.14350    0.79133    1.000
    N58      N        0.62218    0.12816    0.60343    1.000
    N59      N        0.57573    0.11893    0.57373    1.000
    N60      N        0.55914    0.12887    0.74553    1.000
    N61      N        0.75090    0.04893    0.07193    1.000
    N62      N        0.73424    0.05714    0.24553    1.000
    N63      N        0.71790    0.08931    0.21453    1.000
    N64      N        0.72401    0.10283    0.02293    1.000
    C51      C        0.59724    0.14364    0.87623    1.000
    C52      C        0.59625    0.15785    0.08813    1.000
    H43      H        0.57357    0.12713    0.16243    1.000
    H44      H        0.58257    0.18093    0.09543    1.000
    C53      C        0.64958    0.18371    0.18133    1.000
    H45      H        0.67187    0.21503    0.10963    1.000
    H46      H        0.64727    0.19303    0.31663    1.000
    C54      C        0.74451    0.07728    0.93793    1.000
    C55      C        0.75746    0.08222    0.72213    1.000
    H47      H        0.72987    0.05363    0.65183    1.000
    H48      H        0.78837    0.08023    0.70423    1.000
    C56      C        0.78687    0.15543    0.70033    1.000
    C57      C        0.43236    0.46605    0.96547    1.000
    Zn17     Zn       0.36988    0.48558    0.24169    1.000
    Zn18     Zn       0.33954    0.44572    0.74006    1.000
    O17      O        0.33805    0.48511    0.51347    1.000
    O18      O        0.38642    0.46809    0.96547    1.000
    N65      N        0.30351    0.47684    0.12467    1.000
    N66      N        0.28884    0.46150    0.93677    1.000
    N67      N        0.24239    0.45227    0.90707    1.000
    N68      N        0.22580    0.46221    0.07887    1.000
    N69      N        0.41756    0.38227    0.40527    1.000
    N70      N        0.40090    0.39048    0.57887    1.000
    N71      N        0.38456    0.42265    0.54787    1.000
    N72      N        0.39067    0.43617    0.35627    1.000
    C58      C        0.26390    0.47698    0.20957    1.000
    C59      C        0.26291    0.49119    0.42147    1.000
    H49      H        0.24023    0.46047    0.49577    1.000
    H50      H        0.24923    0.51427    0.42877    1.000
    C60      C        0.31624    0.51705    0.51467    1.000
    H51      H        0.33853    0.54837    0.44297    1.000
    H52      H        0.31393    0.52637    0.64997    1.000
    C61      C        0.41117    0.41062    0.27127    1.000
    C62      C        0.42412    0.41556    0.05547    1.000
    H53      H        0.39653    0.38697    0.98517    1.000
    H54      H        0.45503    0.41357    0.03757    1.000
    C63      C        0.45353    0.48877    0.03367    1.000
    C64      C        0.79938    0.70035    0.70120    1.000
    Zn19     Zn       0.81891    0.78236    0.42498    1.000
    Zn20     Zn       0.77906    0.77285    0.92661    1.000
    O19      O        0.81844    0.81372    0.15320    1.000
    O20      O        0.80142    0.74833    0.70120    1.000
    N73      N        0.81017    0.83999    0.54200    1.000
    N74      N        0.79483    0.83932    0.72990    1.000
    N75      N        0.78560    0.87654    0.75960    1.000
    N76      N        0.79554    0.90307    0.58780    1.000
    N77      N        0.71560    0.63137    0.26140    1.000
    N78      N        0.72381    0.65624    0.08780    1.000
    N79      N        0.75598    0.70475    0.11880    1.000
    N80      N        0.76950    0.71216    0.31040    1.000
    C65      C        0.81031    0.87974    0.45710    1.000
    C66      C        0.82452    0.89494    0.24520    1.000
    H55      H        0.79380    0.88690    0.17090    1.000
    H56      H        0.84760    0.93170    0.23790    1.000
    C67      C        0.85038    0.86747    0.15200    1.000
    H57      H        0.88170    0.87650    0.22370    1.000
    H58      H        0.85970    0.87910    0.01670    1.000
    C68      C        0.74395    0.66611    0.39540    1.000
    C69      C        0.74889    0.65810    0.61120    1.000
    H59      H        0.72030    0.65710    0.68150    1.000
    H60      H        0.74690    0.62520    0.62910    1.000
    C70      C        0.82210    0.70190    0.63300    1.000
    C71      C        0.46605    0.03368    0.03453    1.000
    Zn21     Zn       0.48558    0.11570    0.75831    1.000
    Zn22     Zn       0.44572    0.10618    0.25994    1.000
    O21      O        0.48511    0.14705    0.48653    1.000
    O22      O        0.46809    0.08166    0.03453    1.000
    N81      N        0.47684    0.17332    0.87533    1.000
    N82      N        0.46150    0.17265    0.06323    1.000
    N83      N        0.45227    0.20987    0.09293    1.000
    N84      N        0.46221    0.23640    0.92113    1.000
    N85      N        0.38227    0.96470    0.59473    1.000
    N86      N        0.39048    0.98957    0.42113    1.000
    N87      N        0.42265    0.03808    0.45213    1.000
    N88      N        0.43617    0.04549    0.64373    1.000
    C72      C        0.47698    0.21307    0.79043    1.000
    C73      C        0.49119    0.22827    0.57853    1.000
    H61      H        0.46047    0.22023    0.50423    1.000
    H62      H        0.51427    0.26503    0.57123    1.000
    C74      C        0.51705    0.20080    0.48533    1.000
    H63      H        0.54837    0.20983    0.55703    1.000
    H64      H        0.52637    0.21243    0.35003    1.000
    C75      C        0.41062    0.99944    0.72873    1.000
    C76      C        0.41556    0.99143    0.94453    1.000
    H65      H        0.38697    0.99043    0.01483    1.000
    H66      H        0.41357    0.95853    0.96243    1.000
    C77      C        0.48877    0.03523    0.96633    1.000
    C78      C        0.13271    0.36702    0.36787    1.000
    Zn23     Zn       0.15225    0.44903    0.09165    1.000
    Zn24     Zn       0.11239    0.43951    0.59328    1.000
    O23      O        0.15177    0.48039    0.81987    1.000
    O24      O        0.13475    0.41500    0.36787    1.000
    N89      N        0.14350    0.50666    0.20867    1.000
    N90      N        0.12816    0.50599    0.39657    1.000
    N91      N        0.11893    0.54321    0.42627    1.000
    N92      N        0.12887    0.56974    0.25447    1.000
    N93      N        0.04893    0.29804    0.92807    1.000
    N94      N        0.05714    0.32291    0.75447    1.000
    N95      N        0.08931    0.37142    0.78547    1.000
    N96      N        0.10283    0.37883    0.97707    1.000
    C79      C        0.14364    0.54641    0.12377    1.000
    C80      C        0.15785    0.56161    0.91187    1.000
    H67      H        0.12713    0.55357    0.83757    1.000
    H68      H        0.18093    0.59837    0.90457    1.000
    C81      C        0.18371    0.53414    0.81867    1.000
    H69      H        0.21503    0.54317    0.89037    1.000
    H70      H        0.19303    0.54577    0.68337    1.000
    C82      C        0.07728    0.33278    0.06207    1.000
    C83      C        0.08222    0.32477    0.27787    1.000
    H71      H        0.05363    0.32377    0.34817    1.000
    H72      H        0.08023    0.29187    0.29577    1.000
    C84      C        0.15543    0.36857    0.29967    1.000
    C85      C        0.29965    0.09903    0.70120    1.000
    Zn25     Zn       0.21764    0.03655    0.42498    1.000
    Zn26     Zn       0.22715    0.00621    0.92661    1.000
    O25      O        0.18628    0.00472    0.15320    1.000
    O26      O        0.25167    0.05309    0.70120    1.000
    N97      N        0.16001    0.97018    0.54200    1.000
    N98      N        0.16068    0.95551    0.72990    1.000
    N99      N        0.12346    0.90906    0.75960    1.000
    N100     N        0.09693    0.89247    0.58780    1.000
    N101     N        0.36863    0.08423    0.26140    1.000
    N102     N        0.34376    0.06757    0.08780    1.000
    N103     N        0.29525    0.05123    0.11880    1.000
    N104     N        0.28784    0.05734    0.31040    1.000
    C86      C        0.12026    0.93057    0.45710    1.000
    C87      C        0.10506    0.92958    0.24520    1.000
    H73      H        0.11310    0.90690    0.17090    1.000
    H74      H        0.06830    0.91590    0.23790    1.000
    C88      C        0.13253    0.98291    0.15200    1.000
    H75      H        0.12350    0.00520    0.22370    1.000
    H76      H        0.12090    0.98060    0.01670    1.000
    C89      C        0.33389    0.07784    0.39540    1.000
    C90      C        0.34190    0.09079    0.61120    1.000
    H77      H        0.34290    0.06320    0.68150    1.000
    H78      H        0.37480    0.12170    0.62910    1.000
    C91      C        0.29810    0.12020    0.63300    1.000
    C92      C        0.96632    0.43236    0.03453    1.000
    Zn27     Zn       0.88430    0.36988    0.75831    1.000
    Zn28     Zn       0.89382    0.33954    0.25994    1.000
    O27      O        0.85295    0.33805    0.48653    1.000
    O28      O        0.91834    0.38642    0.03453    1.000
    N105     N        0.82668    0.30351    0.87533    1.000
    N106     N        0.82735    0.28884    0.06323    1.000
    N107     N        0.79013    0.24239    0.09293    1.000
    N108     N        0.76360    0.22580    0.92113    1.000
    N109     N        0.03530    0.41756    0.59473    1.000
    N110     N        0.01043    0.40090    0.42113    1.000
    N111     N        0.96192    0.38456    0.45213    1.000
    N112     N        0.95451    0.39067    0.64373    1.000
    C93      C        0.78693    0.26390    0.79043    1.000
    C94      C        0.77173    0.26291    0.57853    1.000
    H79      H        0.77977    0.24023    0.50423    1.000
    H80      H        0.73497    0.24923    0.57123    1.000
    C95      C        0.79920    0.31624    0.48533    1.000
    H81      H        0.79017    0.33853    0.55703    1.000
    H82      H        0.78757    0.31393    0.35003    1.000
    C96      C        0.00056    0.41117    0.72873    1.000
    C97      C        0.00857    0.42412    0.94453    1.000
    H83      H        0.00957    0.39653    0.01483    1.000
    H84      H        0.04147    0.45503    0.96243    1.000
    C98      C        0.96477    0.45353    0.96633    1.000
    C99      C        0.63298    0.76570    0.36787    1.000
    Zn29     Zn       0.55097    0.70322    0.09165    1.000
    Zn30     Zn       0.56049    0.67288    0.59328    1.000
    O29      O        0.51961    0.67139    0.81987    1.000
    O30      O        0.58500    0.71976    0.36787    1.000
    N113     N        0.49334    0.63685    0.20867    1.000
    N114     N        0.49401    0.62218    0.39657    1.000
    N115     N        0.45679    0.57573    0.42627    1.000
    N116     N        0.43026    0.55914    0.25447    1.000
    N117     N        0.70196    0.75090    0.92807    1.000
    N118     N        0.67709    0.73424    0.75447    1.000
    N119     N        0.62858    0.71790    0.78547    1.000
    N120     N        0.62117    0.72401    0.97707    1.000
    C100     C        0.45359    0.59724    0.12377    1.000
    C101     C        0.43839    0.59625    0.91187    1.000
    H85      H        0.44643    0.57357    0.83757    1.000
    H86      H        0.40163    0.58257    0.90457    1.000
    C102     C        0.46586    0.64958    0.81867    1.000
    H87      H        0.45683    0.67187    0.89037    1.000
    H88      H        0.45423    0.64727    0.68337    1.000
    C103     C        0.66722    0.74451    0.06207    1.000
    C104     C        0.67523    0.75746    0.27787    1.000
    H89      H        0.67623    0.72987    0.34817    1.000
    H90      H        0.70813    0.78837    0.29577    1.000
    C105     C        0.63143    0.78687    0.29967    1.000
    C106     C        0.90097    0.20062    0.70120    1.000
    Zn31     Zn       0.96345    0.18109    0.42498    1.000
    Zn32     Zn       0.99379    0.22094    0.92661    1.000
    O31      O        0.99528    0.18156    0.15320    1.000
    O32      O        0.94691    0.19858    0.70120    1.000
    N121     N        0.02982    0.18983    0.54200    1.000
    N122     N        0.04449    0.20517    0.72990    1.000
    N123     N        0.09094    0.21440    0.75960    1.000
    N124     N        0.10753    0.20446    0.58780    1.000
    N125     N        0.91577    0.28440    0.26140    1.000
    N126     N        0.93243    0.27619    0.08780    1.000
    N127     N        0.94877    0.24402    0.11880    1.000
    N128     N        0.94266    0.23050    0.31040    1.000
    C107     C        0.06943    0.18969    0.45710    1.000
    C108     C        0.07042    0.17548    0.24520    1.000
    H91      H        0.09310    0.20620    0.17090    1.000
    H92      H        0.08410    0.15240    0.23790    1.000
    C109     C        0.01709    0.14962    0.15200    1.000
    H93      H        0.99480    0.11830    0.22370    1.000
    H94      H        0.01940    0.14030    0.01670    1.000
    C110     C        0.92216    0.25605    0.39540    1.000
    C111     C        0.90921    0.25111    0.61120    1.000
    H95      H        0.93680    0.27970    0.68150    1.000
    H96      H        0.87830    0.25310    0.62910    1.000
    C112     C        0.87980    0.17790    0.63300    1.000
    C113     C        0.56764    0.53395    0.03453    1.000
    Zn33     Zn       0.63012    0.51442    0.75831    1.000
    Zn34     Zn       0.66046    0.55428    0.25994    1.000
    O33      O        0.66195    0.51489    0.48653    1.000
    O34      O        0.61358    0.53191    0.03453    1.000
    N129     N        0.69649    0.52316    0.87533    1.000
    N130     N        0.71116    0.53850    0.06323    1.000
    N131     N        0.75761    0.54773    0.09293    1.000
    N132     N        0.77420    0.53779    0.92113    1.000
    N133     N        0.58244    0.61773    0.59473    1.000
    N134     N        0.59910    0.60952    0.42113    1.000
    N135     N        0.61544    0.57735    0.45213    1.000
    N136     N        0.60933    0.56383    0.64373    1.000
    C114     C        0.73610    0.52302    0.79043    1.000
    C115     C        0.73709    0.50881    0.57853    1.000
    H97      H        0.75977    0.53953    0.50423    1.000
    H98      H        0.75077    0.48573    0.57123    1.000
    C116     C        0.68376    0.48295    0.48533    1.000
    H99      H        0.66147    0.45163    0.55703    1.000
    H100     H        0.68607    0.47363    0.35003    1.000
    C117     C        0.58883    0.58938    0.72873    1.000
    C118     C        0.57588    0.58444    0.94453    1.000
    H101     H        0.60347    0.61303    0.01483    1.000
    H102     H        0.54497    0.58643    0.96243    1.000
    C119     C        0.54647    0.51123    0.96633    1.000
    C120     C        0.23430    0.86729    0.36787    1.000
    Zn35     Zn       0.29678    0.84775    0.09165    1.000
    Zn36     Zn       0.32712    0.88761    0.59328    1.000
    O35      O        0.32861    0.84823    0.81987    1.000
    O36      O        0.28024    0.86525    0.36787    1.000
    N137     N        0.36315    0.85650    0.20867    1.000
    N138     N        0.37782    0.87184    0.39657    1.000
    N139     N        0.42427    0.88107    0.42627    1.000
    N140     N        0.44086    0.87113    0.25447    1.000
    N141     N        0.24910    0.95107    0.92807    1.000
    N142     N        0.26576    0.94286    0.75447    1.000
    N143     N        0.28210    0.91069    0.78547    1.000
    N144     N        0.27599    0.89717    0.97707    1.000
    C121     C        0.40276    0.85636    0.12377    1.000
    C122     C        0.40375    0.84215    0.91187    1.000
    H103     H        0.42643    0.87287    0.83757    1.000
    H104     H        0.41743    0.81907    0.90457    1.000
    C123     C        0.35042    0.81629    0.81867    1.000
    H105     H        0.32813    0.78497    0.89037    1.000
    H106     H        0.35273    0.80697    0.68337    1.000
    C124     C        0.25549    0.92272    0.06207    1.000
    C125     C        0.24254    0.91778    0.27787    1.000
    H107     H        0.27013    0.94637    0.34817    1.000
    H108     H        0.21163    0.91977    0.29577    1.000
    C126     C        0.21313    0.84457    0.29967    1.000
