data_functionalizedCrystal
_audit_creation_method	'EQeq! by Chris Wilmer'
_symmetry_space_group_name_H-M	'P1'
_symmetry_Int_Tables_number	1
_symmetry_cell_setting	triclinic
loop_
_symmetry_equiv_pos_as_xyz
  x,y,z
_cell_length_a	25.481
_cell_length_b	22.483
_cell_length_c	17.233
_cell_angle_alpha	90
_cell_angle_beta	92.696
_cell_angle_gamma	90
loop_
_atom_site_label
_atom_site_type_symbol
_atom_site_fract_x
_atom_site_fract_y
_atom_site_fract_z
_atom_site_charge
Mof_Zn	Zn	0.133	0.07	0.308	1.198
Mof_O 	O 	0.71	0.59	0.19	-0.5
Mof_O 	O 	0.69	0.63	0.3	-0.46
Mof_O 	O 	0.06	0.89	0.3	-0.466
Mof_O 	O 	0.03	0.93	0.19	-0.485
Mof_O 	O 	0.13	0.95	0.42	-0.458
Mof_C 	C 	0.72	0.63	0.24	0.379
Mof_C 	C 	0.76	0.67	0.24	-0.131
Mof_C 	C 	0.76	0.71	0.3	-0.011
Mof_H 	H 	0.7398	0.7165	0.3398	0.061
Mof_C 	C 	0.81	0.75	0.3	0.018
Mof_C 	C 	0.84	0.75	0.25	-0.031
Mof_C 	C 	0.84	0.7	0.19	-0.003
Mof_C 	C 	0.8	0.67	0.19	0.013
Mof_H 	H 	0.7909	0.6367	0.1464	0.034
Mof_C 	C 	0.89	0.79	0.25	0.084
Mof_C 	C 	0.9	0.82	0.18	-0.14
Mof_H 	H 	0.8802	0.8158	0.1342	0.102
Mof_C 	C 	0.95	0.85	0.18	0.073
Mof_H 	H 	0.9549	0.8762	0.1343	0.032
Mof_C 	C 	0.98	0.86	0.25	-0.169
Mof_C 	C 	0.97	0.83	0.31	0.103
Mof_H 	H 	0.9923	0.8279	0.3566	0.025
Mof_C 	C 	0.93	0.79	0.31	-0.126
Mof_H 	H 	0.9175	0.7674	0.3565	0.08
Mof_C 	C 	0.03	0.89	0.24	0.422
Mof_C 	C 	0.093	0.02	0.9	-0.046
Mof_H 	H 	0.0625	0.0348	0.9242	0.056
Mof_C 	C 	0.096	0.02	0.82	-0.11
Mof_H 	H 	0.0675	0.0348	0.789	0.071
Mof_C 	C 	0.18	0.98	0.83	0.053
Mof_C 	C 	0.18	0.98	0.91	0.081
Mof_H 	H 	0.2092	0.9652	0.9463	0.036
Mof_C 	C 	0.14	0.95	0.66	-0.074
Mof_H 	H 	0.1393	0.909	0.6869	0.059
Mof_C 	C 	0.14	0.95	0.58	0.064
Mof_H 	H 	0.1397	0.9112	0.5503	0.034
Mof_C 	C 	0.22	0.95	0.793	-0.021
Mof_H 	H 	0.2202	0.9488	0.7386	0.056
Mof_C 	C 	0.3079	0.8205	0.8275	0.065
Mof_C 	C 	0.3494	0.7898	0.7966	0.073
Mof_C 	C 	0.3695	0.7392	0.8337	-0.133
Mof_H 	H 	0.3978	0.7182	0.8125	0.104
Mof_C 	C 	0.3481	0.7194	0.9018	0.134
Mof_C 	C 	0.3066	0.7501	0.9328	-0.092
Mof_H 	H 	0.292	0.7366	0.9793	0.078
Mof_C 	C 	0.2865	0.8007	0.8956	-0.04
Mof_H 	H 	0.2582	0.8217	0.9168	0.066
Mof_C 	C 	0.8124	0.8074	0.3555	-0.018
Mof_C 	C 	0.3808	0.1904	0.123	-0.005
Mof_O 	O 	0.3493	0.6566	0.9849	-0.127
Mof_O 	O 	0.3999	0.6418	0.9083	-0.142
Mof_O 	O 	0.375	0.8707	0.724	-0.103
Mof_O 	O 	0.4018	0.7851	0.6777	-0.105
Mof_N 	N 	0.2487	0.9079	0.8321	-0.064
Mof_N 	N 	0.2815	0.8705	0.7968	-0.153
Mof_H 	H 	0.2871	0.8787	0.748	0.138
Mof_N 	N 	0.3658	0.6726	0.9317	-0.016
Mof_N 	N 	0.3748	0.8136	0.7261	-0.016
Mof_Zn	Zn	0.633	0.57	0.308	1.198
Mof_O 	O 	0.21	0.09	0.19	-0.502
Mof_O 	O 	0.19	0.13	0.3	-0.462
Mof_O 	O 	0.56	0.39	0.3	-0.471
Mof_O 	O 	0.53	0.43	0.19	-0.496
Mof_O 	O 	0.63	0.45	0.42	-0.481
Mof_C 	C 	0.22	0.13	0.24	0.378
Mof_C 	C 	0.26	0.17	0.24	-0.133
Mof_C 	C 	0.26	0.21	0.3	-0.011
Mof_H 	H 	0.2398	0.2165	0.3398	0.061
Mof_C 	C 	0.31	0.25	0.3	0.018
Mof_C 	C 	0.34	0.25	0.25	-0.031
Mof_C 	C 	0.34	0.2	0.19	-0.004
Mof_C 	C 	0.3	0.17	0.19	0.013
Mof_H 	H 	0.2909	0.1367	0.1464	0.032
Mof_C 	C 	0.39	0.29	0.25	0.084
Mof_C 	C 	0.4	0.32	0.18	-0.139
Mof_H 	H 	0.3802	0.3158	0.1342	0.103
Mof_C 	C 	0.45	0.35	0.18	0.074
Mof_H 	H 	0.4549	0.3762	0.1343	0.032
Mof_C 	C 	0.48	0.36	0.25	-0.172
Mof_C 	C 	0.47	0.33	0.31	0.104
Mof_H 	H 	0.4923	0.3279	0.3566	0.024
Mof_C 	C 	0.43	0.29	0.31	-0.127
Mof_H 	H 	0.4175	0.2674	0.3565	0.079
Mof_C 	C 	0.53	0.39	0.24	0.425
Mof_C 	C 	0.593	0.52	0.9	0.016
Mof_H 	H 	0.5625	0.5348	0.9242	0.04
Mof_C 	C 	0.596	0.52	0.82	-0.053
Mof_H 	H 	0.5675	0.5348	0.789	0.057
Mof_C 	C 	0.68	0.48	0.83	-0.012
Mof_C 	C 	0.68	0.48	0.91	0.029
Mof_H 	H 	0.7092	0.4652	0.9463	0.042
Mof_C 	C 	0.64	0.45	0.66	-0.094
Mof_H 	H 	0.6393	0.409	0.6869	0.064
Mof_C 	C 	0.64	0.45	0.58	0.038
Mof_H 	H 	0.6397	0.4112	0.5503	0.038
Mof_C 	C 	0.72	0.45	0.793	0.002
Mof_H 	H 	0.7202	0.4488	0.7386	0.042
Mof_C 	C 	0.8079	0.3205	0.8275	0.064
Mof_C 	C 	0.8494	0.2898	0.7966	0.073
Mof_C 	C 	0.8695	0.2392	0.8337	-0.133
Mof_H 	H 	0.8978	0.2182	0.8125	0.104
Mof_C 	C 	0.8481	0.2194	0.9018	0.134
Mof_C 	C 	0.8066	0.2501	0.9328	-0.093
Mof_H 	H 	0.792	0.2366	0.9793	0.079
Mof_C 	C 	0.7865	0.3007	0.8956	-0.04
Mof_H 	H 	0.7582	0.3217	0.9168	0.066
Mof_C 	C 	0.3124	0.3074	0.3555	-0.02
Mof_C 	C 	0.8808	0.6904	0.123	-0.002
Mof_O 	O 	0.8493	0.1566	0.9849	-0.125
Mof_O 	O 	0.8999	0.1418	0.9083	-0.142
Mof_O 	O 	0.875	0.3707	0.724	-0.109
Mof_O 	O 	0.9018	0.2851	0.6777	-0.108
Mof_N 	N 	0.7487	0.4079	0.8321	-0.069
Mof_N 	N 	0.7815	0.3705	0.7968	-0.153
Mof_H 	H 	0.7871	0.3787	0.748	0.136
Mof_N 	N 	0.8658	0.1726	0.9317	-0.016
Mof_N 	N 	0.8748	0.3136	0.7261	-0.016
Mof_Zn	Zn	0.133	0.93	0.308	1.202
Mof_O 	O 	0.71	0.41	0.19	-0.501
Mof_O 	O 	0.69	0.37	0.3	-0.461
Mof_O 	O 	0.06	0.11	0.3	-0.473
Mof_O 	O 	0.03	0.07	0.19	-0.5
Mof_O 	O 	0.13	0.05	0.42	-0.479
Mof_C 	C 	0.72	0.37	0.24	0.378
Mof_C 	C 	0.76	0.33	0.24	-0.132
Mof_C 	C 	0.76	0.29	0.3	-0.01
Mof_H 	H 	0.7398	0.2835	0.3398	0.061
Mof_C 	C 	0.81	0.25	0.3	0.018
Mof_C 	C 	0.84	0.25	0.25	-0.031
Mof_C 	C 	0.84	0.3	0.19	-0.003
Mof_C 	C 	0.8	0.33	0.19	0.014
Mof_H 	H 	0.7909	0.3633	0.1464	0.034
Mof_C 	C 	0.89	0.21	0.25	0.085
Mof_C 	C 	0.9	0.18	0.18	-0.137
Mof_H 	H 	0.8802	0.1842	0.1342	0.104
Mof_C 	C 	0.95	0.15	0.18	0.075
Mof_H 	H 	0.9549	0.1238	0.1343	0.033
Mof_C 	C 	0.98	0.14	0.25	-0.174
Mof_C 	C 	0.97	0.17	0.31	0.105
Mof_H 	H 	0.9923	0.1721	0.3566	0.023
Mof_C 	C 	0.93	0.21	0.31	-0.127
Mof_H 	H 	0.9175	0.2326	0.3565	0.08
Mof_C 	C 	0.03	0.11	0.24	0.426
Mof_C 	C 	0.093	0.98	0.9	0.089
Mof_H 	H 	0.0625	0.9652	0.9242	0.025
Mof_C 	C 	0.096	0.98	0.82	0.021
Mof_H 	H 	0.0675	0.9652	0.789	0.039
Mof_C 	C 	0.18	0.02	0.83	-0.06
Mof_C 	C 	0.18	0.02	0.91	-0.009
Mof_H 	H 	0.2092	0.0348	0.9463	0.049
Mof_C 	C 	0.14	0.05	0.66	-0.092
Mof_H 	H 	0.1393	0.091	0.6869	0.065
Mof_C 	C 	0.14	0.05	0.58	0.041
Mof_H 	H 	0.1397	0.0888	0.5503	0.037
Mof_C 	C 	0.22	0.05	0.793	0.019
Mof_H 	H 	0.2202	0.0512	0.7386	0.034
Mof_C 	C 	0.3079	0.1795	0.8275	0.063
Mof_C 	C 	0.3494	0.2102	0.7966	0.072
Mof_C 	C 	0.3695	0.2608	0.8337	-0.133
Mof_H 	H 	0.3978	0.2818	0.8125	0.104
Mof_C 	C 	0.3481	0.2806	0.9018	0.134
Mof_C 	C 	0.3066	0.2499	0.9328	-0.093
Mof_H 	H 	0.292	0.2634	0.9793	0.078
Mof_C 	C 	0.2865	0.1993	0.8956	-0.041
Mof_H 	H 	0.2582	0.1783	0.9168	0.066
Mof_C 	C 	0.8124	0.1926	0.3555	-0.02
Mof_C 	C 	0.3808	0.8096	0.123	0.002
Mof_O 	O 	0.3493	0.3434	0.9849	-0.127
Mof_O 	O 	0.3999	0.3582	0.9083	-0.143
Mof_O 	O 	0.375	0.1293	0.724	-0.113
Mof_O 	O 	0.4018	0.2149	0.6777	-0.109
Mof_N 	N 	0.2487	0.0921	0.8321	-0.072
Mof_N 	N 	0.2815	0.1295	0.7968	-0.153
Mof_H 	H 	0.2871	0.1213	0.748	0.134
Mof_N 	N 	0.3658	0.3274	0.9317	-0.016
Mof_N 	N 	0.3748	0.1864	0.7261	-0.015
Mof_Zn	Zn	0.633	0.43	0.308	1.198
Mof_O 	O 	0.21	0.91	0.19	-0.491
Mof_O 	O 	0.19	0.87	0.3	-0.457
Mof_O 	O 	0.56	0.61	0.3	-0.471
Mof_O 	O 	0.53	0.57	0.19	-0.496
Mof_O 	O 	0.63	0.55	0.42	-0.481
Mof_C 	C 	0.22	0.87	0.24	0.377
Mof_C 	C 	0.26	0.83	0.24	-0.129
Mof_C 	C 	0.26	0.79	0.3	-0.011
Mof_H 	H 	0.2398	0.7835	0.3398	0.062
Mof_C 	C 	0.31	0.75	0.3	0.02
Mof_C 	C 	0.34	0.75	0.25	-0.032
Mof_C 	C 	0.34	0.8	0.19	-0.002
Mof_C 	C 	0.3	0.83	0.19	0.013
Mof_H 	H 	0.2909	0.8633	0.1464	0.037
Mof_C 	C 	0.39	0.71	0.25	0.085
Mof_C 	C 	0.4	0.68	0.18	-0.139
Mof_H 	H 	0.3802	0.6842	0.1342	0.104
Mof_C 	C 	0.45	0.65	0.18	0.075
Mof_H 	H 	0.4549	0.6238	0.1343	0.032
Mof_C 	C 	0.48	0.64	0.25	-0.172
Mof_C 	C 	0.47	0.67	0.31	0.104
Mof_H 	H 	0.4923	0.6721	0.3566	0.024
Mof_C 	C 	0.43	0.71	0.31	-0.126
Mof_H 	H 	0.4175	0.7326	0.3565	0.081
Mof_C 	C 	0.53	0.61	0.24	0.425
Mof_C 	C 	0.593	0.48	0.9	0.016
Mof_H 	H 	0.5625	0.4652	0.9242	0.04
Mof_C 	C 	0.596	0.48	0.82	-0.053
Mof_H 	H 	0.5675	0.4652	0.789	0.057
Mof_C 	C 	0.68	0.52	0.83	-0.012
Mof_C 	C 	0.68	0.52	0.91	0.029
Mof_H 	H 	0.7092	0.5348	0.9463	0.042
Mof_C 	C 	0.64	0.55	0.66	-0.094
Mof_H 	H 	0.6393	0.591	0.6869	0.064
Mof_C 	C 	0.64	0.55	0.58	0.038
Mof_H 	H 	0.6397	0.5888	0.5503	0.039
Mof_C 	C 	0.72	0.55	0.793	0.002
Mof_H 	H 	0.7202	0.5512	0.7386	0.042
Mof_C 	C 	0.8079	0.6795	0.8275	0.064
Mof_C 	C 	0.8494	0.7102	0.7966	0.073
Mof_C 	C 	0.8695	0.7608	0.8337	-0.133
Mof_H 	H 	0.8978	0.7818	0.8125	0.104
Mof_C 	C 	0.8481	0.7806	0.9018	0.135
Mof_C 	C 	0.8066	0.7499	0.9328	-0.093
Mof_H 	H 	0.792	0.7634	0.9793	0.079
Mof_C 	C 	0.7865	0.6993	0.8956	-0.04
Mof_H 	H 	0.7582	0.6783	0.9168	0.066
Mof_C 	C 	0.3124	0.6926	0.3555	-0.019
Mof_C 	C 	0.8808	0.3096	0.123	-0.002
Mof_O 	O 	0.8493	0.8434	0.9849	-0.126
Mof_O 	O 	0.8999	0.8582	0.9083	-0.139
Mof_O 	O 	0.875	0.6293	0.724	-0.108
Mof_O 	O 	0.9018	0.7149	0.6777	-0.107
Mof_N 	N 	0.7487	0.5921	0.8321	-0.069
Mof_N 	N 	0.7815	0.6295	0.7968	-0.153
Mof_H 	H 	0.7871	0.6213	0.748	0.136
Mof_N 	N 	0.8658	0.8274	0.9317	-0.016
Mof_N 	N 	0.8748	0.6864	0.7261	-0.016
Mof_Zn	Zn	0.076	0	0.17	1.21
Mof_Zn	Zn	0.202	1.27988e-33	0.186	1.197
Mof_O 	O 	0.14	0	0.24	-0.957
Mof_O 	O 	0.09	0	0.06	-0.566
Mof_O 	O 	0.17	0	0.07	-0.531
Mof_C 	C 	0.13	0	0.03	0.605
Mof_C 	C 	0.14	0	0.95	-0.227
Mof_C 	C 	0.141	5.11953e-33	0.79	-0.008
Mof_C 	C 	0.142	0	0.7	0.026
Mof_C 	C 	0.14	0	0.54	-0.128
Mof_C 	C 	0.14	0	0.45	0.333
Mof_Zn	Zn	0.576	0.5	0.17	1.214
Mof_Zn	Zn	0.702	0.5	0.186	1.201
Mof_O 	O 	0.64	0.5	0.24	-0.947
Mof_O 	O 	0.59	0.5	0.06	-0.555
Mof_O 	O 	0.67	0.5	0.07	-0.521
Mof_C 	C 	0.63	0.5	0.03	0.594
Mof_C 	C 	0.64	0.5	0.95	-0.199
Mof_C 	C 	0.641	0.5	0.79	0.02
Mof_C 	C 	0.642	0.5	0.7	0.047
Mof_C 	C 	0.64	0.5	0.54	-0.103
Mof_C 	C 	0.64	0.5	0.45	0.355
Mof_Zn	Zn	0.867	0.07	0.692	1.197
Mof_O 	O 	0.29	0.59	0.81	-0.501
Mof_O 	O 	0.31	0.63	0.7	-0.461
Mof_O 	O 	0.94	0.89	0.7	-0.467
Mof_O 	O 	0.97	0.93	0.81	-0.486
Mof_O 	O 	0.87	0.95	0.58	-0.459
Mof_C 	C 	0.28	0.63	0.76	0.378
Mof_C 	C 	0.24	0.67	0.76	-0.132
Mof_C 	C 	0.24	0.71	0.7	-0.011
Mof_H 	H 	0.2602	0.7165	0.6602	0.061
Mof_C 	C 	0.19	0.75	0.7	0.018
Mof_C 	C 	0.16	0.75	0.75	-0.031
Mof_C 	C 	0.16	0.7	0.81	-0.003
Mof_C 	C 	0.2	0.67	0.81	0.013
Mof_H 	H 	0.2091	0.6367	0.8536	0.034
Mof_C 	C 	0.11	0.79	0.75	0.084
Mof_C 	C 	0.1	0.82	0.82	-0.14
Mof_H 	H 	0.1198	0.8158	0.8658	0.102
Mof_C 	C 	0.05	0.85	0.82	0.073
Mof_H 	H 	0.0451	0.8762	0.8657	0.032
Mof_C 	C 	0.02	0.86	0.75	-0.169
Mof_C 	C 	0.03	0.83	0.69	0.103
Mof_H 	H 	0.0077	0.8279	0.6434	0.025
Mof_C 	C 	0.07	0.79	0.69	-0.126
Mof_H 	H 	0.0825	0.7674	0.6435	0.08
Mof_C 	C 	0.97	0.89	0.76	0.422
Mof_C 	C 	0.907	0.02	0.1	-0.046
Mof_H 	H 	0.9375	0.0348	0.0758	0.056
Mof_C 	C 	0.904	0.02	0.18	-0.11
Mof_H 	H 	0.9325	0.0348	0.211	0.071
Mof_C 	C 	0.82	0.98	0.17	0.053
Mof_C 	C 	0.82	0.98	0.09	0.081
Mof_H 	H 	0.7908	0.9652	0.0537	0.036
Mof_C 	C 	0.86	0.95	0.34	-0.074
Mof_H 	H 	0.8607	0.909	0.3131	0.059
Mof_C 	C 	0.86	0.95	0.42	0.064
Mof_H 	H 	0.8603	0.9112	0.4497	0.034
Mof_C 	C 	0.78	0.95	0.207	-0.021
Mof_H 	H 	0.7798	0.9488	0.2614	0.056
Mof_C 	C 	0.6921	0.8205	0.1725	0.065
Mof_C 	C 	0.6506	0.7898	0.2034	0.073
Mof_C 	C 	0.6305	0.7392	0.1663	-0.133
Mof_H 	H 	0.6022	0.7182	0.1875	0.104
Mof_C 	C 	0.6519	0.7194	0.0982	0.134
Mof_C 	C 	0.6934	0.7501	0.0672	-0.092
Mof_H 	H 	0.708	0.7366	0.0207	0.078
Mof_C 	C 	0.7135	0.8007	0.1044	-0.04
Mof_H 	H 	0.7418	0.8217	0.0832	0.066
Mof_C 	C 	0.1876	0.8074	0.6445	-0.018
Mof_C 	C 	0.6192	0.1904	0.877	-0.005
Mof_O 	O 	0.6507	0.6566	0.0151	-0.127
Mof_O 	O 	0.6001	0.6418	0.0917	-0.142
Mof_O 	O 	0.625	0.8707	0.276	-0.103
Mof_O 	O 	0.5982	0.7851	0.3223	-0.105
Mof_N 	N 	0.7513	0.9079	0.1679	-0.064
Mof_N 	N 	0.7185	0.8705	0.2032	-0.153
Mof_H 	H 	0.7129	0.8787	0.252	0.138
Mof_N 	N 	0.6342	0.6726	0.0683	-0.016
Mof_N 	N 	0.6252	0.8136	0.2739	-0.016
Mof_Zn	Zn	0.367	0.57	0.692	1.198
Mof_O 	O 	0.79	0.09	0.81	-0.502
Mof_O 	O 	0.81	0.13	0.7	-0.462
Mof_O 	O 	0.44	0.39	0.7	-0.471
Mof_O 	O 	0.47	0.43	0.81	-0.496
Mof_O 	O 	0.37	0.45	0.58	-0.481
Mof_C 	C 	0.78	0.13	0.76	0.378
Mof_C 	C 	0.74	0.17	0.76	-0.133
Mof_C 	C 	0.74	0.21	0.7	-0.011
Mof_H 	H 	0.7602	0.2165	0.6602	0.061
Mof_C 	C 	0.69	0.25	0.7	0.018
Mof_C 	C 	0.66	0.25	0.75	-0.031
Mof_C 	C 	0.66	0.2	0.81	-0.004
Mof_C 	C 	0.7	0.17	0.81	0.013
Mof_H 	H 	0.7091	0.1367	0.8536	0.032
Mof_C 	C 	0.61	0.29	0.75	0.084
Mof_C 	C 	0.6	0.32	0.82	-0.139
Mof_H 	H 	0.6198	0.3158	0.8658	0.103
Mof_C 	C 	0.55	0.35	0.82	0.074
Mof_H 	H 	0.5451	0.3762	0.8657	0.032
Mof_C 	C 	0.52	0.36	0.75	-0.172
Mof_C 	C 	0.53	0.33	0.69	0.104
Mof_H 	H 	0.5077	0.3279	0.6434	0.024
Mof_C 	C 	0.57	0.29	0.69	-0.127
Mof_H 	H 	0.5825	0.2674	0.6435	0.079
Mof_C 	C 	0.47	0.39	0.76	0.425
Mof_C 	C 	0.407	0.52	0.1	0.016
Mof_H 	H 	0.4375	0.5348	0.0758	0.04
Mof_C 	C 	0.404	0.52	0.18	-0.053
Mof_H 	H 	0.4325	0.5348	0.211	0.057
Mof_C 	C 	0.32	0.48	0.17	-0.012
Mof_C 	C 	0.32	0.48	0.09	0.029
Mof_H 	H 	0.2908	0.4652	0.0537	0.042
Mof_C 	C 	0.36	0.45	0.34	-0.094
Mof_H 	H 	0.3607	0.409	0.3131	0.064
Mof_C 	C 	0.36	0.45	0.42	0.038
Mof_H 	H 	0.3603	0.4112	0.4497	0.038
Mof_C 	C 	0.28	0.45	0.207	0.002
Mof_H 	H 	0.2798	0.4488	0.2614	0.042
Mof_C 	C 	0.1921	0.3205	0.1725	0.064
Mof_C 	C 	0.1506	0.2898	0.2034	0.073
Mof_C 	C 	0.1305	0.2392	0.1663	-0.133
Mof_H 	H 	0.1022	0.2182	0.1875	0.104
Mof_C 	C 	0.1519	0.2194	0.0982	0.134
Mof_C 	C 	0.1934	0.2501	0.0672	-0.093
Mof_H 	H 	0.208	0.2366	0.0207	0.079
Mof_C 	C 	0.2135	0.3007	0.1044	-0.04
Mof_H 	H 	0.2418	0.3217	0.0832	0.066
Mof_C 	C 	0.6876	0.3074	0.6445	-0.02
Mof_C 	C 	0.1192	0.6904	0.877	-0.002
Mof_O 	O 	0.1507	0.1566	0.0151	-0.125
Mof_O 	O 	0.1001	0.1418	0.0917	-0.142
Mof_O 	O 	0.125	0.3707	0.276	-0.109
Mof_O 	O 	0.0982	0.2851	0.3223	-0.108
Mof_N 	N 	0.2513	0.4079	0.1679	-0.069
Mof_N 	N 	0.2185	0.3705	0.2032	-0.153
Mof_H 	H 	0.2129	0.3787	0.252	0.136
Mof_N 	N 	0.1342	0.1726	0.0683	-0.016
Mof_N 	N 	0.1252	0.3136	0.2739	-0.016
Mof_Zn	Zn	0.867	0.93	0.692	1.202
Mof_O 	O 	0.29	0.41	0.81	-0.501
Mof_O 	O 	0.31	0.37	0.7	-0.461
Mof_O 	O 	0.94	0.11	0.7	-0.473
Mof_O 	O 	0.97	0.07	0.81	-0.5
Mof_O 	O 	0.87	0.05	0.58	-0.479
Mof_C 	C 	0.28	0.37	0.76	0.378
Mof_C 	C 	0.24	0.33	0.76	-0.132
Mof_C 	C 	0.24	0.29	0.7	-0.01
Mof_H 	H 	0.2602	0.2835	0.6602	0.061
Mof_C 	C 	0.19	0.25	0.7	0.018
Mof_C 	C 	0.16	0.25	0.75	-0.031
Mof_C 	C 	0.16	0.3	0.81	-0.003
Mof_C 	C 	0.2	0.33	0.81	0.014
Mof_H 	H 	0.2091	0.3633	0.8536	0.034
Mof_C 	C 	0.11	0.21	0.75	0.085
Mof_C 	C 	0.1	0.18	0.82	-0.137
Mof_H 	H 	0.1198	0.1842	0.8658	0.104
Mof_C 	C 	0.05	0.15	0.82	0.075
Mof_H 	H 	0.0451	0.1238	0.8657	0.033
Mof_C 	C 	0.02	0.14	0.75	-0.174
Mof_C 	C 	0.03	0.17	0.69	0.105
Mof_H 	H 	0.0077	0.1721	0.6434	0.023
Mof_C 	C 	0.07	0.21	0.69	-0.127
Mof_H 	H 	0.0825	0.2326	0.6435	0.08
Mof_C 	C 	0.97	0.11	0.76	0.426
Mof_C 	C 	0.907	0.98	0.1	0.089
Mof_H 	H 	0.9375	0.9652	0.0758	0.025
Mof_C 	C 	0.904	0.98	0.18	0.021
Mof_H 	H 	0.9325	0.9652	0.211	0.039
Mof_C 	C 	0.82	0.02	0.17	-0.06
Mof_C 	C 	0.82	0.02	0.09	-0.009
Mof_H 	H 	0.7908	0.0348	0.0537	0.049
Mof_C 	C 	0.86	0.05	0.34	-0.092
Mof_H 	H 	0.8607	0.091	0.3131	0.065
Mof_C 	C 	0.86	0.05	0.42	0.041
Mof_H 	H 	0.8603	0.0888	0.4497	0.037
Mof_C 	C 	0.78	0.05	0.207	0.019
Mof_H 	H 	0.7798	0.0512	0.2614	0.034
Mof_C 	C 	0.6921	0.1795	0.1725	0.063
Mof_C 	C 	0.6506	0.2102	0.2034	0.072
Mof_C 	C 	0.6305	0.2608	0.1663	-0.133
Mof_H 	H 	0.6022	0.2818	0.1875	0.104
Mof_C 	C 	0.6519	0.2806	0.0982	0.134
Mof_C 	C 	0.6934	0.2499	0.0672	-0.093
Mof_H 	H 	0.708	0.2634	0.0207	0.078
Mof_C 	C 	0.7135	0.1993	0.1044	-0.041
Mof_H 	H 	0.7418	0.1783	0.0832	0.066
Mof_C 	C 	0.1876	0.1926	0.6445	-0.02
Mof_C 	C 	0.6192	0.8096	0.877	0.002
Mof_O 	O 	0.6507	0.3434	0.0151	-0.127
Mof_O 	O 	0.6001	0.3582	0.0917	-0.143
Mof_O 	O 	0.625	0.1293	0.276	-0.113
Mof_O 	O 	0.5982	0.2149	0.3223	-0.109
Mof_N 	N 	0.7513	0.0921	0.1679	-0.072
Mof_N 	N 	0.7185	0.1295	0.2032	-0.153
Mof_H 	H 	0.7129	0.1213	0.252	0.134
Mof_N 	N 	0.6342	0.3274	0.0683	-0.016
Mof_N 	N 	0.6252	0.1864	0.2739	-0.015
Mof_Zn	Zn	0.367	0.43	0.692	1.198
Mof_O 	O 	0.79	0.91	0.81	-0.491
Mof_O 	O 	0.81	0.87	0.7	-0.457
Mof_O 	O 	0.44	0.61	0.7	-0.471
Mof_O 	O 	0.47	0.57	0.81	-0.496
Mof_O 	O 	0.37	0.55	0.58	-0.481
Mof_C 	C 	0.78	0.87	0.76	0.377
Mof_C 	C 	0.74	0.83	0.76	-0.129
Mof_C 	C 	0.74	0.79	0.7	-0.011
Mof_H 	H 	0.7602	0.7835	0.6602	0.062
Mof_C 	C 	0.69	0.75	0.7	0.02
Mof_C 	C 	0.66	0.75	0.75	-0.032
Mof_C 	C 	0.66	0.8	0.81	-0.002
Mof_C 	C 	0.7	0.83	0.81	0.013
Mof_H 	H 	0.7091	0.8633	0.8536	0.037
Mof_C 	C 	0.61	0.71	0.75	0.085
Mof_C 	C 	0.6	0.68	0.82	-0.139
Mof_H 	H 	0.6198	0.6842	0.8658	0.104
Mof_C 	C 	0.55	0.65	0.82	0.075
Mof_H 	H 	0.5451	0.6238	0.8657	0.032
Mof_C 	C 	0.52	0.64	0.75	-0.172
Mof_C 	C 	0.53	0.67	0.69	0.104
Mof_H 	H 	0.5077	0.6721	0.6434	0.024
Mof_C 	C 	0.57	0.71	0.69	-0.126
Mof_H 	H 	0.5825	0.7326	0.6435	0.081
Mof_C 	C 	0.47	0.61	0.76	0.425
Mof_C 	C 	0.407	0.48	0.1	0.016
Mof_H 	H 	0.4375	0.4652	0.0758	0.04
Mof_C 	C 	0.404	0.48	0.18	-0.053
Mof_H 	H 	0.4325	0.4652	0.211	0.057
Mof_C 	C 	0.32	0.52	0.17	-0.012
Mof_C 	C 	0.32	0.52	0.09	0.029
Mof_H 	H 	0.2908	0.5348	0.0537	0.042
Mof_C 	C 	0.36	0.55	0.34	-0.094
Mof_H 	H 	0.3607	0.591	0.3131	0.064
Mof_C 	C 	0.36	0.55	0.42	0.038
Mof_H 	H 	0.3603	0.5888	0.4497	0.039
Mof_C 	C 	0.28	0.55	0.207	0.002
Mof_H 	H 	0.2798	0.5512	0.2614	0.042
Mof_C 	C 	0.1921	0.6795	0.1725	0.064
Mof_C 	C 	0.1506	0.7102	0.2034	0.073
Mof_C 	C 	0.1305	0.7608	0.1663	-0.133
Mof_H 	H 	0.1022	0.7818	0.1875	0.104
Mof_C 	C 	0.1519	0.7806	0.0982	0.135
Mof_C 	C 	0.1934	0.7499	0.0672	-0.093
Mof_H 	H 	0.208	0.7634	0.0207	0.079
Mof_C 	C 	0.2135	0.6993	0.1044	-0.04
Mof_H 	H 	0.2418	0.6783	0.0832	0.066
Mof_C 	C 	0.6876	0.6926	0.6445	-0.019
Mof_C 	C 	0.1192	0.3096	0.877	-0.002
Mof_O 	O 	0.1507	0.8434	0.0151	-0.126
Mof_O 	O 	0.1001	0.8582	0.0917	-0.139
Mof_O 	O 	0.125	0.6293	0.276	-0.108
Mof_O 	O 	0.0982	0.7149	0.3223	-0.107
Mof_N 	N 	0.2513	0.5921	0.1679	-0.069
Mof_N 	N 	0.2185	0.6295	0.2032	-0.153
Mof_H 	H 	0.2129	0.6213	0.252	0.136
Mof_N 	N 	0.1342	0.8274	0.0683	-0.016
Mof_N 	N 	0.1252	0.6864	0.2739	-0.016
Mof_Zn	Zn	0.924	0	0.83	1.21
Mof_Zn	Zn	0.798	-5.11953e-33	0.814	1.197
Mof_O 	O 	0.86	5.11953e-33	0.76	-0.957
Mof_O 	O 	0.91	0	0.94	-0.566
Mof_O 	O 	0.83	1.02391e-32	0.93	-0.531
Mof_C 	C 	0.87	0	0.97	0.605
Mof_C 	C 	0.86	0	0.05	-0.227
Mof_C 	C 	0.859	1.27988e-33	0.21	-0.008
Mof_C 	C 	0.858	0	0.3	0.026
Mof_C 	C 	0.86	0	0.46	-0.128
Mof_C 	C 	0.86	0	0.55	0.333
Mof_Zn	Zn	0.424	0.5	0.83	1.214
Mof_Zn	Zn	0.298	0.5	0.814	1.201
Mof_O 	O 	0.36	0.5	0.76	-0.947
Mof_O 	O 	0.41	0.5	0.94	-0.555
Mof_O 	O 	0.33	0.5	0.93	-0.521
Mof_C 	C 	0.37	0.5	0.97	0.594
Mof_C 	C 	0.36	0.5	0.05	-0.199
Mof_C 	C 	0.359	0.5	0.21	0.02
Mof_C 	C 	0.358	0.5	0.3	0.047
Mof_C 	C 	0.36	0.5	0.46	-0.103
Mof_C 	C 	0.36	0.5	0.55	0.355
_end
