# CIF file generated by openbabel 3.1.0, see https://openbabel.org
data_I
_chemical_name_common 'image0'
_cell_length_a 18.2507
_cell_length_b 18.1651
_cell_length_c 18.8518
_cell_angle_alpha 90
_cell_angle_beta 90
_cell_angle_gamma 90
_space_group_name_H-M_alt 'P 1'
_space_group_name_Hall 'P 1'
loop_
    _symmetry_equiv_pos_as_xyz
    x,y,z
loop_
    _atom_site_label
    _atom_site_type_symbol
    _atom_site_fract_x
    _atom_site_fract_y
    _atom_site_fract_z
    _atom_site_occupancy
    Mn1      Mn       0.22371    0.69334    0.08938    1.000
    Mn2      Mn       0.22053    0.49140    0.09417    1.000
    O1       O        0.23449    0.38399    0.13491    1.000
    O2       O        0.31773    0.52377    0.14579    1.000
    O3       O        0.22958    0.50278    0.48788    1.000
    O4       O        0.64147    0.53542    0.33741    1.000
    O5       O        0.28815    0.40360    0.52109    1.000
    O6       O        0.63283    0.65704    0.34648    1.000
    O7       O        0.27644    0.27736    0.17102    1.000
    O8       O        0.31121    0.64584    0.14813    1.000
    O9       O        0.31620    0.25589    0.29935    1.000
    H1       H        0.31560    0.24760    0.25660    1.000
    O10      O        0.41470    0.72130    0.20040    1.000
    H2       H        0.37580    0.71370    0.18010    1.000
    C1       C        0.25382    0.34154    0.18274    1.000
    C2       C        0.25136    0.36426    0.25903    1.000
    C3       C        0.21670    0.42873    0.27816    1.000
    H3       H        0.19310    0.45650    0.24360    1.000
    C4       C        0.21630    0.45305    0.34828    1.000
    H4       H        0.19300    0.49690    0.36020    1.000
    C5       C        0.25070    0.41174    0.39994    1.000
    C6       C        0.28366    0.34554    0.38221    1.000
    H5       H        0.30580    0.31720    0.41730    1.000
    C7       C        0.28382    0.32117    0.31219    1.000
    C8       C        0.25542    0.44009    0.47402    1.000
    C9       C        0.34118    0.58561    0.16266    1.000
    C10      C        0.41220    0.58928    0.20365    1.000
    C11      C        0.44540    0.52470    0.22660    1.000
    H6       H        0.42400    0.47950    0.21620    1.000
    C12      C        0.50990    0.52706    0.26460    1.000
    H7       H        0.53170    0.48350    0.27960    1.000
    C13      C        0.54238    0.59439    0.28078    1.000
    C14      C        0.51002    0.65840    0.25786    1.000
    H8       H        0.53170    0.70350    0.26810    1.000
    C15      C        0.44510    0.65631    0.21948    1.000
    C16      C        0.61145    0.59602    0.32482    1.000
    Mn3      Mn       0.27629    0.30666    0.58938    1.000
    Mn4      Mn       0.27947    0.50860    0.59417    1.000
    O11      O        0.26551    0.61601    0.63491    1.000
    O12      O        0.18227    0.47623    0.64579    1.000
    O13      O        0.27042    0.49722    0.98788    1.000
    O14      O        0.85853    0.46458    0.83741    1.000
    O15      O        0.21185    0.59640    0.02109    1.000
    O16      O        0.86717    0.34296    0.84648    1.000
    O17      O        0.22356    0.72264    0.67102    1.000
    O18      O        0.18879    0.35416    0.64813    1.000
    O19      O        0.18380    0.74411    0.79935    1.000
    H9       H        0.18440    0.75240    0.75660    1.000
    O20      O        0.08530    0.27870    0.70040    1.000
    H10      H        0.12420    0.28630    0.68010    1.000
    C17      C        0.24618    0.65846    0.68274    1.000
    C18      C        0.24864    0.63574    0.75903    1.000
    C19      C        0.28330    0.57127    0.77816    1.000
    H11      H        0.30690    0.54350    0.74360    1.000
    C20      C        0.28370    0.54695    0.84828    1.000
    H12      H        0.30700    0.50310    0.86020    1.000
    C21      C        0.24930    0.58826    0.89994    1.000
    C22      C        0.21634    0.65446    0.88221    1.000
    H13      H        0.19420    0.68280    0.91730    1.000
    C23      C        0.21618    0.67883    0.81219    1.000
    C24      C        0.24458    0.55991    0.97402    1.000
    C25      C        0.15882    0.41439    0.66266    1.000
    C26      C        0.08780    0.41072    0.70365    1.000
    C27      C        0.05460    0.47530    0.72660    1.000
    H14      H        0.07600    0.52050    0.71620    1.000
    C28      C        0.99010    0.47294    0.76460    1.000
    H15      H        0.96830    0.51650    0.77960    1.000
    C29      C        0.95762    0.40561    0.78078    1.000
    C30      C        0.98998    0.34160    0.75786    1.000
    H16      H        0.96830    0.29650    0.76810    1.000
    C31      C        0.05490    0.34369    0.71948    1.000
    C32      C        0.88855    0.40398    0.82482    1.000
    Mn5      Mn       0.77629    0.19334    0.41062    1.000
    Mn6      Mn       0.77947    0.99140    0.40583    1.000
    O21      O        0.76551    0.88399    0.36509    1.000
    O22      O        0.68227    0.02377    0.35421    1.000
    O23      O        0.77042    0.00278    0.01212    1.000
    O24      O        0.35853    0.03542    0.16259    1.000
    O25      O        0.71185    0.90360    0.97891    1.000
    O26      O        0.36717    0.15704    0.15352    1.000
    O27      O        0.72356    0.77736    0.32898    1.000
    O28      O        0.68879    0.14584    0.35187    1.000
    O29      O        0.68380    0.75589    0.20065    1.000
    H17      H        0.68440    0.74760    0.24340    1.000
    O30      O        0.58530    0.22130    0.29960    1.000
    H18      H        0.62420    0.21370    0.31990    1.000
    C33      C        0.74618    0.84154    0.31726    1.000
    C34      C        0.74864    0.86426    0.24097    1.000
    C35      C        0.78330    0.92873    0.22184    1.000
    H19      H        0.80690    0.95650    0.25640    1.000
    C36      C        0.78370    0.95305    0.15172    1.000
    H20      H        0.80700    0.99690    0.13980    1.000
    C37      C        0.74930    0.91174    0.10006    1.000
    C38      C        0.71634    0.84554    0.11779    1.000
    H21      H        0.69420    0.81720    0.08270    1.000
    C39      C        0.71618    0.82117    0.18781    1.000
    C40      C        0.74458    0.94009    0.02598    1.000
    C41      C        0.65882    0.08561    0.33734    1.000
    C42      C        0.58780    0.08928    0.29635    1.000
    C43      C        0.55460    0.02470    0.27340    1.000
    H22      H        0.57600    0.97950    0.28380    1.000
    C44      C        0.49010    0.02706    0.23540    1.000
    H23      H        0.46830    0.98350    0.22040    1.000
    C45      C        0.45762    0.09439    0.21922    1.000
    C46      C        0.48998    0.15840    0.24214    1.000
    H24      H        0.46830    0.20350    0.23190    1.000
    C47      C        0.55490    0.15631    0.28052    1.000
    C48      C        0.38855    0.09602    0.17518    1.000
    Mn7      Mn       0.72371    0.80666    0.91062    1.000
    Mn8      Mn       0.72053    0.00860    0.90583    1.000
    O31      O        0.73449    0.11601    0.86509    1.000
    O32      O        0.81773    0.97623    0.85421    1.000
    O33      O        0.72958    0.99722    0.51212    1.000
    O34      O        0.14147    0.96458    0.66259    1.000
    O35      O        0.78815    0.09640    0.47891    1.000
    O36      O        0.13283    0.84296    0.65352    1.000
    O37      O        0.77644    0.22264    0.82898    1.000
    O38      O        0.81121    0.85416    0.85187    1.000
    O39      O        0.81620    0.24411    0.70065    1.000
    H25      H        0.81560    0.25240    0.74340    1.000
    O40      O        0.91470    0.77870    0.79960    1.000
    H26      H        0.87580    0.78630    0.81990    1.000
    C49      C        0.75382    0.15846    0.81726    1.000
    C50      C        0.75136    0.13574    0.74097    1.000
    C51      C        0.71670    0.07127    0.72184    1.000
    H27      H        0.69310    0.04350    0.75640    1.000
    C52      C        0.71630    0.04695    0.65172    1.000
    H28      H        0.69300    0.00310    0.63980    1.000
    C53      C        0.75070    0.08826    0.60006    1.000
    C54      C        0.78366    0.15446    0.61779    1.000
    H29      H        0.80580    0.18280    0.58270    1.000
    C55      C        0.78382    0.17883    0.68781    1.000
    C56      C        0.75542    0.05991    0.52598    1.000
    C57      C        0.84118    0.91439    0.83734    1.000
    C58      C        0.91220    0.91072    0.79635    1.000
    C59      C        0.94540    0.97530    0.77340    1.000
    H30      H        0.92400    0.02050    0.78380    1.000
    C60      C        0.00990    0.97294    0.73540    1.000
    H31      H        0.03170    0.01650    0.72040    1.000
    C61      C        0.04238    0.90561    0.71922    1.000
    C62      C        0.01002    0.84160    0.74214    1.000
    H32      H        0.03170    0.79650    0.73190    1.000
    C63      C        0.94510    0.84369    0.78052    1.000
    C64      C        0.11145    0.90398    0.67518    1.000
    Mn9      Mn       0.77629    0.30666    0.91062    1.000
    Mn10     Mn       0.77947    0.50860    0.90583    1.000
    O41      O        0.76551    0.61601    0.86509    1.000
    O42      O        0.68227    0.47623    0.85421    1.000
    O43      O        0.77042    0.49722    0.51212    1.000
    O44      O        0.35853    0.46458    0.66259    1.000
    O45      O        0.71185    0.59640    0.47891    1.000
    O46      O        0.36717    0.34296    0.65352    1.000
    O47      O        0.72356    0.72264    0.82898    1.000
    O48      O        0.68879    0.35416    0.85187    1.000
    O49      O        0.68380    0.74411    0.70065    1.000
    H33      H        0.68440    0.75240    0.74340    1.000
    O50      O        0.58530    0.27870    0.79960    1.000
    H34      H        0.62420    0.28630    0.81990    1.000
    C65      C        0.74618    0.65846    0.81726    1.000
    C66      C        0.74864    0.63574    0.74097    1.000
    C67      C        0.78330    0.57127    0.72184    1.000
    H35      H        0.80690    0.54350    0.75640    1.000
    C68      C        0.78370    0.54695    0.65172    1.000
    H36      H        0.80700    0.50310    0.63980    1.000
    C69      C        0.74930    0.58826    0.60006    1.000
    C70      C        0.71634    0.65446    0.61779    1.000
    H37      H        0.69420    0.68280    0.58270    1.000
    C71      C        0.71618    0.67883    0.68781    1.000
    C72      C        0.74458    0.55991    0.52598    1.000
    C73      C        0.65882    0.41439    0.83734    1.000
    C74      C        0.58780    0.41072    0.79635    1.000
    C75      C        0.55460    0.47530    0.77340    1.000
    H38      H        0.57600    0.52050    0.78380    1.000
    C76      C        0.49010    0.47294    0.73540    1.000
    H39      H        0.46830    0.51650    0.72040    1.000
    C77      C        0.45762    0.40561    0.71922    1.000
    C78      C        0.48998    0.34160    0.74214    1.000
    H40      H        0.46830    0.29650    0.73190    1.000
    C79      C        0.55490    0.34369    0.78052    1.000
    C80      C        0.38855    0.40398    0.67518    1.000
    Mn11     Mn       0.72371    0.69334    0.41062    1.000
    Mn12     Mn       0.72053    0.49140    0.40583    1.000
    O51      O        0.73449    0.38399    0.36509    1.000
    O52      O        0.81773    0.52377    0.35421    1.000
    O53      O        0.72958    0.50278    0.01212    1.000
    O54      O        0.14147    0.53542    0.16259    1.000
    O55      O        0.78815    0.40360    0.97891    1.000
    O56      O        0.13283    0.65704    0.15352    1.000
    O57      O        0.77644    0.27736    0.32898    1.000
    O58      O        0.81121    0.64584    0.35187    1.000
    O59      O        0.81620    0.25589    0.20065    1.000
    H41      H        0.81560    0.24760    0.24340    1.000
    O60      O        0.91470    0.72130    0.29960    1.000
    H42      H        0.87580    0.71370    0.31990    1.000
    C81      C        0.75382    0.34154    0.31726    1.000
    C82      C        0.75136    0.36426    0.24097    1.000
    C83      C        0.71670    0.42873    0.22184    1.000
    H43      H        0.69310    0.45650    0.25640    1.000
    C84      C        0.71630    0.45305    0.15172    1.000
    H44      H        0.69300    0.49690    0.13980    1.000
    C85      C        0.75070    0.41174    0.10006    1.000
    C86      C        0.78366    0.34554    0.11779    1.000
    H45      H        0.80580    0.31720    0.08270    1.000
    C87      C        0.78382    0.32117    0.18781    1.000
    C88      C        0.75542    0.44009    0.02598    1.000
    C89      C        0.84118    0.58561    0.33734    1.000
    C90      C        0.91220    0.58928    0.29635    1.000
    C91      C        0.94540    0.52470    0.27340    1.000
    H46      H        0.92400    0.47950    0.28380    1.000
    C92      C        0.00990    0.52706    0.23540    1.000
    H47      H        0.03170    0.48350    0.22040    1.000
    C93      C        0.04238    0.59439    0.21922    1.000
    C94      C        0.01002    0.65840    0.24214    1.000
    H48      H        0.03170    0.70350    0.23190    1.000
    C95      C        0.94510    0.65631    0.28052    1.000
    C96      C        0.11145    0.59602    0.17518    1.000
    Mn13     Mn       0.22371    0.80666    0.58938    1.000
    Mn14     Mn       0.22053    0.00860    0.59417    1.000
    O61      O        0.23449    0.11601    0.63491    1.000
    O62      O        0.31773    0.97623    0.64579    1.000
    O63      O        0.22958    0.99722    0.98788    1.000
    O64      O        0.64147    0.96458    0.83741    1.000
    O65      O        0.28815    0.09640    0.02109    1.000
    O66      O        0.63283    0.84296    0.84648    1.000
    O67      O        0.27644    0.22264    0.67102    1.000
    O68      O        0.31121    0.85416    0.64813    1.000
    O69      O        0.31620    0.24411    0.79935    1.000
    H49      H        0.31560    0.25240    0.75660    1.000
    O70      O        0.41470    0.77870    0.70040    1.000
    H50      H        0.37580    0.78630    0.68010    1.000
    C97      C        0.25382    0.15846    0.68274    1.000
    C98      C        0.25136    0.13574    0.75903    1.000
    C99      C        0.21670    0.07127    0.77816    1.000
    H51      H        0.19310    0.04350    0.74360    1.000
    C100     C        0.21630    0.04695    0.84828    1.000
    H52      H        0.19300    0.00310    0.86020    1.000
    C101     C        0.25070    0.08826    0.89994    1.000
    C102     C        0.28366    0.15446    0.88221    1.000
    H53      H        0.30580    0.18280    0.91730    1.000
    C103     C        0.28382    0.17883    0.81219    1.000
    C104     C        0.25542    0.05991    0.97402    1.000
    C105     C        0.34118    0.91439    0.66266    1.000
    C106     C        0.41220    0.91072    0.70365    1.000
    C107     C        0.44540    0.97530    0.72660    1.000
    H54      H        0.42400    0.02050    0.71620    1.000
    C108     C        0.50990    0.97294    0.76460    1.000
    H55      H        0.53170    0.01650    0.77960    1.000
    C109     C        0.54238    0.90561    0.78078    1.000
    C110     C        0.51002    0.84160    0.75786    1.000
    H56      H        0.53170    0.79650    0.76810    1.000
    C111     C        0.44510    0.84369    0.71948    1.000
    C112     C        0.61145    0.90398    0.82482    1.000
    Mn15     Mn       0.27629    0.19334    0.08938    1.000
    Mn16     Mn       0.27947    0.99140    0.09417    1.000
    O71      O        0.26551    0.88399    0.13491    1.000
    O72      O        0.18227    0.02377    0.14579    1.000
    O73      O        0.27042    0.00278    0.48788    1.000
    O74      O        0.85853    0.03542    0.33741    1.000
    O75      O        0.21185    0.90360    0.52109    1.000
    O76      O        0.86717    0.15704    0.34648    1.000
    O77      O        0.22356    0.77736    0.17102    1.000
    O78      O        0.18879    0.14584    0.14813    1.000
    O79      O        0.18380    0.75589    0.29935    1.000
    H57      H        0.18440    0.74760    0.25660    1.000
    O80      O        0.08530    0.22130    0.20040    1.000
    H58      H        0.12420    0.21370    0.18010    1.000
    C113     C        0.24618    0.84154    0.18274    1.000
    C114     C        0.24864    0.86426    0.25903    1.000
    C115     C        0.28330    0.92873    0.27816    1.000
    H59      H        0.30690    0.95650    0.24360    1.000
    C116     C        0.28370    0.95305    0.34828    1.000
    H60      H        0.30700    0.99690    0.36020    1.000
    C117     C        0.24930    0.91174    0.39994    1.000
    C118     C        0.21634    0.84554    0.38221    1.000
    H61      H        0.19420    0.81720    0.41730    1.000
    C119     C        0.21618    0.82117    0.31219    1.000
    C120     C        0.24458    0.94009    0.47402    1.000
    C121     C        0.15882    0.08561    0.16266    1.000
    C122     C        0.08780    0.08928    0.20365    1.000
    C123     C        0.05460    0.02470    0.22660    1.000
    H62      H        0.07600    0.97950    0.21620    1.000
    C124     C        0.99010    0.02706    0.26460    1.000
    H63      H        0.96830    0.98350    0.27960    1.000
    C125     C        0.95762    0.09439    0.28078    1.000
    C126     C        0.98998    0.15840    0.25786    1.000
    H64      H        0.96830    0.20350    0.26810    1.000
    C127     C        0.05490    0.15631    0.21948    1.000
    C128     C        0.88855    0.09602    0.32482    1.000
