data_functionalizedCrystal
_audit_creation_method	'EQeq! by Chris Wilmer'
_symmetry_space_group_name_H-M	'P1'
_symmetry_Int_Tables_number	1
_symmetry_cell_setting	triclinic
loop_
_symmetry_equiv_pos_as_xyz
  x,y,z
_cell_length_a	8.713
_cell_length_b	13.054
_cell_length_c	13.568
_cell_angle_alpha	90
_cell_angle_beta	90
_cell_angle_gamma	90.184
loop_
_atom_site_label
_atom_site_type_symbol
_atom_site_fract_x
_atom_site_fract_y
_atom_site_fract_z
_atom_site_charge
Mof_Cu	Cu	0.95483	0.41238	0.95983	0.915
Mof_Cu	Cu	0.54517	0.58762	0.45983	0.919
Mof_Cu	Cu	0.04517	0.58762	0.04017	0.915
Mof_Cu	Cu	0.45483	0.41238	0.54017	0.919
Mof_H 	H 	0.7857	0.3781	0.7721	0.003
Mof_H 	H 	0.7371	0.262	0.6502	0.119
Mof_H 	H 	0.914	0.0437	0.8229	0.099
Mof_H 	H 	0.9598	0.1663	0.9398	-0.017
Mof_H 	H 	0.7167	0.0913	0.5942	0.089
Mof_H 	H 	0.727	0.0037	0.6728	0.088
Mof_H 	H 	0.813	0.8873	0.5529	0.05
Mof_H 	H 	0.7934	0.9751	0.4749	0.054
Mof_H 	H 	0.9323	0.1352	0.4955	0.045
Mof_H 	H 	0.0414	0.1499	0.5865	0.055
Mof_H 	H 	0.4097	0.3034	0.0537	0.212
Mof_H 	H 	0.4905	0.3962	0.0015	0.228
Mof_H 	H 	0.579	0.3825	0.1636	-0.09
Mof_H 	H 	0.4944	0.4875	0.1499	-0.068
Mof_H 	H 	0.3603	0.312	0.238	0.212
Mof_H 	H 	0.2698	0.4137	0.22	0.223
Mof_H 	H 	0.7143	0.6219	0.2721	0.004
Mof_H 	H 	0.7629	0.738	0.1502	0.121
Mof_H 	H 	0.586	0.9563	0.3229	0.1
Mof_H 	H 	0.5402	0.8337	0.4398	-0.015
Mof_H 	H 	0.7833	0.9087	0.0942	0.091
Mof_H 	H 	0.773	0.9963	0.1728	0.09
Mof_H 	H 	0.687	0.1127	0.0529	0.05
Mof_H 	H 	0.7066	0.0249	0.9749	0.051
Mof_H 	H 	0.5677	0.8648	0.9955	0.046
Mof_H 	H 	0.4586	0.8501	0.0865	0.055
Mof_H 	H 	0.0903	0.6966	0.5537	0.216
Mof_H 	H 	0.0095	0.6038	0.5015	0.23
Mof_H 	H 	0.921	0.6175	0.6636	-0.094
Mof_H 	H 	0.0056	0.5125	0.6499	-0.071
Mof_H 	H 	0.1397	0.688	0.738	0.214
Mof_H 	H 	0.2302	0.5863	0.72	0.225
Mof_H 	H 	0.2143	0.6219	0.2279	0.004
Mof_H 	H 	0.2629	0.738	0.3498	0.12
Mof_H 	H 	0.086	0.9563	0.1771	0.099
Mof_H 	H 	0.0402	0.8337	0.0602	-0.017
Mof_H 	H 	0.2833	0.9087	0.4058	0.089
Mof_H 	H 	0.273	0.9963	0.3272	0.088
Mof_H 	H 	0.187	0.1127	0.4471	0.05
Mof_H 	H 	0.2066	0.0249	0.5251	0.054
Mof_H 	H 	0.0677	0.8648	0.5045	0.045
Mof_H 	H 	0.9586	0.8501	0.4135	0.055
Mof_H 	H 	0.5903	0.6966	0.9463	0.212
Mof_H 	H 	0.5095	0.6038	0.9985	0.228
Mof_H 	H 	0.421	0.6175	0.8364	-0.09
Mof_H 	H 	0.5056	0.5125	0.8501	-0.068
Mof_H 	H 	0.6397	0.688	0.762	0.212
Mof_H 	H 	0.7302	0.5863	0.78	0.223
Mof_H 	H 	0.2857	0.3781	0.7279	0.004
Mof_H 	H 	0.2371	0.262	0.8498	0.121
Mof_H 	H 	0.414	0.0437	0.6771	0.1
Mof_H 	H 	0.4598	0.1663	0.5602	-0.015
Mof_H 	H 	0.2167	0.0913	0.9058	0.091
Mof_H 	H 	0.227	0.0037	0.8272	0.09
Mof_H 	H 	0.313	0.8873	0.9471	0.05
Mof_H 	H 	0.2934	0.9751	0.0251	0.051
Mof_H 	H 	0.4323	0.1352	0.0045	0.046
Mof_H 	H 	0.5414	0.1499	0.9135	0.055
Mof_H 	H 	0.9097	0.3034	0.4463	0.216
Mof_H 	H 	0.9905	0.3962	0.4985	0.23
Mof_H 	H 	0.079	0.3825	0.3364	-0.094
Mof_H 	H 	0.9944	0.4875	0.3501	-0.071
Mof_H 	H 	0.8603	0.312	0.262	0.214
Mof_H 	H 	0.7698	0.4137	0.28	0.225
Mof_C 	C 	0.813	0.31	0.7823	0.122
Mof_C 	C 	0.7827	0.2405	0.7086	-0.216
Mof_C 	C 	0.8202	0.1382	0.72167	0.172
Mof_C 	C 	0.8875	0.1114	0.81059	-0.212
Mof_C 	C 	0.9148	0.1858	0.88061	0.113
Mof_C 	C 	0.7832	0.06	0.6429	-0.199
Mof_C 	C 	0.8658	0.9427	0.5192	-0.068
Mof_C 	C 	0.0026	0.10028	0.5395	-0.059
Mof_C 	C 	0.2628	0.4226	0.02817	0.493
Mof_C 	C 	0.4181	0.3776	0.05281	-0.601
Mof_C 	C 	0.48	0.4138	0.15162	0.387
Mof_C 	C 	0.3702	0.386	0.2352	-0.589
Mof_C 	C 	0.4186	0.4243	0.33539	0.497
Mof_C 	C 	0.687	0.69	0.2823	0.123
Mof_C 	C 	0.7173	0.7595	0.2086	-0.216
Mof_C 	C 	0.6798	0.8618	0.22167	0.174
Mof_C 	C 	0.6125	0.8886	0.31059	-0.212
Mof_C 	C 	0.5852	0.8142	0.38061	0.115
Mof_C 	C 	0.7168	0.94	0.1429	-0.2
Mof_C 	C 	0.6342	0.0573	0.0192	-0.064
Mof_C 	C 	0.4974	0.89972	0.0395	-0.062
Mof_C 	C 	0.2372	0.5774	0.52817	0.501
Mof_C 	C 	0.0819	0.6224	0.55281	-0.609
Mof_C 	C 	0.02	0.5862	0.65162	0.397
Mof_C 	C 	0.1298	0.614	0.7352	-0.594
Mof_C 	C 	0.0814	0.5757	0.83539	0.498
Mof_C 	C 	0.187	0.69	0.2177	0.122
Mof_C 	C 	0.2173	0.7595	0.2914	-0.216
Mof_C 	C 	0.1798	0.8618	0.27833	0.172
Mof_C 	C 	0.1125	0.8886	0.18941	-0.212
Mof_C 	C 	0.0852	0.8142	0.11939	0.113
Mof_C 	C 	0.2168	0.94	0.3571	-0.199
Mof_C 	C 	0.1342	0.0573	0.4808	-0.068
Mof_C 	C 	0.9974	0.89972	0.4605	-0.059
Mof_C 	C 	0.7372	0.5774	0.97183	0.493
Mof_C 	C 	0.5819	0.6224	0.94719	-0.601
Mof_C 	C 	0.52	0.5862	0.84838	0.387
Mof_C 	C 	0.6298	0.614	0.7648	-0.589
Mof_C 	C 	0.5814	0.5757	0.66461	0.497
Mof_C 	C 	0.313	0.31	0.7177	0.123
Mof_C 	C 	0.2827	0.2405	0.7914	-0.216
Mof_C 	C 	0.3202	0.1382	0.77833	0.174
Mof_C 	C 	0.3875	0.1114	0.68941	-0.212
Mof_C 	C 	0.4148	0.1858	0.61939	0.115
Mof_C 	C 	0.2832	0.06	0.8571	-0.2
Mof_C 	C 	0.3658	0.9427	0.9808	-0.064
Mof_C 	C 	0.5026	0.10028	0.9605	-0.062
Mof_C 	C 	0.7628	0.4226	0.47183	0.501
Mof_C 	C 	0.9181	0.3776	0.44719	-0.609
Mof_C 	C 	0.98	0.4138	0.34838	0.397
Mof_C 	C 	0.8702	0.386	0.2648	-0.594
Mof_C 	C 	0.9186	0.4243	0.16461	0.498
Mof_N 	N 	0.8797	0.28494	0.86774	-0.206
Mof_N 	N 	0.9199	0.01846	0.59237	-0.073
Mof_N 	N 	0.6203	0.71506	0.36774	-0.205
Mof_N 	N 	0.5801	0.98154	0.09237	-0.072
Mof_N 	N 	0.1203	0.71506	0.13226	-0.206
Mof_N 	N 	0.0801	0.98154	0.40763	-0.073
Mof_N 	N 	0.3797	0.28494	0.63226	-0.205
Mof_N 	N 	0.4199	0.01846	0.90763	-0.072
Mof_O 	O 	0.1643	0.36451	0.98947	-0.447
Mof_O 	O 	0.2421	0.51502	0.04939	-0.453
Mof_O 	O 	0.4	0.36478	0.40791	-0.444
Mof_O 	O 	0.4716	0.51367	0.34126	-0.447
Mof_O 	O 	0.3357	0.63549	0.48947	-0.454
Mof_O 	O 	0.2579	0.48498	0.54939	-0.454
Mof_O 	O 	0.1	0.63522	0.90791	-0.442
Mof_O 	O 	0.0284	0.48633	0.84126	-0.444
Mof_O 	O 	0.8357	0.63549	0.01053	-0.447
Mof_O 	O 	0.7579	0.48498	0.95061	-0.453
Mof_O 	O 	0.6	0.63522	0.59209	-0.444
Mof_O 	O 	0.5284	0.48633	0.65874	-0.447
Mof_O 	O 	0.6643	0.36451	0.51053	-0.454
Mof_O 	O 	0.7421	0.51502	0.45061	-0.454
Mof_O 	O 	0.9	0.36478	0.09209	-0.442
Mof_O 	O 	0.9716	0.51367	0.15874	-0.444
_end
