# CIF file generated by openbabel 3.1.0, see https://openbabel.org
data_I
_chemical_name_common 'image0'
_cell_length_a 17.508
_cell_length_b 17.508
_cell_length_c 20.7888
_cell_angle_alpha 90
_cell_angle_beta 90
_cell_angle_gamma 120
_space_group_name_H-M_alt 'P 1'
_space_group_name_Hall 'P 1'
loop_
    _symmetry_equiv_pos_as_xyz
    x,y,z
loop_
    _atom_site_label
    _atom_site_type_symbol
    _atom_site_fract_x
    _atom_site_fract_y
    _atom_site_fract_z
    _atom_site_occupancy
    N1       N        0.80070    0.56690    0.43744    1.000
    N2       N        0.74010    0.57668    0.47032    1.000
    N3       N        0.68720    0.50933    0.50554    1.000
    N4       N        0.71242    0.44997    0.49577    1.000
    C1       C        0.77990    0.48530    0.45398    1.000
    H1       H        0.80910    0.45580    0.43820    1.000
    N5       N        0.95170    0.76850    0.61567    1.000
    N6       N        0.87880    0.77380    0.61355    1.000
    N7       N        0.88380    0.84270    0.64370    1.000
    N8       N        0.96408    0.88470    0.66727    1.000
    C2       C        0.00430    0.83940    0.64927    1.000
    H2       H        0.06360    0.85670    0.65970    1.000
    N9       N        0.56270    0.77120    0.01104    1.000
    N10      N        0.57472    0.83920    0.97570    1.000
    N11      N        0.50812    0.82215    0.93688    1.000
    N12      N        0.44858    0.73893    0.94836    1.000
    C3       C        0.48320    0.70940    0.99284    1.000
    H3       H        0.45390    0.65090    0.00930    1.000
    N13      N        0.78060    0.80540    0.83860    1.000
    N14      N        0.76950    0.87430    0.83586    1.000
    N15      N        0.83010    0.94180    0.80387    1.000
    N16      N        0.88576    0.91725    0.78382    1.000
    C4       C        0.85530    0.83490    0.80520    1.000
    H4       H        0.88350    0.80140    0.79750    1.000
    C5       C        0.65790    0.92360    0.97355    1.000
    H5       H        0.67800    0.94470    0.01790    1.000
    H6       H        0.64850    0.96820    0.95120    1.000
    C6       C        0.72780    0.91300    0.93860    1.000
    H7       H        0.73990    0.87140    0.96270    1.000
    H8       H        0.78310    0.97060    0.93680    1.000
    C7       C        0.69870    0.87850    0.87040    1.000
    H9       H        0.64580    0.81890    0.87210    1.000
    H10      H        0.68280    0.91780    0.84700    1.000
    C8       C        0.73630    0.65850    0.46720    1.000
    H11      H        0.67940    0.64820    0.48490    1.000
    H12      H        0.74040    0.67760    0.42190    1.000
    C9       C        0.81240    0.73040    0.50600    1.000
    H13      H        0.86850    0.73460    0.49220    1.000
    H14      H        0.81640    0.78790    0.49740    1.000
    C10      C        0.79980    0.71130    0.57780    1.000
    H15      H        0.74860    0.71560    0.59300    1.000
    H16      H        0.78750    0.65040    0.58590    1.000
    N17      N        0.46737    0.90023    0.77077    1.000
    N18      N        0.40677    0.91001    0.80365    1.000
    N19      N        0.35387    0.84266    0.83887    1.000
    N20      N        0.37909    0.78330    0.82910    1.000
    C11      C        0.44657    0.81863    0.78731    1.000
    H17      H        0.47577    0.78913    0.77153    1.000
    N21      N        0.61837    0.10183    0.94900    1.000
    N22      N        0.54547    0.10713    0.94688    1.000
    N23      N        0.55047    0.17603    0.97703    1.000
    N24      N        0.63075    0.21803    0.00060    1.000
    C12      C        0.67097    0.17273    0.98260    1.000
    H18      H        0.73027    0.19003    0.99303    1.000
    N25      N        0.22937    0.10453    0.34437    1.000
    N26      N        0.24139    0.17253    0.30903    1.000
    N27      N        0.17479    0.15548    0.27021    1.000
    N28      N        0.11525    0.07226    0.28169    1.000
    C13      C        0.14987    0.04273    0.32617    1.000
    H19      H        0.12057    0.98423    0.34263    1.000
    N29      N        0.44727    0.13873    0.17193    1.000
    N30      N        0.43617    0.20763    0.16919    1.000
    N31      N        0.49677    0.27513    0.13720    1.000
    N32      N        0.55243    0.25058    0.11715    1.000
    C14      C        0.52197    0.16823    0.13853    1.000
    H20      H        0.55017    0.13473    0.13083    1.000
    C15      C        0.32457    0.25693    0.30688    1.000
    H21      H        0.34467    0.27803    0.35123    1.000
    H22      H        0.31517    0.30153    0.28453    1.000
    C16      C        0.39447    0.24633    0.27193    1.000
    H23      H        0.40657    0.20473    0.29603    1.000
    H24      H        0.44977    0.30393    0.27013    1.000
    C17      C        0.36537    0.21183    0.20373    1.000
    H25      H        0.31247    0.15223    0.20543    1.000
    H26      H        0.34947    0.25113    0.18033    1.000
    C18      C        0.40297    0.99183    0.80053    1.000
    H27      H        0.34607    0.98153    0.81823    1.000
    H28      H        0.40707    0.01093    0.75523    1.000
    C19      C        0.47907    0.06373    0.83933    1.000
    H29      H        0.53517    0.06793    0.82553    1.000
    H30      H        0.48307    0.12123    0.83073    1.000
    C20      C        0.46647    0.04463    0.91113    1.000
    H31      H        0.41527    0.04893    0.92633    1.000
    H32      H        0.45417    0.98373    0.91923    1.000
    N33      N        0.13403    0.23357    0.10411    1.000
    N34      N        0.07343    0.24335    0.13699    1.000
    N35      N        0.02053    0.17600    0.17221    1.000
    N36      N        0.04575    0.11664    0.16244    1.000
    C21      C        0.11323    0.15197    0.12065    1.000
    H33      H        0.14243    0.12247    0.10487    1.000
    N37      N        0.28503    0.43517    0.28234    1.000
    N38      N        0.21213    0.44047    0.28022    1.000
    N39      N        0.21713    0.50937    0.31037    1.000
    N40      N        0.29741    0.55137    0.33394    1.000
    C22      C        0.33763    0.50607    0.31594    1.000
    H34      H        0.39693    0.52337    0.32637    1.000
    N41      N        0.89603    0.43787    0.67771    1.000
    N42      N        0.90805    0.50587    0.64237    1.000
    N43      N        0.84145    0.48882    0.60355    1.000
    N44      N        0.78191    0.40560    0.61503    1.000
    C23      C        0.81653    0.37607    0.65951    1.000
    H35      H        0.78723    0.31757    0.67597    1.000
    N45      N        0.11393    0.47207    0.50527    1.000
    N46      N        0.10283    0.54097    0.50253    1.000
    N47      N        0.16343    0.60847    0.47054    1.000
    N48      N        0.21909    0.58392    0.45049    1.000
    C24      C        0.18863    0.50157    0.47187    1.000
    H36      H        0.21683    0.46807    0.46417    1.000
    C25      C        0.99123    0.59027    0.64022    1.000
    H37      H        0.01133    0.61137    0.68457    1.000
    H38      H        0.98183    0.63487    0.61787    1.000
    C26      C        0.06113    0.57967    0.60527    1.000
    H39      H        0.07323    0.53807    0.62937    1.000
    H40      H        0.11643    0.63727    0.60347    1.000
    C27      C        0.03203    0.54517    0.53707    1.000
    H41      H        0.97913    0.48557    0.53877    1.000
    H42      H        0.01613    0.58447    0.51367    1.000
    C28      C        0.06963    0.32517    0.13387    1.000
    H43      H        0.01273    0.31487    0.15157    1.000
    H44      H        0.07373    0.34427    0.08857    1.000
    C29      C        0.14573    0.39707    0.17267    1.000
    H45      H        0.20183    0.40127    0.15887    1.000
    H46      H        0.14973    0.45457    0.16407    1.000
    C30      C        0.13313    0.37797    0.24447    1.000
    H47      H        0.08193    0.38227    0.25967    1.000
    H48      H        0.12083    0.31707    0.25257    1.000
    N49      N        0.43310    0.23380    0.43744    1.000
    N50      N        0.42332    0.16342    0.47032    1.000
    N51      N        0.49067    0.17787    0.50554    1.000
    N52      N        0.55003    0.26245    0.49577    1.000
    C31      C        0.51470    0.29460    0.45398    1.000
    H49      H        0.54420    0.35330    0.43820    1.000
    N53      N        0.23150    0.18320    0.61567    1.000
    N54      N        0.22620    0.10500    0.61355    1.000
    N55      N        0.15730    0.04110    0.64370    1.000
    N56      N        0.11530    0.07938    0.66727    1.000
    C32      C        0.16060    0.16490    0.64927    1.000
    H50      H        0.14330    0.20690    0.65970    1.000
    N57      N        0.22880    0.79150    0.01104    1.000
    N58      N        0.16080    0.73552    0.97570    1.000
    N59      N        0.17785    0.68597    0.93688    1.000
    N60      N        0.26107    0.70965    0.94836    1.000
    C33      C        0.29060    0.77380    0.99284    1.000
    H51      H        0.34910    0.80300    0.00930    1.000
    N61      N        0.19460    0.97520    0.83860    1.000
    N62      N        0.12570    0.89520    0.83586    1.000
    N63      N        0.05820    0.88830    0.80387    1.000
    N64      N        0.08275    0.96851    0.78382    1.000
    C34      C        0.16510    0.02040    0.80520    1.000
    H52      H        0.19860    0.08210    0.79750    1.000
    C35      C        0.07640    0.73430    0.97355    1.000
    H53      H        0.05530    0.73330    0.01790    1.000
    H54      H        0.03180    0.68030    0.95120    1.000
    C36      C        0.08700    0.81480    0.93860    1.000
    H55      H        0.12860    0.86850    0.96270    1.000
    H56      H        0.02940    0.81250    0.93680    1.000
    C37      C        0.12150    0.82020    0.87040    1.000
    H57      H        0.18110    0.82690    0.87210    1.000
    H58      H        0.08220    0.76500    0.84700    1.000
    C38      C        0.34150    0.07780    0.46720    1.000
    H59      H        0.35180    0.03120    0.48490    1.000
    H60      H        0.32240    0.06280    0.42190    1.000
    C39      C        0.26960    0.08200    0.50600    1.000
    H61      H        0.26540    0.13390    0.49220    1.000
    H62      H        0.21210    0.02850    0.49740    1.000
    C40      C        0.28870    0.08850    0.57780    1.000
    H63      H        0.28440    0.03300    0.59300    1.000
    H64      H        0.34960    0.13710    0.58590    1.000
    N65      N        0.09977    0.56713    0.77077    1.000
    N66      N        0.08999    0.49675    0.80365    1.000
    N67      N        0.15734    0.51120    0.83887    1.000
    N68      N        0.21670    0.59578    0.82910    1.000
    C41      C        0.18137    0.62793    0.78731    1.000
    H65      H        0.21087    0.68663    0.77153    1.000
    N69      N        0.89817    0.51653    0.94900    1.000
    N70      N        0.89287    0.43833    0.94688    1.000
    N71      N        0.82397    0.37443    0.97703    1.000
    N72      N        0.78197    0.41271    0.00060    1.000
    C42      C        0.82727    0.49823    0.98260    1.000
    H66      H        0.80997    0.54023    0.99303    1.000
    N73      N        0.89547    0.12483    0.34437    1.000
    N74      N        0.82747    0.06885    0.30903    1.000
    N75      N        0.84452    0.01930    0.27021    1.000
    N76      N        0.92774    0.04298    0.28169    1.000
    C43      C        0.95727    0.10713    0.32617    1.000
    H67      H        0.01577    0.13633    0.34263    1.000
    N77      N        0.86127    0.30853    0.17193    1.000
    N78      N        0.79237    0.22853    0.16919    1.000
    N79      N        0.72487    0.22163    0.13720    1.000
    N80      N        0.74942    0.30184    0.11715    1.000
    C44      C        0.83177    0.35373    0.13853    1.000
    H68      H        0.86527    0.41543    0.13083    1.000
    C45      C        0.74307    0.06763    0.30688    1.000
    H69      H        0.72197    0.06663    0.35123    1.000
    H70      H        0.69847    0.01363    0.28453    1.000
    C46      C        0.75367    0.14813    0.27193    1.000
    H71      H        0.79527    0.20183    0.29603    1.000
    H72      H        0.69607    0.14583    0.27013    1.000
    C47      C        0.78817    0.15353    0.20373    1.000
    H73      H        0.84777    0.16023    0.20543    1.000
    H74      H        0.74887    0.09833    0.18033    1.000
    C48      C        0.00817    0.41113    0.80053    1.000
    H75      H        0.01847    0.36453    0.81823    1.000
    H76      H        0.98907    0.39613    0.75523    1.000
    C49      C        0.93627    0.41533    0.83933    1.000
    H77      H        0.93207    0.46723    0.82553    1.000
    H78      H        0.87877    0.36183    0.83073    1.000
    C50      C        0.95537    0.42183    0.91113    1.000
    H79      H        0.95107    0.36633    0.92633    1.000
    H80      H        0.01627    0.47043    0.91923    1.000
    N81      N        0.76643    0.90047    0.10411    1.000
    N82      N        0.75665    0.83009    0.13699    1.000
    N83      N        0.82400    0.84454    0.17221    1.000
    N84      N        0.88336    0.92912    0.16244    1.000
    C51      C        0.84803    0.96127    0.12065    1.000
    H81      H        0.87753    0.01997    0.10487    1.000
    N85      N        0.56483    0.84987    0.28234    1.000
    N86      N        0.55953    0.77167    0.28022    1.000
    N87      N        0.49063    0.70777    0.31037    1.000
    N88      N        0.44863    0.74605    0.33394    1.000
    C52      C        0.49393    0.83157    0.31594    1.000
    H82      H        0.47663    0.87357    0.32637    1.000
    N89      N        0.56213    0.45817    0.67771    1.000
    N90      N        0.49413    0.40219    0.64237    1.000
    N91      N        0.51118    0.35264    0.60355    1.000
    N92      N        0.59440    0.37632    0.61503    1.000
    C53      C        0.62393    0.44047    0.65951    1.000
    H83      H        0.68243    0.46967    0.67597    1.000
    N93      N        0.52793    0.64187    0.50527    1.000
    N94      N        0.45903    0.56187    0.50253    1.000
    N95      N        0.39153    0.55497    0.47054    1.000
    N96      N        0.41608    0.63518    0.45049    1.000
    C54      C        0.49843    0.68707    0.47187    1.000
    H84      H        0.53193    0.74877    0.46417    1.000
    C55      C        0.40973    0.40097    0.64022    1.000
    H85      H        0.38863    0.39997    0.68457    1.000
    H86      H        0.36513    0.34697    0.61787    1.000
    C56      C        0.42033    0.48147    0.60527    1.000
    H87      H        0.46193    0.53517    0.62937    1.000
    H88      H        0.36273    0.47917    0.60347    1.000
    C57      C        0.45483    0.48687    0.53707    1.000
    H89      H        0.51443    0.49357    0.53877    1.000
    H90      H        0.41553    0.43167    0.51367    1.000
    C58      C        0.67483    0.74447    0.13387    1.000
    H91      H        0.68513    0.69787    0.15157    1.000
    H92      H        0.65573    0.72947    0.08857    1.000
    C59      C        0.60293    0.74867    0.17267    1.000
    H93      H        0.59873    0.80057    0.15887    1.000
    H94      H        0.54543    0.69517    0.16407    1.000
    C60      C        0.62203    0.75517    0.24447    1.000
    H95      H        0.61773    0.69967    0.25967    1.000
    H96      H        0.68293    0.80377    0.25257    1.000
    N97      N        0.76620    0.19930    0.43744    1.000
    N98      N        0.83658    0.25990    0.47032    1.000
    N99      N        0.82213    0.31280    0.50554    1.000
    N100     N        0.73755    0.28758    0.49577    1.000
    C61      C        0.70540    0.22010    0.45398    1.000
    H97      H        0.64670    0.19090    0.43820    1.000
    N101     N        0.81680    0.04830    0.61567    1.000
    N102     N        0.89500    0.12120    0.61355    1.000
    N103     N        0.95890    0.11620    0.64370    1.000
    N104     N        0.92062    0.03592    0.66727    1.000
    C62      C        0.83510    0.99570    0.64927    1.000
    H98      H        0.79310    0.93640    0.65970    1.000
    N105     N        0.20850    0.43730    0.01104    1.000
    N106     N        0.26448    0.42528    0.97570    1.000
    N107     N        0.31403    0.49188    0.93688    1.000
    N108     N        0.29035    0.55142    0.94836    1.000
    C63      C        0.22620    0.51680    0.99284    1.000
    H99      H        0.19700    0.54610    0.00930    1.000
    N109     N        0.02480    0.21940    0.83860    1.000
    N110     N        0.10480    0.23050    0.83586    1.000
    N111     N        0.11170    0.16990    0.80387    1.000
    N112     N        0.03149    0.11424    0.78382    1.000
    C64      C        0.97960    0.14470    0.80520    1.000
    H100     H        0.91790    0.11650    0.79750    1.000
    C65      C        0.26570    0.34210    0.97355    1.000
    H101     H        0.26670    0.32200    0.01790    1.000
    H102     H        0.31970    0.35150    0.95120    1.000
    C66      C        0.18520    0.27220    0.93860    1.000
    H103     H        0.13150    0.26010    0.96270    1.000
    H104     H        0.18750    0.21690    0.93680    1.000
    C67      C        0.17980    0.30130    0.87040    1.000
    H105     H        0.17310    0.35420    0.87210    1.000
    H106     H        0.23500    0.31720    0.84700    1.000
    C68      C        0.92220    0.26370    0.46720    1.000
    H107     H        0.96880    0.32060    0.48490    1.000
    H108     H        0.93720    0.25960    0.42190    1.000
    C69      C        0.91800    0.18760    0.50600    1.000
    H109     H        0.86610    0.13150    0.49220    1.000
    H110     H        0.97150    0.18360    0.49740    1.000
    C70      C        0.91150    0.20020    0.57780    1.000
    H111     H        0.96700    0.25140    0.59300    1.000
    H112     H        0.86290    0.21250    0.58590    1.000
    N113     N        0.43287    0.53263    0.77077    1.000
    N114     N        0.50325    0.59323    0.80365    1.000
    N115     N        0.48880    0.64613    0.83887    1.000
    N116     N        0.40422    0.62091    0.82910    1.000
    C71      C        0.37207    0.55343    0.78731    1.000
    H113     H        0.31337    0.52423    0.77153    1.000
    N117     N        0.48347    0.38163    0.94900    1.000
    N118     N        0.56167    0.45453    0.94688    1.000
    N119     N        0.62557    0.44953    0.97703    1.000
    N120     N        0.58729    0.36925    0.00060    1.000
    C72      C        0.50177    0.32903    0.98260    1.000
    H114     H        0.45977    0.26973    0.99303    1.000
    N121     N        0.87517    0.77063    0.34437    1.000
    N122     N        0.93115    0.75861    0.30903    1.000
    N123     N        0.98070    0.82521    0.27021    1.000
    N124     N        0.95702    0.88475    0.28169    1.000
    C73      C        0.89287    0.85013    0.32617    1.000
    H115     H        0.86367    0.87943    0.34263    1.000
    N125     N        0.69147    0.55273    0.17193    1.000
    N126     N        0.77147    0.56383    0.16919    1.000
    N127     N        0.77837    0.50323    0.13720    1.000
    N128     N        0.69816    0.44757    0.11715    1.000
    C74      C        0.64627    0.47803    0.13853    1.000
    H116     H        0.58457    0.44983    0.13083    1.000
    C75      C        0.93237    0.67543    0.30688    1.000
    H117     H        0.93337    0.65533    0.35123    1.000
    H118     H        0.98637    0.68483    0.28453    1.000
    C76      C        0.85187    0.60553    0.27193    1.000
    H119     H        0.79817    0.59343    0.29603    1.000
    H120     H        0.85417    0.55023    0.27013    1.000
    C77      C        0.84647    0.63463    0.20373    1.000
    H121     H        0.83977    0.68753    0.20543    1.000
    H122     H        0.90167    0.65053    0.18033    1.000
    C78      C        0.58887    0.59703    0.80053    1.000
    H123     H        0.63547    0.65393    0.81823    1.000
    H124     H        0.60387    0.59293    0.75523    1.000
    C79      C        0.58467    0.52093    0.83933    1.000
    H125     H        0.53277    0.46483    0.82553    1.000
    H126     H        0.63817    0.51693    0.83073    1.000
    C80      C        0.57817    0.53353    0.91113    1.000
    H127     H        0.63367    0.58473    0.92633    1.000
    H128     H        0.52957    0.54583    0.91923    1.000
    N129     N        0.09953    0.86597    0.10411    1.000
    N130     N        0.16991    0.92657    0.13699    1.000
    N131     N        0.15546    0.97947    0.17221    1.000
    N132     N        0.07088    0.95425    0.16244    1.000
    C81      C        0.03873    0.88677    0.12065    1.000
    H129     H        0.98003    0.85757    0.10487    1.000
    N133     N        0.15013    0.71497    0.28234    1.000
    N134     N        0.22833    0.78787    0.28022    1.000
    N135     N        0.29223    0.78287    0.31037    1.000
    N136     N        0.25395    0.70259    0.33394    1.000
    C82      C        0.16843    0.66237    0.31594    1.000
    H130     H        0.12643    0.60307    0.32637    1.000
    N137     N        0.54183    0.10397    0.67771    1.000
    N138     N        0.59781    0.09195    0.64237    1.000
    N139     N        0.64736    0.15855    0.60355    1.000
    N140     N        0.62368    0.21809    0.61503    1.000
    C83      C        0.55953    0.18347    0.65951    1.000
    H131     H        0.53033    0.21277    0.67597    1.000
    N141     N        0.35813    0.88607    0.50527    1.000
    N142     N        0.43813    0.89717    0.50253    1.000
    N143     N        0.44503    0.83657    0.47054    1.000
    N144     N        0.36482    0.78091    0.45049    1.000
    C84      C        0.31293    0.81137    0.47187    1.000
    H132     H        0.25123    0.78317    0.46417    1.000
    C85      C        0.59903    0.00877    0.64022    1.000
    H133     H        0.60003    0.98867    0.68457    1.000
    H134     H        0.65303    0.01817    0.61787    1.000
    C86      C        0.51853    0.93887    0.60527    1.000
    H135     H        0.46483    0.92677    0.62937    1.000
    H136     H        0.52083    0.88357    0.60347    1.000
    C87      C        0.51313    0.96797    0.53707    1.000
    H137     H        0.50643    0.02087    0.53877    1.000
    H138     H        0.56833    0.98387    0.51367    1.000
    C88      C        0.25553    0.93037    0.13387    1.000
    H139     H        0.30213    0.98727    0.15157    1.000
    H140     H        0.27053    0.92627    0.08857    1.000
    C89      C        0.25133    0.85427    0.17267    1.000
    H141     H        0.19943    0.79817    0.15887    1.000
    H142     H        0.30483    0.85027    0.16407    1.000
    C90      C        0.24483    0.86687    0.24447    1.000
    H143     H        0.30033    0.91807    0.25967    1.000
    H144     H        0.19623    0.87917    0.25257    1.000
    Zn1      Zn       0.00000    0.00000    0.72463    1.000
    Zn2      Zn       0.66667    0.33333    0.05796    1.000
    Zn3      Zn       0.33333    0.66667    0.39130    1.000
    Zn4      Zn       0.66667    0.33333    0.55502    1.000
    Zn5      Zn       0.33333    0.66667    0.88835    1.000
    Zn6      Zn       0.00000    0.00000    0.22169    1.000
