# CIF file generated by openbabel 3.1.0, see https://openbabel.org
data_I
_chemical_name_common 'UWUTIQ_clean'
_cell_length_a 10.896
_cell_length_b 19.698
_cell_length_c 21.554
_cell_angle_alpha 90
_cell_angle_beta 100.48
_cell_angle_gamma 90
_space_group_name_H-M_alt 'P 1'
_space_group_name_Hall 'P 1'
loop_
    _symmetry_equiv_pos_as_xyz
    x,y,z
loop_
    _atom_site_label
    _atom_site_type_symbol
    _atom_site_fract_x
    _atom_site_fract_y
    _atom_site_fract_z
    _atom_site_occupancy
    Zn1      Zn       0.64512    0.05068    0.63465    1.000
    Zn2      Zn       0.68460    0.94772    0.73491    1.000
    Zn3      Zn       0.64512    0.44932    0.13465    1.000
    Zn4      Zn       0.68460    0.55228    0.23491    1.000
    H1       H        0.63620    0.91270    0.48480    1.000
    H2       H        0.68860    0.76370    0.61390    1.000
    H3       H        0.63840    0.83400    0.40570    1.000
    H4       H        0.09180    0.92170    0.75190    1.000
    H5       H        0.30030    0.92120    0.74250    1.000
    H6       H        0.66010    0.30230    0.11190    1.000
    H7       H        0.76560    0.09340    0.88650    1.000
    H8       H        0.66140    0.38220    0.91310    1.000
    H9       H        0.59460    0.22730    0.75940    1.000
    H10      H        0.66660    0.22600    0.03310    1.000
    H11      H        0.69750    0.68480    0.53500    1.000
    H12      H        0.02700    0.07470    0.62710    1.000
    H13      H        0.58670    0.30440    0.83970    1.000
    H14      H        0.23390    0.07210    0.61560    1.000
    H15      H        0.79840    0.63670    0.45690    1.000
    H16      H        0.65080    0.45460    0.99510    1.000
    H17      H        0.76120    0.17170    0.96510    1.000
    H18      H        0.80570    0.56650    0.37180    1.000
    H19      H        0.55140    0.67320    0.26530    1.000
    H20      H        0.53960    0.74590    0.34630    1.000
    H21      H        0.63620    0.58730    0.98480    1.000
    H22      H        0.68860    0.73630    0.11390    1.000
    H23      H        0.63840    0.66600    0.90570    1.000
    H24      H        0.09180    0.57830    0.25190    1.000
    H25      H        0.30030    0.57880    0.24250    1.000
    H26      H        0.66010    0.19770    0.61190    1.000
    H27      H        0.76560    0.40660    0.38650    1.000
    H28      H        0.66140    0.11780    0.41310    1.000
    H29      H        0.59460    0.27270    0.25940    1.000
    H30      H        0.66660    0.27400    0.53310    1.000
    H31      H        0.69750    0.81520    0.03500    1.000
    H32      H        0.02700    0.42530    0.12710    1.000
    H33      H        0.58670    0.19560    0.33970    1.000
    H34      H        0.23390    0.42790    0.11560    1.000
    H35      H        0.79840    0.86330    0.95690    1.000
    H36      H        0.65080    0.04540    0.49510    1.000
    H37      H        0.76120    0.32830    0.46510    1.000
    H38      H        0.80570    0.93350    0.87180    1.000
    H39      H        0.55140    0.82680    0.76530    1.000
    H40      H        0.53960    0.75410    0.84630    1.000
    C1       C        0.66310    0.84680    0.55710    1.000
    C2       C        0.66980    0.75120    0.46206    1.000
    C3       C        0.67350    0.70170    0.40999    1.000
    C4       C        0.67350    0.15110    0.81424    1.000
    C5       C        0.03820    0.99810    0.69030    1.000
    C6       C        0.64800    0.86700    0.49496    1.000
    C7       C        0.42520    0.99840    0.67471    1.000
    C8       C        0.65840    0.89860    0.60791    1.000
    C9       C        0.68020    0.77780    0.57210    1.000
    C10      C        0.66900    0.24560    0.91130    1.000
    C11      C        0.66510    0.29480    0.96280    1.000
    C12      C        0.65010    0.81980    0.44754    1.000
    C13      C        0.67230    0.09830    0.76296    1.000
    C14      C        0.12050    0.95220    0.72490    1.000
    C15      C        0.24540    0.95190    0.71920    1.000
    C16      C        0.28850    0.99720    0.67880    1.000
    C17      C        0.90210    0.99800    0.69490    1.000
    C18      C        0.65950    0.31840    0.07130    1.000
    C19      C        0.72780    0.13540    0.87680    1.000
    C20      C        0.66050    0.36470    0.95310    1.000
    C21      C        0.62520    0.21500    0.80100    1.000
    C22      C        0.66410    0.27220    0.02420    1.000
    C23      C        0.68460    0.73040    0.52480    1.000
    C24      C        0.08150    0.04360    0.64990    1.000
    C25      C        0.62160    0.26170    0.84940    1.000
    C26      C        0.20570    0.04250    0.64350    1.000
    C27      C        0.74940    0.64610    0.41780    1.000
    C28      C        0.65460    0.40810    0.00278    1.000
    C29      C        0.72480    0.18250    0.92380    1.000
    C30      C        0.75210    0.60370    0.36640    1.000
    C31      C        0.60360    0.66620    0.30400    1.000
    C32      C        0.59640    0.71020    0.35240    1.000
    C33      C        0.66310    0.65320    0.05710    1.000
    C34      C        0.66980    0.74880    0.96206    1.000
    C35      C        0.67350    0.79830    0.90999    1.000
    C36      C        0.67350    0.34890    0.31424    1.000
    C37      C        0.03820    0.50190    0.19030    1.000
    C38      C        0.64800    0.63300    0.99496    1.000
    C39      C        0.42520    0.50160    0.17471    1.000
    C40      C        0.65840    0.60140    0.10791    1.000
    C41      C        0.68020    0.72220    0.07210    1.000
    C42      C        0.66900    0.25440    0.41130    1.000
    C43      C        0.66510    0.20520    0.46280    1.000
    C44      C        0.65010    0.68020    0.94754    1.000
    C45      C        0.67230    0.40170    0.26296    1.000
    C46      C        0.12050    0.54780    0.22490    1.000
    C47      C        0.24540    0.54810    0.21920    1.000
    C48      C        0.28850    0.50280    0.17880    1.000
    C49      C        0.90210    0.50200    0.19490    1.000
    C50      C        0.65950    0.18160    0.57130    1.000
    C51      C        0.72780    0.36460    0.37680    1.000
    C52      C        0.66050    0.13530    0.45310    1.000
    C53      C        0.62520    0.28500    0.30100    1.000
    C54      C        0.66410    0.22780    0.52420    1.000
    C55      C        0.68460    0.76960    0.02480    1.000
    C56      C        0.08150    0.45640    0.14990    1.000
    C57      C        0.62160    0.23830    0.34940    1.000
    C58      C        0.20570    0.45750    0.14350    1.000
    C59      C        0.74940    0.85390    0.91780    1.000
    C60      C        0.65460    0.09190    0.50278    1.000
    C61      C        0.72480    0.31750    0.42380    1.000
    C62      C        0.75210    0.89630    0.86640    1.000
    C63      C        0.60360    0.83380    0.80400    1.000
    C64      C        0.59640    0.78980    0.85240    1.000
    N1       N        0.65420    0.38603    0.06160    1.000
    N2       N        0.68210    0.61370    0.30995    1.000
    N3       N        0.65420    0.11397    0.56160    1.000
    N4       N        0.68210    0.88630    0.80995    1.000
    O1       O        0.64110    0.11717    0.70703    1.000
    O2       O        0.45920    0.03475    0.63288    1.000
    O3       O        0.66140    0.87804    0.66327    1.000
    O4       O        0.83510    0.04250    0.66440    1.000
    O5       O        0.86550    0.95212    0.72819    1.000
    O6       O        0.49730    0.96330    0.71462    1.000
    O7       O        0.65300    0.95935    0.59102    1.000
    O8       O        0.70180    0.03893    0.78136    1.000
    O9       O        0.64110    0.38283    0.20703    1.000
    O10      O        0.45920    0.46525    0.13288    1.000
    O11      O        0.66140    0.62196    0.16327    1.000
    O12      O        0.83510    0.45750    0.16440    1.000
    O13      O        0.86550    0.54788    0.22819    1.000
    O14      O        0.49730    0.53670    0.21462    1.000
    O15      O        0.65300    0.54065    0.09102    1.000
    O16      O        0.70180    0.46107    0.28136    1.000
    Zn5      Zn       0.35488    0.55068    0.86535    1.000
    Zn6      Zn       0.31540    0.44772    0.76509    1.000
    Zn7      Zn       0.35488    0.94932    0.36535    1.000
    Zn8      Zn       0.31540    0.05228    0.26509    1.000
    H41      H        0.36380    0.41270    0.01520    1.000
    H42      H        0.31140    0.26370    0.88610    1.000
    H43      H        0.36160    0.33400    0.09430    1.000
    H44      H        0.90820    0.42170    0.74810    1.000
    H45      H        0.69970    0.42120    0.75750    1.000
    H46      H        0.33990    0.80230    0.38810    1.000
    H47      H        0.23440    0.59340    0.61350    1.000
    H48      H        0.33860    0.88220    0.58690    1.000
    H49      H        0.40540    0.72730    0.74060    1.000
    H50      H        0.33340    0.72600    0.46690    1.000
    H51      H        0.30250    0.18480    0.96500    1.000
    H52      H        0.97300    0.57470    0.87290    1.000
    H53      H        0.41330    0.80440    0.66030    1.000
    H54      H        0.76610    0.57210    0.88440    1.000
    H55      H        0.20160    0.13670    0.04310    1.000
    H56      H        0.34920    0.95460    0.50490    1.000
    H57      H        0.23880    0.67170    0.53490    1.000
    H58      H        0.19430    0.06650    0.12820    1.000
    H59      H        0.44860    0.17320    0.23470    1.000
    H60      H        0.46040    0.24590    0.15370    1.000
    H61      H        0.36380    0.08730    0.51520    1.000
    H62      H        0.31140    0.23630    0.38610    1.000
    H63      H        0.36160    0.16600    0.59430    1.000
    H64      H        0.90820    0.07830    0.24810    1.000
    H65      H        0.69970    0.07880    0.25750    1.000
    H66      H        0.33990    0.69770    0.88810    1.000
    H67      H        0.23440    0.90660    0.11350    1.000
    H68      H        0.33860    0.61780    0.08690    1.000
    H69      H        0.40540    0.77270    0.24060    1.000
    H70      H        0.33340    0.77400    0.96690    1.000
    H71      H        0.30250    0.31520    0.46500    1.000
    H72      H        0.97300    0.92530    0.37290    1.000
    H73      H        0.41330    0.69560    0.16030    1.000
    H74      H        0.76610    0.92790    0.38440    1.000
    H75      H        0.20160    0.36330    0.54310    1.000
    H76      H        0.34920    0.54540    0.00490    1.000
    H77      H        0.23880    0.82830    0.03490    1.000
    H78      H        0.19430    0.43350    0.62820    1.000
    H79      H        0.44860    0.32680    0.73470    1.000
    H80      H        0.46040    0.25410    0.65370    1.000
    C65      C        0.33690    0.34680    0.94290    1.000
    C66      C        0.33020    0.25120    0.03794    1.000
    C67      C        0.32650    0.20170    0.09001    1.000
    C68      C        0.32650    0.65110    0.68576    1.000
    C69      C        0.96180    0.49810    0.80970    1.000
    C70      C        0.35200    0.36700    0.00504    1.000
    C71      C        0.57480    0.49840    0.82529    1.000
    C72      C        0.34160    0.39860    0.89209    1.000
    C73      C        0.31980    0.27780    0.92790    1.000
    C74      C        0.33100    0.74560    0.58870    1.000
    C75      C        0.33490    0.79480    0.53720    1.000
    C76      C        0.34990    0.31980    0.05246    1.000
    C77      C        0.32770    0.59830    0.73704    1.000
    C78      C        0.87950    0.45220    0.77510    1.000
    C79      C        0.75460    0.45190    0.78080    1.000
    C80      C        0.71150    0.49720    0.82120    1.000
    C81      C        0.09790    0.49800    0.80510    1.000
    C82      C        0.34050    0.81840    0.42870    1.000
    C83      C        0.27220    0.63540    0.62320    1.000
    C84      C        0.33950    0.86470    0.54690    1.000
    C85      C        0.37480    0.71500    0.69900    1.000
    C86      C        0.33590    0.77220    0.47580    1.000
    C87      C        0.31540    0.23040    0.97520    1.000
    C88      C        0.91850    0.54360    0.85010    1.000
    C89      C        0.37840    0.76170    0.65060    1.000
    C90      C        0.79430    0.54250    0.85650    1.000
    C91      C        0.25060    0.14610    0.08220    1.000
    C92      C        0.34540    0.90810    0.49722    1.000
    C93      C        0.27520    0.68250    0.57620    1.000
    C94      C        0.24790    0.10370    0.13360    1.000
    C95      C        0.39640    0.16620    0.19600    1.000
    C96      C        0.40360    0.21020    0.14760    1.000
    C97      C        0.33690    0.15320    0.44290    1.000
    C98      C        0.33020    0.24880    0.53794    1.000
    C99      C        0.32650    0.29830    0.59001    1.000
    C100     C        0.32650    0.84890    0.18576    1.000
    C101     C        0.96180    0.00190    0.30970    1.000
    C102     C        0.35200    0.13300    0.50504    1.000
    C103     C        0.57480    0.00160    0.32529    1.000
    C104     C        0.34160    0.10140    0.39209    1.000
    C105     C        0.31980    0.22220    0.42790    1.000
    C106     C        0.33100    0.75440    0.08870    1.000
    C107     C        0.33490    0.70520    0.03720    1.000
    C108     C        0.34990    0.18020    0.55246    1.000
    C109     C        0.32770    0.90170    0.23704    1.000
    C110     C        0.87950    0.04780    0.27510    1.000
    C111     C        0.75460    0.04810    0.28080    1.000
    C112     C        0.71150    0.00280    0.32120    1.000
    C113     C        0.09790    0.00200    0.30510    1.000
    C114     C        0.34050    0.68160    0.92870    1.000
    C115     C        0.27220    0.86460    0.12320    1.000
    C116     C        0.33950    0.63530    0.04690    1.000
    C117     C        0.37480    0.78500    0.19900    1.000
    C118     C        0.33590    0.72780    0.97580    1.000
    C119     C        0.31540    0.26960    0.47520    1.000
    C120     C        0.91850    0.95640    0.35010    1.000
    C121     C        0.37840    0.73830    0.15060    1.000
    C122     C        0.79430    0.95750    0.35650    1.000
    C123     C        0.25060    0.35390    0.58220    1.000
    C124     C        0.34540    0.59190    0.99722    1.000
    C125     C        0.27520    0.81750    0.07620    1.000
    C126     C        0.24790    0.39630    0.63360    1.000
    C127     C        0.39640    0.33380    0.69600    1.000
    C128     C        0.40360    0.28980    0.64760    1.000
    N5       N        0.34580    0.88603    0.43840    1.000
    N6       N        0.31790    0.11370    0.19005    1.000
    N7       N        0.34580    0.61397    0.93840    1.000
    N8       N        0.31790    0.38630    0.69005    1.000
    O17      O        0.35890    0.61717    0.79297    1.000
    O18      O        0.54080    0.53475    0.86712    1.000
    O19      O        0.33860    0.37804    0.83673    1.000
    O20      O        0.16490    0.54250    0.83560    1.000
    O21      O        0.13450    0.45212    0.77181    1.000
    O22      O        0.50270    0.46330    0.78538    1.000
    O23      O        0.34700    0.45935    0.90898    1.000
    O24      O        0.29820    0.53893    0.71864    1.000
    O25      O        0.35890    0.88283    0.29297    1.000
    O26      O        0.54080    0.96525    0.36712    1.000
    O27      O        0.33860    0.12196    0.33673    1.000
    O28      O        0.16490    0.95750    0.33560    1.000
    O29      O        0.13450    0.04788    0.27181    1.000
    O30      O        0.50270    0.03670    0.28538    1.000
    O31      O        0.34700    0.04065    0.40898    1.000
    O32      O        0.29820    0.96107    0.21864    1.000
