data_functionalizedCrystal
_audit_creation_method	'EQeq! by Chris Wilmer'
_symmetry_space_group_name_H-M	'P1'
_symmetry_Int_Tables_number	1
_symmetry_cell_setting	triclinic
loop_
_symmetry_equiv_pos_as_xyz
  x,y,z
_cell_length_a	26.262
_cell_length_b	26.262
_cell_length_c	5.071
_cell_angle_alpha	90
_cell_angle_beta	90
_cell_angle_gamma	90
loop_
_atom_site_label
_atom_site_type_symbol
_atom_site_fract_x
_atom_site_fract_y
_atom_site_fract_z
_atom_site_charge
Mof_Zn	Zn	0.27419	0.21467	0.8722	1.226
Mof_O 	O 	0.22	0.2499	0.041	-0.788
Mof_H 	H 	0.1989	0.2611	0.9277	0.284
Mof_N 	N 	0.2552	0.1426	0.869	-0.284
Mof_C 	C 	0.2712	0.1065	0.025	0.109
Mof_H 	H 	0.2976	0.1103	0.1463	-0.013
Mof_N 	N 	0.2448	0.0626	0.99	-0.157
Mof_C 	C 	0.215	0.1192	0.724	0.042
Mof_O 	O 	0.2727	0.834	0.42	-0.513
Mof_C 	C 	0.1855	0.1419	0.531	-0.127
Mof_H 	H 	0.1907	0.1757	0.4846	0.039
Mof_O 	O 	0.3208	0.8762	0.715	-0.213
Mof_C 	C 	0.148	0.1134	0.409	0.041
Mof_C 	C 	0.1174	0.1341	0.215	-0.088
Mof_H 	H 	0.1223	0.1679	0.167	0.058
Mof_C 	C 	0.0795	0.1063	0.09	-0.02
Mof_H 	H 	0.0594	0.121	0.9599	0.028
Mof_C 	C 	0.0725	0.0559	0.165	-0.029
Mof_H 	H 	0.0474	0.0363	0.0852	0.034
Mof_C 	C 	0.1032	0.0351	0.36	-0.092
Mof_H 	H 	0.0982	0.0014	0.4088	0.061
Mof_C 	C 	0.141	0.0631	0.484	0.05
Mof_C 	C 	0.1701	0.0403	0.677	-0.133
Mof_H 	H 	0.1657	0.0061	0.7187	0.076
Mof_C 	C 	0.2061	0.0696	0.806	0.076
Mof_C 	C 	0.2576	0.0145	0.111	0.131
Mof_C 	C 	0.2824	0.9247	0.348	-0.103
Mof_C 	C 	0.2811	0.0143	0.355	-0.191
Mof_H 	H 	0.2883	0.0451	0.4375	0.102
Mof_C 	C 	0.2939	0.9694	0.478	0.122
Mof_H 	H 	0.3097	0.9692	0.6427	0.002
Mof_C 	C 	0.259	0.9231	0.106	-0.062
Mof_H 	H 	0.2515	0.8923	0.0241	0.047
Mof_C 	C 	0.2469	0.9688	0.99	0.047
Mof_H 	H 	0.2312	0.9689	0.8253	0.014
Mof_C 	C 	0.2892	0.8751	0.494	0.347
Mof_O 	O 	0.346	0.875	0.519	-0.153
Mof_C 	C 	0.3068	0.0065	0.192	0.024
Mof_H 	H 	0.3311	0.0317	0.1644	0.029
Mof_C 	C 	0.321	0.9609	0.314	-0.09
Mof_H 	H 	0.3542	0.9549	0.3686	0.082
Mof_C 	C 	0.2314	0.9295	0.272	0.082
Mof_H 	H 	0.2069	0.9044	0.298	-0.002
Mof_C 	C 	0.2217	0.9764	0.153	-0.194
Mof_H 	H 	0.1885	0.9826	0.0977	0.094
Mof_Zn	Zn	0.77419	0.71467	0.3722	1.23
Mof_O 	O 	0.72	0.7499	0.541	-0.806
Mof_H 	H 	0.6989	0.7611	0.4277	0.299
Mof_N 	N 	0.7552	0.6426	0.369	-0.277
Mof_C 	C 	0.7712	0.6065	0.525	0.107
Mof_H 	H 	0.7976	0.6103	0.6463	-0.014
Mof_N 	N 	0.7448	0.5626	0.49	-0.16
Mof_C 	C 	0.715	0.6192	0.224	0.026
Mof_O 	O 	0.7727	0.334	0.92	-0.507
Mof_C 	C 	0.6855	0.6419	0.031	-0.075
Mof_H 	H 	0.6907	0.6757	0.9846	0.015
Mof_O 	O 	0.8208	0.3762	0.215	-0.217
Mof_C 	C 	0.648	0.6134	0.909	0.001
Mof_C 	C 	0.6174	0.6341	0.715	-0.051
Mof_H 	H 	0.6223	0.6679	0.667	0.042
Mof_C 	C 	0.5795	0.6063	0.59	-0.055
Mof_H 	H 	0.5594	0.621	0.4599	0.041
Mof_C 	C 	0.5725	0.5559	0.665	-0.002
Mof_H 	H 	0.5474	0.5363	0.5852	0.025
Mof_C 	C 	0.6032	0.5351	0.86	-0.115
Mof_H 	H 	0.5982	0.5014	0.9088	0.069
Mof_C 	C 	0.641	0.5631	0.984	0.07
Mof_C 	C 	0.6701	0.5403	0.177	-0.141
Mof_H 	H 	0.6657	0.5061	0.2187	0.08
Mof_C 	C 	0.7061	0.5696	0.306	0.087
Mof_C 	C 	0.7576	0.5145	0.611	0.133
Mof_C 	C 	0.7824	0.4247	0.848	-0.099
Mof_C 	C 	0.7811	0.5143	0.855	-0.366
Mof_H 	H 	0.7883	0.5451	0.9375	0.157
Mof_C 	C 	0.7939	0.4694	0.978	0.281
Mof_H 	H 	0.8097	0.4692	0.1427	-0.054
Mof_C 	C 	0.759	0.4231	0.606	-0.258
Mof_H 	H 	0.7515	0.3923	0.5241	0.118
Mof_C 	C 	0.7469	0.4688	0.49	0.251
Mof_H 	H 	0.7312	0.4689	0.3253	-0.06
Mof_C 	C 	0.7892	0.3751	0.994	0.34
Mof_O 	O 	0.846	0.375	0.019	-0.149
Mof_C 	C 	0.8068	0.5065	0.692	0.201
Mof_H 	H 	0.8311	0.5317	0.6644	-0.03
Mof_C 	C 	0.821	0.4609	0.814	-0.25
Mof_H 	H 	0.8542	0.4549	0.8686	0.137
Mof_C 	C 	0.7314	0.4295	0.772	0.284
Mof_H 	H 	0.7069	0.4044	0.798	-0.072
Mof_C 	C 	0.7217	0.4764	0.653	-0.397
Mof_H 	H 	0.6885	0.4826	0.5977	0.163
Mof_Zn	Zn	0.72581	0.78533	0.8722	1.227
Mof_O 	O 	0.78	0.7501	0.041	-0.787
Mof_H 	H 	0.8011	0.7389	0.9277	0.285
Mof_N 	N 	0.7448	0.8574	0.869	-0.283
Mof_C 	C 	0.7288	0.8935	0.025	0.109
Mof_H 	H 	0.7024	0.8897	0.1463	-0.013
Mof_N 	N 	0.7552	0.9374	0.99	-0.157
Mof_C 	C 	0.785	0.8808	0.724	0.042
Mof_O 	O 	0.7273	0.166	0.42	-0.513
Mof_C 	C 	0.8145	0.8581	0.531	-0.127
Mof_H 	H 	0.8093	0.8243	0.4846	0.039
Mof_O 	O 	0.6792	0.1238	0.715	-0.213
Mof_C 	C 	0.852	0.8866	0.409	0.041
Mof_C 	C 	0.8826	0.8659	0.215	-0.088
Mof_H 	H 	0.8777	0.8321	0.167	0.058
Mof_C 	C 	0.9205	0.8937	0.09	-0.02
Mof_H 	H 	0.9406	0.879	0.9599	0.028
Mof_C 	C 	0.9275	0.9441	0.165	-0.029
Mof_H 	H 	0.9526	0.9637	0.0852	0.034
Mof_C 	C 	0.8968	0.9649	0.36	-0.092
Mof_H 	H 	0.9018	0.9986	0.4088	0.061
Mof_C 	C 	0.859	0.9369	0.484	0.05
Mof_C 	C 	0.8299	0.9597	0.677	-0.133
Mof_H 	H 	0.8343	0.9939	0.7187	0.076
Mof_C 	C 	0.7939	0.9304	0.806	0.076
Mof_C 	C 	0.7424	0.9855	0.111	0.131
Mof_C 	C 	0.7176	0.0753	0.348	-0.103
Mof_C 	C 	0.7189	0.9857	0.355	-0.191
Mof_H 	H 	0.7117	0.9549	0.4375	0.102
Mof_C 	C 	0.7061	0.0306	0.478	0.122
Mof_H 	H 	0.6903	0.0308	0.6427	0.002
Mof_C 	C 	0.741	0.0769	0.106	-0.062
Mof_H 	H 	0.7485	0.1077	0.0241	0.047
Mof_C 	C 	0.7531	0.0312	0.99	0.047
Mof_H 	H 	0.7688	0.0311	0.8253	0.014
Mof_C 	C 	0.7108	0.1249	0.494	0.347
Mof_O 	O 	0.654	0.125	0.519	-0.153
Mof_C 	C 	0.6932	0.9935	0.192	0.024
Mof_H 	H 	0.6689	0.9683	0.1644	0.029
Mof_C 	C 	0.679	0.0391	0.314	-0.09
Mof_H 	H 	0.6458	0.0451	0.3686	0.082
Mof_C 	C 	0.7686	0.0705	0.272	0.082
Mof_H 	H 	0.7931	0.0956	0.298	-0.002
Mof_C 	C 	0.7783	0.0236	0.153	-0.194
Mof_H 	H 	0.8115	0.0174	0.0977	0.094
Mof_Zn	Zn	0.22581	0.28533	0.3722	1.23
Mof_O 	O 	0.28	0.2501	0.541	-0.806
Mof_H 	H 	0.3011	0.2389	0.4277	0.299
Mof_N 	N 	0.2448	0.3574	0.369	-0.277
Mof_C 	C 	0.2288	0.3935	0.525	0.107
Mof_H 	H 	0.2024	0.3897	0.6463	-0.014
Mof_N 	N 	0.2552	0.4374	0.49	-0.16
Mof_C 	C 	0.285	0.3808	0.224	0.026
Mof_O 	O 	0.2273	0.666	0.92	-0.507
Mof_C 	C 	0.3145	0.3581	0.031	-0.075
Mof_H 	H 	0.3093	0.3243	0.9846	0.015
Mof_O 	O 	0.1792	0.6238	0.215	-0.217
Mof_C 	C 	0.352	0.3866	0.909	0.001
Mof_C 	C 	0.3826	0.3659	0.715	-0.051
Mof_H 	H 	0.3777	0.3321	0.667	0.042
Mof_C 	C 	0.4205	0.3937	0.59	-0.055
Mof_H 	H 	0.4406	0.379	0.4599	0.041
Mof_C 	C 	0.4275	0.4441	0.665	-0.002
Mof_H 	H 	0.4526	0.4637	0.5852	0.025
Mof_C 	C 	0.3968	0.4649	0.86	-0.115
Mof_H 	H 	0.4018	0.4986	0.9088	0.069
Mof_C 	C 	0.359	0.4369	0.984	0.07
Mof_C 	C 	0.3299	0.4597	0.177	-0.141
Mof_H 	H 	0.3343	0.4939	0.2187	0.08
Mof_C 	C 	0.2939	0.4304	0.306	0.087
Mof_C 	C 	0.2424	0.4855	0.611	0.133
Mof_C 	C 	0.2176	0.5753	0.848	-0.099
Mof_C 	C 	0.2189	0.4857	0.855	-0.366
Mof_H 	H 	0.2117	0.4549	0.9375	0.157
Mof_C 	C 	0.2061	0.5306	0.978	0.281
Mof_H 	H 	0.1903	0.5308	0.1427	-0.054
Mof_C 	C 	0.241	0.5769	0.606	-0.258
Mof_H 	H 	0.2485	0.6077	0.5241	0.118
Mof_C 	C 	0.2531	0.5312	0.49	0.251
Mof_H 	H 	0.2688	0.5311	0.3253	-0.06
Mof_C 	C 	0.2108	0.6249	0.994	0.34
Mof_O 	O 	0.154	0.625	0.019	-0.149
Mof_C 	C 	0.1932	0.4935	0.692	0.201
Mof_H 	H 	0.1689	0.4683	0.6644	-0.03
Mof_C 	C 	0.179	0.5391	0.814	-0.25
Mof_H 	H 	0.1458	0.5451	0.8686	0.137
Mof_C 	C 	0.2686	0.5705	0.772	0.284
Mof_H 	H 	0.2931	0.5956	0.798	-0.072
Mof_C 	C 	0.2783	0.5236	0.653	-0.397
Mof_H 	H 	0.3115	0.5174	0.5977	0.163
Mof_Zn	Zn	0.21467	0.72581	0.1278	1.227
Mof_O 	O 	0.2499	0.78	0.959	-0.787
Mof_H 	H 	0.2611	0.8011	0.0723	0.285
Mof_N 	N 	0.1426	0.7448	0.131	-0.283
Mof_C 	C 	0.1065	0.7288	0.975	0.109
Mof_H 	H 	0.1103	0.7024	0.8537	-0.013
Mof_N 	N 	0.0626	0.7552	0.01	-0.157
Mof_C 	C 	0.1192	0.785	0.276	0.042
Mof_O 	O 	0.834	0.7273	0.58	-0.513
Mof_C 	C 	0.1419	0.8145	0.469	-0.127
Mof_H 	H 	0.1757	0.8093	0.5154	0.039
Mof_O 	O 	0.8762	0.6792	0.285	-0.213
Mof_C 	C 	0.1134	0.852	0.591	0.041
Mof_C 	C 	0.1341	0.8826	0.785	-0.088
Mof_H 	H 	0.1679	0.8777	0.833	0.058
Mof_C 	C 	0.1063	0.9205	0.91	-0.02
Mof_H 	H 	0.121	0.9406	0.0401	0.028
Mof_C 	C 	0.0559	0.9275	0.835	-0.029
Mof_H 	H 	0.0363	0.9526	0.9148	0.034
Mof_C 	C 	0.0351	0.8968	0.64	-0.092
Mof_H 	H 	0.0014	0.9018	0.5912	0.061
Mof_C 	C 	0.0631	0.859	0.516	0.05
Mof_C 	C 	0.0403	0.8299	0.323	-0.133
Mof_H 	H 	0.0061	0.8343	0.2813	0.076
Mof_C 	C 	0.0696	0.7939	0.194	0.076
Mof_C 	C 	0.0145	0.7424	0.889	0.131
Mof_C 	C 	0.9247	0.7176	0.652	-0.103
Mof_C 	C 	0.0143	0.7189	0.645	-0.191
Mof_H 	H 	0.0451	0.7117	0.5625	0.102
Mof_C 	C 	0.9694	0.7061	0.522	0.122
Mof_H 	H 	0.9692	0.6903	0.3573	0.002
Mof_C 	C 	0.9231	0.741	0.894	-0.062
Mof_H 	H 	0.8923	0.7485	0.9759	0.047
Mof_C 	C 	0.9688	0.7531	0.01	0.047
Mof_H 	H 	0.9689	0.7688	0.1747	0.014
Mof_C 	C 	0.8751	0.7108	0.506	0.347
Mof_O 	O 	0.875	0.654	0.481	-0.153
Mof_C 	C 	0.0065	0.6932	0.808	0.024
Mof_H 	H 	0.0317	0.6689	0.8356	0.029
Mof_C 	C 	0.9609	0.679	0.686	-0.09
Mof_H 	H 	0.9549	0.6458	0.6314	0.082
Mof_C 	C 	0.9295	0.7686	0.728	0.082
Mof_H 	H 	0.9044	0.7931	0.702	-0.002
Mof_C 	C 	0.9764	0.7783	0.847	-0.194
Mof_H 	H 	0.9826	0.8115	0.9023	0.094
Mof_Zn	Zn	0.71467	0.22581	0.6278	1.23
Mof_O 	O 	0.7499	0.28	0.459	-0.806
Mof_H 	H 	0.7611	0.3011	0.5723	0.299
Mof_N 	N 	0.6426	0.2448	0.631	-0.277
Mof_C 	C 	0.6065	0.2288	0.475	0.107
Mof_H 	H 	0.6103	0.2024	0.3537	-0.014
Mof_N 	N 	0.5626	0.2552	0.51	-0.16
Mof_C 	C 	0.6192	0.285	0.776	0.026
Mof_O 	O 	0.334	0.2273	0.08	-0.507
Mof_C 	C 	0.6419	0.3145	0.969	-0.075
Mof_H 	H 	0.6757	0.3093	0.0154	0.015
Mof_O 	O 	0.3762	0.1792	0.785	-0.217
Mof_C 	C 	0.6134	0.352	0.091	0.001
Mof_C 	C 	0.6341	0.3826	0.285	-0.051
Mof_H 	H 	0.6679	0.3777	0.333	0.042
Mof_C 	C 	0.6063	0.4205	0.41	-0.055
Mof_H 	H 	0.621	0.4406	0.5401	0.041
Mof_C 	C 	0.5559	0.4275	0.335	-0.002
Mof_H 	H 	0.5363	0.4526	0.4148	0.025
Mof_C 	C 	0.5351	0.3968	0.14	-0.115
Mof_H 	H 	0.5014	0.4018	0.0912	0.069
Mof_C 	C 	0.5631	0.359	0.016	0.07
Mof_C 	C 	0.5403	0.3299	0.823	-0.141
Mof_H 	H 	0.5061	0.3343	0.7813	0.08
Mof_C 	C 	0.5696	0.2939	0.694	0.087
Mof_C 	C 	0.5145	0.2424	0.389	0.133
Mof_C 	C 	0.4247	0.2176	0.152	-0.099
Mof_C 	C 	0.5143	0.2189	0.145	-0.366
Mof_H 	H 	0.5451	0.2117	0.0625	0.157
Mof_C 	C 	0.4694	0.2061	0.022	0.281
Mof_H 	H 	0.4692	0.1903	0.8573	-0.054
Mof_C 	C 	0.4231	0.241	0.394	-0.258
Mof_H 	H 	0.3923	0.2485	0.4759	0.118
Mof_C 	C 	0.4688	0.2531	0.51	0.251
Mof_H 	H 	0.4689	0.2688	0.6747	-0.06
Mof_C 	C 	0.3751	0.2108	0.006	0.34
Mof_O 	O 	0.375	0.154	0.981	-0.149
Mof_C 	C 	0.5065	0.1932	0.308	0.201
Mof_H 	H 	0.5317	0.1689	0.3356	-0.03
Mof_C 	C 	0.4609	0.179	0.186	-0.25
Mof_H 	H 	0.4549	0.1458	0.1314	0.137
Mof_C 	C 	0.4295	0.2686	0.228	0.284
Mof_H 	H 	0.4044	0.2931	0.202	-0.072
Mof_C 	C 	0.4764	0.2783	0.347	-0.397
Mof_H 	H 	0.4826	0.3115	0.4023	0.163
Mof_Zn	Zn	0.78533	0.27419	0.1278	1.227
Mof_O 	O 	0.7501	0.22	0.959	-0.787
Mof_H 	H 	0.7389	0.1989	0.0723	0.285
Mof_N 	N 	0.8574	0.2552	0.131	-0.283
Mof_C 	C 	0.8935	0.2712	0.975	0.109
Mof_H 	H 	0.8897	0.2976	0.8537	-0.013
Mof_N 	N 	0.9374	0.2448	0.01	-0.157
Mof_C 	C 	0.8808	0.215	0.276	0.042
Mof_O 	O 	0.166	0.2727	0.58	-0.513
Mof_C 	C 	0.8581	0.1855	0.469	-0.127
Mof_H 	H 	0.8243	0.1907	0.5154	0.039
Mof_O 	O 	0.1238	0.3208	0.285	-0.213
Mof_C 	C 	0.8866	0.148	0.591	0.041
Mof_C 	C 	0.8659	0.1174	0.785	-0.088
Mof_H 	H 	0.8321	0.1223	0.833	0.058
Mof_C 	C 	0.8937	0.0795	0.91	-0.02
Mof_H 	H 	0.879	0.0594	0.0401	0.028
Mof_C 	C 	0.9441	0.0725	0.835	-0.029
Mof_H 	H 	0.9637	0.0474	0.9148	0.034
Mof_C 	C 	0.9649	0.1032	0.64	-0.092
Mof_H 	H 	0.9986	0.0982	0.5912	0.061
Mof_C 	C 	0.9369	0.141	0.516	0.05
Mof_C 	C 	0.9597	0.1701	0.323	-0.133
Mof_H 	H 	0.9939	0.1657	0.2813	0.076
Mof_C 	C 	0.9304	0.2061	0.194	0.076
Mof_C 	C 	0.9855	0.2576	0.889	0.131
Mof_C 	C 	0.0753	0.2824	0.652	-0.103
Mof_C 	C 	0.9857	0.2811	0.645	-0.191
Mof_H 	H 	0.9549	0.2883	0.5625	0.102
Mof_C 	C 	0.0306	0.2939	0.522	0.122
Mof_H 	H 	0.0308	0.3097	0.3573	0.002
Mof_C 	C 	0.0769	0.259	0.894	-0.062
Mof_H 	H 	0.1077	0.2515	0.9759	0.047
Mof_C 	C 	0.0312	0.2469	0.01	0.047
Mof_H 	H 	0.0311	0.2312	0.1747	0.014
Mof_C 	C 	0.1249	0.2892	0.506	0.347
Mof_O 	O 	0.125	0.346	0.481	-0.153
Mof_C 	C 	0.9935	0.3068	0.808	0.024
Mof_H 	H 	0.9683	0.3311	0.8356	0.029
Mof_C 	C 	0.0391	0.321	0.686	-0.09
Mof_H 	H 	0.0451	0.3542	0.6314	0.082
Mof_C 	C 	0.0705	0.2314	0.728	0.082
Mof_H 	H 	0.0956	0.2069	0.702	-0.002
Mof_C 	C 	0.0236	0.2217	0.847	-0.194
Mof_H 	H 	0.0174	0.1885	0.9023	0.094
Mof_Zn	Zn	0.28533	0.77419	0.6278	1.23
Mof_O 	O 	0.2501	0.72	0.459	-0.806
Mof_H 	H 	0.2389	0.6989	0.5723	0.299
Mof_N 	N 	0.3574	0.7552	0.631	-0.277
Mof_C 	C 	0.3935	0.7712	0.475	0.107
Mof_H 	H 	0.3897	0.7976	0.3537	-0.014
Mof_N 	N 	0.4374	0.7448	0.51	-0.16
Mof_C 	C 	0.3808	0.715	0.776	0.026
Mof_O 	O 	0.666	0.7727	0.08	-0.507
Mof_C 	C 	0.3581	0.6855	0.969	-0.075
Mof_H 	H 	0.3243	0.6907	0.0154	0.015
Mof_O 	O 	0.6238	0.8208	0.785	-0.217
Mof_C 	C 	0.3866	0.648	0.091	0.001
Mof_C 	C 	0.3659	0.6174	0.285	-0.051
Mof_H 	H 	0.3321	0.6223	0.333	0.042
Mof_C 	C 	0.3937	0.5795	0.41	-0.055
Mof_H 	H 	0.379	0.5594	0.5401	0.041
Mof_C 	C 	0.4441	0.5725	0.335	-0.002
Mof_H 	H 	0.4637	0.5474	0.4148	0.025
Mof_C 	C 	0.4649	0.6032	0.14	-0.115
Mof_H 	H 	0.4986	0.5982	0.0912	0.069
Mof_C 	C 	0.4369	0.641	0.016	0.07
Mof_C 	C 	0.4597	0.6701	0.823	-0.141
Mof_H 	H 	0.4939	0.6657	0.7813	0.08
Mof_C 	C 	0.4304	0.7061	0.694	0.087
Mof_C 	C 	0.4855	0.7576	0.389	0.133
Mof_C 	C 	0.5753	0.7824	0.152	-0.099
Mof_C 	C 	0.4857	0.7811	0.145	-0.366
Mof_H 	H 	0.4549	0.7883	0.0625	0.157
Mof_C 	C 	0.5306	0.7939	0.022	0.281
Mof_H 	H 	0.5308	0.8097	0.8573	-0.054
Mof_C 	C 	0.5769	0.759	0.394	-0.258
Mof_H 	H 	0.6077	0.7515	0.4759	0.118
Mof_C 	C 	0.5312	0.7469	0.51	0.251
Mof_H 	H 	0.5311	0.7312	0.6747	-0.06
Mof_C 	C 	0.6249	0.7892	0.006	0.34
Mof_O 	O 	0.625	0.846	0.981	-0.149
Mof_C 	C 	0.4935	0.8068	0.308	0.201
Mof_H 	H 	0.4683	0.8311	0.3356	-0.03
Mof_C 	C 	0.5391	0.821	0.186	-0.25
Mof_H 	H 	0.5451	0.8542	0.1314	0.137
Mof_C 	C 	0.5705	0.7314	0.228	0.284
Mof_H 	H 	0.5956	0.7069	0.202	-0.072
Mof_C 	C 	0.5236	0.7217	0.347	-0.397
Mof_H 	H 	0.5174	0.6885	0.4023	0.163
_end
