data_functionalizedCrystal
_audit_creation_method	'EQeq! by Chris Wilmer'
_symmetry_space_group_name_H-M	'P1'
_symmetry_Int_Tables_number	1
_symmetry_cell_setting	triclinic
loop_
_symmetry_equiv_pos_as_xyz
  x,y,z
_cell_length_a	8.3755
_cell_length_b	16.2549
_cell_length_c	17.0748
_cell_angle_alpha	90
_cell_angle_beta	101.168
_cell_angle_gamma	90
loop_
_atom_site_label
_atom_site_type_symbol
_atom_site_fract_x
_atom_site_fract_y
_atom_site_fract_z
_atom_site_charge
Mof_C 	C 	0.7935	0.882	0.1356	0.11
Mof_H 	H 	0.8928	0.897	0.1232	-0.006
Mof_C 	C 	0.6571	0.9287	0.107	-0.184
Mof_H 	H 	0.6662	0.9749	0.0761	0.103
Mof_C 	C 	0.5087	0.908	0.1236	0.121
Mof_C 	C 	0.499	0.8375	0.1671	-0.182
Mof_H 	H 	0.3998	0.8198	0.1778	0.101
Mof_C 	C 	0.6404	0.7936	0.1945	0.111
Mof_H 	H 	0.6334	0.7461	0.224	-0.003
Mof_C 	C 	0.3634	0.9597	0.0955	-0.039
Mof_C 	C 	0.351	0.0407	0.1097	-0.035
Mof_C 	C 	0.4826	0.0958	0.1518	0.121
Mof_C 	C 	0.5199	0.1675	0.1181	-0.187
Mof_H 	H 	0.4559	0.1865	0.0709	0.103
Mof_C 	C 	0.6541	0.2113	0.1552	0.11
Mof_H 	H 	0.679	0.2601	0.1317	-0.005
Mof_C 	C 	0.7096	0.1192	0.2577	0.112
Mof_H 	H 	0.7737	0.1023	0.3057	-0.006
Mof_C 	C 	0.5764	0.0729	0.225	-0.183
Mof_H 	H 	0.549	0.0266	0.2516	0.106
Mof_C 	C 	0.0744	0.0002	0.0223	-0.009
Mof_Fe	Fe	0.0148	0.75026	0.23096	0.676
Mof_N 	N 	0.7858	0.8156	0.1809	-0.193
Mof_N 	N 	0.7506	0.1874	0.2233	-0.195
Mof_N 	N 	0.1427	0.8667	0.2439	-0.209
Mof_C 	C 	0.1794	0.9316	0.2671	0.167
Mof_C 	C 	0.1639	0.0692	0.284	0.175
Mof_N 	N 	0.1118	0.1345	0.2781	-0.209
Mof_N 	N 	0.9735	0.7689	0.3488	-0.228
Mof_C 	C 	0.9819	0.79	0.4114	0.225
Mof_C 	C 	0.0281	0.7909	0.55	0.227
Mof_N 	N 	0.0515	0.7704	0.6119	-0.233
Mof_N 	N 	0.07	0.8233	0.4833	-0.134
Mof_N 	N 	0.245	0.0008	0.2958	-0.178
Mof_S 	S 	0.16408	0.08799	0.07218	-0.003
Mof_S 	S 	0.19443	0.9109	0.03857	-0.007
Mof_N 	N 	0.937	0.8188	0.4768	-0.138
Mof_C 	C 	0.2065	0.382	0.3644	0.109
Mof_H 	H 	0.1072	0.397	0.3768	-0.007
Mof_C 	C 	0.3429	0.4287	0.393	-0.185
Mof_H 	H 	0.3338	0.4749	0.4239	0.102
Mof_C 	C 	0.4913	0.408	0.3764	0.121
Mof_C 	C 	0.501	0.3375	0.3329	-0.182
Mof_H 	H 	0.6002	0.3198	0.3222	0.101
Mof_C 	C 	0.3596	0.2936	0.3055	0.111
Mof_H 	H 	0.3666	0.2461	0.276	-0.003
Mof_C 	C 	0.6366	0.4597	0.4045	-0.038
Mof_C 	C 	0.649	0.5407	0.3903	-0.036
Mof_C 	C 	0.5174	0.5958	0.3482	0.122
Mof_C 	C 	0.4801	0.6675	0.3819	-0.187
Mof_H 	H 	0.5441	0.6865	0.4291	0.103
Mof_C 	C 	0.3459	0.7113	0.3448	0.11
Mof_H 	H 	0.321	0.7601	0.3683	-0.006
Mof_C 	C 	0.2904	0.6192	0.2423	0.113
Mof_H 	H 	0.2263	0.6023	0.1943	-0.006
Mof_C 	C 	0.4236	0.5729	0.275	-0.184
Mof_H 	H 	0.451	0.5266	0.2484	0.106
Mof_C 	C 	0.9256	0.5002	0.4777	-0.011
Mof_Fe	Fe	0.9852	0.25026	0.26904	0.677
Mof_N 	N 	0.2142	0.3156	0.3191	-0.193
Mof_N 	N 	0.2494	0.6874	0.2767	-0.195
Mof_N 	N 	0.8573	0.3667	0.2561	-0.21
Mof_C 	C 	0.8206	0.4316	0.2329	0.169
Mof_C 	C 	0.8361	0.5692	0.216	0.175
Mof_N 	N 	0.8882	0.6345	0.2219	-0.209
Mof_N 	N 	0.0265	0.2689	0.1512	-0.228
Mof_C 	C 	0.0181	0.29	0.0886	0.224
Mof_C 	C 	0.9719	0.2909	0.95	0.227
Mof_N 	N 	0.9485	0.2704	0.8881	-0.233
Mof_N 	N 	0.93	0.3233	0.0167	-0.133
Mof_N 	N 	0.755	0.5008	0.2042	-0.179
Mof_S 	S 	0.83592	0.58799	0.42782	-0.003
Mof_S 	S 	0.80557	0.4109	0.46143	-0.004
Mof_N 	N 	0.063	0.3188	0.0232	-0.138
Mof_C 	C 	0.2065	0.118	0.8644	0.109
Mof_H 	H 	0.1072	0.103	0.8768	-0.007
Mof_C 	C 	0.3429	0.0713	0.893	-0.185
Mof_H 	H 	0.3338	0.0251	0.9239	0.102
Mof_C 	C 	0.4913	0.092	0.8764	0.121
Mof_C 	C 	0.501	0.1625	0.8329	-0.182
Mof_H 	H 	0.6002	0.1802	0.8222	0.101
Mof_C 	C 	0.3596	0.2064	0.8055	0.111
Mof_H 	H 	0.3666	0.2539	0.776	-0.003
Mof_C 	C 	0.6366	0.0403	0.9045	-0.039
Mof_C 	C 	0.649	0.9593	0.8903	-0.035
Mof_C 	C 	0.5174	0.9042	0.8482	0.121
Mof_C 	C 	0.4801	0.8325	0.8819	-0.187
Mof_H 	H 	0.5441	0.8135	0.9291	0.103
Mof_C 	C 	0.3459	0.7887	0.8448	0.11
Mof_H 	H 	0.321	0.7399	0.8683	-0.005
Mof_C 	C 	0.2904	0.8808	0.7423	0.112
Mof_H 	H 	0.2263	0.8977	0.6943	-0.006
Mof_C 	C 	0.4236	0.9271	0.775	-0.183
Mof_H 	H 	0.451	0.9734	0.7484	0.106
Mof_C 	C 	0.9256	0.9998	0.9777	-0.009
Mof_Fe	Fe	0.9852	0.24974	0.76904	0.676
Mof_N 	N 	0.2142	0.1844	0.8191	-0.193
Mof_N 	N 	0.2494	0.8126	0.7767	-0.195
Mof_N 	N 	0.8573	0.1333	0.7561	-0.209
Mof_C 	C 	0.8206	0.0684	0.7329	0.167
Mof_C 	C 	0.8361	0.9308	0.716	0.175
Mof_N 	N 	0.8882	0.8655	0.7219	-0.209
Mof_N 	N 	0.0265	0.2311	0.6512	-0.228
Mof_C 	C 	0.0181	0.21	0.5886	0.225
Mof_C 	C 	0.9719	0.2091	0.45	0.227
Mof_N 	N 	0.9485	0.2296	0.3881	-0.233
Mof_N 	N 	0.93	0.1767	0.5167	-0.134
Mof_N 	N 	0.755	0.9992	0.7042	-0.178
Mof_S 	S 	0.83592	0.91201	0.92782	-0.003
Mof_S 	S 	0.80557	0.0891	0.96143	-0.007
Mof_N 	N 	0.063	0.1812	0.5232	-0.138
Mof_C 	C 	0.7935	0.618	0.6356	0.109
Mof_H 	H 	0.8928	0.603	0.6232	-0.007
Mof_C 	C 	0.6571	0.5713	0.607	-0.185
Mof_H 	H 	0.6662	0.5251	0.5761	0.102
Mof_C 	C 	0.5087	0.592	0.6236	0.121
Mof_C 	C 	0.499	0.6625	0.6671	-0.182
Mof_H 	H 	0.3998	0.6802	0.6778	0.101
Mof_C 	C 	0.6404	0.7064	0.6945	0.111
Mof_H 	H 	0.6334	0.7539	0.724	-0.003
Mof_C 	C 	0.3634	0.5403	0.5955	-0.038
Mof_C 	C 	0.351	0.4593	0.6097	-0.036
Mof_C 	C 	0.4826	0.4042	0.6518	0.122
Mof_C 	C 	0.5199	0.3325	0.6181	-0.187
Mof_H 	H 	0.4559	0.3135	0.5709	0.103
Mof_C 	C 	0.6541	0.2887	0.6552	0.11
Mof_H 	H 	0.679	0.2399	0.6317	-0.006
Mof_C 	C 	0.7096	0.3808	0.7577	0.113
Mof_H 	H 	0.7737	0.3977	0.8057	-0.006
Mof_C 	C 	0.5764	0.4271	0.725	-0.184
Mof_H 	H 	0.549	0.4734	0.7516	0.106
Mof_C 	C 	0.0744	0.4998	0.5223	-0.011
Mof_Fe	Fe	0.0148	0.74974	0.73096	0.677
Mof_N 	N 	0.7858	0.6844	0.6809	-0.193
Mof_N 	N 	0.7506	0.3126	0.7233	-0.195
Mof_N 	N 	0.1427	0.6333	0.7439	-0.21
Mof_C 	C 	0.1794	0.5684	0.7671	0.169
Mof_C 	C 	0.1639	0.4308	0.784	0.175
Mof_N 	N 	0.1118	0.3655	0.7781	-0.209
Mof_N 	N 	0.9735	0.7311	0.8488	-0.228
Mof_C 	C 	0.9819	0.71	0.9114	0.224
Mof_C 	C 	0.0281	0.7091	0.05	0.227
Mof_N 	N 	0.0515	0.7296	0.1119	-0.233
Mof_N 	N 	0.07	0.6767	0.9833	-0.133
Mof_N 	N 	0.245	0.4992	0.7958	-0.179
Mof_S 	S 	0.16408	0.41201	0.57218	-0.003
Mof_S 	S 	0.19443	0.5891	0.53857	-0.004
Mof_N 	N 	0.937	0.6812	0.9768	-0.138
_end
