data_functionalizedCrystal
_audit_creation_method	'EQeq! by Chris Wilmer'
_symmetry_space_group_name_H-M	'P1'
_symmetry_Int_Tables_number	1
_symmetry_cell_setting	triclinic
loop_
_symmetry_equiv_pos_as_xyz
  x,y,z
_cell_length_a	19.204
_cell_length_b	19.204
_cell_length_c	35.998
_cell_angle_alpha	90
_cell_angle_beta	90
_cell_angle_gamma	120
loop_
_atom_site_label
_atom_site_type_symbol
_atom_site_fract_x
_atom_site_fract_y
_atom_site_fract_z
_atom_site_charge
Mof_H 	H 	0.6024	0.9063	0.9099	0.139
Mof_H 	H 	0.0912	0.4457	0.0926	0.011
Mof_H 	H 	0.2036	0.3382	0.8645	0.358
Mof_H 	H 	0.5329	0.6744	0.3477	0.033
Mof_C 	C 	0.8978	0.3912	0.60482	0.021
Mof_C 	C 	0.35748	0.4552	0.52362	0.343
Mof_C 	C 	0.7341	0.5938	0.4223	-0.284
Mof_C 	C 	0.6266	0.132	0.85937	-0.003
Mof_C 	C 	0.8465	0.5683	0.04095	0.039
Mof_O 	O 	0.51649	0.63005	0.00855	-0.448
Mof_O 	O 	0.45739	0.65909	0.28989	-0.678
Mof_O 	O 	0.0384	0.59422	0.54258	-0.458
Mof_H 	H 	0.0937	0.6961	0.9099	0.139
Mof_H 	H 	0.5543	0.6455	0.0926	0.011
Mof_H 	H 	0.6618	0.8654	0.8645	0.358
Mof_H 	H 	0.3256	0.8585	0.3477	0.033
Mof_C 	C 	0.6088	0.5066	0.60482	0.021
Mof_C 	C 	0.5448	0.90228	0.52362	0.343
Mof_C 	C 	0.4062	0.1403	0.4223	-0.284
Mof_C 	C 	0.868	0.4946	0.85937	-0.003
Mof_C 	C 	0.4317	0.2782	0.04095	0.039
Mof_O 	O 	0.36995	0.88644	0.00855	-0.448
Mof_O 	O 	0.34091	0.7983	0.28989	-0.678
Mof_O 	O 	0.40578	0.44418	0.54258	-0.459
Mof_H 	H 	0.3039	0.3976	0.9099	0.139
Mof_H 	H 	0.3545	0.9088	0.0926	0.011
Mof_H 	H 	0.1346	0.7964	0.8645	0.358
Mof_H 	H 	0.1415	0.4671	0.3477	0.033
Mof_C 	C 	0.4934	0.1022	0.60482	0.021
Mof_C 	C 	0.09772	0.64252	0.52362	0.343
Mof_C 	C 	0.8597	0.2659	0.4223	-0.284
Mof_C 	C 	0.5054	0.3734	0.85937	-0.003
Mof_C 	C 	0.7218	0.1535	0.04095	0.039
Mof_O 	O 	0.11356	0.48351	0.00855	-0.448
Mof_O 	O 	0.2017	0.54261	0.28989	-0.678
Mof_O 	O 	0.55582	0.9616	0.54258	-0.458
Mof_H 	H 	0.3976	0.0937	0.4099	0.139
Mof_H 	H 	0.9088	0.5543	0.5926	0.011
Mof_H 	H 	0.7964	0.6618	0.3645	0.358
Mof_H 	H 	0.4671	0.3256	0.8477	0.033
Mof_C 	C 	0.1022	0.6088	0.10482	0.021
Mof_C 	C 	0.64252	0.5448	0.02362	0.343
Mof_C 	C 	0.2659	0.4062	0.9223	-0.284
Mof_C 	C 	0.3734	0.868	0.35937	-0.003
Mof_C 	C 	0.1535	0.4317	0.54095	0.04
Mof_O 	O 	0.48351	0.36995	0.50855	-0.447
Mof_O 	O 	0.54261	0.34091	0.78989	-0.677
Mof_O 	O 	0.9616	0.40578	0.04258	-0.457
Mof_H 	H 	0.9063	0.3039	0.4099	0.14
Mof_H 	H 	0.4457	0.3545	0.5926	0.012
Mof_H 	H 	0.3382	0.1346	0.3645	0.359
Mof_H 	H 	0.6744	0.1415	0.8477	0.034
Mof_C 	C 	0.3912	0.4934	0.10482	0.022
Mof_C 	C 	0.4552	0.09772	0.02362	0.344
Mof_C 	C 	0.5938	0.8597	0.9223	-0.283
Mof_C 	C 	0.132	0.5054	0.35937	-0.002
Mof_C 	C 	0.5683	0.7218	0.54095	0.04
Mof_O 	O 	0.63005	0.11356	0.50855	-0.447
Mof_O 	O 	0.65909	0.2017	0.78989	-0.677
Mof_O 	O 	0.59422	0.55582	0.04258	-0.458
Mof_H 	H 	0.6961	0.6024	0.4099	0.14
Mof_H 	H 	0.6455	0.0912	0.5926	0.012
Mof_H 	H 	0.8654	0.2036	0.3645	0.359
Mof_H 	H 	0.8585	0.5329	0.8477	0.034
Mof_C 	C 	0.5066	0.8978	0.10482	0.022
Mof_C 	C 	0.90228	0.35748	0.02362	0.344
Mof_C 	C 	0.1403	0.7341	0.9223	-0.283
Mof_C 	C 	0.4946	0.6266	0.35937	-0.002
Mof_C 	C 	0.2782	0.8465	0.54095	0.04
Mof_O 	O 	0.88644	0.51649	0.50855	-0.447
Mof_O 	O 	0.7983	0.45739	0.78989	-0.677
Mof_O 	O 	0.44418	0.0384	0.04258	-0.457
Mof_H 	H 	0.9063	0.6024	0.0901	0.14
Mof_H 	H 	0.4457	0.0912	0.9074	0.012
Mof_H 	H 	0.3382	0.2036	0.1355	0.359
Mof_H 	H 	0.6744	0.5329	0.6523	0.034
Mof_C 	C 	0.3912	0.8978	0.39518	0.022
Mof_C 	C 	0.4552	0.35748	0.47638	0.344
Mof_C 	C 	0.5938	0.7341	0.5777	-0.283
Mof_C 	C 	0.132	0.6266	0.14063	-0.002
Mof_C 	C 	0.5683	0.8465	0.95905	0.04
Mof_O 	O 	0.63005	0.51649	0.99145	-0.447
Mof_O 	O 	0.65909	0.45739	0.71011	-0.677
Mof_O 	O 	0.59422	0.0384	0.45742	-0.457
Mof_H 	H 	0.6961	0.0937	0.0901	0.14
Mof_H 	H 	0.6455	0.5543	0.9074	0.012
Mof_H 	H 	0.8654	0.6618	0.1355	0.359
Mof_H 	H 	0.8585	0.3256	0.6523	0.034
Mof_C 	C 	0.5066	0.6088	0.39518	0.022
Mof_C 	C 	0.90228	0.5448	0.47638	0.344
Mof_C 	C 	0.1403	0.4062	0.5777	-0.283
Mof_C 	C 	0.4946	0.868	0.14063	-0.002
Mof_C 	C 	0.2782	0.4317	0.95905	0.04
Mof_O 	O 	0.88644	0.36995	0.99145	-0.447
Mof_O 	O 	0.7983	0.34091	0.71011	-0.677
Mof_O 	O 	0.44418	0.40578	0.45742	-0.458
Mof_H 	H 	0.3976	0.3039	0.0901	0.14
Mof_H 	H 	0.9088	0.3545	0.9074	0.012
Mof_H 	H 	0.7964	0.1346	0.1355	0.359
Mof_H 	H 	0.4671	0.1415	0.6523	0.034
Mof_C 	C 	0.1022	0.4934	0.39518	0.022
Mof_C 	C 	0.64252	0.09772	0.47638	0.344
Mof_C 	C 	0.2659	0.8597	0.5777	-0.283
Mof_C 	C 	0.3734	0.5054	0.14063	-0.002
Mof_C 	C 	0.1535	0.7218	0.95905	0.04
Mof_O 	O 	0.48351	0.11356	0.99145	-0.447
Mof_O 	O 	0.54261	0.2017	0.71011	-0.677
Mof_O 	O 	0.9616	0.55582	0.45742	-0.457
Mof_H 	H 	0.0937	0.3976	0.5901	0.14
Mof_H 	H 	0.5543	0.9088	0.4074	0.012
Mof_H 	H 	0.6618	0.7964	0.6355	0.359
Mof_H 	H 	0.3256	0.4671	0.1523	0.034
Mof_C 	C 	0.6088	0.1022	0.89518	0.022
Mof_C 	C 	0.5448	0.64252	0.97638	0.344
Mof_C 	C 	0.4062	0.2659	0.0777	-0.283
Mof_C 	C 	0.868	0.3734	0.64063	-0.002
Mof_C 	C 	0.4317	0.1535	0.45905	0.04
Mof_O 	O 	0.36995	0.48351	0.49145	-0.447
Mof_O 	O 	0.34091	0.54261	0.21011	-0.677
Mof_O 	O 	0.40578	0.9616	0.95742	-0.457
Mof_H 	H 	0.3039	0.9063	0.5901	0.14
Mof_H 	H 	0.3545	0.4457	0.4074	0.012
Mof_H 	H 	0.1346	0.3382	0.6355	0.359
Mof_H 	H 	0.1415	0.6744	0.1523	0.034
Mof_C 	C 	0.4934	0.3912	0.89518	0.022
Mof_C 	C 	0.09772	0.4552	0.97638	0.344
Mof_C 	C 	0.8597	0.5938	0.0777	-0.283
Mof_C 	C 	0.5054	0.132	0.64063	-0.002
Mof_C 	C 	0.7218	0.5683	0.45905	0.04
Mof_O 	O 	0.11356	0.63005	0.49145	-0.447
Mof_O 	O 	0.2017	0.65909	0.21011	-0.677
Mof_O 	O 	0.55582	0.59422	0.95742	-0.458
Mof_H 	H 	0.6024	0.6961	0.5901	0.14
Mof_H 	H 	0.0912	0.6455	0.4074	0.012
Mof_H 	H 	0.2036	0.8654	0.6355	0.359
Mof_H 	H 	0.5329	0.8585	0.1523	0.034
Mof_C 	C 	0.8978	0.5066	0.89518	0.022
Mof_C 	C 	0.35748	0.90228	0.97638	0.344
Mof_C 	C 	0.7341	0.1403	0.0777	-0.283
Mof_C 	C 	0.6266	0.4946	0.64063	-0.002
Mof_C 	C 	0.8465	0.2782	0.45905	0.04
Mof_O 	O 	0.51649	0.88644	0.49145	-0.447
Mof_O 	O 	0.45739	0.7983	0.21011	-0.677
Mof_O 	O 	0.0384	0.44418	0.95742	-0.457
Mof_H 	H 	0.3976	0.0937	0.0901	0.14
Mof_H 	H 	0.9088	0.5543	0.9074	0.012
Mof_H 	H 	0.7964	0.6618	0.1355	0.359
Mof_H 	H 	0.4671	0.3256	0.6523	0.034
Mof_C 	C 	0.1022	0.6088	0.39518	0.022
Mof_C 	C 	0.64252	0.5448	0.47638	0.344
Mof_C 	C 	0.2659	0.4062	0.5777	-0.283
Mof_C 	C 	0.3734	0.868	0.14063	-0.002
Mof_C 	C 	0.1535	0.4317	0.95905	0.04
Mof_O 	O 	0.48351	0.36995	0.99145	-0.447
Mof_O 	O 	0.54261	0.34091	0.71011	-0.677
Mof_O 	O 	0.9616	0.40578	0.45742	-0.457
Mof_H 	H 	0.9063	0.3039	0.0901	0.14
Mof_H 	H 	0.4457	0.3545	0.9074	0.012
Mof_H 	H 	0.3382	0.1346	0.1355	0.359
Mof_H 	H 	0.6744	0.1415	0.6523	0.034
Mof_C 	C 	0.3912	0.4934	0.39518	0.022
Mof_C 	C 	0.4552	0.09772	0.47638	0.344
Mof_C 	C 	0.5938	0.8597	0.5777	-0.283
Mof_C 	C 	0.132	0.5054	0.14063	-0.002
Mof_C 	C 	0.5683	0.7218	0.95905	0.04
Mof_O 	O 	0.63005	0.11356	0.99145	-0.447
Mof_O 	O 	0.65909	0.2017	0.71011	-0.677
Mof_O 	O 	0.59422	0.55582	0.45742	-0.458
Mof_H 	H 	0.6961	0.6024	0.0901	0.14
Mof_H 	H 	0.6455	0.0912	0.9074	0.012
Mof_H 	H 	0.8654	0.2036	0.1355	0.359
Mof_H 	H 	0.8585	0.5329	0.6523	0.034
Mof_C 	C 	0.5066	0.8978	0.39518	0.022
Mof_C 	C 	0.90228	0.35748	0.47638	0.344
Mof_C 	C 	0.1403	0.7341	0.5777	-0.283
Mof_C 	C 	0.4946	0.6266	0.14063	-0.002
Mof_C 	C 	0.2782	0.8465	0.95905	0.04
Mof_O 	O 	0.88644	0.51649	0.99145	-0.447
Mof_O 	O 	0.7983	0.45739	0.71011	-0.677
Mof_O 	O 	0.44418	0.0384	0.45742	-0.457
Mof_H 	H 	0.6024	0.9063	0.5901	0.14
Mof_H 	H 	0.0912	0.4457	0.4074	0.012
Mof_H 	H 	0.2036	0.3382	0.6355	0.359
Mof_H 	H 	0.5329	0.6744	0.1523	0.034
Mof_C 	C 	0.8978	0.3912	0.89518	0.022
Mof_C 	C 	0.35748	0.4552	0.97638	0.344
Mof_C 	C 	0.7341	0.5938	0.0777	-0.283
Mof_C 	C 	0.6266	0.132	0.64063	-0.002
Mof_C 	C 	0.8465	0.5683	0.45905	0.04
Mof_O 	O 	0.51649	0.63005	0.49145	-0.447
Mof_O 	O 	0.45739	0.65909	0.21011	-0.677
Mof_O 	O 	0.0384	0.59422	0.95742	-0.457
Mof_H 	H 	0.0937	0.6961	0.5901	0.14
Mof_H 	H 	0.5543	0.6455	0.4074	0.012
Mof_H 	H 	0.6618	0.8654	0.6355	0.359
Mof_H 	H 	0.3256	0.8585	0.1523	0.034
Mof_C 	C 	0.6088	0.5066	0.89518	0.022
Mof_C 	C 	0.5448	0.90228	0.97638	0.344
Mof_C 	C 	0.4062	0.1403	0.0777	-0.283
Mof_C 	C 	0.868	0.4946	0.64063	-0.002
Mof_C 	C 	0.4317	0.2782	0.45905	0.04
Mof_O 	O 	0.36995	0.88644	0.49145	-0.447
Mof_O 	O 	0.34091	0.7983	0.21011	-0.677
Mof_O 	O 	0.40578	0.44418	0.95742	-0.458
Mof_H 	H 	0.3039	0.3976	0.5901	0.14
Mof_H 	H 	0.3545	0.9088	0.4074	0.012
Mof_H 	H 	0.1346	0.7964	0.6355	0.359
Mof_H 	H 	0.1415	0.4671	0.1523	0.034
Mof_C 	C 	0.4934	0.1022	0.89518	0.022
Mof_C 	C 	0.09772	0.64252	0.97638	0.344
Mof_C 	C 	0.8597	0.2659	0.0777	-0.283
Mof_C 	C 	0.5054	0.3734	0.64063	-0.002
Mof_C 	C 	0.7218	0.1535	0.45905	0.04
Mof_O 	O 	0.11356	0.48351	0.49145	-0.447
Mof_O 	O 	0.2017	0.54261	0.21011	-0.677
Mof_O 	O 	0.55582	0.9616	0.95742	-0.457
Mof_H 	H 	0.0937	0.3976	0.9099	0.14
Mof_H 	H 	0.5543	0.9088	0.0926	0.012
Mof_H 	H 	0.6618	0.7964	0.8645	0.359
Mof_H 	H 	0.3256	0.4671	0.3477	0.034
Mof_C 	C 	0.6088	0.1022	0.60482	0.022
Mof_C 	C 	0.5448	0.64252	0.52362	0.344
Mof_C 	C 	0.4062	0.2659	0.4223	-0.283
Mof_C 	C 	0.868	0.3734	0.85937	-0.002
Mof_C 	C 	0.4317	0.1535	0.04095	0.04
Mof_O 	O 	0.36995	0.48351	0.00855	-0.447
Mof_O 	O 	0.34091	0.54261	0.28989	-0.677
Mof_O 	O 	0.40578	0.9616	0.54258	-0.457
Mof_H 	H 	0.3039	0.9063	0.9099	0.14
Mof_H 	H 	0.3545	0.4457	0.0926	0.012
Mof_H 	H 	0.1346	0.3382	0.8645	0.359
Mof_H 	H 	0.1415	0.6744	0.3477	0.034
Mof_C 	C 	0.4934	0.3912	0.60482	0.022
Mof_C 	C 	0.09772	0.4552	0.52362	0.344
Mof_C 	C 	0.8597	0.5938	0.4223	-0.283
Mof_C 	C 	0.5054	0.132	0.85937	-0.002
Mof_C 	C 	0.7218	0.5683	0.04095	0.04
Mof_O 	O 	0.11356	0.63005	0.00855	-0.447
Mof_O 	O 	0.2017	0.65909	0.28989	-0.677
Mof_O 	O 	0.55582	0.59422	0.54258	-0.458
Mof_H 	H 	0.6024	0.6961	0.9099	0.14
Mof_H 	H 	0.0912	0.6455	0.0926	0.012
Mof_H 	H 	0.2036	0.8654	0.8645	0.359
Mof_H 	H 	0.5329	0.8585	0.3477	0.034
Mof_C 	C 	0.8978	0.5066	0.60482	0.022
Mof_C 	C 	0.35748	0.90228	0.52362	0.344
Mof_C 	C 	0.7341	0.1403	0.4223	-0.283
Mof_C 	C 	0.6266	0.4946	0.85937	-0.002
Mof_C 	C 	0.8465	0.2782	0.04095	0.04
Mof_O 	O 	0.51649	0.88644	0.00855	-0.447
Mof_O 	O 	0.45739	0.7983	0.28989	-0.677
Mof_O 	O 	0.0384	0.44418	0.54258	-0.457
Mof_H 	H 	0.9063	0.6024	0.4099	0.14
Mof_H 	H 	0.4457	0.0912	0.5926	0.012
Mof_H 	H 	0.3382	0.2036	0.3645	0.359
Mof_H 	H 	0.6744	0.5329	0.8477	0.034
Mof_C 	C 	0.3912	0.8978	0.10482	0.022
Mof_C 	C 	0.4552	0.35748	0.02362	0.344
Mof_C 	C 	0.5938	0.7341	0.9223	-0.283
Mof_C 	C 	0.132	0.6266	0.35937	-0.002
Mof_C 	C 	0.5683	0.8465	0.54095	0.04
Mof_O 	O 	0.63005	0.51649	0.50855	-0.447
Mof_O 	O 	0.65909	0.45739	0.78989	-0.677
Mof_O 	O 	0.59422	0.0384	0.04258	-0.457
Mof_H 	H 	0.6961	0.0937	0.4099	0.14
Mof_H 	H 	0.6455	0.5543	0.5926	0.012
Mof_H 	H 	0.8654	0.6618	0.3645	0.359
Mof_H 	H 	0.8585	0.3256	0.8477	0.034
Mof_C 	C 	0.5066	0.6088	0.10482	0.022
Mof_C 	C 	0.90228	0.5448	0.02362	0.344
Mof_C 	C 	0.1403	0.4062	0.9223	-0.283
Mof_C 	C 	0.4946	0.868	0.35937	-0.002
Mof_C 	C 	0.2782	0.4317	0.54095	0.04
Mof_O 	O 	0.88644	0.36995	0.50855	-0.447
Mof_O 	O 	0.7983	0.34091	0.78989	-0.677
Mof_O 	O 	0.44418	0.40578	0.04258	-0.458
Mof_H 	H 	0.3976	0.3039	0.4099	0.14
Mof_H 	H 	0.9088	0.3545	0.5926	0.012
Mof_H 	H 	0.7964	0.1346	0.3645	0.359
Mof_H 	H 	0.4671	0.1415	0.8477	0.034
Mof_C 	C 	0.1022	0.4934	0.10482	0.022
Mof_C 	C 	0.64252	0.09772	0.02362	0.344
Mof_C 	C 	0.2659	0.8597	0.9223	-0.283
Mof_C 	C 	0.3734	0.5054	0.35937	-0.002
Mof_C 	C 	0.1535	0.7218	0.54095	0.04
Mof_O 	O 	0.48351	0.11356	0.50855	-0.447
Mof_O 	O 	0.54261	0.2017	0.78989	-0.677
Mof_O 	O 	0.9616	0.55582	0.04258	-0.457
Mof_Zn	Zn	0.95377	0.47689	0.96565	1.216
Mof_H 	H 	0.4761	0.23805	0.0004	0.091
Mof_C 	C 	0.81328	0.40664	0.69634	0.576
Mof_Zn	Zn	0.52311	0.47689	0.96565	1.216
Mof_H 	H 	0.76195	0.23805	0.0004	0.091
Mof_C 	C 	0.59336	0.40664	0.69634	0.576
Mof_Zn	Zn	0.52311	0.04623	0.96565	1.216
Mof_H 	H 	0.76195	0.5239	0.0004	0.091
Mof_C 	C 	0.59336	0.18672	0.69634	0.576
Mof_Zn	Zn	0.04623	0.52311	0.46565	1.216
Mof_H 	H 	0.5239	0.76195	0.5004	0.091
Mof_C 	C 	0.18672	0.59336	0.19634	0.576
Mof_Zn	Zn	0.47689	0.52311	0.46565	1.216
Mof_H 	H 	0.23805	0.76195	0.5004	0.091
Mof_C 	C 	0.40664	0.59336	0.19634	0.576
Mof_Zn	Zn	0.47689	0.95377	0.46565	1.216
Mof_H 	H 	0.23805	0.4761	0.5004	0.091
Mof_C 	C 	0.40664	0.81328	0.19634	0.576
Mof_Zn	Zn	0.47689	0.95377	0.03435	1.216
Mof_H 	H 	0.23805	0.4761	0.9996	0.091
Mof_C 	C 	0.40664	0.81328	0.30366	0.576
Mof_Zn	Zn	0.47689	0.52311	0.03435	1.216
Mof_H 	H 	0.23805	0.76195	0.9996	0.091
Mof_C 	C 	0.40664	0.59336	0.30366	0.576
Mof_Zn	Zn	0.04623	0.52311	0.03435	1.216
Mof_H 	H 	0.5239	0.76195	0.9996	0.091
Mof_C 	C 	0.18672	0.59336	0.30366	0.576
Mof_Zn	Zn	0.52311	0.04623	0.53435	1.216
Mof_H 	H 	0.76195	0.5239	0.4996	0.091
Mof_C 	C 	0.59336	0.18672	0.80366	0.576
Mof_Zn	Zn	0.52311	0.47689	0.53435	1.216
Mof_H 	H 	0.76195	0.23805	0.4996	0.091
Mof_C 	C 	0.59336	0.40664	0.80366	0.576
Mof_Zn	Zn	0.95377	0.47689	0.53435	1.216
Mof_H 	H 	0.4761	0.23805	0.4996	0.091
Mof_C 	C 	0.81328	0.40664	0.80366	0.576
Mof_Cr	Cr	0.27583	0.72417	0.25	2.1
Mof_Cr	Cr	0.27583	0.55166	0.25	2.1
Mof_Cr	Cr	0.44834	0.72417	0.25	2.1
Mof_Cr	Cr	0.72417	0.27583	0.75	2.1
Mof_Cr	Cr	0.72417	0.44834	0.75	2.1
Mof_Cr	Cr	0.55166	0.27583	0.75	2.1
Mof_C 	C 	0.57357	0.14714	0.65854	-0.142
Mof_O 	O 	0.81635	0.6327	0.1319	-0.856
Mof_C 	C 	0.85286	0.42643	0.65854	-0.142
Mof_O 	O 	0.3673	0.18365	0.1319	-0.856
Mof_C 	C 	0.57357	0.42643	0.65854	-0.142
Mof_O 	O 	0.81635	0.18365	0.1319	-0.856
Mof_C 	C 	0.42643	0.85286	0.15854	-0.142
Mof_O 	O 	0.18365	0.3673	0.6319	-0.856
Mof_C 	C 	0.14714	0.57357	0.15854	-0.142
Mof_O 	O 	0.6327	0.81635	0.6319	-0.856
Mof_C 	C 	0.42643	0.57357	0.15854	-0.142
Mof_O 	O 	0.18365	0.81635	0.6319	-0.856
Mof_C 	C 	0.14714	0.57357	0.34146	-0.142
Mof_O 	O 	0.6327	0.81635	0.8681	-0.856
Mof_C 	C 	0.42643	0.85286	0.34146	-0.142
Mof_O 	O 	0.18365	0.3673	0.8681	-0.856
Mof_C 	C 	0.42643	0.57357	0.34146	-0.142
Mof_O 	O 	0.18365	0.81635	0.8681	-0.856
Mof_C 	C 	0.85286	0.42643	0.84146	-0.142
Mof_O 	O 	0.3673	0.18365	0.3681	-0.856
Mof_C 	C 	0.57357	0.14714	0.84146	-0.142
Mof_O 	O 	0.81635	0.6327	0.3681	-0.856
Mof_C 	C 	0.57357	0.42643	0.84146	-0.142
Mof_O 	O 	0.81635	0.18365	0.3681	-0.856
Mof_C 	C 	0.2253	0.4506	0.52373	-0.094
Mof_N 	N 	0.4558	0.9116	0.08714	-0.233
Mof_C 	C 	0.5494	0.7747	0.52373	-0.094
Mof_N 	N 	0.0884	0.5442	0.08714	-0.233
Mof_C 	C 	0.2253	0.7747	0.52373	-0.094
Mof_N 	N 	0.4558	0.5442	0.08714	-0.233
Mof_C 	C 	0.7747	0.5494	0.02373	-0.094
Mof_N 	N 	0.5442	0.0884	0.58714	-0.233
Mof_C 	C 	0.4506	0.2253	0.02373	-0.094
Mof_N 	N 	0.9116	0.4558	0.58714	-0.233
Mof_C 	C 	0.7747	0.2253	0.02373	-0.094
Mof_N 	N 	0.5442	0.4558	0.58714	-0.233
Mof_C 	C 	0.4506	0.2253	0.47627	-0.094
Mof_N 	N 	0.9116	0.4558	0.91286	-0.233
Mof_C 	C 	0.7747	0.5494	0.47627	-0.094
Mof_N 	N 	0.5442	0.0884	0.91286	-0.233
Mof_C 	C 	0.7747	0.2253	0.47627	-0.094
Mof_N 	N 	0.5442	0.4558	0.91286	-0.233
Mof_C 	C 	0.5494	0.7747	0.97627	-0.094
Mof_N 	N 	0.0884	0.5442	0.41286	-0.233
Mof_C 	C 	0.2253	0.4506	0.97627	-0.094
Mof_N 	N 	0.4558	0.9116	0.41286	-0.233
Mof_C 	C 	0.2253	0.7747	0.97627	-0.094
Mof_N 	N 	0.4558	0.5442	0.41286	-0.233
Mof_C 	C 	0.8032	0.1968	0.0958	0.417
Mof_C 	C 	0.8032	0.6064	0.0958	0.417
Mof_C 	C 	0.3936	0.1968	0.0958	0.417
Mof_C 	C 	0.1968	0.8032	0.5958	0.417
Mof_C 	C 	0.1968	0.3936	0.5958	0.417
Mof_C 	C 	0.6064	0.8032	0.5958	0.417
Mof_C 	C 	0.1968	0.8032	0.9042	0.417
Mof_C 	C 	0.6064	0.8032	0.9042	0.417
Mof_C 	C 	0.1968	0.3936	0.9042	0.417
Mof_C 	C 	0.8032	0.1968	0.4042	0.417
Mof_C 	C 	0.3936	0.1968	0.4042	0.417
Mof_C 	C 	0.8032	0.6064	0.4042	0.417
Mof_O 	O 	0.33333	0.66667	0.25	-1.144
Mof_O 	O 	0.66667	0.33333	0.75	-1.144
_end
