data_functionalizedCrystal
_audit_creation_method	'EQeq! by Chris Wilmer'
_symmetry_space_group_name_H-M	'P1'
_symmetry_Int_Tables_number	1
_symmetry_cell_setting	triclinic
loop_
_symmetry_equiv_pos_as_xyz
  x,y,z
_cell_length_a	18.711
_cell_length_b	17.937
_cell_length_c	19.217
_cell_angle_alpha	90
_cell_angle_beta	117.06
_cell_angle_gamma	90
loop_
_atom_site_label
_atom_site_type_symbol
_atom_site_fract_x
_atom_site_fract_y
_atom_site_fract_z
_atom_site_charge
Mof_Co	Co	0.2617	0.16298	0.99882	1.115
Mof_N 	N 	0.3124	0.1684	0.1247	-0.231
Mof_N 	N 	0.2156	0.168	0.8736	-0.233
Mof_C 	C 	0.2389	0.9897	0.0043	0.092
Mof_H 	H 	0.294	0.9817	0.0276	-0.013
Mof_N 	N 	0.3266	0.3957	0.0231	-0.139
Mof_C 	C 	0.2772	0.3365	0.9914	0.094
Mof_H 	H 	0.2219	0.3406	0.962	-0.013
Mof_N 	N 	0.1617	0.1346	0.749	-0.141
Mof_N 	N 	0.3724	0.1437	0.2519	-0.144
Mof_N 	N 	0.3159	0.2733	0.0068	-0.225
Mof_N 	N 	0.1829	0.9341	0.9811	-0.141
Mof_C 	C 	0.1145	0.0953	0.6781	0.103
Mof_C 	C 	0.4088	0.1031	0.3238	0.124
Mof_N 	N 	0.2049	0.0564	0.9894	-0.234
Mof_C 	C 	0.3375	0.1152	0.1781	0.095
Mof_H 	H 	0.3319	0.0645	0.1666	-0.015
Mof_C 	C 	0.2588	0.6228	0.0069	-0.007
Mof_C 	C 	0.3166	0.5919	0.0767	-0.019
Mof_H 	H 	0.3415	0.6226	0.1202	0.035
Mof_C 	C 	0.2385	0.7038	0.0012	-0.013
Mof_C 	C 	0.303	0.4732	0.0178	0.116
Mof_N 	N 	0.154	0.2863	0.4906	-0.235
Mof_C 	C 	0.2225	0.5749	0.943	-0.018
Mof_H 	H 	0.1826	0.5933	0.8961	0.033
Mof_C 	C 	0.2732	0.8306	0.0448	-0.125
Mof_H 	H 	0.3103	0.8642	0.0792	0.072
Mof_C 	C 	0.3963	0.293	0.052	-0.005
Mof_H 	H 	0.439	0.2596	0.0717	0.025
Mof_C 	C 	0.403	0.3669	0.0629	0.004
Mof_H 	H 	0.45	0.3935	0.0916	0.032
Mof_C 	C 	0.1441	0.8045	0.9396	-0.126
Mof_H 	H 	0.0942	0.8204	0.9017	0.073
Mof_C 	C 	0.1626	0.7298	0.9466	-0.013
Mof_H 	H 	0.1242	0.6957	0.9147	0.031
Mof_C 	C 	0.3383	0.5165	0.0835	-0.121
Mof_H 	H 	0.3754	0.4965	0.131	0.074
Mof_C 	C 	0.2915	0.7562	0.05	-0.012
Mof_H 	H 	0.3415	0.7404	0.0878	0.031
Mof_N 	N 	0.3698	0.1127	0.0064	-0.232
Mof_C 	C 	0.1989	0.856	0.988	0.116
Mof_C 	C 	0.1229	0.0421	0.9556	-0.014
Mof_H 	H 	0.0831	0.0785	0.9396	0.025
Mof_C 	C 	0.2445	0.5004	0.9479	-0.124
Mof_H 	H 	0.2202	0.4694	0.9046	0.073
Mof_N 	N 	0.0399	0.2243	0.4475	-0.141
Mof_C 	C 	0.0997	0.2488	0.4318	0.097
Mof_H 	H 	0.1018	0.2401	0.385	-0.015
Mof_C 	C 	0.1273	0.2879	0.5471	-0.004
Mof_H 	H 	0.1535	0.3113	0.5954	0.021
Mof_C 	C 	0.0568	0.2498	0.5209	0.006
Mof_H 	H 	0.0262	0.2426	0.5473	0.03
Mof_C 	C 	0.3763	0.0374	0.3314	-0.126
Mof_H 	H 	0.3294	0.02	0.2901	0.075
Mof_C 	C 	0.9677	0.1862	0.3928	0.117
Mof_C 	C 	0.9659	0.1498	0.3292	-0.12
Mof_H 	H 	0.0127	0.1445	0.324	0.071
Mof_C 	C 	0.2405	0.2153	0.8327	-0.005
Mof_H 	H 	0.2749	0.2555	0.8544	0.024
Mof_C 	C 	0.5863	0.0934	0.1046	0.111
Mof_C 	C 	0.4802	0.022	0.463	-0.006
Mof_C 	C 	0.4126	0.9955	0.4005	-0.013
Mof_H 	H 	0.3908	0.9499	0.404	0.035
Mof_N 	N 	0.5008	0.0951	0.0503	-0.138
Mof_C 	C 	0.4405	0.1102	0.0685	0.092
Mof_H 	H 	0.4481	0.118	0.1192	-0.012
Mof_C 	C 	0.6082	0.0606	0.1769	-0.114
Mof_H 	H 	0.571	0.0354	0.1877	0.07
Mof_C 	C 	0.3694	0.2199	0.2443	0.005
Mof_H 	H 	0.3895	0.2547	0.2846	0.026
Mof_C 	C 	0.64	0.1245	0.0841	-0.117
Mof_H 	H 	0.6242	0.1418	0.0336	0.076
Mof_C 	C 	0.7438	0.1057	0.2157	0
Mof_C 	C 	0.332	0.2345	0.1677	-0.011
Mof_H 	H 	0.3206	0.2821	0.1461	0.025
Mof_C 	C 	0.6891	0.067	0.2334	-0.026
Mof_H 	H 	0.7061	0.0456	0.2824	0.041
Mof_C 	C 	0.2084	0.1955	0.7572	0.003
Mof_H 	H 	0.2164	0.2187	0.7181	0.03
Mof_C 	C 	0.1675	0.1202	0.8201	0.093
Mof_H 	H 	0.141	0.0812	0.8305	-0.011
Mof_C 	C 	0.8245	0.1258	0.2804	-0.007
Mof_C 	C 	0.0246	0.0203	0.537	0.007
Mof_C 	C 	0.1483	0.0802	0.6281	-0.105
Mof_H 	H 	0.2004	0.095	0.6406	0.07
Mof_C 	C 	0.8289	0.1592	0.3476	-0.012
Mof_H 	H 	0.7833	0.1613	0.3552	0.038
Mof_C 	C 	0.8936	0.1207	0.2722	-0.016
Mof_H 	H 	0.8922	0.0976	0.2283	0.036
Mof_C 	C 	0.9001	0.1892	0.4033	-0.121
Mof_H 	H 	0.902	0.2115	0.4478	0.079
Mof_C 	C 	0.1094	0.969	0.9496	0.011
Mof_H 	H 	0.0595	0.9457	0.928	0.024
Mof_C 	C 	0.4659	0.086	0.97	0.001
Mof_H 	H 	0.4916	0.075	0.9397	0.031
Mof_C 	C 	0.3867	0.0966	0.9451	-0.004
Mof_H 	H 	0.3482	0.0934	0.8932	0.026
Mof_C 	C 	0.7197	0.1298	0.141	-0.022
Mof_H 	H 	0.7575	0.1503	0.1277	0.044
Mof_C 	C 	0.1015	0.042	0.5586	-0.023
Mof_H 	H 	0.124	0.0309	0.5255	0.04
Mof_C 	C 	0.4752	0.1294	0.3849	-0.13
Mof_H 	H 	0.4973	0.1746	0.3808	0.077
Mof_C 	C 	0.5106	0.0891	0.4538	-0.008
Mof_H 	H 	0.5564	0.108	0.4954	0.034
Mof_C 	C 	0.04	0.058	0.6666	-0.026
Mof_H 	H 	0.0225	0.0605	0.7049	0.023
Mof_C 	C 	0.9945	0.019	0.5955	0.044
Mof_H 	H 	0.9477	0.9939	0.5864	0.005
Mof_C 	C 	0.038	0.088	0.651	-0.072
Mof_C 	C 	0.9947	0.053	0.5812	-0.088
Mof_H 	H 	0.0128	0.1064	0.6793	0.049
Mof_H 	H 	0.9393	0.0525	0.5623	0.049
Mof_Co	Co	0.7383	0.66298	0.50118	1.115
Mof_N 	N 	0.6876	0.6684	0.3753	-0.233
Mof_N 	N 	0.7844	0.668	0.6264	-0.233
Mof_C 	C 	0.7611	0.4897	0.4957	0.091
Mof_H 	H 	0.706	0.4817	0.4724	-0.014
Mof_N 	N 	0.6734	0.8957	0.4769	-0.141
Mof_C 	C 	0.7228	0.8365	0.5086	0.096
Mof_H 	H 	0.7781	0.8406	0.538	-0.015
Mof_N 	N 	0.8383	0.6346	0.751	-0.142
Mof_N 	N 	0.6276	0.6437	0.2481	-0.145
Mof_N 	N 	0.6841	0.7733	0.4932	-0.228
Mof_N 	N 	0.8171	0.4341	0.5189	-0.142
Mof_C 	C 	0.8855	0.5953	0.8219	0.102
Mof_C 	C 	0.5912	0.6031	0.1762	0.124
Mof_N 	N 	0.7951	0.5564	0.5106	-0.234
Mof_C 	C 	0.6625	0.6152	0.3219	0.095
Mof_H 	H 	0.6681	0.5645	0.3334	-0.016
Mof_C 	C 	0.7412	0.1228	0.4931	-0.006
Mof_C 	C 	0.6834	0.0919	0.4233	-0.022
Mof_H 	H 	0.6585	0.1226	0.3798	0.036
Mof_C 	C 	0.7615	0.2038	0.4988	-0.012
Mof_C 	C 	0.697	0.9732	0.4822	0.112
Mof_N 	N 	0.846	0.7863	0.0094	-0.236
Mof_C 	C 	0.7775	0.0749	0.557	-0.021
Mof_H 	H 	0.8174	0.0933	0.6039	0.034
Mof_C 	C 	0.7268	0.3306	0.4552	-0.121
Mof_H 	H 	0.6897	0.3642	0.4208	0.071
Mof_C 	C 	0.6037	0.793	0.448	-0.005
Mof_H 	H 	0.561	0.7596	0.4283	0.025
Mof_C 	C 	0.597	0.8669	0.4371	0.003
Mof_H 	H 	0.55	0.8935	0.4084	0.032
Mof_C 	C 	0.8559	0.3045	0.5604	-0.124
Mof_H 	H 	0.9058	0.3204	0.5983	0.073
Mof_C 	C 	0.8374	0.2298	0.5534	-0.015
Mof_H 	H 	0.8758	0.1957	0.5853	0.032
Mof_C 	C 	0.6617	0.0165	0.4165	-0.116
Mof_H 	H 	0.6246	0.9965	0.369	0.071
Mof_C 	C 	0.7085	0.2562	0.45	-0.014
Mof_H 	H 	0.6585	0.2404	0.4122	0.031
Mof_N 	N 	0.6302	0.6127	0.4936	-0.234
Mof_C 	C 	0.8011	0.356	0.512	0.112
Mof_C 	C 	0.8771	0.5421	0.5444	-0.007
Mof_H 	H 	0.9169	0.5785	0.5604	0.024
Mof_C 	C 	0.7555	0.0004	0.5521	-0.12
Mof_H 	H 	0.7798	0.9694	0.5954	0.072
Mof_N 	N 	0.9601	0.7243	0.0525	-0.143
Mof_C 	C 	0.9003	0.7488	0.0682	0.096
Mof_H 	H 	0.8982	0.7401	0.115	-0.015
Mof_C 	C 	0.8727	0.7879	0.9529	-0.002
Mof_H 	H 	0.8465	0.8113	0.9046	0.021
Mof_C 	C 	0.9432	0.7498	0.9791	0.008
Mof_H 	H 	0.9738	0.7426	0.9527	0.03
Mof_C 	C 	0.6237	0.5374	0.1686	-0.128
Mof_H 	H 	0.6706	0.52	0.2099	0.075
Mof_C 	C 	0.0323	0.6862	0.1072	0.117
Mof_C 	C 	0.0341	0.6498	0.1708	-0.119
Mof_H 	H 	0.9873	0.6445	0.176	0.07
Mof_C 	C 	0.7595	0.7153	0.6673	-0.005
Mof_H 	H 	0.7251	0.7555	0.6456	0.024
Mof_C 	C 	0.4137	0.5934	0.3954	0.11
Mof_C 	C 	0.5198	0.522	0.037	-0.007
Mof_C 	C 	0.5874	0.4955	0.0995	-0.012
Mof_H 	H 	0.6092	0.4499	0.096	0.035
Mof_N 	N 	0.4992	0.5951	0.4497	-0.14
Mof_C 	C 	0.5595	0.6102	0.4315	0.092
Mof_H 	H 	0.5519	0.618	0.3808	-0.012
Mof_C 	C 	0.3918	0.5606	0.3231	-0.114
Mof_H 	H 	0.429	0.5354	0.3123	0.07
Mof_C 	C 	0.6306	0.7199	0.2557	0.005
Mof_H 	H 	0.6105	0.7547	0.2154	0.025
Mof_C 	C 	0.36	0.6245	0.4159	-0.117
Mof_H 	H 	0.3758	0.6418	0.4664	0.075
Mof_C 	C 	0.2562	0.6057	0.2843	0
Mof_C 	C 	0.668	0.7345	0.3323	-0.011
Mof_H 	H 	0.6794	0.7821	0.3539	0.025
Mof_C 	C 	0.3109	0.567	0.2666	-0.027
Mof_H 	H 	0.2939	0.5456	0.2176	0.041
Mof_C 	C 	0.7916	0.6955	0.7428	0.003
Mof_H 	H 	0.7836	0.7187	0.7819	0.03
Mof_C 	C 	0.8325	0.6202	0.6799	0.093
Mof_H 	H 	0.859	0.5812	0.6695	-0.011
Mof_C 	C 	0.1755	0.6258	0.2196	-0.006
Mof_C 	C 	0.9754	0.5203	0.963	0.01
Mof_C 	C 	0.8517	0.5802	0.8719	-0.103
Mof_H 	H 	0.7996	0.595	0.8594	0.069
Mof_C 	C 	0.1711	0.6592	0.1524	-0.012
Mof_H 	H 	0.2167	0.6613	0.1448	0.038
Mof_C 	C 	0.1064	0.6207	0.2278	-0.017
Mof_H 	H 	0.1078	0.5976	0.2717	0.036
Mof_C 	C 	0.0999	0.6892	0.0967	-0.121
Mof_H 	H 	0.098	0.7115	0.0522	0.079
Mof_C 	C 	0.8906	0.469	0.5504	0.004
Mof_H 	H 	0.9405	0.4457	0.572	0.026
Mof_C 	C 	0.5341	0.586	0.53	0.002
Mof_H 	H 	0.5084	0.575	0.5603	0.031
Mof_C 	C 	0.6133	0.5966	0.5549	-0.001
Mof_H 	H 	0.6518	0.5934	0.6068	0.026
Mof_C 	C 	0.2803	0.6298	0.359	-0.022
Mof_H 	H 	0.2425	0.6503	0.3723	0.044
Mof_C 	C 	0.8985	0.542	0.9414	-0.025
Mof_H 	H 	0.876	0.5309	0.9745	0.041
Mof_C 	C 	0.5248	0.6294	0.1151	-0.131
Mof_H 	H 	0.5027	0.6746	0.1192	0.077
Mof_C 	C 	0.4894	0.5891	0.0462	-0.007
Mof_H 	H 	0.4436	0.608	0.0046	0.034
Mof_C 	C 	0.96	0.558	0.8334	-0.025
Mof_H 	H 	0.9775	0.5605	0.7951	0.023
Mof_C 	C 	0.0055	0.519	0.9045	0.04
Mof_H 	H 	0.0523	0.4939	0.9136	0.007
Mof_C 	C 	0.962	0.588	0.849	-0.069
Mof_C 	C 	0.0053	0.553	0.9188	-0.089
Mof_H 	H 	0.9872	0.6064	0.8207	0.048
Mof_H 	H 	0.0607	0.5525	0.9377	0.049
Mof_Co	Co	0.7383	0.83702	0.00118	1.114
Mof_N 	N 	0.6876	0.8316	0.8753	-0.232
Mof_N 	N 	0.7844	0.832	0.1264	-0.234
Mof_C 	C 	0.7611	0.0103	0.9957	0.091
Mof_H 	H 	0.706	0.0183	0.9724	-0.014
Mof_N 	N 	0.6734	0.6043	0.9769	-0.14
Mof_C 	C 	0.7228	0.6635	0.0086	0.093
Mof_H 	H 	0.7781	0.6594	0.038	-0.014
Mof_N 	N 	0.8383	0.8654	0.251	-0.142
Mof_N 	N 	0.6276	0.8563	0.7481	-0.145
Mof_N 	N 	0.6841	0.7267	0.9932	-0.226
Mof_N 	N 	0.8171	0.0659	0.0189	-0.142
Mof_C 	C 	0.8855	0.9047	0.3219	0.103
Mof_C 	C 	0.5912	0.8969	0.6762	0.124
Mof_N 	N 	0.7951	0.9436	0.0106	-0.234
Mof_C 	C 	0.6625	0.8848	0.8219	0.095
Mof_H 	H 	0.6681	0.9355	0.8334	-0.015
Mof_C 	C 	0.7412	0.3772	0.9931	-0.007
Mof_C 	C 	0.6834	0.4081	0.9233	-0.019
Mof_H 	H 	0.6585	0.3774	0.8798	0.035
Mof_C 	C 	0.7615	0.2962	0.9988	-0.013
Mof_C 	C 	0.697	0.5268	0.9822	0.116
Mof_N 	N 	0.846	0.7137	0.5094	-0.235
Mof_C 	C 	0.7775	0.4251	0.057	-0.018
Mof_H 	H 	0.8174	0.4067	0.1039	0.033
Mof_C 	C 	0.7268	0.1694	0.9552	-0.125
Mof_H 	H 	0.6897	0.1358	0.9208	0.072
Mof_C 	C 	0.6037	0.707	0.948	-0.005
Mof_H 	H 	0.561	0.7404	0.9283	0.025
Mof_C 	C 	0.597	0.6331	0.9371	0.004
Mof_H 	H 	0.55	0.6065	0.9084	0.032
Mof_C 	C 	0.8559	0.1955	0.0604	-0.126
Mof_H 	H 	0.9058	0.1796	0.0983	0.073
Mof_C 	C 	0.8374	0.2702	0.0534	-0.013
Mof_H 	H 	0.8758	0.3043	0.0853	0.031
Mof_C 	C 	0.6617	0.4835	0.9165	-0.121
Mof_H 	H 	0.6246	0.5035	0.869	0.074
Mof_C 	C 	0.7085	0.2438	0.95	-0.012
Mof_H 	H 	0.6585	0.2596	0.9122	0.031
Mof_N 	N 	0.6302	0.8873	0.9936	-0.232
Mof_C 	C 	0.8011	0.144	0.012	0.116
Mof_C 	C 	0.8771	0.9579	0.0444	-0.014
Mof_H 	H 	0.9169	0.9215	0.0604	0.025
Mof_C 	C 	0.7555	0.4996	0.0521	-0.124
Mof_H 	H 	0.7798	0.5306	0.0954	0.073
Mof_N 	N 	0.9601	0.7757	0.5525	-0.141
Mof_C 	C 	0.9003	0.7512	0.5682	0.097
Mof_H 	H 	0.8982	0.7599	0.615	-0.015
Mof_C 	C 	0.8727	0.7121	0.4529	-0.004
Mof_H 	H 	0.8465	0.6887	0.4046	0.021
Mof_C 	C 	0.9432	0.7502	0.4791	0.006
Mof_H 	H 	0.9738	0.7574	0.4527	0.03
Mof_C 	C 	0.6237	0.9626	0.6686	-0.126
Mof_H 	H 	0.6706	0.98	0.7099	0.075
Mof_C 	C 	0.0323	0.8138	0.6072	0.117
Mof_C 	C 	0.0341	0.8502	0.6708	-0.12
Mof_H 	H 	0.9873	0.8555	0.676	0.071
Mof_C 	C 	0.7595	0.7847	0.1673	-0.005
Mof_H 	H 	0.7251	0.7445	0.1456	0.024
Mof_C 	C 	0.4137	0.9066	0.8954	0.111
Mof_C 	C 	0.5198	0.978	0.537	-0.006
Mof_C 	C 	0.5874	0.0045	0.5995	-0.013
Mof_H 	H 	0.6092	0.0501	0.596	0.035
Mof_N 	N 	0.4992	0.9049	0.9497	-0.138
Mof_C 	C 	0.5595	0.8898	0.9315	0.092
Mof_H 	H 	0.5519	0.882	0.8808	-0.012
Mof_C 	C 	0.3918	0.9394	0.8231	-0.114
Mof_H 	H 	0.429	0.9646	0.8123	0.07
Mof_C 	C 	0.6306	0.7801	0.7557	0.005
Mof_H 	H 	0.6105	0.7453	0.7154	0.026
Mof_C 	C 	0.36	0.8755	0.9159	-0.117
Mof_H 	H 	0.3758	0.8582	0.9664	0.076
Mof_C 	C 	0.2562	0.8943	0.7843	0
Mof_C 	C 	0.668	0.7655	0.8323	-0.011
Mof_H 	H 	0.6794	0.7179	0.8539	0.025
Mof_C 	C 	0.3109	0.933	0.7666	-0.026
Mof_H 	H 	0.2939	0.9544	0.7176	0.041
Mof_C 	C 	0.7916	0.8045	0.2428	0.003
Mof_H 	H 	0.7836	0.7813	0.2819	0.03
Mof_C 	C 	0.8325	0.8798	0.1799	0.093
Mof_H 	H 	0.859	0.9188	0.1695	-0.011
Mof_C 	C 	0.1755	0.8742	0.7196	-0.007
Mof_C 	C 	0.9754	0.9797	0.463	0.007
Mof_C 	C 	0.8517	0.9198	0.3719	-0.105
Mof_H 	H 	0.7996	0.905	0.3594	0.07
Mof_C 	C 	0.1711	0.8408	0.6524	-0.012
Mof_H 	H 	0.2167	0.8387	0.6448	0.038
Mof_C 	C 	0.1064	0.8793	0.7278	-0.016
Mof_H 	H 	0.1078	0.9024	0.7717	0.036
Mof_C 	C 	0.0999	0.8108	0.5967	-0.121
Mof_H 	H 	0.098	0.7885	0.5522	0.079
Mof_C 	C 	0.8906	0.031	0.0504	0.011
Mof_H 	H 	0.9405	0.0543	0.072	0.024
Mof_C 	C 	0.5341	0.914	0.03	0.001
Mof_H 	H 	0.5084	0.925	0.0603	0.031
Mof_C 	C 	0.6133	0.9034	0.0549	-0.004
Mof_H 	H 	0.6518	0.9066	0.1068	0.026
Mof_C 	C 	0.2803	0.8702	0.859	-0.022
Mof_H 	H 	0.2425	0.8497	0.8723	0.044
Mof_C 	C 	0.8985	0.958	0.4414	-0.023
Mof_H 	H 	0.876	0.9691	0.4745	0.04
Mof_C 	C 	0.5248	0.8706	0.6151	-0.13
Mof_H 	H 	0.5027	0.8254	0.6192	0.077
Mof_C 	C 	0.4894	0.9109	0.5462	-0.008
Mof_H 	H 	0.4436	0.892	0.5046	0.034
Mof_C 	C 	0.96	0.942	0.3334	-0.026
Mof_H 	H 	0.9775	0.9395	0.2951	0.023
Mof_C 	C 	0.0055	0.981	0.4045	0.044
Mof_H 	H 	0.0523	0.0061	0.4136	0.005
Mof_C 	C 	0.962	0.912	0.349	-0.072
Mof_C 	C 	0.0053	0.947	0.4188	-0.088
Mof_H 	H 	0.9872	0.8936	0.3207	0.049
Mof_H 	H 	0.0607	0.9475	0.4377	0.049
Mof_Co	Co	0.2617	0.33702	0.49882	1.115
Mof_N 	N 	0.3124	0.3316	0.6247	-0.233
Mof_N 	N 	0.2156	0.332	0.3736	-0.233
Mof_C 	C 	0.2389	0.5103	0.5043	0.091
Mof_H 	H 	0.294	0.5183	0.5276	-0.014
Mof_N 	N 	0.3266	0.1043	0.5231	-0.141
Mof_C 	C 	0.2772	0.1635	0.4914	0.096
Mof_H 	H 	0.2219	0.1594	0.462	-0.015
Mof_N 	N 	0.1617	0.3654	0.249	-0.142
Mof_N 	N 	0.3724	0.3563	0.7519	-0.145
Mof_N 	N 	0.3159	0.2267	0.5068	-0.228
Mof_N 	N 	0.1829	0.5659	0.4811	-0.142
Mof_C 	C 	0.1145	0.4047	0.1781	0.102
Mof_C 	C 	0.4088	0.3969	0.8238	0.124
Mof_N 	N 	0.2049	0.4436	0.4894	-0.234
Mof_C 	C 	0.3375	0.3848	0.6781	0.095
Mof_H 	H 	0.3319	0.4355	0.6666	-0.016
Mof_C 	C 	0.2588	0.8772	0.5069	-0.006
Mof_C 	C 	0.3166	0.9081	0.5767	-0.022
Mof_H 	H 	0.3415	0.8774	0.6202	0.036
Mof_C 	C 	0.2385	0.7962	0.5012	-0.012
Mof_C 	C 	0.303	0.0268	0.5178	0.112
Mof_N 	N 	0.154	0.2137	0.9906	-0.236
Mof_C 	C 	0.2225	0.9251	0.443	-0.021
Mof_H 	H 	0.1826	0.9067	0.3961	0.034
Mof_C 	C 	0.2732	0.6694	0.5448	-0.121
Mof_H 	H 	0.3103	0.6358	0.5792	0.071
Mof_C 	C 	0.3963	0.207	0.552	-0.005
Mof_H 	H 	0.439	0.2404	0.5717	0.025
Mof_C 	C 	0.403	0.1331	0.5629	0.003
Mof_H 	H 	0.45	0.1065	0.5916	0.032
Mof_C 	C 	0.1441	0.6955	0.4396	-0.124
Mof_H 	H 	0.0942	0.6796	0.4017	0.073
Mof_C 	C 	0.1626	0.7702	0.4466	-0.015
Mof_H 	H 	0.1242	0.8043	0.4147	0.032
Mof_C 	C 	0.3383	0.9835	0.5835	-0.116
Mof_H 	H 	0.3754	0.0035	0.631	0.071
Mof_C 	C 	0.2915	0.7438	0.55	-0.014
Mof_H 	H 	0.3415	0.7596	0.5878	0.031
Mof_N 	N 	0.3698	0.3873	0.5064	-0.234
Mof_C 	C 	0.1989	0.644	0.488	0.112
Mof_C 	C 	0.1229	0.4579	0.4556	-0.007
Mof_H 	H 	0.0831	0.4215	0.4396	0.024
Mof_C 	C 	0.2445	0.9996	0.4479	-0.12
Mof_H 	H 	0.2202	0.0306	0.4046	0.072
Mof_N 	N 	0.0399	0.2757	0.9475	-0.143
Mof_C 	C 	0.0997	0.2512	0.9318	0.096
Mof_H 	H 	0.1018	0.2599	0.885	-0.015
Mof_C 	C 	0.1273	0.2121	0.0471	-0.002
Mof_H 	H 	0.1535	0.1887	0.0954	0.021
Mof_C 	C 	0.0568	0.2502	0.0209	0.008
Mof_H 	H 	0.0262	0.2574	0.0473	0.03
Mof_C 	C 	0.3763	0.4626	0.8314	-0.128
Mof_H 	H 	0.3294	0.48	0.7901	0.075
Mof_C 	C 	0.9677	0.3138	0.8928	0.117
Mof_C 	C 	0.9659	0.3502	0.8292	-0.119
Mof_H 	H 	0.0127	0.3555	0.824	0.07
Mof_C 	C 	0.2405	0.2847	0.3327	-0.005
Mof_H 	H 	0.2749	0.2445	0.3544	0.024
Mof_C 	C 	0.5863	0.4066	0.6046	0.11
Mof_C 	C 	0.4802	0.478	0.963	-0.007
Mof_C 	C 	0.4126	0.5045	0.9005	-0.012
Mof_H 	H 	0.3908	0.5501	0.904	0.035
Mof_N 	N 	0.5008	0.4049	0.5503	-0.14
Mof_C 	C 	0.4405	0.3898	0.5685	0.092
Mof_H 	H 	0.4481	0.382	0.6192	-0.012
Mof_C 	C 	0.6082	0.4394	0.6769	-0.114
Mof_H 	H 	0.571	0.4646	0.6877	0.07
Mof_C 	C 	0.3694	0.2801	0.7443	0.005
Mof_H 	H 	0.3895	0.2453	0.7846	0.025
Mof_C 	C 	0.64	0.3755	0.5841	-0.117
Mof_H 	H 	0.6242	0.3582	0.5336	0.075
Mof_C 	C 	0.7438	0.3943	0.7157	0
Mof_C 	C 	0.332	0.2655	0.6677	-0.011
Mof_H 	H 	0.3206	0.2179	0.6461	0.025
Mof_C 	C 	0.6891	0.433	0.7334	-0.027
Mof_H 	H 	0.7061	0.4544	0.7824	0.041
Mof_C 	C 	0.2084	0.3045	0.2572	0.003
Mof_H 	H 	0.2164	0.2813	0.2181	0.03
Mof_C 	C 	0.1675	0.3798	0.3201	0.093
Mof_H 	H 	0.141	0.4188	0.3305	-0.011
Mof_C 	C 	0.8245	0.3742	0.7804	-0.006
Mof_C 	C 	0.0246	0.4797	0.037	0.01
Mof_C 	C 	0.1483	0.4198	0.1281	-0.103
Mof_H 	H 	0.2004	0.405	0.1406	0.069
Mof_C 	C 	0.8289	0.3408	0.8476	-0.012
Mof_H 	H 	0.7833	0.3387	0.8552	0.038
Mof_C 	C 	0.8936	0.3793	0.7722	-0.017
Mof_H 	H 	0.8922	0.4024	0.7283	0.036
Mof_C 	C 	0.9001	0.3108	0.9033	-0.121
Mof_H 	H 	0.902	0.2885	0.9478	0.079
Mof_C 	C 	0.1094	0.531	0.4496	0.004
Mof_H 	H 	0.0595	0.5543	0.428	0.026
Mof_C 	C 	0.4659	0.414	0.47	0.002
Mof_H 	H 	0.4916	0.425	0.4397	0.031
Mof_C 	C 	0.3867	0.4034	0.4451	-0.001
Mof_H 	H 	0.3482	0.4066	0.3932	0.026
Mof_C 	C 	0.7197	0.3702	0.641	-0.022
Mof_H 	H 	0.7575	0.3497	0.6277	0.044
Mof_C 	C 	0.1015	0.458	0.0586	-0.025
Mof_H 	H 	0.124	0.4691	0.0255	0.041
Mof_C 	C 	0.4752	0.3706	0.8849	-0.131
Mof_H 	H 	0.4973	0.3254	0.8808	0.077
Mof_C 	C 	0.5106	0.4109	0.9538	-0.007
Mof_H 	H 	0.5564	0.392	0.9954	0.034
Mof_C 	C 	0.04	0.442	0.1666	-0.025
Mof_H 	H 	0.0225	0.4395	0.2049	0.023
Mof_C 	C 	0.9945	0.481	0.0955	0.04
Mof_H 	H 	0.9477	0.5061	0.0864	0.007
Mof_C 	C 	0.038	0.412	0.151	-0.069
Mof_C 	C 	0.9947	0.447	0.0812	-0.089
Mof_H 	H 	0.0128	0.3936	0.1793	0.048
Mof_H 	H 	0.9393	0.4475	0.0623	0.049
_end
