data_functionalizedCrystal
_audit_creation_method	'EQeq! by Chris Wilmer'
_symmetry_space_group_name_H-M	'P1'
_symmetry_Int_Tables_number	1
_symmetry_cell_setting	triclinic
loop_
_symmetry_equiv_pos_as_xyz
  x,y,z
_cell_length_a	19.524
_cell_length_b	10.049
_cell_length_c	25.359
_cell_angle_alpha	90
_cell_angle_beta	95.409
_cell_angle_gamma	90
loop_
_atom_site_label
_atom_site_type_symbol
_atom_site_fract_x
_atom_site_fract_y
_atom_site_fract_z
_atom_site_charge
Mof_Cd	Cd	0.58928	0.0487	0.98369	0.498
Mof_O 	O 	0.68891	0.1072	0.9428	-0.313
Mof_O 	O 	0.60674	0.0125	0.89424	-0.273
Mof_O 	O 	0.02415	0.5832	0.54768	-0.28
Mof_O 	O 	0.10823	0.6675	0.50662	-0.267
Mof_O 	O 	0.07473	0.2824	0.53538	-0.296
Mof_O 	O 	0.1518	0.1438	0.50677	-0.295
Mof_C 	C 	0.6659	0.0598	0.89936	0.333
Mof_C 	C 	0.709	0.052	0.85408	-0.121
Mof_C 	C 	0.6864	0.9852	0.80831	0.057
Mof_H 	H 	0.6427	0.9475	0.8044	0.028
Mof_C 	C 	0.7292	0.9748	0.7683	-0.127
Mof_H 	H 	0.7134	0.9303	0.7373	0.079
Mof_C 	C 	0.7954	0.0286	0.77246	0.076
Mof_C 	C 	0.8171	0.0975	0.8181	-0.128
Mof_H 	H 	0.8604	0.1366	0.8218	0.079
Mof_C 	C 	0.7736	0.1085	0.8589	0.053
Mof_H 	H 	0.7886	0.1546	0.8896	0.025
Mof_C 	C 	0.8416	0.0147	0.72875	-0.014
Mof_C 	C 	0.8335	0.9106	0.6923	-0.025
Mof_H 	H 	0.7975	0.8509	0.6943	0.044
Mof_C 	C 	0.8775	0.8941	0.65374	-0.069
Mof_H 	H 	0.8716	0.8218	0.6308	0.064
Mof_C 	C 	0.9311	0.9843	0.64821	0.036
Mof_C 	C 	0.936	0.0876	0.6838	-0.069
Mof_H 	H 	0.9711	0.1492	0.6814	0.06
Mof_C 	C 	0.8926	0.1064	0.7229	-0.026
Mof_H 	H 	0.8977	0.1802	0.745	0.041
Mof_C 	C 	0.9813	0.9634	0.60852	0.009
Mof_C 	C 	0.998	0.8356	0.59157	-0.038
Mof_H 	H 	0.9766	0.7619	0.6049	0.062
Mof_C 	C 	0.0461	0.8173	0.55509	-0.053
Mof_C 	C 	0.0797	0.9259	0.53749	0.001
Mof_H 	H 	0.1142	0.9134	0.5151	0.065
Mof_C 	C 	0.0636	0.0539	0.55232	-0.06
Mof_C 	C 	0.0149	0.0719	0.58816	-0.037
Mof_H 	H 	0.0045	0.1576	0.5988	0.064
Mof_C 	C 	0.0599	0.6801	0.53544	0.301
Mof_C 	C 	0.0993	0.1707	0.52976	0.32
Mof_Cd	Cd	0.08928	0.5487	0.98369	0.498
Mof_O 	O 	0.18891	0.6072	0.9428	-0.312
Mof_O 	O 	0.10674	0.5125	0.89424	-0.272
Mof_O 	O 	0.52415	0.0832	0.54768	-0.279
Mof_O 	O 	0.60823	0.1675	0.50662	-0.267
Mof_O 	O 	0.57473	0.7824	0.53538	-0.296
Mof_O 	O 	0.6518	0.6438	0.50677	-0.295
Mof_C 	C 	0.1659	0.5598	0.89936	0.333
Mof_C 	C 	0.209	0.552	0.85408	-0.12
Mof_C 	C 	0.1864	0.4852	0.80831	0.056
Mof_H 	H 	0.1427	0.4475	0.8044	0.028
Mof_C 	C 	0.2292	0.4748	0.7683	-0.127
Mof_H 	H 	0.2134	0.4303	0.7373	0.079
Mof_C 	C 	0.2954	0.5286	0.77246	0.076
Mof_C 	C 	0.3171	0.5975	0.8181	-0.128
Mof_H 	H 	0.3604	0.6366	0.8218	0.079
Mof_C 	C 	0.2736	0.6085	0.8589	0.053
Mof_H 	H 	0.2886	0.6546	0.8896	0.025
Mof_C 	C 	0.3416	0.5147	0.72875	-0.014
Mof_C 	C 	0.3335	0.4106	0.6923	-0.026
Mof_H 	H 	0.2975	0.3509	0.6943	0.045
Mof_C 	C 	0.3775	0.3941	0.65374	-0.068
Mof_H 	H 	0.3716	0.3218	0.6308	0.064
Mof_C 	C 	0.4311	0.4843	0.64821	0.036
Mof_C 	C 	0.436	0.5876	0.6838	-0.068
Mof_H 	H 	0.4711	0.6492	0.6814	0.06
Mof_C 	C 	0.3926	0.6064	0.7229	-0.027
Mof_H 	H 	0.3977	0.6802	0.745	0.041
Mof_C 	C 	0.4813	0.4634	0.60852	0.009
Mof_C 	C 	0.498	0.3356	0.59157	-0.037
Mof_H 	H 	0.4766	0.2619	0.6049	0.062
Mof_C 	C 	0.5461	0.3173	0.55509	-0.054
Mof_C 	C 	0.5797	0.4259	0.53749	0
Mof_H 	H 	0.6142	0.4134	0.5151	0.065
Mof_C 	C 	0.5636	0.5539	0.55232	-0.059
Mof_C 	C 	0.5149	0.5719	0.58816	-0.037
Mof_H 	H 	0.5045	0.6576	0.5988	0.064
Mof_C 	C 	0.5599	0.1801	0.53544	0.302
Mof_C 	C 	0.5993	0.6707	0.52976	0.32
Mof_Cd	Cd	0.41072	0.0487	0.51631	0.482
Mof_O 	O 	0.31109	0.1072	0.5572	-0.319
Mof_O 	O 	0.39326	0.0125	0.60576	-0.274
Mof_O 	O 	0.97585	0.5832	0.95232	-0.274
Mof_O 	O 	0.89177	0.6675	0.99338	-0.256
Mof_O 	O 	0.92527	0.2824	0.96462	-0.287
Mof_O 	O 	0.8482	0.1438	0.99323	-0.284
Mof_C 	C 	0.3341	0.0598	0.60064	0.335
Mof_C 	C 	0.291	0.052	0.64592	-0.124
Mof_C 	C 	0.3136	0.9852	0.69169	0.059
Mof_H 	H 	0.3573	0.9475	0.6956	0.027
Mof_C 	C 	0.2708	0.9748	0.7317	-0.129
Mof_H 	H 	0.2866	0.9303	0.7627	0.08
Mof_C 	C 	0.2046	0.0286	0.72754	0.077
Mof_C 	C 	0.1829	0.0975	0.6819	-0.13
Mof_H 	H 	0.1396	0.1366	0.6782	0.08
Mof_C 	C 	0.2264	0.1085	0.6411	0.055
Mof_H 	H 	0.2114	0.1546	0.6104	0.022
Mof_C 	C 	0.1584	0.0147	0.77125	-0.015
Mof_C 	C 	0.1665	0.9106	0.8077	-0.025
Mof_H 	H 	0.2025	0.8509	0.8057	0.044
Mof_C 	C 	0.1225	0.8941	0.84626	-0.068
Mof_H 	H 	0.1284	0.8218	0.8692	0.065
Mof_C 	C 	0.0689	0.9843	0.85179	0.037
Mof_C 	C 	0.064	0.0876	0.8162	-0.069
Mof_H 	H 	0.0289	0.1492	0.8186	0.06
Mof_C 	C 	0.1074	0.1064	0.7771	-0.026
Mof_H 	H 	0.1023	0.1802	0.755	0.041
Mof_C 	C 	0.0187	0.9634	0.89148	0.011
Mof_C 	C 	0.002	0.8356	0.90843	-0.038
Mof_H 	H 	0.0234	0.7619	0.8951	0.062
Mof_C 	C 	0.9539	0.8173	0.94491	-0.049
Mof_C 	C 	0.9203	0.9259	0.96251	-0.001
Mof_H 	H 	0.8858	0.9134	0.9849	0.07
Mof_C 	C 	0.9364	0.0539	0.94768	-0.054
Mof_C 	C 	0.9851	0.0719	0.91184	-0.038
Mof_H 	H 	0.9955	0.1576	0.9012	0.066
Mof_C 	C 	0.9401	0.6801	0.96456	0.301
Mof_C 	C 	0.9007	0.1707	0.97024	0.318
Mof_Cd	Cd	0.91072	0.5487	0.51631	0.482
Mof_O 	O 	0.81109	0.6072	0.5572	-0.319
Mof_O 	O 	0.89326	0.5125	0.60576	-0.274
Mof_O 	O 	0.47585	0.0832	0.95232	-0.275
Mof_O 	O 	0.39177	0.1675	0.99338	-0.257
Mof_O 	O 	0.42527	0.7824	0.96462	-0.287
Mof_O 	O 	0.3482	0.6438	0.99323	-0.285
Mof_C 	C 	0.8341	0.5598	0.60064	0.335
Mof_C 	C 	0.791	0.552	0.64592	-0.123
Mof_C 	C 	0.8136	0.4852	0.69169	0.058
Mof_H 	H 	0.8573	0.4475	0.6956	0.027
Mof_C 	C 	0.7708	0.4748	0.7317	-0.128
Mof_H 	H 	0.7866	0.4303	0.7627	0.08
Mof_C 	C 	0.7046	0.5286	0.72754	0.077
Mof_C 	C 	0.6829	0.5975	0.6819	-0.13
Mof_H 	H 	0.6396	0.6366	0.6782	0.08
Mof_C 	C 	0.7264	0.6085	0.6411	0.055
Mof_H 	H 	0.7114	0.6546	0.6104	0.022
Mof_C 	C 	0.6584	0.5147	0.77125	-0.014
Mof_C 	C 	0.6665	0.4106	0.8077	-0.025
Mof_H 	H 	0.7025	0.3509	0.8057	0.045
Mof_C 	C 	0.6225	0.3941	0.84626	-0.068
Mof_H 	H 	0.6284	0.3218	0.8692	0.065
Mof_C 	C 	0.5689	0.4843	0.85179	0.036
Mof_C 	C 	0.564	0.5876	0.8162	-0.068
Mof_H 	H 	0.5289	0.6492	0.8186	0.06
Mof_C 	C 	0.6074	0.6064	0.7771	-0.026
Mof_H 	H 	0.6023	0.6802	0.755	0.041
Mof_C 	C 	0.5187	0.4634	0.89148	0.012
Mof_C 	C 	0.502	0.3356	0.90843	-0.038
Mof_H 	H 	0.5234	0.2619	0.8951	0.062
Mof_C 	C 	0.4539	0.3173	0.94491	-0.049
Mof_C 	C 	0.4203	0.4259	0.96251	-0.001
Mof_H 	H 	0.3858	0.4134	0.9849	0.069
Mof_C 	C 	0.4364	0.5539	0.94768	-0.054
Mof_C 	C 	0.4851	0.5719	0.91184	-0.038
Mof_H 	H 	0.4955	0.6576	0.9012	0.066
Mof_C 	C 	0.4401	0.1801	0.96456	0.301
Mof_C 	C 	0.4007	0.6707	0.97024	0.318
Mof_Cd	Cd	0.41072	0.9513	0.01631	0.467
Mof_O 	O 	0.31109	0.8928	0.0572	-0.32
Mof_O 	O 	0.39326	0.9875	0.10576	-0.274
Mof_O 	O 	0.97585	0.4168	0.45232	-0.28
Mof_O 	O 	0.89177	0.3325	0.49338	-0.267
Mof_O 	O 	0.92527	0.7176	0.46462	-0.296
Mof_O 	O 	0.8482	0.8562	0.49323	-0.295
Mof_C 	C 	0.3341	0.9402	0.10064	0.335
Mof_C 	C 	0.291	0.948	0.14592	-0.122
Mof_C 	C 	0.3136	0.0148	0.19169	0.056
Mof_H 	H 	0.3573	0.0525	0.1956	0.027
Mof_C 	C 	0.2708	0.0252	0.2317	-0.128
Mof_H 	H 	0.2866	0.0697	0.2627	0.079
Mof_C 	C 	0.2046	0.9714	0.22754	0.077
Mof_C 	C 	0.1829	0.9025	0.1819	-0.129
Mof_H 	H 	0.1396	0.8634	0.1782	0.08
Mof_C 	C 	0.2264	0.8915	0.1411	0.054
Mof_H 	H 	0.2114	0.8454	0.1104	0.023
Mof_C 	C 	0.1584	0.9853	0.27125	-0.012
Mof_C 	C 	0.1665	0.0894	0.3077	-0.029
Mof_H 	H 	0.2025	0.1491	0.3057	0.045
Mof_C 	C 	0.1225	0.1059	0.34626	-0.066
Mof_H 	H 	0.1284	0.1782	0.3692	0.063
Mof_C 	C 	0.0689	0.0157	0.35179	0.033
Mof_C 	C 	0.064	0.9124	0.3162	-0.065
Mof_H 	H 	0.0289	0.8508	0.3186	0.059
Mof_C 	C 	0.1074	0.8936	0.2771	-0.029
Mof_H 	H 	0.1023	0.8198	0.255	0.042
Mof_C 	C 	0.0187	0.0366	0.39148	0.01
Mof_C 	C 	0.002	0.1644	0.40843	-0.037
Mof_H 	H 	0.0234	0.2381	0.3951	0.062
Mof_C 	C 	0.9539	0.1827	0.44491	-0.054
Mof_C 	C 	0.9203	0.0741	0.46251	-0.001
Mof_H 	H 	0.8858	0.0866	0.4849	0.065
Mof_C 	C 	0.9364	0.9461	0.44768	-0.058
Mof_C 	C 	0.9851	0.9281	0.41184	-0.038
Mof_H 	H 	0.9955	0.8424	0.4012	0.064
Mof_C 	C 	0.9401	0.3199	0.46456	0.302
Mof_C 	C 	0.9007	0.8293	0.47024	0.32
Mof_Cd	Cd	0.91072	0.4513	0.01631	0.465
Mof_O 	O 	0.81109	0.3928	0.0572	-0.321
Mof_O 	O 	0.89326	0.4875	0.10576	-0.275
Mof_O 	O 	0.47585	0.9168	0.45232	-0.279
Mof_O 	O 	0.39177	0.8325	0.49338	-0.267
Mof_O 	O 	0.42527	0.2176	0.46462	-0.296
Mof_O 	O 	0.3482	0.3562	0.49323	-0.295
Mof_C 	C 	0.8341	0.4402	0.10064	0.335
Mof_C 	C 	0.791	0.448	0.14592	-0.124
Mof_C 	C 	0.8136	0.5148	0.19169	0.058
Mof_H 	H 	0.8573	0.5525	0.1956	0.027
Mof_C 	C 	0.7708	0.5252	0.2317	-0.129
Mof_H 	H 	0.7866	0.5697	0.2627	0.079
Mof_C 	C 	0.7046	0.4714	0.22754	0.077
Mof_C 	C 	0.6829	0.4025	0.1819	-0.13
Mof_H 	H 	0.6396	0.3634	0.1782	0.08
Mof_C 	C 	0.7264	0.3915	0.1411	0.055
Mof_H 	H 	0.7114	0.3454	0.1104	0.022
Mof_C 	C 	0.6584	0.4853	0.27125	-0.014
Mof_C 	C 	0.6665	0.5894	0.3077	-0.026
Mof_H 	H 	0.7025	0.6491	0.3057	0.044
Mof_C 	C 	0.6225	0.6059	0.34626	-0.069
Mof_H 	H 	0.6284	0.6782	0.3692	0.064
Mof_C 	C 	0.5689	0.5157	0.35179	0.036
Mof_C 	C 	0.564	0.4124	0.3162	-0.069
Mof_H 	H 	0.5289	0.3508	0.3186	0.06
Mof_C 	C 	0.6074	0.3936	0.2771	-0.026
Mof_H 	H 	0.6023	0.3198	0.255	0.041
Mof_C 	C 	0.5187	0.5366	0.39148	0.009
Mof_C 	C 	0.502	0.6644	0.40843	-0.037
Mof_H 	H 	0.5234	0.7381	0.3951	0.062
Mof_C 	C 	0.4539	0.6827	0.44491	-0.053
Mof_C 	C 	0.4203	0.5741	0.46251	0
Mof_H 	H 	0.3858	0.5866	0.4849	0.065
Mof_C 	C 	0.4364	0.4461	0.44768	-0.059
Mof_C 	C 	0.4851	0.4281	0.41184	-0.037
Mof_H 	H 	0.4955	0.3424	0.4012	0.064
Mof_C 	C 	0.4401	0.8199	0.46456	0.302
Mof_C 	C 	0.4007	0.3293	0.47024	0.32
Mof_Cd	Cd	0.58928	0.9513	0.48369	0.482
Mof_O 	O 	0.68891	0.8928	0.4428	-0.319
Mof_O 	O 	0.60674	0.9875	0.39424	-0.273
Mof_O 	O 	0.02415	0.4168	0.04768	-0.283
Mof_O 	O 	0.10823	0.3325	0.00662	-0.276
Mof_O 	O 	0.07473	0.7176	0.03538	-0.304
Mof_O 	O 	0.1518	0.8562	0.00677	-0.3
Mof_C 	C 	0.6659	0.9402	0.39936	0.335
Mof_C 	C 	0.709	0.948	0.35408	-0.121
Mof_C 	C 	0.6864	0.0148	0.30831	0.056
Mof_H 	H 	0.6427	0.0525	0.3044	0.028
Mof_C 	C 	0.7292	0.0252	0.2683	-0.128
Mof_H 	H 	0.7134	0.0697	0.2373	0.079
Mof_C 	C 	0.7954	0.9714	0.27246	0.077
Mof_C 	C 	0.8171	0.9025	0.3181	-0.129
Mof_H 	H 	0.8604	0.8634	0.3218	0.079
Mof_C 	C 	0.7736	0.8915	0.3589	0.054
Mof_H 	H 	0.7886	0.8454	0.3896	0.023
Mof_C 	C 	0.8416	0.9853	0.22875	-0.012
Mof_C 	C 	0.8335	0.0894	0.1923	-0.029
Mof_H 	H 	0.7975	0.1491	0.1943	0.045
Mof_C 	C 	0.8775	0.1059	0.15374	-0.067
Mof_H 	H 	0.8716	0.1782	0.1308	0.062
Mof_C 	C 	0.9311	0.0157	0.14821	0.033
Mof_C 	C 	0.936	0.9124	0.1838	-0.066
Mof_H 	H 	0.9711	0.8508	0.1814	0.058
Mof_C 	C 	0.8926	0.8936	0.2229	-0.029
Mof_H 	H 	0.8977	0.8198	0.245	0.042
Mof_C 	C 	0.9813	0.0366	0.10852	0.005
Mof_C 	C 	0.998	0.1644	0.09157	-0.04
Mof_H 	H 	0.9766	0.2381	0.1049	0.062
Mof_C 	C 	0.0461	0.1827	0.05509	-0.055
Mof_C 	C 	0.0797	0.0741	0.03749	-0.001
Mof_H 	H 	0.1142	0.0866	0.0151	0.062
Mof_C 	C 	0.0636	0.9461	0.05232	-0.062
Mof_C 	C 	0.0149	0.9281	0.08816	-0.035
Mof_H 	H 	0.0045	0.8424	0.0988	0.062
Mof_C 	C 	0.0599	0.3199	0.03544	0.301
Mof_C 	C 	0.0993	0.8293	0.02976	0.32
Mof_Cd	Cd	0.08928	0.4513	0.48369	0.482
Mof_O 	O 	0.18891	0.3928	0.4428	-0.319
Mof_O 	O 	0.10674	0.4875	0.39424	-0.273
Mof_O 	O 	0.52415	0.9168	0.04768	-0.284
Mof_O 	O 	0.60823	0.8325	0.00662	-0.276
Mof_O 	O 	0.57473	0.2176	0.03538	-0.305
Mof_O 	O 	0.6518	0.3562	0.00677	-0.3
Mof_C 	C 	0.1659	0.4402	0.39936	0.335
Mof_C 	C 	0.209	0.448	0.35408	-0.123
Mof_C 	C 	0.1864	0.5148	0.30831	0.058
Mof_H 	H 	0.1427	0.5525	0.3044	0.027
Mof_C 	C 	0.2292	0.5252	0.2683	-0.128
Mof_H 	H 	0.2134	0.5697	0.2373	0.079
Mof_C 	C 	0.2954	0.4714	0.27246	0.077
Mof_C 	C 	0.3171	0.4025	0.3181	-0.13
Mof_H 	H 	0.3604	0.3634	0.3218	0.08
Mof_C 	C 	0.2736	0.3915	0.3589	0.054
Mof_H 	H 	0.2886	0.3454	0.3896	0.023
Mof_C 	C 	0.3416	0.4853	0.22875	-0.015
Mof_C 	C 	0.3335	0.5894	0.1923	-0.026
Mof_H 	H 	0.2975	0.6491	0.1943	0.044
Mof_C 	C 	0.3775	0.6059	0.15374	-0.069
Mof_H 	H 	0.3716	0.6782	0.1308	0.063
Mof_C 	C 	0.4311	0.5157	0.14821	0.035
Mof_C 	C 	0.436	0.4124	0.1838	-0.069
Mof_H 	H 	0.4711	0.3508	0.1814	0.06
Mof_C 	C 	0.3926	0.3936	0.2229	-0.027
Mof_H 	H 	0.3977	0.3198	0.245	0.041
Mof_C 	C 	0.4813	0.5366	0.10852	0.006
Mof_C 	C 	0.498	0.6644	0.09157	-0.037
Mof_H 	H 	0.4766	0.7381	0.1049	0.061
Mof_C 	C 	0.5461	0.6827	0.05509	-0.058
Mof_C 	C 	0.5797	0.5741	0.03749	0.001
Mof_H 	H 	0.6142	0.5866	0.0151	0.062
Mof_C 	C 	0.5636	0.4461	0.05232	-0.064
Mof_C 	C 	0.5149	0.4281	0.08816	-0.037
Mof_H 	H 	0.5045	0.3424	0.0988	0.062
Mof_C 	C 	0.5599	0.8199	0.03544	0.302
Mof_C 	C 	0.5993	0.3293	0.02976	0.32
Mof_Cd	Cd	0.75	0.25	-0	0.425
Mof_Cd	Cd	0.25	0.25	0.5	0.441
Mof_Cd	Cd	0.25	0.75	-0	0.426
Mof_Cd	Cd	0.75	0.75	0.5	0.441
_end
