# CIF file generated by openbabel 3.1.0, see https://openbabel.org
data_I
_chemical_name_common 'POWBIO_clean'
_cell_length_a 11.322
_cell_length_b 12.139
_cell_length_c 23.311
_cell_angle_alpha 83.586
_cell_angle_beta 81.753
_cell_angle_gamma 71.169
_space_group_name_H-M_alt 'P 1'
_space_group_name_Hall 'P 1'
loop_
    _symmetry_equiv_pos_as_xyz
    x,y,z
loop_
    _atom_site_label
    _atom_site_type_symbol
    _atom_site_fract_x
    _atom_site_fract_y
    _atom_site_fract_z
    _atom_site_occupancy
    Ce1      Ce       0.25618    0.23642    0.75883    1.000
    Ce2      Ce       0.74382    0.76358    0.24117    1.000
    Cu1      Cu       0.69190    0.63030    0.47217    1.000
    Cu2      Cu       0.89232    0.25578    0.24516    1.000
    Cu3      Cu       0.10768    0.74422    0.75484    1.000
    Cu4      Cu       0.30810    0.36970    0.52783    1.000
    Cu5      Cu       0.50000    0.00000    0.00000    1.000
    Si1      Si       0.86930    0.28670    0.73760    1.000
    Si2      Si       0.13070    0.71330    0.26240    1.000
    H1       H        0.25310    0.11070    0.38820    1.000
    H2       H        0.24860    0.89550    0.48290    1.000
    H3       H        0.24960    0.96610    0.96360    1.000
    H4       H        0.91470    0.17050    0.00880    1.000
    H5       H        0.67840    0.78650    0.06830    1.000
    H6       H        0.06120    0.36850    0.48520    1.000
    H7       H        0.74690    0.88930    0.61180    1.000
    H8       H        0.08530    0.82950    0.99120    1.000
    H9       H        0.92650    0.76080    0.67260    1.000
    H10      H        0.27970    0.75320    0.83520    1.000
    H11      H        0.58900    0.73850    0.95120    1.000
    H12      H        0.32160    0.21350    0.93170    1.000
    H13      H        0.90450    0.70820    0.04220    1.000
    H14      H        0.07350    0.23920    0.32740    1.000
    H15      H        0.28330    0.73940    0.64800    1.000
    H16      H        0.72030    0.24680    0.16480    1.000
    H17      H        0.92570    0.77060    0.86050    1.000
    H18      H        0.09550    0.29180    0.95780    1.000
    H19      H        0.53190    0.16130    0.57010    1.000
    H20      H        0.53880    0.38650    0.43560    1.000
    H21      H        0.75300    0.93920    0.91670    1.000
    H22      H        0.41100    0.26150    0.04880    1.000
    H23      H        0.93880    0.63150    0.51480    1.000
    H24      H        0.07430    0.22940    0.13950    1.000
    H25      H        0.10830    0.74190    0.51190    1.000
    H26      H        0.45030    0.64930    0.91800    1.000
    H27      H        0.46810    0.83870    0.42990    1.000
    H28      H        0.60320    0.84400    0.55660    1.000
    H29      H        0.54970    0.35070    0.08200    1.000
    H30      H        0.46120    0.61350    0.56440    1.000
    H31      H        0.24700    0.06080    0.08330    1.000
    H32      H        0.75040    0.03390    0.03640    1.000
    H33      H        0.75140    0.10450    0.51710    1.000
    H34      H        0.71670    0.26060    0.35200    1.000
    H35      H        0.39680    0.15600    0.44340    1.000
    H36      H        0.89170    0.25810    0.48810    1.000
    W1       W        0.64737    0.56704    0.73114    1.000
    W2       W        0.03331    0.87031    0.38876    1.000
    W3       W        0.44112    0.66786    0.28220    1.000
    W4       W        0.78520    0.03353    0.71901    1.000
    W5       W        0.91485    0.98821    0.26460    1.000
    W6       W        0.93043    0.61678    0.36715    1.000
    W7       W        0.31911    0.81499    0.14462    1.000
    W8       W        0.26055    0.57560    0.39177    1.000
    W9       W        0.06957    0.38322    0.63285    1.000
    W10      W        0.98660    0.15815    0.86862    1.000
    W11      W        0.76303    0.42092    0.86939    1.000
    W12      W        0.35263    0.43296    0.26886    1.000
    W13      W        0.68089    0.18501    0.85538    1.000
    W14      W        0.21480    0.96647    0.28099    1.000
    W15      W        0.01865    0.48595    0.24556    1.000
    W16      W        0.23697    0.57908    0.13061    1.000
    W17      W        0.55888    0.33214    0.71780    1.000
    W18      W        0.73945    0.42440    0.60823    1.000
    W19      W        0.08515    0.01179    0.73540    1.000
    W20      W        0.96669    0.12969    0.61124    1.000
    W21      W        0.98135    0.51405    0.75444    1.000
    W22      W        0.01340    0.84185    0.13138    1.000
    C1       C        0.99650    0.77570    0.87460    1.000
    C2       C        0.78990    0.25650    0.36700    1.000
    C3       C        0.31100    0.19400    0.44510    1.000
    C4       C        0.23820    0.10790    0.04890    1.000
    C5       C        0.15290    0.23700    0.97980    1.000
    C6       C        0.21150    0.74370    0.57500    1.000
    C7       C        0.76810    0.83200    0.58520    1.000
    C8       C        0.10720    0.74610    0.55160    1.000
    C9       C        0.89280    0.25390    0.44840    1.000
    C10      C        0.00020    0.24430    0.35220    1.000
    C11      C        0.49700    0.22600    0.05060    1.000
    C12      C        0.44130    0.80200    0.46410    1.000
    C13      C        0.50300    0.77400    0.94940    1.000
    C14      C        0.87240    0.69040    0.53190    1.000
    C15      C        0.79960    0.20860    0.08350    1.000
    C16      C        0.98870    0.79890    0.93150    1.000
    C17      C        0.21010    0.74350    0.63300    1.000
    C18      C        0.00350    0.22430    0.12540    1.000
    C19      C        0.09050    0.81010    0.95320    1.000
    C20      C        0.90950    0.18990    0.04680    1.000
    C21      C        0.57300    0.27600    0.06900    1.000
    C22      C        0.27750    0.19200    0.96550    1.000
    C23      C        0.79540    0.23380    0.14050    1.000
    C24      C        0.00000    0.75490    0.58960    1.000
    C25      C        0.72250    0.80800    0.03450    1.000
    C26      C        0.78850    0.25630    0.42500    1.000
    C27      C        0.20040    0.79140    0.91650    1.000
    C28      C        0.31700    0.83200    0.49240    1.000
    C29      C        0.23190    0.16800    0.41480    1.000
    C30      C        0.84710    0.76300    0.02020    1.000
    C31      C        0.68250    0.10000    0.04370    1.000
    C32      C        0.12760    0.30960    0.46810    1.000
    C33      C        0.31750    0.90000    0.95630    1.000
    C34      C        0.99980    0.75570    0.64780    1.000
    C35      C        0.01130    0.20110    0.06850    1.000
    C36      C        0.20460    0.76620    0.85950    1.000
    C37      C        0.55870    0.19800    0.53590    1.000
    C38      C        0.76180    0.89210    0.95110    1.000
    C39      C        0.42700    0.72400    0.93100    1.000
    C40      C        0.56290    0.32260    0.46210    1.000
    C41      C        0.00000    0.24510    0.41040    1.000
    C42      C        0.68900    0.80600    0.55490    1.000
    C43      C        0.68300    0.16800    0.50760    1.000
    C44      C        0.43710    0.67740    0.53790    1.000
    N1       N        0.88430    0.75960    0.56950    1.000
    N2       N        0.10290    0.76010    0.83880    1.000
    N3       N        0.24630    0.28390    0.47840    1.000
    N4       N        0.87160    0.81550    0.96570    1.000
    N5       N        0.43620    0.88620    0.96550    1.000
    N6       N        0.48430    0.28980    0.50450    1.000
    N7       N        0.89710    0.23990    0.16120    1.000
    N8       N        0.31060    0.80270    0.93510    1.000
    N9       N        0.68940    0.19730    0.06490    1.000
    N10      N        0.89360    0.25110    0.33070    1.000
    N11      N        0.11570    0.24040    0.43050    1.000
    N12      N        0.12840    0.18450    0.03430    1.000
    N13      N        0.66870    0.89120    0.99240    1.000
    N14      N        0.56380    0.11380    0.03450    1.000
    N15      N        0.10640    0.74890    0.66930    1.000
    N16      N        0.51570    0.71020    0.49550    1.000
    N17      N        0.32030    0.74890    0.53660    1.000
    N18      N        0.75370    0.71610    0.52160    1.000
    N19      N        0.67970    0.25110    0.46340    1.000
    N20      N        0.33130    0.10880    0.00760    1.000
    O1       O        0.89250    0.29860    0.90600    1.000
    O2       O        0.91500    0.15920    0.71130    1.000
    O3       O        0.65380    0.17940    0.70120    1.000
    O4       O        0.82360    0.26420    0.59780    1.000
    O5       O        0.73900    0.07640    0.79720    1.000
    O6       O        0.83690    0.26940    0.80690    1.000
    O7       O        0.18010    0.88210    0.10860    1.000
    O8       O        0.10370    0.21460    0.83020    1.000
    O9       O        0.66320    0.50250    0.81030    1.000
    O10      O        0.19300    0.87000    0.74260    1.000
    O11      O        0.85020    0.04550    0.63860    1.000
    O12      O        0.89050    0.44490    0.61150    1.000
    O13      O        0.13530    0.43200    0.56640    1.000
    O14      O        0.01320    0.34870    0.23290    1.000
    O15      O        0.17640    0.73580    0.40220    1.000
    O16      O        0.58520    0.38250    0.63790    1.000
    O17      O        0.02130    0.65030    0.27960    1.000
    O18      O        0.93950    0.94010    0.73640    1.000
    O19      O        0.34660    0.67030    0.10810    1.000
    O20      O        0.65340    0.32970    0.89190    1.000
    O21      O        0.97870    0.34970    0.72040    1.000
    O22      O        0.16310    0.73060    0.19310    1.000
    O23      O        0.03020    0.52140    0.67160    1.000
    O24      O        0.13480    0.42590    0.76830    1.000
    O25      O        0.98680    0.65130    0.76710    1.000
    O26      O        0.81990    0.11790    0.89140    1.000
    O27      O        0.18030    0.10190    0.73120    1.000
    O28      O        0.65510    0.56540    0.64870    1.000
    O29      O        0.10750    0.70140    0.09400    1.000
    O30      O        0.81970    0.89810    0.26880    1.000
    O31      O        0.74460    0.36810    0.70860    1.000
    O32      O        0.10470    0.52770    0.17650    1.000
    O33      O        0.26100    0.92360    0.20280    1.000
    O34      O        0.06050    0.05990    0.26360    1.000
    O35      O        0.10950    0.55510    0.38850    1.000
    O36      O        0.20820    0.31280    0.66700    1.000
    O37      O        0.29620    0.52360    0.46160    1.000
    O38      O        0.94720    0.75980    0.38580    1.000
    O39      O        0.98290    0.95650    0.18680    1.000
    O40      O        0.01710    0.04350    0.81320    1.000
    O41      O        0.19410    0.42470    0.27050    1.000
    O42      O        0.41740    0.71420    0.20430    1.000
    O43      O        0.59550    0.67150    0.28030    1.000
    O44      O        0.08730    0.01420    0.65260    1.000
    O45      O        0.34490    0.43460    0.35130    1.000
    O46      O        0.79180    0.68720    0.33300    1.000
    O47      O        0.89530    0.47230    0.82350    1.000
    O48      O        0.25540    0.63190    0.29140    1.000
    O49      O        0.96980    0.47860    0.32840    1.000
    O50      O        0.08500    0.84080    0.28870    1.000
    O51      O        0.86470    0.56800    0.43360    1.000
    O52      O        0.33680    0.49750    0.18970    1.000
    O53      O        0.58260    0.28580    0.79570    1.000
    O54      O        0.48330    0.50880    0.26420    1.000
    O55      O        0.80700    0.13000    0.25740    1.000
    O56      O        0.89630    0.78540    0.16980    1.000
    O57      O        0.91270    0.98580    0.34740    1.000
    O58      O        0.51670    0.49120    0.73580    1.000
    O59      O        0.40450    0.32850    0.71970    1.000
    O60      O        0.86520    0.57410    0.23170    1.000
    O61      O        0.34620    0.82060    0.29880    1.000
    O62      O        0.14980    0.95450    0.36140    1.000
    O63      O        0.70380    0.47640    0.53840    1.000
    O64      O        0.05280    0.24020    0.61420    1.000
    O65      O        0.41480    0.61750    0.36210    1.000
    O66      O        0.80590    0.57530    0.72950    1.000
