data_functionalizedCrystal
_audit_creation_method	'EQeq! by Chris Wilmer'
_symmetry_space_group_name_H-M	'P1'
_symmetry_Int_Tables_number	1
_symmetry_cell_setting	triclinic
loop_
_symmetry_equiv_pos_as_xyz
  x,y,z
_cell_length_a	13.882
_cell_length_b	14.7312
_cell_length_c	14.7312
_cell_angle_alpha	77.929
_cell_angle_beta	63.4177
_cell_angle_gamma	116.582
loop_
_atom_site_label
_atom_site_type_symbol
_atom_site_fract_x
_atom_site_fract_y
_atom_site_fract_z
_atom_site_charge
Mof_Mn	Mn	0.75	0.4352	0.9352	0.985
Mof_Mn	Mn	0.25	0.5648	0.0648	0.882
Mof_Mn	Mn	-0	0.5	-0	0.685
Mof_Mn	Mn	0.5	0.5	-0	0.719
Mof_Si	Si	0.25	0.20308	0.70308	0.813
Mof_Si	Si	0.75	0.79692	0.29692	0.737
Mof_H 	H 	0.1019	0.0297	0.6571	-0.027
Mof_H 	H 	0.9864	0.8285	0.7295	0.109
Mof_H 	H 	0.0464	0.8014	0.9746	0.097
Mof_H 	H 	0.1616	0.0022	0.9022	-0.006
Mof_H 	H 	0.2856	0.4122	0.7048	-0.025
Mof_H 	H 	0.1474	0.467	0.7782	0.089
Mof_H 	H 	0.816	0.1459	0.8975	0.109
Mof_H 	H 	0.9553	0.0906	0.825	-0.018
Mof_H 	H 	0.3981	0.1571	0.5297	-0.011
Mof_H 	H 	0.5136	0.2295	0.3285	0.065
Mof_H 	H 	0.4536	0.4746	0.3014	0.073
Mof_H 	H 	0.3384	0.4022	0.5022	-0.014
Mof_H 	H 	0.2144	0.2048	0.9122	0.002
Mof_H 	H 	0.3526	0.2782	0.967	0.082
Mof_H 	H 	0.684	0.3975	0.6459	0.084
Mof_H 	H 	0.5447	0.325	0.5906	-0.011
Mof_H 	H 	0.8981	0.9703	0.3429	0.013
Mof_H 	H 	0.0136	0.1715	0.2705	0.025
Mof_H 	H 	0.9536	0.1986	0.0254	0.052
Mof_H 	H 	0.8384	0.9978	0.0978	-0.012
Mof_H 	H 	0.7144	0.5878	0.2952	0.015
Mof_H 	H 	0.8526	0.533	0.2218	0.036
Mof_H 	H 	0.184	0.8541	0.1025	0.041
Mof_H 	H 	0.0447	0.9094	0.175	0.002
Mof_H 	H 	0.6019	0.8429	0.4703	-0.007
Mof_H 	H 	0.4864	0.7705	0.6715	0.073
Mof_H 	H 	0.5464	0.5254	0.6986	0.075
Mof_H 	H 	0.6616	0.5978	0.4978	-0.007
Mof_H 	H 	0.7856	0.7952	0.0878	-0.014
Mof_H 	H 	0.6474	0.7218	0.033	0.045
Mof_H 	H 	0.316	0.6025	0.3541	0.07
Mof_H 	H 	0.4553	0.675	0.4094	-0.007
Mof_C 	C 	0.14726	0.03922	0.77022	-0.301
Mof_C 	C 	0.09185	0.98392	0.7214	0.123
Mof_C 	C 	0.02265	0.86384	0.76462	-0.152
Mof_C 	C 	0.00592	0.79485	0.85865	-0.016
Mof_C 	C 	0.05804	0.84774	0.9094	-0.109
Mof_C 	C 	0.12703	0.96772	0.86576	0.115
Mof_C 	C 	0.93543	0.66554	0.90412	0.353
Mof_C 	C 	0.13497	0.24498	0.75836	-0.33
Mof_C 	C 	0.19003	0.35743	0.74471	0.142
Mof_C 	C 	0.10808	0.39031	0.78819	-0.159
Mof_C 	C 	0.96807	0.31113	0.84663	0.057
Mof_C 	C 	0.9112	0.19961	0.85931	-0.147
Mof_C 	C 	0.99464	0.1671	0.81564	0.167
Mof_C 	C 	0.8785	0.34491	0.89761	0.274
Mof_C 	C 	0.35274	0.27022	0.53922	-0.289
Mof_C 	C 	0.40815	0.2214	0.48392	0.088
Mof_C 	C 	0.47735	0.26462	0.36384	-0.092
Mof_C 	C 	0.49408	0.35865	0.29485	-0.037
Mof_C 	C 	0.44196	0.4094	0.34774	-0.1
Mof_C 	C 	0.37297	0.36576	0.46772	0.095
Mof_C 	C 	0.56457	0.40412	0.16554	0.344
Mof_C 	C 	0.36503	0.25836	0.74498	-0.283
Mof_C 	C 	0.30997	0.24471	0.85743	0.097
Mof_C 	C 	0.39192	0.28819	0.89031	-0.094
Mof_C 	C 	0.53193	0.34663	0.81113	-0.005
Mof_C 	C 	0.5888	0.35931	0.69961	-0.106
Mof_C 	C 	0.50536	0.31564	0.6671	0.099
Mof_C 	C 	0.6215	0.39761	0.84491	0.286
Mof_C 	C 	0.85274	0.96078	0.22978	-0.245
Mof_C 	C 	0.90815	0.01608	0.2786	0.035
Mof_C 	C 	0.97735	0.13616	0.23538	-0.024
Mof_C 	C 	0.99408	0.20515	0.14135	-0.046
Mof_C 	C 	0.94196	0.15226	0.0906	-0.08
Mof_C 	C 	0.87297	0.03228	0.13424	0.058
Mof_C 	C 	0.06457	0.33446	0.09588	0.322
Mof_C 	C 	0.86503	0.75502	0.24164	-0.202
Mof_C 	C 	0.80997	0.64257	0.25529	0.015
Mof_C 	C 	0.89192	0.60969	0.21181	-0.004
Mof_C 	C 	0.03193	0.68887	0.15337	-0.106
Mof_C 	C 	0.0888	0.80039	0.14069	-0.042
Mof_C 	C 	0.00536	0.8329	0.18436	-0.008
Mof_C 	C 	0.1215	0.65509	0.10239	0.31
Mof_C 	C 	0.64726	0.72978	0.46078	-0.263
Mof_C 	C 	0.59185	0.7786	0.51608	0.079
Mof_C 	C 	0.52265	0.73538	0.63616	-0.088
Mof_C 	C 	0.50592	0.64135	0.70515	-0.026
Mof_C 	C 	0.55804	0.5906	0.65226	-0.093
Mof_C 	C 	0.62703	0.63424	0.53228	0.085
Mof_C 	C 	0.43543	0.59588	0.83446	0.336
Mof_C 	C 	0.63497	0.74164	0.25502	-0.259
Mof_C 	C 	0.69003	0.75529	0.14257	0.067
Mof_C 	C 	0.60808	0.71181	0.10969	-0.081
Mof_C 	C 	0.46807	0.65337	0.18887	-0.034
Mof_C 	C 	0.4112	0.64069	0.30039	-0.09
Mof_C 	C 	0.49464	0.68436	0.3329	0.074
Mof_C 	C 	0.3785	0.60239	0.15509	0.297
Mof_O 	O 	0.87082	0.61806	0.86764	-0.37
Mof_O 	O 	0.94326	0.61158	0.97508	-0.322
Mof_O 	O 	0.92979	0.44155	0.89853	-0.367
Mof_O 	O 	0.75713	0.28305	0.93493	-0.297
Mof_O 	O 	0.62918	0.36764	0.11806	-0.42
Mof_O 	O 	0.55674	0.47508	0.11158	-0.394
Mof_O 	O 	0.57021	0.39853	0.94155	-0.375
Mof_O 	O 	0.74287	0.43493	0.78305	-0.316
Mof_O 	O 	0.12918	0.38194	0.13236	-0.387
Mof_O 	O 	0.05674	0.38842	0.02492	-0.401
Mof_O 	O 	0.07021	0.55845	0.10147	-0.419
Mof_O 	O 	0.24287	0.71695	0.06507	-0.341
Mof_O 	O 	0.37082	0.63236	0.88194	-0.335
Mof_O 	O 	0.44326	0.52492	0.88842	-0.339
Mof_O 	O 	0.42979	0.60147	0.05845	-0.42
Mof_O 	O 	0.25713	0.56507	0.21695	-0.323
_end
