# CIF file generated by openbabel 3.1.0, see https://openbabel.org
data_I
_chemical_name_common 'image0'
_cell_length_a 26.982
_cell_length_b 21.882
_cell_length_c 13.8219
_cell_angle_alpha 90
_cell_angle_beta 90
_cell_angle_gamma 90
_space_group_name_H-M_alt 'P 1'
_space_group_name_Hall 'P 1'
loop_
    _symmetry_equiv_pos_as_xyz
    x,y,z
loop_
    _atom_site_label
    _atom_site_type_symbol
    _atom_site_fract_x
    _atom_site_fract_y
    _atom_site_fract_z
    _atom_site_occupancy
    Co1      Co       0.11772    0.68528    0.96662    1.000
    Si1      Si       0.13160    0.44566    0.46551    1.000
    O1       O        0.10710    0.64930    0.09820    1.000
    C1       C        0.14190    0.60680    0.09820    1.000
    O2       O        0.31703    0.27698    0.65930    1.000
    C2       C        0.30740    0.27760    0.57100    1.000
    C3       C        0.26600    0.31810    0.54040    1.000
    C4       C        0.23660    0.34530    0.60930    1.000
    H1       H        0.24300    0.33770    0.67430    1.000
    C5       C        0.25480    0.33160    0.44980    1.000
    H2       H        0.27260    0.31330    0.40010    1.000
    O3       O        0.94346    0.23580    0.46730    1.000
    C6       C        0.95250    0.27520    0.40540    1.000
    C7       C        0.99650    0.31620    0.42050    1.000
    C8       C        0.02680    0.31030    0.49560    1.000
    H3       H        0.02160    0.27910    0.54020    1.000
    C9       C        0.01200    0.35430    0.34960    1.000
    H4       H        0.99610    0.35340    0.28990    1.000
    C10      C        0.13860    0.49400    0.35610    1.000
    O4       O        0.13043    0.66064    0.82630    1.000
    C11      C        0.07813    0.39270    0.44800    1.000
    C12      C        0.11940    0.49660    0.57130    1.000
    C13      C        0.18728    0.39750    0.49380    1.000
    C14      C        0.10720    0.57540    0.73350    1.000
    O5       O        0.07163    0.60150    0.88310    1.000
    C15      C        0.14650    0.58170    0.67500    1.000
    H5       H        0.17020    0.61150    0.68750    1.000
    C16      C        0.15150    0.54250    0.59410    1.000
    H6       H        0.17860    0.54850    0.55360    1.000
    C17      C        0.10200    0.61450    0.81980    1.000
    C18      C        0.19850    0.38320    0.58500    1.000
    H7       H        0.17940    0.39990    0.63430    1.000
    C19      C        0.05150    0.39500    0.36400    1.000
    H8       H        0.05950    0.42350    0.31650    1.000
    C20      C        0.06630    0.35060    0.50790    1.000
    H9       H        0.08540    0.34660    0.56360    1.000
    C21      C        0.07940    0.49150    0.63320    1.000
    H10      H        0.05570    0.46170    0.62090    1.000
    C22      C        0.07340    0.52900    0.71250    1.000
    H11      H        0.04630    0.52320    0.75290    1.000
    C23      C        0.21720    0.37230    0.42660    1.000
    H12      H        0.21230    0.38260    0.36190    1.000
    O6       O        0.32968    0.24620    0.50530    1.000
    O7       O        0.92659    0.28518    0.33260    1.000
    C24      C        0.14250    0.56720    0.19050    1.000
    O8       O        0.17180    0.59830    0.03490    1.000
    C25      C        0.10450    0.57170    0.24970    1.000
    H13      H        0.07840    0.59780    0.23530    1.000
    C26      C        0.10390    0.53640    0.33530    1.000
    H14      H        0.07840    0.54270    0.37940    1.000
    C27      C        0.17660    0.52800    0.20890    1.000
    H15      H        0.20380    0.52390    0.16810    1.000
    C28      C        0.17200    0.49260    0.28960    1.000
    H16      H        0.19660    0.46320    0.29790    1.000
    Co2      Co       0.38228    0.31472    0.96662    1.000
    Si2      Si       0.36840    0.55434    0.46551    1.000
    O9       O        0.39290    0.35070    0.09820    1.000
    C29      C        0.35810    0.39320    0.09820    1.000
    O10      O        0.18297    0.72302    0.65930    1.000
    C30      C        0.19260    0.72240    0.57100    1.000
    C31      C        0.23400    0.68190    0.54040    1.000
    C32      C        0.26340    0.65470    0.60930    1.000
    H17      H        0.25700    0.66230    0.67430    1.000
    C33      C        0.24520    0.66840    0.44980    1.000
    H18      H        0.22740    0.68670    0.40010    1.000
    O11      O        0.55654    0.76420    0.46730    1.000
    C34      C        0.54750    0.72480    0.40540    1.000
    C35      C        0.50350    0.68380    0.42050    1.000
    C36      C        0.47320    0.68970    0.49560    1.000
    H19      H        0.47840    0.72090    0.54020    1.000
    C37      C        0.48800    0.64570    0.34960    1.000
    H20      H        0.50390    0.64660    0.28990    1.000
    C38      C        0.36140    0.50600    0.35610    1.000
    O12      O        0.36957    0.33936    0.82630    1.000
    C39      C        0.42187    0.60730    0.44800    1.000
    C40      C        0.38060    0.50340    0.57130    1.000
    C41      C        0.31272    0.60250    0.49380    1.000
    C42      C        0.39280    0.42460    0.73350    1.000
    O13      O        0.42837    0.39850    0.88310    1.000
    C43      C        0.35350    0.41830    0.67500    1.000
    H21      H        0.32980    0.38850    0.68750    1.000
    C44      C        0.34850    0.45750    0.59410    1.000
    H22      H        0.32140    0.45150    0.55360    1.000
    C45      C        0.39800    0.38550    0.81980    1.000
    C46      C        0.30150    0.61680    0.58500    1.000
    H23      H        0.32060    0.60010    0.63430    1.000
    C47      C        0.44850    0.60500    0.36400    1.000
    H24      H        0.44050    0.57650    0.31650    1.000
    C48      C        0.43370    0.64940    0.50790    1.000
    H25      H        0.41460    0.65340    0.56360    1.000
    C49      C        0.42060    0.50850    0.63320    1.000
    H26      H        0.44430    0.53830    0.62090    1.000
    C50      C        0.42660    0.47100    0.71250    1.000
    H27      H        0.45370    0.47680    0.75290    1.000
    C51      C        0.28280    0.62770    0.42660    1.000
    H28      H        0.28770    0.61740    0.36190    1.000
    O14      O        0.17032    0.75380    0.50530    1.000
    O15      O        0.57341    0.71482    0.33260    1.000
    C52      C        0.35750    0.43280    0.19050    1.000
    O16      O        0.32820    0.40170    0.03490    1.000
    C53      C        0.39550    0.42830    0.24970    1.000
    H29      H        0.42160    0.40220    0.23530    1.000
    C54      C        0.39610    0.46360    0.33530    1.000
    H30      H        0.42160    0.45730    0.37940    1.000
    C55      C        0.32340    0.47200    0.20890    1.000
    H31      H        0.29620    0.47610    0.16810    1.000
    C56      C        0.32800    0.50740    0.28960    1.000
    H32      H        0.30340    0.53680    0.29790    1.000
    Co3      Co       0.38228    0.18528    0.53338    1.000
    Si3      Si       0.36840    0.94566    0.03449    1.000
    O17      O        0.39290    0.14930    0.40180    1.000
    C57      C        0.35810    0.10680    0.40180    1.000
    O18      O        0.18297    0.77698    0.84070    1.000
    C58      C        0.19260    0.77760    0.92900    1.000
    C59      C        0.23400    0.81810    0.95960    1.000
    C60      C        0.26340    0.84530    0.89070    1.000
    H33      H        0.25700    0.83770    0.82570    1.000
    C61      C        0.24520    0.83160    0.05020    1.000
    H34      H        0.22740    0.81330    0.09990    1.000
    O19      O        0.55654    0.73580    0.03270    1.000
    C62      C        0.54750    0.77520    0.09460    1.000
    C63      C        0.50350    0.81620    0.07950    1.000
    C64      C        0.47320    0.81030    0.00440    1.000
    H35      H        0.47840    0.77910    0.95980    1.000
    C65      C        0.48800    0.85430    0.15040    1.000
    H36      H        0.50390    0.85340    0.21010    1.000
    C66      C        0.36140    0.99400    0.14390    1.000
    O20      O        0.36957    0.16064    0.67370    1.000
    C67      C        0.42187    0.89270    0.05200    1.000
    C68      C        0.38060    0.99660    0.92870    1.000
    C69      C        0.31272    0.89750    0.00620    1.000
    C70      C        0.39280    0.07540    0.76650    1.000
    O21      O        0.42837    0.10150    0.61690    1.000
    C71      C        0.35350    0.08170    0.82500    1.000
    H37      H        0.32980    0.11150    0.81250    1.000
    C72      C        0.34850    0.04250    0.90590    1.000
    H38      H        0.32140    0.04850    0.94640    1.000
    C73      C        0.39800    0.11450    0.68020    1.000
    C74      C        0.30150    0.88320    0.91500    1.000
    H39      H        0.32060    0.89990    0.86570    1.000
    C75      C        0.44850    0.89500    0.13600    1.000
    H40      H        0.44050    0.92350    0.18350    1.000
    C76      C        0.43370    0.85060    0.99210    1.000
    H41      H        0.41460    0.84660    0.93640    1.000
    C77      C        0.42060    0.99150    0.86680    1.000
    H42      H        0.44430    0.96170    0.87910    1.000
    C78      C        0.42660    0.02900    0.78750    1.000
    H43      H        0.45370    0.02320    0.74710    1.000
    C79      C        0.28280    0.87230    0.07340    1.000
    H44      H        0.28770    0.88260    0.13810    1.000
    O22      O        0.17032    0.74620    0.99470    1.000
    O23      O        0.57341    0.78518    0.16740    1.000
    C80      C        0.35750    0.06720    0.30950    1.000
    O24      O        0.32820    0.09830    0.46510    1.000
    C81      C        0.39550    0.07170    0.25030    1.000
    H45      H        0.42160    0.09780    0.26470    1.000
    C82      C        0.39610    0.03640    0.16470    1.000
    H46      H        0.42160    0.04270    0.12060    1.000
    C83      C        0.32340    0.02800    0.29110    1.000
    H47      H        0.29620    0.02390    0.33190    1.000
    C84      C        0.32800    0.99260    0.21040    1.000
    H48      H        0.30340    0.96320    0.20210    1.000
    Co4      Co       0.11772    0.81472    0.53338    1.000
    Si4      Si       0.13160    0.05434    0.03449    1.000
    O25      O        0.10710    0.85070    0.40180    1.000
    C85      C        0.14190    0.89320    0.40180    1.000
    O26      O        0.31703    0.22302    0.84070    1.000
    C86      C        0.30740    0.22240    0.92900    1.000
    C87      C        0.26600    0.18190    0.95960    1.000
    C88      C        0.23660    0.15470    0.89070    1.000
    H49      H        0.24300    0.16230    0.82570    1.000
    C89      C        0.25480    0.16840    0.05020    1.000
    H50      H        0.27260    0.18670    0.09990    1.000
    O27      O        0.94346    0.26420    0.03270    1.000
    C90      C        0.95250    0.22480    0.09460    1.000
    C91      C        0.99650    0.18380    0.07950    1.000
    C92      C        0.02680    0.18970    0.00440    1.000
    H51      H        0.02160    0.22090    0.95980    1.000
    C93      C        0.01200    0.14570    0.15040    1.000
    H52      H        0.99610    0.14660    0.21010    1.000
    C94      C        0.13860    0.00600    0.14390    1.000
    O28      O        0.13043    0.83936    0.67370    1.000
    C95      C        0.07813    0.10730    0.05200    1.000
    C96      C        0.11940    0.00340    0.92870    1.000
    C97      C        0.18728    0.10250    0.00620    1.000
    C98      C        0.10720    0.92460    0.76650    1.000
    O29      O        0.07163    0.89850    0.61690    1.000
    C99      C        0.14650    0.91830    0.82500    1.000
    H53      H        0.17020    0.88850    0.81250    1.000
    C100     C        0.15150    0.95750    0.90590    1.000
    H54      H        0.17860    0.95150    0.94640    1.000
    C101     C        0.10200    0.88550    0.68020    1.000
    C102     C        0.19850    0.11680    0.91500    1.000
    H55      H        0.17940    0.10010    0.86570    1.000
    C103     C        0.05150    0.10500    0.13600    1.000
    H56      H        0.05950    0.07650    0.18350    1.000
    C104     C        0.06630    0.14940    0.99210    1.000
    H57      H        0.08540    0.15340    0.93640    1.000
    C105     C        0.07940    0.00850    0.86680    1.000
    H58      H        0.05570    0.03830    0.87910    1.000
    C106     C        0.07340    0.97100    0.78750    1.000
    H59      H        0.04630    0.97680    0.74710    1.000
    C107     C        0.21720    0.12770    0.07340    1.000
    H60      H        0.21230    0.11740    0.13810    1.000
    O30      O        0.32968    0.25380    0.99470    1.000
    O31      O        0.92659    0.21482    0.16740    1.000
    C108     C        0.14250    0.93280    0.30950    1.000
    O32      O        0.17180    0.90170    0.46510    1.000
    C109     C        0.10450    0.92830    0.25030    1.000
    H61      H        0.07840    0.90220    0.26470    1.000
    C110     C        0.10390    0.96360    0.16470    1.000
    H62      H        0.07840    0.95730    0.12060    1.000
    C111     C        0.17660    0.97200    0.29110    1.000
    H63      H        0.20380    0.97610    0.33190    1.000
    C112     C        0.17200    0.00740    0.21040    1.000
    H64      H        0.19660    0.03680    0.20210    1.000
    Co5      Co       0.88228    0.31472    0.03338    1.000
    Si5      Si       0.86840    0.55434    0.53449    1.000
    O33      O        0.89290    0.35070    0.90180    1.000
    C113     C        0.85810    0.39320    0.90180    1.000
    O34      O        0.68297    0.72302    0.34070    1.000
    C114     C        0.69260    0.72240    0.42900    1.000
    C115     C        0.73400    0.68190    0.45960    1.000
    C116     C        0.76340    0.65470    0.39070    1.000
    H65      H        0.75700    0.66230    0.32570    1.000
    C117     C        0.74520    0.66840    0.55020    1.000
    H66      H        0.72740    0.68670    0.59990    1.000
    O35      O        0.05654    0.76420    0.53270    1.000
    C118     C        0.04750    0.72480    0.59460    1.000
    C119     C        0.00350    0.68380    0.57950    1.000
    C120     C        0.97320    0.68970    0.50440    1.000
    H67      H        0.97840    0.72090    0.45980    1.000
    C121     C        0.98800    0.64570    0.65040    1.000
    H68      H        0.00390    0.64660    0.71010    1.000
    C122     C        0.86140    0.50600    0.64390    1.000
    O36      O        0.86957    0.33936    0.17370    1.000
    C123     C        0.92187    0.60730    0.55200    1.000
    C124     C        0.88060    0.50340    0.42870    1.000
    C125     C        0.81272    0.60250    0.50620    1.000
    C126     C        0.89280    0.42460    0.26650    1.000
    O37      O        0.92837    0.39850    0.11690    1.000
    C127     C        0.85350    0.41830    0.32500    1.000
    H69      H        0.82980    0.38850    0.31250    1.000
    C128     C        0.84850    0.45750    0.40590    1.000
    H70      H        0.82140    0.45150    0.44640    1.000
    C129     C        0.89800    0.38550    0.18020    1.000
    C130     C        0.80150    0.61680    0.41500    1.000
    H71      H        0.82060    0.60010    0.36570    1.000
    C131     C        0.94850    0.60500    0.63600    1.000
    H72      H        0.94050    0.57650    0.68350    1.000
    C132     C        0.93370    0.64940    0.49210    1.000
    H73      H        0.91460    0.65340    0.43640    1.000
    C133     C        0.92060    0.50850    0.36680    1.000
    H74      H        0.94430    0.53830    0.37910    1.000
    C134     C        0.92660    0.47100    0.28750    1.000
    H75      H        0.95370    0.47680    0.24710    1.000
    C135     C        0.78280    0.62770    0.57340    1.000
    H76      H        0.78770    0.61740    0.63810    1.000
    O38      O        0.67032    0.75380    0.49470    1.000
    O39      O        0.07341    0.71482    0.66740    1.000
    C136     C        0.85750    0.43280    0.80950    1.000
    O40      O        0.82820    0.40170    0.96510    1.000
    C137     C        0.89550    0.42830    0.75030    1.000
    H77      H        0.92160    0.40220    0.76470    1.000
    C138     C        0.89610    0.46360    0.66470    1.000
    H78      H        0.92160    0.45730    0.62060    1.000
    C139     C        0.82340    0.47200    0.79110    1.000
    H79      H        0.79620    0.47610    0.83190    1.000
    C140     C        0.82800    0.50740    0.71040    1.000
    H80      H        0.80340    0.53680    0.70210    1.000
    Co6      Co       0.61772    0.68528    0.03338    1.000
    Si6      Si       0.63160    0.44566    0.53449    1.000
    O41      O        0.60710    0.64930    0.90180    1.000
    C141     C        0.64190    0.60680    0.90180    1.000
    O42      O        0.81703    0.27698    0.34070    1.000
    C142     C        0.80740    0.27760    0.42900    1.000
    C143     C        0.76600    0.31810    0.45960    1.000
    C144     C        0.73660    0.34530    0.39070    1.000
    H81      H        0.74300    0.33770    0.32570    1.000
    C145     C        0.75480    0.33160    0.55020    1.000
    H82      H        0.77260    0.31330    0.59990    1.000
    O43      O        0.44346    0.23580    0.53270    1.000
    C146     C        0.45250    0.27520    0.59460    1.000
    C147     C        0.49650    0.31620    0.57950    1.000
    C148     C        0.52680    0.31030    0.50440    1.000
    H83      H        0.52160    0.27910    0.45980    1.000
    C149     C        0.51200    0.35430    0.65040    1.000
    H84      H        0.49610    0.35340    0.71010    1.000
    C150     C        0.63860    0.49400    0.64390    1.000
    O44      O        0.63043    0.66064    0.17370    1.000
    C151     C        0.57813    0.39270    0.55200    1.000
    C152     C        0.61940    0.49660    0.42870    1.000
    C153     C        0.68728    0.39750    0.50620    1.000
    C154     C        0.60720    0.57540    0.26650    1.000
    O45      O        0.57163    0.60150    0.11690    1.000
    C155     C        0.64650    0.58170    0.32500    1.000
    H85      H        0.67020    0.61150    0.31250    1.000
    C156     C        0.65150    0.54250    0.40590    1.000
    H86      H        0.67860    0.54850    0.44640    1.000
    C157     C        0.60200    0.61450    0.18020    1.000
    C158     C        0.69850    0.38320    0.41500    1.000
    H87      H        0.67940    0.39990    0.36570    1.000
    C159     C        0.55150    0.39500    0.63600    1.000
    H88      H        0.55950    0.42350    0.68350    1.000
    C160     C        0.56630    0.35060    0.49210    1.000
    H89      H        0.58540    0.34660    0.43640    1.000
    C161     C        0.57940    0.49150    0.36680    1.000
    H90      H        0.55570    0.46170    0.37910    1.000
    C162     C        0.57340    0.52900    0.28750    1.000
    H91      H        0.54630    0.52320    0.24710    1.000
    C163     C        0.71720    0.37230    0.57340    1.000
    H92      H        0.71230    0.38260    0.63810    1.000
    O46      O        0.82968    0.24620    0.49470    1.000
    O47      O        0.42659    0.28518    0.66740    1.000
    C164     C        0.64250    0.56720    0.80950    1.000
    O48      O        0.67180    0.59830    0.96510    1.000
    C165     C        0.60450    0.57170    0.75030    1.000
    H93      H        0.57840    0.59780    0.76470    1.000
    C166     C        0.60390    0.53640    0.66470    1.000
    H94      H        0.57840    0.54270    0.62060    1.000
    C167     C        0.67660    0.52800    0.79110    1.000
    H95      H        0.70380    0.52390    0.83190    1.000
    C168     C        0.67200    0.49260    0.71040    1.000
    H96      H        0.69660    0.46320    0.70210    1.000
    Co7      Co       0.61772    0.81472    0.46662    1.000
    Si7      Si       0.63160    0.05434    0.96551    1.000
    O49      O        0.60710    0.85070    0.59820    1.000
    C169     C        0.64190    0.89320    0.59820    1.000
    O50      O        0.81703    0.22302    0.15930    1.000
    C170     C        0.80740    0.22240    0.07100    1.000
    C171     C        0.76600    0.18190    0.04040    1.000
    C172     C        0.73660    0.15470    0.10930    1.000
    H97      H        0.74300    0.16230    0.17430    1.000
    C173     C        0.75480    0.16840    0.94980    1.000
    H98      H        0.77260    0.18670    0.90010    1.000
    O51      O        0.44346    0.26420    0.96730    1.000
    C174     C        0.45250    0.22480    0.90540    1.000
    C175     C        0.49650    0.18380    0.92050    1.000
    C176     C        0.52680    0.18970    0.99560    1.000
    H99      H        0.52160    0.22090    0.04020    1.000
    C177     C        0.51200    0.14570    0.84960    1.000
    H100     H        0.49610    0.14660    0.78990    1.000
    C178     C        0.63860    0.00600    0.85610    1.000
    O52      O        0.63043    0.83936    0.32630    1.000
    C179     C        0.57813    0.10730    0.94800    1.000
    C180     C        0.61940    0.00340    0.07130    1.000
    C181     C        0.68728    0.10250    0.99380    1.000
    C182     C        0.60720    0.92460    0.23350    1.000
    O53      O        0.57163    0.89850    0.38310    1.000
    C183     C        0.64650    0.91830    0.17500    1.000
    H101     H        0.67020    0.88850    0.18750    1.000
    C184     C        0.65150    0.95750    0.09410    1.000
    H102     H        0.67860    0.95150    0.05360    1.000
    C185     C        0.60200    0.88550    0.31980    1.000
    C186     C        0.69850    0.11680    0.08500    1.000
    H103     H        0.67940    0.10010    0.13430    1.000
    C187     C        0.55150    0.10500    0.86400    1.000
    H104     H        0.55950    0.07650    0.81650    1.000
    C188     C        0.56630    0.14940    0.00790    1.000
    H105     H        0.58540    0.15340    0.06360    1.000
    C189     C        0.57940    0.00850    0.13320    1.000
    H106     H        0.55570    0.03830    0.12090    1.000
    C190     C        0.57340    0.97100    0.21250    1.000
    H107     H        0.54630    0.97680    0.25290    1.000
    C191     C        0.71720    0.12770    0.92660    1.000
    H108     H        0.71230    0.11740    0.86190    1.000
    O54      O        0.82968    0.25380    0.00530    1.000
    O55      O        0.42659    0.21482    0.83260    1.000
    C192     C        0.64250    0.93280    0.69050    1.000
    O56      O        0.67180    0.90170    0.53490    1.000
    C193     C        0.60450    0.92830    0.74970    1.000
    H109     H        0.57840    0.90220    0.73530    1.000
    C194     C        0.60390    0.96360    0.83530    1.000
    H110     H        0.57840    0.95730    0.87940    1.000
    C195     C        0.67660    0.97200    0.70890    1.000
    H111     H        0.70380    0.97610    0.66810    1.000
    C196     C        0.67200    0.00740    0.78960    1.000
    H112     H        0.69660    0.03680    0.79790    1.000
    Co8      Co       0.88228    0.18528    0.46662    1.000
    Si8      Si       0.86840    0.94566    0.96551    1.000
    O57      O        0.89290    0.14930    0.59820    1.000
    C197     C        0.85810    0.10680    0.59820    1.000
    O58      O        0.68297    0.77698    0.15930    1.000
    C198     C        0.69260    0.77760    0.07100    1.000
    C199     C        0.73400    0.81810    0.04040    1.000
    C200     C        0.76340    0.84530    0.10930    1.000
    H113     H        0.75700    0.83770    0.17430    1.000
    C201     C        0.74520    0.83160    0.94980    1.000
    H114     H        0.72740    0.81330    0.90010    1.000
    O59      O        0.05654    0.73580    0.96730    1.000
    C202     C        0.04750    0.77520    0.90540    1.000
    C203     C        0.00350    0.81620    0.92050    1.000
    C204     C        0.97320    0.81030    0.99560    1.000
    H115     H        0.97840    0.77910    0.04020    1.000
    C205     C        0.98800    0.85430    0.84960    1.000
    H116     H        0.00390    0.85340    0.78990    1.000
    C206     C        0.86140    0.99400    0.85610    1.000
    O60      O        0.86957    0.16064    0.32630    1.000
    C207     C        0.92187    0.89270    0.94800    1.000
    C208     C        0.88060    0.99660    0.07130    1.000
    C209     C        0.81272    0.89750    0.99380    1.000
    C210     C        0.89280    0.07540    0.23350    1.000
    O61      O        0.92837    0.10150    0.38310    1.000
    C211     C        0.85350    0.08170    0.17500    1.000
    H117     H        0.82980    0.11150    0.18750    1.000
    C212     C        0.84850    0.04250    0.09410    1.000
    H118     H        0.82140    0.04850    0.05360    1.000
    C213     C        0.89800    0.11450    0.31980    1.000
    C214     C        0.80150    0.88320    0.08500    1.000
    H119     H        0.82060    0.89990    0.13430    1.000
    C215     C        0.94850    0.89500    0.86400    1.000
    H120     H        0.94050    0.92350    0.81650    1.000
    C216     C        0.93370    0.85060    0.00790    1.000
    H121     H        0.91460    0.84660    0.06360    1.000
    C217     C        0.92060    0.99150    0.13320    1.000
    H122     H        0.94430    0.96170    0.12090    1.000
    C218     C        0.92660    0.02900    0.21250    1.000
    H123     H        0.95370    0.02320    0.25290    1.000
    C219     C        0.78280    0.87230    0.92660    1.000
    H124     H        0.78770    0.88260    0.86190    1.000
    O62      O        0.67032    0.74620    0.00530    1.000
    O63      O        0.07341    0.78518    0.83260    1.000
    C220     C        0.85750    0.06720    0.69050    1.000
    O64      O        0.82820    0.09830    0.53490    1.000
    C221     C        0.89550    0.07170    0.74970    1.000
    H125     H        0.92160    0.09780    0.73530    1.000
    C222     C        0.89610    0.03640    0.83530    1.000
    H126     H        0.92160    0.04270    0.87940    1.000
    C223     C        0.82340    0.02800    0.70890    1.000
    H127     H        0.79620    0.02390    0.66810    1.000
    C224     C        0.82800    0.99260    0.78960    1.000
    H128     H        0.80340    0.96320    0.79790    1.000
    Co9      Co       0.12840    0.75000    0.75000    1.000
    Co10     Co       0.37160    0.25000    0.75000    1.000
    Co11     Co       0.87160    0.25000    0.25000    1.000
    Co12     Co       0.62840    0.75000    0.25000    1.000
