# CIF file generated by openbabel 3.1.0, see https://openbabel.org
data_I
_chemical_name_common 'image0'
_cell_length_a 7.9341
_cell_length_b 11.55
_cell_length_c 18.1157
_cell_angle_alpha 90
_cell_angle_beta 90
_cell_angle_gamma 90
_space_group_name_H-M_alt 'P 1'
_space_group_name_Hall 'P 1'
loop_
    _symmetry_equiv_pos_as_xyz
    x,y,z
loop_
    _atom_site_label
    _atom_site_type_symbol
    _atom_site_fract_x
    _atom_site_fract_y
    _atom_site_fract_z
    _atom_site_occupancy
    C1       C        0.30500    0.92750    0.26843    1.000
    C2       C        0.38740    0.82110    0.26400    1.000
    H1       H        0.42480    0.78380    0.30780    1.000
    C3       C        0.41480    0.76960    0.19625    1.000
    H2       H        0.47300    0.69780    0.19370    1.000
    C4       C        0.35840    0.82140    0.13208    1.000
    C5       C        0.27490    0.92760    0.13660    1.000
    H3       H        0.23560    0.96410    0.09290    1.000
    C6       C        0.24910    0.98000    0.20410    1.000
    H4       H        0.19260    0.05240    0.20650    1.000
    C7       C        0.38480    0.77070    0.05919    1.000
    N1       N        0.27350    0.98230    0.33691    1.000
    H5       H        0.29000    0.05000    0.33300    1.000
    H6       H        0.31700    0.95500    0.36800    1.000
    N2       N        0.43820    0.66960    0.03904    1.000
    C8       C        0.69500    0.07250    0.26843    1.000
    C9       C        0.61260    0.17890    0.26400    1.000
    H7       H        0.57520    0.21620    0.30780    1.000
    C10      C        0.58520    0.23040    0.19625    1.000
    H8       H        0.52700    0.30220    0.19370    1.000
    C11      C        0.64160    0.17860    0.13208    1.000
    C12      C        0.72510    0.07240    0.13660    1.000
    H9       H        0.76440    0.03590    0.09290    1.000
    C13      C        0.75090    0.02000    0.20410    1.000
    H10      H        0.80740    0.94760    0.20650    1.000
    C14      C        0.61520    0.22930    0.05919    1.000
    N3       N        0.72650    0.01770    0.33691    1.000
    H11      H        0.71000    0.95000    0.33300    1.000
    H12      H        0.68300    0.04500    0.36800    1.000
    N4       N        0.56180    0.33040    0.03904    1.000
    C15      C        0.69500    0.07250    0.73157    1.000
    C16      C        0.61260    0.17890    0.73600    1.000
    H13      H        0.57520    0.21620    0.69220    1.000
    C17      C        0.58520    0.23040    0.80375    1.000
    H14      H        0.52700    0.30220    0.80630    1.000
    C18      C        0.64160    0.17860    0.86792    1.000
    C19      C        0.72510    0.07240    0.86340    1.000
    H15      H        0.76440    0.03590    0.90710    1.000
    C20      C        0.75090    0.02000    0.79590    1.000
    H16      H        0.80740    0.94760    0.79350    1.000
    C21      C        0.61520    0.22930    0.94081    1.000
    N5       N        0.72650    0.01770    0.66309    1.000
    H17      H        0.71000    0.95000    0.66700    1.000
    H18      H        0.68300    0.04500    0.63200    1.000
    N6       N        0.56180    0.33040    0.96096    1.000
    C22      C        0.30500    0.92750    0.73157    1.000
    C23      C        0.38740    0.82110    0.73600    1.000
    H19      H        0.42480    0.78380    0.69220    1.000
    C24      C        0.41480    0.76960    0.80375    1.000
    H20      H        0.47300    0.69780    0.80630    1.000
    C25      C        0.35840    0.82140    0.86792    1.000
    C26      C        0.27490    0.92760    0.86340    1.000
    H21      H        0.23560    0.96410    0.90710    1.000
    C27      C        0.24910    0.98000    0.79590    1.000
    H22      H        0.19260    0.05240    0.79350    1.000
    C28      C        0.38480    0.77070    0.94081    1.000
    N7       N        0.27350    0.98230    0.66309    1.000
    H23      H        0.29000    0.05000    0.66700    1.000
    H24      H        0.31700    0.95500    0.63200    1.000
    N8       N        0.43820    0.66960    0.96096    1.000
    Ag1      Ag       0.50000    0.50000    0.09898    1.000
    Ag2      Ag       0.50000    0.50000    0.90102    1.000
    O1       O        0.35000    0.83900    0.00000    1.000
    O2       O        0.65000    0.16100    0.00000    1.000
    C29      C        0.19500    0.42750    0.23157    1.000
    C30      C        0.11260    0.32110    0.23600    1.000
    H25      H        0.07520    0.28380    0.19220    1.000
    C31      C        0.08520    0.26960    0.30375    1.000
    H26      H        0.02700    0.19780    0.30630    1.000
    C32      C        0.14160    0.32140    0.36792    1.000
    C33      C        0.22510    0.42760    0.36340    1.000
    H27      H        0.26440    0.46410    0.40710    1.000
    C34      C        0.25090    0.48000    0.29590    1.000
    H28      H        0.30740    0.55240    0.29350    1.000
    C35      C        0.11520    0.27070    0.44081    1.000
    N9       N        0.22650    0.48230    0.16309    1.000
    H29      H        0.21000    0.55000    0.16700    1.000
    H30      H        0.18300    0.45500    0.13200    1.000
    N10      N        0.06180    0.16960    0.46096    1.000
    C36      C        0.80500    0.57250    0.23157    1.000
    C37      C        0.88740    0.67890    0.23600    1.000
    H31      H        0.92480    0.71620    0.19220    1.000
    C38      C        0.91480    0.73040    0.30375    1.000
    H32      H        0.97300    0.80220    0.30630    1.000
    C39      C        0.85840    0.67860    0.36792    1.000
    C40      C        0.77490    0.57240    0.36340    1.000
    H33      H        0.73560    0.53590    0.40710    1.000
    C41      C        0.74910    0.52000    0.29590    1.000
    H34      H        0.69260    0.44760    0.29350    1.000
    C42      C        0.88480    0.72930    0.44081    1.000
    N11      N        0.77350    0.51770    0.16309    1.000
    H35      H        0.79000    0.45000    0.16700    1.000
    H36      H        0.81700    0.54500    0.13200    1.000
    N12      N        0.93820    0.83040    0.46096    1.000
    C43      C        0.80500    0.57250    0.76843    1.000
    C44      C        0.88740    0.67890    0.76400    1.000
    H37      H        0.92480    0.71620    0.80780    1.000
    C45      C        0.91480    0.73040    0.69625    1.000
    H38      H        0.97300    0.80220    0.69370    1.000
    C46      C        0.85840    0.67860    0.63208    1.000
    C47      C        0.77490    0.57240    0.63660    1.000
    H39      H        0.73560    0.53590    0.59290    1.000
    C48      C        0.74910    0.52000    0.70410    1.000
    H40      H        0.69260    0.44760    0.70650    1.000
    C49      C        0.88480    0.72930    0.55919    1.000
    N13      N        0.77350    0.51770    0.83691    1.000
    H41      H        0.79000    0.45000    0.83300    1.000
    H42      H        0.81700    0.54500    0.86800    1.000
    N14      N        0.93820    0.83040    0.53904    1.000
    C50      C        0.19500    0.42750    0.76843    1.000
    C51      C        0.11260    0.32110    0.76400    1.000
    H43      H        0.07520    0.28380    0.80780    1.000
    C52      C        0.08520    0.26960    0.69625    1.000
    H44      H        0.02700    0.19780    0.69370    1.000
    C53      C        0.14160    0.32140    0.63208    1.000
    C54      C        0.22510    0.42760    0.63660    1.000
    H45      H        0.26440    0.46410    0.59290    1.000
    C55      C        0.25090    0.48000    0.70410    1.000
    H46      H        0.30740    0.55240    0.70650    1.000
    C56      C        0.11520    0.27070    0.55919    1.000
    N15      N        0.22650    0.48230    0.83691    1.000
    H47      H        0.21000    0.55000    0.83300    1.000
    H48      H        0.18300    0.45500    0.86800    1.000
    N16      N        0.06180    0.16960    0.53904    1.000
    Ag3      Ag       0.00000    0.00000    0.40102    1.000
    Ag4      Ag       0.00000    0.00000    0.59898    1.000
    O3       O        0.15000    0.33900    0.50000    1.000
    O4       O        0.85000    0.66100    0.50000    1.000
