# CIF file generated by openbabel 3.1.0, see https://openbabel.org
data_I
_chemical_name_common 'image0'
_cell_length_a 12.7544
_cell_length_b 10.6828
_cell_length_c 15.4642
_cell_angle_alpha 90
_cell_angle_beta 90
_cell_angle_gamma 90
_space_group_name_H-M_alt 'P 1'
_space_group_name_Hall 'P 1'
loop_
    _symmetry_equiv_pos_as_xyz
    x,y,z
loop_
    _atom_site_label
    _atom_site_type_symbol
    _atom_site_fract_x
    _atom_site_fract_y
    _atom_site_fract_z
    _atom_site_occupancy
    O1       O        0.36050    0.25810    0.84720    1.000
    O2       O        0.41280    0.40770    0.75770    1.000
    O3       O        0.40800    0.14200    0.43690    1.000
    O4       O        0.38330    0.95460    0.50320    1.000
    C1       C        0.30610    0.26380    0.69710    1.000
    C2       C        0.36190    0.20620    0.63080    1.000
    H1       H        0.43480    0.20790    0.63040    1.000
    C3       C        0.30580    0.14460    0.56340    1.000
    C4       C        0.37470    0.32810    0.76490    1.000
    C5       C        0.37180    0.08990    0.49060    1.000
    O5       O        0.15460    0.89720    0.31770    1.000
    O6       O        0.02100    0.84280    0.24680    1.000
    O7       O        0.03300    0.63850    0.97870    1.000
    O8       O        0.16240    0.52240    0.93670    1.000
    O9       O        0.36050    0.75810    0.34720    1.000
    O10      O        0.41280    0.90770    0.25770    1.000
    O11      O        0.40800    0.64200    0.93690    1.000
    O12      O        0.38330    0.45460    0.00320    1.000
    C6       C        0.30610    0.76380    0.19710    1.000
    C7       C        0.36190    0.70620    0.13080    1.000
    H2       H        0.43480    0.70790    0.13040    1.000
    C8       C        0.30580    0.64460    0.06340    1.000
    C9       C        0.37470    0.82810    0.26490    1.000
    C10      C        0.37180    0.58990    0.99060    1.000
    O13      O        0.15460    0.39720    0.81770    1.000
    O14      O        0.02100    0.34280    0.74680    1.000
    O15      O        0.03300    0.13850    0.47870    1.000
    O16      O        0.16240    0.02240    0.43670    1.000
    O17      O        0.63950    0.74190    0.84720    1.000
    O18      O        0.58720    0.59230    0.75770    1.000
    O19      O        0.59200    0.85800    0.43690    1.000
    O20      O        0.61670    0.04540    0.50320    1.000
    C11      C        0.69390    0.73620    0.69710    1.000
    C12      C        0.63810    0.79380    0.63080    1.000
    H3       H        0.56520    0.79210    0.63040    1.000
    C13      C        0.69420    0.85540    0.56340    1.000
    C14      C        0.62530    0.67190    0.76490    1.000
    C15      C        0.62820    0.91010    0.49060    1.000
    O21      O        0.84540    0.10280    0.31770    1.000
    O22      O        0.97900    0.15720    0.24680    1.000
    O23      O        0.96700    0.36150    0.97870    1.000
    O24      O        0.83760    0.47760    0.93670    1.000
    O25      O        0.63950    0.24190    0.34720    1.000
    O26      O        0.58720    0.09230    0.25770    1.000
    O27      O        0.59200    0.35800    0.93690    1.000
    O28      O        0.61670    0.54540    0.00320    1.000
    C16      C        0.69390    0.23620    0.19710    1.000
    C17      C        0.63810    0.29380    0.13080    1.000
    H4       H        0.56520    0.29210    0.13040    1.000
    C18      C        0.69420    0.35540    0.06340    1.000
    C19      C        0.62530    0.17190    0.26490    1.000
    C20      C        0.62820    0.41010    0.99060    1.000
    O29      O        0.84540    0.60280    0.81770    1.000
    O30      O        0.97900    0.65720    0.74680    1.000
    O31      O        0.96700    0.86150    0.47870    1.000
    O32      O        0.83760    0.97760    0.43670    1.000
    O33      O        0.86050    0.74190    0.84720    1.000
    O34      O        0.91280    0.59230    0.75770    1.000
    O35      O        0.90800    0.85800    0.43690    1.000
    O36      O        0.88330    0.04540    0.50320    1.000
    C21      C        0.80610    0.73620    0.69710    1.000
    C22      C        0.86190    0.79380    0.63080    1.000
    H5       H        0.93480    0.79210    0.63040    1.000
    C23      C        0.80580    0.85540    0.56340    1.000
    C24      C        0.87470    0.67190    0.76490    1.000
    C25      C        0.87180    0.91010    0.49060    1.000
    O37      O        0.65460    0.10280    0.31770    1.000
    O38      O        0.52100    0.15720    0.24680    1.000
    O39      O        0.53300    0.36150    0.97870    1.000
    O40      O        0.66240    0.47760    0.93670    1.000
    O41      O        0.86050    0.24190    0.34720    1.000
    O42      O        0.91280    0.09230    0.25770    1.000
    O43      O        0.90800    0.35800    0.93690    1.000
    O44      O        0.88330    0.54540    0.00320    1.000
    C26      C        0.80610    0.23620    0.19710    1.000
    C27      C        0.86190    0.29380    0.13080    1.000
    H6       H        0.93480    0.29210    0.13040    1.000
    C28      C        0.80580    0.35540    0.06340    1.000
    C29      C        0.87470    0.17190    0.26490    1.000
    C30      C        0.87180    0.41010    0.99060    1.000
    O45      O        0.65460    0.60280    0.81770    1.000
    O46      O        0.52100    0.65720    0.74680    1.000
    O47      O        0.53300    0.86150    0.47870    1.000
    O48      O        0.66240    0.97760    0.43670    1.000
    O49      O        0.13950    0.25810    0.84720    1.000
    O50      O        0.08720    0.40770    0.75770    1.000
    O51      O        0.09200    0.14200    0.43690    1.000
    O52      O        0.11670    0.95460    0.50320    1.000
    C31      C        0.19390    0.26380    0.69710    1.000
    C32      C        0.13810    0.20620    0.63080    1.000
    H7       H        0.06520    0.20790    0.63040    1.000
    C33      C        0.19420    0.14460    0.56340    1.000
    C34      C        0.12530    0.32810    0.76490    1.000
    C35      C        0.12820    0.08990    0.49060    1.000
    O53      O        0.34540    0.89720    0.31770    1.000
    O54      O        0.47900    0.84280    0.24680    1.000
    O55      O        0.46700    0.63850    0.97870    1.000
    O56      O        0.33760    0.52240    0.93670    1.000
    O57      O        0.13950    0.75810    0.34720    1.000
    O58      O        0.08720    0.90770    0.25770    1.000
    O59      O        0.09200    0.64200    0.93690    1.000
    O60      O        0.11670    0.45460    0.00320    1.000
    C36      C        0.19390    0.76380    0.19710    1.000
    C37      C        0.13810    0.70620    0.13080    1.000
    H8       H        0.06520    0.70790    0.13040    1.000
    C38      C        0.19420    0.64460    0.06340    1.000
    C39      C        0.12530    0.82810    0.26490    1.000
    C40      C        0.12820    0.58990    0.99060    1.000
    O61      O        0.34540    0.39720    0.81770    1.000
    O62      O        0.47900    0.34280    0.74680    1.000
    O63      O        0.46700    0.13850    0.47870    1.000
    O64      O        0.33760    0.02240    0.43670    1.000
    Cd1      Cd       0.25000    0.33177    0.94619    1.000
    Cd2      Cd       0.25000    0.83177    0.44619    1.000
    Cd3      Cd       0.75000    0.66823    0.94619    1.000
    Cd4      Cd       0.75000    0.16823    0.44619    1.000
    Cd5      Cd       0.50000    0.50000    0.86151    1.000
    Cd6      Cd       0.50000    0.00000    0.36151    1.000
    Cd7      Cd       0.00000    0.50000    0.86151    1.000
    Cd8      Cd       0.00000    0.00000    0.36151    1.000
