data_functionalizedCrystal
_audit_creation_method	'EQeq! by Chris Wilmer'
_symmetry_space_group_name_H-M	'P1'
_symmetry_Int_Tables_number	1
_symmetry_cell_setting	triclinic
loop_
_symmetry_equiv_pos_as_xyz
  x,y,z
_cell_length_a	17.327
_cell_length_b	17.327
_cell_length_c	7.7288
_cell_angle_alpha	90
_cell_angle_beta	90
_cell_angle_gamma	90
loop_
_atom_site_label
_atom_site_type_symbol
_atom_site_fract_x
_atom_site_fract_y
_atom_site_fract_z
_atom_site_charge
Mof_N 	N 	0.00159	0.3423	0.9624	-0.294
Mof_C 	C 	0.9946	0.4529	0.7029	0.256
Mof_N 	N 	0.98823	0.51111	0.5726	-0.093
Mof_C 	C 	0.9425	0.454	0.8372	-0.255
Mof_H 	H 	0.9041	0.493	0.8438	0.121
Mof_C 	C 	0.9471	0.3973	0.9619	0.188
Mof_H 	H 	0.9098	0.3971	0.052	-0.042
Mof_C 	C 	0.0535	0.3441	0.8349	0.135
Mof_H 	H 	0.0932	0.3064	0.8352	-0.033
Mof_C 	C 	0.0528	0.3976	0.7031	-0.289
Mof_H 	H 	0.091	0.3967	0.6149	0.13
Mof_N 	N 	0.50159	0.8423	0.4624	-0.249
Mof_C 	C 	0.4946	0.9529	0.2029	0.159
Mof_N 	N 	0.48823	0.01111	0.0726	-0.105
Mof_C 	C 	0.4425	0.954	0.3372	-0.192
Mof_H 	H 	0.4041	0.993	0.3438	0.095
Mof_C 	C 	0.4471	0.8973	0.4619	0.101
Mof_H 	H 	0.4098	0.8971	0.552	-0.021
Mof_C 	C 	0.5535	0.8441	0.3349	0.097
Mof_H 	H 	0.5932	0.8064	0.3352	-0.017
Mof_C 	C 	0.5528	0.8976	0.2031	-0.185
Mof_H 	H 	0.591	0.8967	0.1149	0.101
Mof_N 	N 	0.49841	0.6577	0.4624	-0.25
Mof_C 	C 	0.5054	0.5471	0.2029	0.161
Mof_N 	N 	0.51177	0.48889	0.0726	-0.107
Mof_C 	C 	0.5575	0.546	0.3372	-0.192
Mof_H 	H 	0.5959	0.507	0.3438	0.096
Mof_C 	C 	0.5529	0.6027	0.4619	0.102
Mof_H 	H 	0.5902	0.6029	0.552	-0.021
Mof_C 	C 	0.4465	0.6559	0.3349	0.097
Mof_H 	H 	0.4068	0.6936	0.3352	-0.017
Mof_C 	C 	0.4472	0.6024	0.2031	-0.186
Mof_H 	H 	0.409	0.6033	0.1149	0.102
Mof_N 	N 	0.99841	0.1577	0.9624	-0.198
Mof_C 	C 	0.0054	0.0471	0.7029	0.068
Mof_N 	N 	0.01177	0.98889	0.5726	-0.12
Mof_C 	C 	0.0575	0.046	0.8372	-0.129
Mof_H 	H 	0.0959	0.007	0.8438	0.072
Mof_C 	C 	0.0529	0.1027	0.9619	0.017
Mof_H 	H 	0.0902	0.1029	0.052	0
Mof_C 	C 	0.9465	0.1559	0.8349	0.06
Mof_H 	H 	0.9068	0.1936	0.8352	0.001
Mof_C 	C 	0.9472	0.1024	0.7031	-0.081
Mof_H 	H 	0.909	0.1033	0.6149	0.074
Mof_N 	N 	0.4077	0.25159	0.2124	-0.249
Mof_C 	C 	0.2971	0.2446	0.9529	0.161
Mof_N 	N 	0.23889	0.23823	0.8226	-0.107
Mof_C 	C 	0.296	0.1925	0.0872	-0.193
Mof_H 	H 	0.257	0.1541	0.0938	0.095
Mof_C 	C 	0.3527	0.1971	0.2119	0.102
Mof_H 	H 	0.3529	0.1598	0.302	-0.021
Mof_C 	C 	0.4059	0.3035	0.0849	0.097
Mof_H 	H 	0.4436	0.3432	0.0852	-0.017
Mof_C 	C 	0.3524	0.3028	0.9531	-0.185
Mof_H 	H 	0.3533	0.341	0.8649	0.101
Mof_N 	N 	0.9077	0.75159	0.7124	-0.239
Mof_C 	C 	0.7971	0.7446	0.4529	0.16
Mof_N 	N 	0.73889	0.73823	0.3226	-0.107
Mof_C 	C 	0.796	0.6925	0.5872	-0.19
Mof_H 	H 	0.757	0.6541	0.5938	0.096
Mof_C 	C 	0.8527	0.6971	0.7119	0.104
Mof_H 	H 	0.8529	0.6598	0.802	-0.018
Mof_C 	C 	0.9059	0.8035	0.5849	0.099
Mof_H 	H 	0.9436	0.8432	0.5852	-0.003
Mof_C 	C 	0.8524	0.8028	0.4531	-0.182
Mof_H 	H 	0.8533	0.841	0.3649	0.103
Mof_N 	N 	0.0923	0.74841	0.7124	-0.255
Mof_C 	C 	0.2029	0.7554	0.4529	0.161
Mof_N 	N 	0.26111	0.76177	0.3226	-0.107
Mof_C 	C 	0.204	0.8075	0.5872	-0.194
Mof_H 	H 	0.243	0.8459	0.5938	0.096
Mof_C 	C 	0.1473	0.8029	0.7119	0.1
Mof_H 	H 	0.1471	0.8402	0.802	-0.023
Mof_C 	C 	0.0941	0.6965	0.5849	0.095
Mof_H 	H 	0.0564	0.6568	0.5852	-0.029
Mof_C 	C 	0.1476	0.6972	0.4531	-0.189
Mof_H 	H 	0.1467	0.659	0.3649	0.101
Mof_N 	N 	0.5923	0.24841	0.2124	-0.25
Mof_C 	C 	0.7029	0.2554	0.9529	0.162
Mof_N 	N 	0.76111	0.26177	0.8226	-0.106
Mof_C 	C 	0.704	0.3075	0.0872	-0.194
Mof_H 	H 	0.743	0.3459	0.0938	0.098
Mof_C 	C 	0.6473	0.3029	0.2119	0.102
Mof_H 	H 	0.6471	0.3402	0.302	-0.021
Mof_C 	C 	0.5941	0.1965	0.0849	0.097
Mof_H 	H 	0.5564	0.1568	0.0852	-0.016
Mof_C 	C 	0.6476	0.1972	0.9531	-0.185
Mof_H 	H 	0.6467	0.159	0.8649	0.102
Mof_N 	N 	0.99841	0.6577	0.0376	-0.199
Mof_C 	C 	0.0054	0.5471	0.2971	0.069
Mof_N 	N 	0.01177	0.48889	0.4274	-0.12
Mof_C 	C 	0.0575	0.546	0.1628	-0.13
Mof_H 	H 	0.0959	0.507	0.1562	0.072
Mof_C 	C 	0.0529	0.6027	0.0381	0.018
Mof_H 	H 	0.0902	0.6029	0.948	-0
Mof_C 	C 	0.9465	0.6559	0.1651	0.06
Mof_H 	H 	0.9068	0.6936	0.1648	0.001
Mof_C 	C 	0.9472	0.6024	0.2969	-0.083
Mof_H 	H 	0.909	0.6033	0.3851	0.074
Mof_N 	N 	0.49841	0.1577	0.5376	-0.25
Mof_C 	C 	0.5054	0.0471	0.7971	0.164
Mof_N 	N 	0.51177	0.98889	0.9274	-0.109
Mof_C 	C 	0.5575	0.046	0.6628	-0.194
Mof_H 	H 	0.5959	0.007	0.6562	0.098
Mof_C 	C 	0.5529	0.1027	0.5381	0.103
Mof_H 	H 	0.5902	0.1029	0.448	-0.021
Mof_C 	C 	0.4465	0.1559	0.6651	0.098
Mof_H 	H 	0.4068	0.1936	0.6648	-0.017
Mof_C 	C 	0.4472	0.1024	0.7969	-0.187
Mof_H 	H 	0.409	0.1033	0.8851	0.103
Mof_N 	N 	0.50159	0.3423	0.5376	-0.25
Mof_C 	C 	0.4946	0.4529	0.7971	0.161
Mof_N 	N 	0.48823	0.51111	0.9274	-0.107
Mof_C 	C 	0.4425	0.454	0.6628	-0.192
Mof_H 	H 	0.4041	0.493	0.6562	0.096
Mof_C 	C 	0.4471	0.3973	0.5381	0.102
Mof_H 	H 	0.4098	0.3971	0.448	-0.021
Mof_C 	C 	0.5535	0.3441	0.6651	0.098
Mof_H 	H 	0.5932	0.3064	0.6648	-0.017
Mof_C 	C 	0.5528	0.3976	0.7969	-0.185
Mof_H 	H 	0.591	0.3967	0.8851	0.102
Mof_N 	N 	0.00159	0.8423	0.0376	-0.293
Mof_C 	C 	0.9946	0.9529	0.2971	0.247
Mof_N 	N 	0.98823	0.01111	0.4274	-0.091
Mof_C 	C 	0.9425	0.954	0.1628	-0.252
Mof_H 	H 	0.9041	0.993	0.1562	0.119
Mof_C 	C 	0.9471	0.8973	0.0381	0.185
Mof_H 	H 	0.9098	0.8971	0.948	-0.041
Mof_C 	C 	0.0535	0.8441	0.1651	0.133
Mof_H 	H 	0.0932	0.8064	0.1648	-0.032
Mof_C 	C 	0.0528	0.8976	0.2969	-0.283
Mof_H 	H 	0.091	0.8967	0.3851	0.128
Mof_N 	N 	0.5923	0.74841	0.7876	-0.25
Mof_C 	C 	0.7029	0.7554	0.0471	0.162
Mof_N 	N 	0.76111	0.76177	0.1774	-0.106
Mof_C 	C 	0.704	0.8075	0.9128	-0.194
Mof_H 	H 	0.743	0.8459	0.9062	0.097
Mof_C 	C 	0.6473	0.8029	0.7881	0.102
Mof_H 	H 	0.6471	0.8402	0.698	-0.021
Mof_C 	C 	0.5941	0.6965	0.9151	0.097
Mof_H 	H 	0.5564	0.6568	0.9148	-0.017
Mof_C 	C 	0.6476	0.6972	0.0469	-0.185
Mof_H 	H 	0.6467	0.659	0.1351	0.102
Mof_N 	N 	0.0923	0.24841	0.2876	-0.255
Mof_C 	C 	0.2029	0.2554	0.5471	0.161
Mof_N 	N 	0.26111	0.26177	0.6774	-0.107
Mof_C 	C 	0.204	0.3075	0.4128	-0.194
Mof_H 	H 	0.243	0.3459	0.4062	0.096
Mof_C 	C 	0.1473	0.3029	0.2881	0.1
Mof_H 	H 	0.1471	0.3402	0.198	-0.022
Mof_C 	C 	0.0941	0.1965	0.4151	0.095
Mof_H 	H 	0.0564	0.1568	0.4148	-0.029
Mof_C 	C 	0.1476	0.1972	0.5469	-0.189
Mof_H 	H 	0.1467	0.159	0.6351	0.101
Mof_N 	N 	0.9077	0.25159	0.2876	-0.238
Mof_C 	C 	0.7971	0.2446	0.5471	0.16
Mof_N 	N 	0.73889	0.23823	0.6774	-0.107
Mof_C 	C 	0.796	0.1925	0.4128	-0.19
Mof_H 	H 	0.757	0.1541	0.4062	0.096
Mof_C 	C 	0.8527	0.1971	0.2881	0.104
Mof_H 	H 	0.8529	0.1598	0.198	-0.018
Mof_C 	C 	0.9059	0.3035	0.4151	0.099
Mof_H 	H 	0.9436	0.3432	0.4148	-0.003
Mof_C 	C 	0.8524	0.3028	0.5469	-0.181
Mof_H 	H 	0.8533	0.341	0.6351	0.103
Mof_N 	N 	0.4077	0.75159	0.7876	-0.249
Mof_C 	C 	0.2971	0.7446	0.0471	0.161
Mof_N 	N 	0.23889	0.73823	0.1774	-0.107
Mof_C 	C 	0.296	0.6925	0.9128	-0.193
Mof_H 	H 	0.257	0.6541	0.9062	0.095
Mof_C 	C 	0.3527	0.6971	0.7881	0.102
Mof_H 	H 	0.3529	0.6598	0.698	-0.021
Mof_C 	C 	0.4059	0.8035	0.9151	0.096
Mof_H 	H 	0.4436	0.8432	0.9148	-0.017
Mof_C 	C 	0.3524	0.8028	0.0469	-0.184
Mof_H 	H 	0.3533	0.841	0.1351	0.101
Mof_Cu	Cu	2.24888e-33	0.25	0.125	0.835
Mof_Cu	Cu	0.5	0.75	0.625	0.855
Mof_Cu	Cu	0.5	0.25	0.375	0.855
Mof_Cu	Cu	1.46338e-33	0.75	0.875	0.836
_end
