data_functionalizedCrystal
_audit_creation_method	'EQeq! by Chris Wilmer'
_symmetry_space_group_name_H-M	'P1'
_symmetry_Int_Tables_number	1
_symmetry_cell_setting	triclinic
loop_
_symmetry_equiv_pos_as_xyz
  x,y,z
_cell_length_a	18.6103
_cell_length_b	18.6103
_cell_length_c	18.6103
_cell_angle_alpha	60
_cell_angle_beta	60
_cell_angle_gamma	60
loop_
_atom_site_label
_atom_site_type_symbol
_atom_site_fract_x
_atom_site_fract_y
_atom_site_fract_z
_atom_site_charge
Mof_Cu	Cu	0.5	0.0704	0.9296	0.904
Mof_Cu	Cu	0.0704	0.5	0.5	0.905
Mof_Cu	Cu	0.9296	0.5	0.5	0.905
Mof_Cu	Cu	0.5	0.9296	0.0704	0.904
Mof_Cu	Cu	0.5	0.9296	0.5	0.905
Mof_Cu	Cu	0.0704	0.5	0.9296	0.904
Mof_Cu	Cu	0.9296	0.5	0.0704	0.905
Mof_Cu	Cu	0.5	0.0704	0.5	0.906
Mof_Cu	Cu	0.5	0.5	0.0704	0.906
Mof_Cu	Cu	0.0704	0.9296	0.5	0.905
Mof_Cu	Cu	0.9296	0.0704	0.5	0.905
Mof_Cu	Cu	0.5	0.5	0.9296	0.906
Mof_H 	H 	0.4658	0.9894	0.7724	0.044
Mof_H 	H 	0.9894	0.4658	0.7724	0.044
Mof_H 	H 	0.7724	0.7724	0.4658	0.045
Mof_H 	H 	0.7724	0.7724	0.9894	0.045
Mof_H 	H 	0.4658	0.7724	0.7724	0.045
Mof_H 	H 	0.9894	0.7724	0.7724	0.045
Mof_H 	H 	0.7724	0.4658	0.9894	0.044
Mof_H 	H 	0.7724	0.9894	0.4658	0.044
Mof_H 	H 	0.4658	0.7724	0.9894	0.044
Mof_H 	H 	0.9894	0.7724	0.4658	0.044
Mof_H 	H 	0.7724	0.9894	0.7724	0.045
Mof_H 	H 	0.7724	0.4658	0.7724	0.045
Mof_H 	H 	0.0106	0.5342	0.2276	0.044
Mof_H 	H 	0.5342	0.0106	0.2276	0.044
Mof_H 	H 	0.2276	0.2276	0.5342	0.045
Mof_H 	H 	0.2276	0.2276	0.0106	0.045
Mof_H 	H 	0.2276	0.5342	0.2276	0.045
Mof_H 	H 	0.2276	0.0106	0.2276	0.045
Mof_H 	H 	0.5342	0.2276	0.0106	0.044
Mof_H 	H 	0.0106	0.2276	0.5342	0.044
Mof_H 	H 	0.2276	0.5342	0.0106	0.044
Mof_H 	H 	0.2276	0.0106	0.5342	0.044
Mof_H 	H 	0.0106	0.2276	0.2276	0.045
Mof_H 	H 	0.5342	0.2276	0.2276	0.045
Mof_C 	C 	0.4655	0.9319	0.8013	0.056
Mof_C 	C 	0.9319	0.4655	0.8013	0.056
Mof_C 	C 	0.8013	0.8013	0.4655	0.057
Mof_C 	C 	0.8013	0.8013	0.9319	0.048
Mof_C 	C 	0.4655	0.8013	0.8013	0.057
Mof_C 	C 	0.9319	0.8013	0.8013	0.048
Mof_C 	C 	0.8013	0.4655	0.9319	0.056
Mof_C 	C 	0.8013	0.9319	0.4655	0.056
Mof_C 	C 	0.4655	0.8013	0.9319	0.056
Mof_C 	C 	0.9319	0.8013	0.4655	0.056
Mof_C 	C 	0.8013	0.9319	0.8013	0.048
Mof_C 	C 	0.8013	0.4655	0.8013	0.057
Mof_C 	C 	0.0681	0.5345	0.1987	0.056
Mof_C 	C 	0.5345	0.0681	0.1987	0.056
Mof_C 	C 	0.1987	0.1987	0.5345	0.057
Mof_C 	C 	0.1987	0.1987	0.0681	0.048
Mof_C 	C 	0.1987	0.5345	0.1987	0.057
Mof_C 	C 	0.1987	0.0681	0.1987	0.048
Mof_C 	C 	0.5345	0.1987	0.0681	0.056
Mof_C 	C 	0.0681	0.1987	0.5345	0.056
Mof_C 	C 	0.1987	0.5345	0.0681	0.056
Mof_C 	C 	0.1987	0.0681	0.5345	0.056
Mof_C 	C 	0.0681	0.1987	0.1987	0.048
Mof_C 	C 	0.5345	0.1987	0.1987	0.057
Mof_C 	C 	0.4734	0.9314	0.9314	0.35
Mof_C 	C 	0.4653	0.8885	0.8885	-0.111
Mof_C 	C 	0.9314	0.4734	0.6638	0.362
Mof_C 	C 	0.8885	0.4653	0.7577	-0.114
Mof_C 	C 	0.9314	0.6638	0.4734	0.362
Mof_C 	C 	0.8885	0.7577	0.4653	-0.114
Mof_C 	C 	0.6638	0.9314	0.9314	0.342
Mof_C 	C 	0.7577	0.8885	0.8885	-0.106
Mof_C 	C 	0.4734	0.9314	0.6638	0.362
Mof_C 	C 	0.4653	0.8885	0.7577	-0.114
Mof_C 	C 	0.9314	0.6638	0.9314	0.342
Mof_C 	C 	0.8885	0.7577	0.8885	-0.106
Mof_C 	C 	0.9314	0.4734	0.9314	0.35
Mof_C 	C 	0.8885	0.4653	0.8885	-0.111
Mof_C 	C 	0.6638	0.9314	0.4734	0.362
Mof_C 	C 	0.7577	0.8885	0.4653	-0.114
Mof_C 	C 	0.4734	0.6638	0.9314	0.362
Mof_C 	C 	0.4653	0.7577	0.8885	-0.114
Mof_C 	C 	0.9314	0.9314	0.4734	0.35
Mof_C 	C 	0.8885	0.8885	0.4653	-0.111
Mof_C 	C 	0.9314	0.9314	0.6638	0.342
Mof_C 	C 	0.8885	0.8885	0.7577	-0.106
Mof_C 	C 	0.6638	0.4734	0.9314	0.362
Mof_C 	C 	0.7577	0.4653	0.8885	-0.114
Mof_C 	C 	0.0686	0.5266	0.0686	0.35
Mof_C 	C 	0.1115	0.5347	0.1115	-0.111
Mof_C 	C 	0.5266	0.0686	0.3362	0.362
Mof_C 	C 	0.5347	0.1115	0.2423	-0.114
Mof_C 	C 	0.3362	0.0686	0.5266	0.362
Mof_C 	C 	0.2423	0.1115	0.5347	-0.114
Mof_C 	C 	0.0686	0.3362	0.0686	0.342
Mof_C 	C 	0.1115	0.2423	0.1115	-0.106
Mof_C 	C 	0.0686	0.5266	0.3362	0.362
Mof_C 	C 	0.1115	0.5347	0.2423	-0.114
Mof_C 	C 	0.3362	0.0686	0.0686	0.342
Mof_C 	C 	0.2423	0.1115	0.1115	-0.106
Mof_C 	C 	0.5266	0.0686	0.0686	0.35
Mof_C 	C 	0.5347	0.1115	0.1115	-0.111
Mof_C 	C 	0.0686	0.3362	0.5266	0.362
Mof_C 	C 	0.1115	0.2423	0.5347	-0.114
Mof_C 	C 	0.3362	0.5266	0.0686	0.362
Mof_C 	C 	0.2423	0.5347	0.1115	-0.114
Mof_C 	C 	0.0686	0.0686	0.5266	0.35
Mof_C 	C 	0.1115	0.1115	0.5347	-0.111
Mof_C 	C 	0.0686	0.0686	0.3362	0.342
Mof_C 	C 	0.1115	0.1115	0.2423	-0.106
Mof_C 	C 	0.5266	0.3362	0.0686	0.362
Mof_C 	C 	0.5347	0.2423	0.1115	-0.114
Mof_O 	O 	0.4794	0.0076	0.887	-0.395
Mof_O 	O 	0.0076	0.4794	0.626	-0.4
Mof_O 	O 	0.887	0.626	0.4794	-0.402
Mof_O 	O 	0.626	0.887	0.0076	-0.391
Mof_O 	O 	0.4794	0.887	0.626	-0.402
Mof_O 	O 	0.0076	0.626	0.887	-0.391
Mof_O 	O 	0.887	0.4794	0.0076	-0.395
Mof_O 	O 	0.626	0.0076	0.4794	-0.4
Mof_O 	O 	0.4794	0.626	0.0076	-0.4
Mof_O 	O 	0.0076	0.887	0.4794	-0.395
Mof_O 	O 	0.887	0.0076	0.626	-0.391
Mof_O 	O 	0.626	0.4794	0.887	-0.402
Mof_O 	O 	0.9924	0.5206	0.113	-0.395
Mof_O 	O 	0.5206	0.9924	0.374	-0.4
Mof_O 	O 	0.374	0.113	0.5206	-0.402
Mof_O 	O 	0.113	0.374	0.9924	-0.391
Mof_O 	O 	0.113	0.5206	0.374	-0.402
Mof_O 	O 	0.374	0.9924	0.113	-0.391
Mof_O 	O 	0.5206	0.113	0.9924	-0.395
Mof_O 	O 	0.9924	0.374	0.5206	-0.4
Mof_O 	O 	0.374	0.5206	0.9924	-0.4
Mof_O 	O 	0.113	0.9924	0.5206	-0.395
Mof_O 	O 	0.9924	0.113	0.374	-0.391
Mof_O 	O 	0.5206	0.374	0.113	-0.402
Mof_O 	O 	0.5206	0.9924	0.113	-0.395
Mof_O 	O 	0.9924	0.5206	0.374	-0.4
Mof_O 	O 	0.113	0.374	0.5206	-0.402
Mof_O 	O 	0.374	0.113	0.9924	-0.391
Mof_O 	O 	0.5206	0.113	0.374	-0.402
Mof_O 	O 	0.9924	0.374	0.113	-0.391
Mof_O 	O 	0.113	0.5206	0.9924	-0.395
Mof_O 	O 	0.374	0.9924	0.5206	-0.4
Mof_O 	O 	0.5206	0.374	0.9924	-0.4
Mof_O 	O 	0.9924	0.113	0.5206	-0.395
Mof_O 	O 	0.113	0.9924	0.374	-0.391
Mof_O 	O 	0.374	0.5206	0.113	-0.402
Mof_O 	O 	0.0076	0.4794	0.887	-0.395
Mof_O 	O 	0.4794	0.0076	0.626	-0.4
Mof_O 	O 	0.626	0.887	0.4794	-0.402
Mof_O 	O 	0.887	0.626	0.0076	-0.391
Mof_O 	O 	0.887	0.4794	0.626	-0.402
Mof_O 	O 	0.626	0.0076	0.887	-0.391
Mof_O 	O 	0.4794	0.887	0.0076	-0.395
Mof_O 	O 	0.0076	0.626	0.4794	-0.4
Mof_O 	O 	0.626	0.4794	0.0076	-0.4
Mof_O 	O 	0.887	0.0076	0.4794	-0.395
Mof_O 	O 	0.0076	0.887	0.626	-0.391
Mof_O 	O 	0.4794	0.626	0.887	-0.402
_end
