# CIF file generated by openbabel 3.1.0, see https://openbabel.org
data_I
_chemical_name_common 'image0'
_cell_length_a 22.1396
_cell_length_b 14.5936
_cell_length_c 28.1238
_cell_angle_alpha 90
_cell_angle_beta 116.317
_cell_angle_gamma 90
_space_group_name_H-M_alt 'P 1'
_space_group_name_Hall 'P 1'
loop_
    _symmetry_equiv_pos_as_xyz
    x,y,z
loop_
    _atom_site_label
    _atom_site_type_symbol
    _atom_site_fract_x
    _atom_site_fract_y
    _atom_site_fract_z
    _atom_site_occupancy
    Ni1      Ni       0.24601    0.67163    0.24430    1.000
    Ni2      Ni       0.21899    0.99414    0.53944    1.000
    O1       O        0.78410    0.92790    0.34863    1.000
    O2       O        0.21310    0.76040    0.28401    1.000
    O3       O        0.13520    0.94960    0.47232    1.000
    O4       O        0.84750    0.98810    0.42800    1.000
    O5       O        0.22290    0.08290    0.29550    1.000
    O6       O        0.16480    0.67520    0.32310    1.000
    N1       N        0.34270    0.67110    0.30800    1.000
    O7       O        0.17300    0.16490    0.33470    1.000
    N2       N        0.27950    0.96950    0.50270    1.000
    N3       N        0.65120    0.82460    0.68050    1.000
    N4       N        0.56780    0.79910    0.60110    1.000
    N5       N        0.42670    0.69900    0.38600    1.000
    C1       C        0.02160    0.96420    0.40530    1.000
    O8       O        0.08790    0.08850    0.45020    1.000
    C2       C        0.52640    0.76370    0.45940    1.000
    H1       H        0.54550    0.77370    0.43620    1.000
    C3       C        0.09860    0.83900    0.33560    1.000
    H2       H        0.07910    0.78400    0.33840    1.000
    N6       N        0.36820    0.96860    0.48640    1.000
    C4       C        0.07500    0.92070    0.34600    1.000
    C5       C        0.48610    0.00050    0.54300    1.000
    H3       H        0.47670    0.00060    0.57220    1.000
    C6       C        0.01650    0.92420    0.35880    1.000
    C7       C        0.17930    0.92050    0.31590    1.000
    H4       H        0.21380    0.92030    0.30550    1.000
    C8       C        0.47010    0.73210    0.52880    1.000
    H5       H        0.45170    0.72160    0.55230    1.000
    C9       C        0.56130    0.78830    0.51220    1.000
    H6       H        0.60380    0.81480    0.52450    1.000
    C10      C        0.36000    0.69470    0.35720    1.000
    H7       H        0.32920    0.70690    0.37060    1.000
    C11      C        0.46350    0.72430    0.44110    1.000
    C12      C        0.89660    0.90320    0.32910    1.000
    H8       H        0.85490    0.88370    0.30340    1.000
    C13      C        0.84010    0.95350    0.38540    1.000
    C14      C        0.53330    0.77370    0.54640    1.000
    C15      C        0.63470    0.79970    0.63070    1.000
    H9       H        0.66580    0.78480    0.61800    1.000
    C16      C        0.43540    0.98360    0.49360    1.000
    C17      C        0.34340    0.99030    0.52060    1.000
    H10      H        0.36880    0.01720    0.55350    1.000
    C18      C        0.26100    0.93240    0.45420    1.000
    H11      H        0.21810    0.91130    0.43170    1.000
    C19      C        0.95320    0.89310    0.32060    1.000
    H12      H        0.94940    0.86570    0.28960    1.000
    C20      C        0.08730    0.00380    0.44580    1.000
    C21      C        0.45450    0.67580    0.35260    1.000
    H13      H        0.50010    0.67290    0.36100    1.000
    C22      C        0.44860    0.98260    0.44980    1.000
    H14      H        0.41430    0.97070    0.41610    1.000
    C23      C        0.15650    0.00370    0.32600    1.000
    C24      C        0.90160    0.94270    0.37620    1.000
    C25      C        0.10520    0.00160    0.34200    1.000
    H15      H        0.09080    0.05650    0.35040    1.000
    C26      C        0.43440    0.70600    0.47490    1.000
    H16      H        0.39260    0.67750    0.46250    1.000
    C27      C        0.15150    0.83770    0.32100    1.000
    C28      C        0.96400    0.97270    0.41400    1.000
    H17      H        0.96770    0.99870    0.44540    1.000
    C29      C        0.40190    0.65790    0.30510    1.000
    H18      H        0.40560    0.63930    0.27490    1.000
    C30      C        0.59130    0.84120    0.68160    1.000
    H19      H        0.58670    0.86050    0.71130    1.000
    C31      C        0.53910    0.82580    0.63320    1.000
    H20      H        0.49340    0.83210    0.62380    1.000
    C32      C        0.18660    0.08980    0.31870    1.000
    C33      C        0.31610    0.93090    0.44330    1.000
    H21      H        0.31740    0.90870    0.41280    1.000
    C34      C        0.17750    0.75050    0.30830    1.000
    Ni3      Ni       0.25399    0.17163    0.25570    1.000
    Ni4      Ni       0.28101    0.49414    0.96056    1.000
    O9       O        0.71590    0.42790    0.15137    1.000
    O10      O        0.28690    0.26040    0.21599    1.000
    O11      O        0.36480    0.44960    0.02768    1.000
    O12      O        0.65250    0.48810    0.07200    1.000
    O13      O        0.27710    0.58290    0.20450    1.000
    O14      O        0.33520    0.17520    0.17690    1.000
    N7       N        0.15730    0.17110    0.19200    1.000
    O15      O        0.32700    0.66490    0.16530    1.000
    N8       N        0.22050    0.46950    0.99730    1.000
    N9       N        0.84880    0.32460    0.81950    1.000
    N10      N        0.93220    0.29910    0.89890    1.000
    N11      N        0.07330    0.19900    0.11400    1.000
    C35      C        0.47840    0.46420    0.09470    1.000
    O16      O        0.41210    0.58850    0.04980    1.000
    C36      C        0.97360    0.26370    0.04060    1.000
    H22      H        0.95450    0.27370    0.06380    1.000
    C37      C        0.40140    0.33900    0.16440    1.000
    H23      H        0.42090    0.28400    0.16160    1.000
    N12      N        0.13180    0.46860    0.01360    1.000
    C38      C        0.42500    0.42070    0.15400    1.000
    C39      C        0.01390    0.50050    0.95700    1.000
    H24      H        0.02330    0.50060    0.92780    1.000
    C40      C        0.48350    0.42420    0.14120    1.000
    C41      C        0.32070    0.42050    0.18410    1.000
    H25      H        0.28620    0.42030    0.19450    1.000
    C42      C        0.02990    0.23210    0.97120    1.000
    H26      H        0.04830    0.22160    0.94770    1.000
    C43      C        0.93870    0.28830    0.98780    1.000
    H27      H        0.89620    0.31480    0.97550    1.000
    C44      C        0.14000    0.19470    0.14280    1.000
    H28      H        0.17080    0.20690    0.12940    1.000
    C45      C        0.03650    0.22430    0.05890    1.000
    C46      C        0.60340    0.40320    0.17090    1.000
    H29      H        0.64510    0.38370    0.19660    1.000
    C47      C        0.65990    0.45350    0.11460    1.000
    C48      C        0.96670    0.27370    0.95360    1.000
    C49      C        0.86530    0.29970    0.86930    1.000
    H30      H        0.83420    0.28480    0.88200    1.000
    C50      C        0.06460    0.48360    0.00640    1.000
    C51      C        0.15660    0.49030    0.97940    1.000
    H31      H        0.13120    0.51720    0.94650    1.000
    C52      C        0.23900    0.43240    0.04580    1.000
    H32      H        0.28190    0.41130    0.06830    1.000
    C53      C        0.54680    0.39310    0.17940    1.000
    H33      H        0.55060    0.36570    0.21040    1.000
    C54      C        0.41270    0.50380    0.05420    1.000
    C55      C        0.04550    0.17580    0.14740    1.000
    H34      H        0.99990    0.17290    0.13900    1.000
    C56      C        0.05140    0.48260    0.05020    1.000
    H35      H        0.08570    0.47070    0.08390    1.000
    C57      C        0.34350    0.50370    0.17400    1.000
    C58      C        0.59840    0.44270    0.12380    1.000
    C59      C        0.39480    0.50160    0.15800    1.000
    H36      H        0.40920    0.55650    0.14960    1.000
    C60      C        0.06560    0.20600    0.02510    1.000
    H37      H        0.10740    0.17750    0.03750    1.000
    C61      C        0.34850    0.33770    0.17900    1.000
    C62      C        0.53600    0.47270    0.08600    1.000
    H38      H        0.53230    0.49870    0.05460    1.000
    C63      C        0.09810    0.15790    0.19490    1.000
    H39      H        0.09440    0.13930    0.22510    1.000
    C64      C        0.90870    0.34120    0.81840    1.000
    H40      H        0.91330    0.36050    0.78870    1.000
    C65      C        0.96090    0.32580    0.86680    1.000
    H41      H        0.00660    0.33210    0.87620    1.000
    C66      C        0.31340    0.58980    0.18130    1.000
    C67      C        0.18390    0.43090    0.05670    1.000
    H42      H        0.18260    0.40870    0.08720    1.000
    C68      C        0.32250    0.25050    0.19170    1.000
    Ni5      Ni       0.75399    0.32837    0.75570    1.000
    Ni6      Ni       0.78101    0.00586    0.46056    1.000
    O17      O        0.21590    0.07210    0.65137    1.000
    O18      O        0.78690    0.23960    0.71599    1.000
    O19      O        0.86480    0.05040    0.52768    1.000
    O20      O        0.15250    0.01190    0.57200    1.000
    O21      O        0.77710    0.91710    0.70450    1.000
    O22      O        0.83520    0.32480    0.67690    1.000
    N13      N        0.65730    0.32890    0.69200    1.000
    O23      O        0.82700    0.83510    0.66530    1.000
    N14      N        0.72050    0.03050    0.49730    1.000
    N15      N        0.34880    0.17540    0.31950    1.000
    N16      N        0.43220    0.20090    0.39890    1.000
    N17      N        0.57330    0.30100    0.61400    1.000
    C69      C        0.97840    0.03580    0.59470    1.000
    O24      O        0.91210    0.91150    0.54980    1.000
    C70      C        0.47360    0.23630    0.54060    1.000
    H43      H        0.45450    0.22630    0.56380    1.000
    C71      C        0.90140    0.16100    0.66440    1.000
    H44      H        0.92090    0.21600    0.66160    1.000
    N18      N        0.63180    0.03140    0.51360    1.000
    C72      C        0.92500    0.07930    0.65400    1.000
    C73      C        0.51390    0.99950    0.45700    1.000
    H45      H        0.52330    0.99940    0.42780    1.000
    C74      C        0.98350    0.07580    0.64120    1.000
    C75      C        0.82070    0.07950    0.68410    1.000
    H46      H        0.78620    0.07970    0.69450    1.000
    C76      C        0.52990    0.26790    0.47120    1.000
    H47      H        0.54830    0.27840    0.44770    1.000
    C77      C        0.43870    0.21170    0.48780    1.000
    H48      H        0.39620    0.18520    0.47550    1.000
    C78      C        0.64000    0.30530    0.64280    1.000
    H49      H        0.67080    0.29310    0.62940    1.000
    C79      C        0.53650    0.27570    0.55890    1.000
    C80      C        0.10340    0.09680    0.67090    1.000
    H50      H        0.14510    0.11630    0.69660    1.000
    C81      C        0.15990    0.04650    0.61460    1.000
    C82      C        0.46670    0.22630    0.45360    1.000
    C83      C        0.36530    0.20030    0.36930    1.000
    H51      H        0.33420    0.21520    0.38200    1.000
    C84      C        0.56460    0.01640    0.50640    1.000
    C85      C        0.65660    0.00970    0.47940    1.000
    H52      H        0.63120    0.98280    0.44650    1.000
    C86      C        0.73900    0.06760    0.54580    1.000
    H53      H        0.78190    0.08870    0.56830    1.000
    C87      C        0.04680    0.10690    0.67940    1.000
    H54      H        0.05060    0.13430    0.71040    1.000
    C88      C        0.91270    0.99620    0.55420    1.000
    C89      C        0.54550    0.32420    0.64740    1.000
    H55      H        0.49990    0.32710    0.63900    1.000
    C90      C        0.55140    0.01740    0.55020    1.000
    H56      H        0.58570    0.02930    0.58390    1.000
    C91      C        0.84350    0.99630    0.67400    1.000
    C92      C        0.09840    0.05730    0.62380    1.000
    C93      C        0.89480    0.99840    0.65800    1.000
    H57      H        0.90920    0.94350    0.64960    1.000
    C94      C        0.56560    0.29400    0.52510    1.000
    H58      H        0.60740    0.32250    0.53750    1.000
    C95      C        0.84850    0.16230    0.67900    1.000
    C96      C        0.03600    0.02730    0.58600    1.000
    H59      H        0.03230    0.00130    0.55460    1.000
    C97      C        0.59810    0.34210    0.69490    1.000
    H60      H        0.59440    0.36070    0.72510    1.000
    C98      C        0.40870    0.15880    0.31840    1.000
    H61      H        0.41330    0.13950    0.28870    1.000
    C99      C        0.46090    0.17420    0.36680    1.000
    H62      H        0.50660    0.16790    0.37620    1.000
    C100     C        0.81340    0.91020    0.68130    1.000
    C101     C        0.68390    0.06910    0.55670    1.000
    H63      H        0.68260    0.09130    0.58720    1.000
    C102     C        0.82250    0.24950    0.69170    1.000
    Ni7      Ni       0.74601    0.82837    0.74430    1.000
    Ni8      Ni       0.71899    0.50586    0.03944    1.000
    O25      O        0.28410    0.57210    0.84863    1.000
    O26      O        0.71310    0.73960    0.78401    1.000
    O27      O        0.63520    0.55040    0.97232    1.000
    O28      O        0.34750    0.51190    0.92800    1.000
    O29      O        0.72290    0.41710    0.79550    1.000
    O30      O        0.66480    0.82480    0.82310    1.000
    N19      N        0.84270    0.82890    0.80800    1.000
    O31      O        0.67300    0.33510    0.83470    1.000
    N20      N        0.77950    0.53050    0.00270    1.000
    N21      N        0.15120    0.67540    0.18050    1.000
    N22      N        0.06780    0.70090    0.10110    1.000
    N23      N        0.92670    0.80100    0.88600    1.000
    C103     C        0.52160    0.53580    0.90530    1.000
    O32      O        0.58790    0.41150    0.95020    1.000
    C104     C        0.02640    0.73630    0.95940    1.000
    H64      H        0.04550    0.72630    0.93620    1.000
    C105     C        0.59860    0.66100    0.83560    1.000
    H65      H        0.57910    0.71600    0.83840    1.000
    N24      N        0.86820    0.53140    0.98640    1.000
    C106     C        0.57500    0.57930    0.84600    1.000
    C107     C        0.98610    0.49950    0.04300    1.000
    H66      H        0.97670    0.49940    0.07220    1.000
    C108     C        0.51650    0.57580    0.85880    1.000
    C109     C        0.67930    0.57950    0.81590    1.000
    H67      H        0.71380    0.57970    0.80550    1.000
    C110     C        0.97010    0.76790    0.02880    1.000
    H68      H        0.95170    0.77840    0.05230    1.000
    C111     C        0.06130    0.71170    0.01220    1.000
    H69      H        0.10380    0.68520    0.02450    1.000
    C112     C        0.86000    0.80530    0.85720    1.000
    H70      H        0.82920    0.79310    0.87060    1.000
    C113     C        0.96350    0.77570    0.94110    1.000
    C114     C        0.39660    0.59680    0.82910    1.000
    H71      H        0.35490    0.61630    0.80340    1.000
    C115     C        0.34010    0.54650    0.88540    1.000
    C116     C        0.03330    0.72630    0.04640    1.000
    C117     C        0.13470    0.70030    0.13070    1.000
    H72      H        0.16580    0.71520    0.11800    1.000
    C118     C        0.93540    0.51640    0.99360    1.000
    C119     C        0.84340    0.50970    0.02060    1.000
    H73      H        0.86880    0.48280    0.05350    1.000
    C120     C        0.76100    0.56760    0.95420    1.000
    H74      H        0.71810    0.58870    0.93170    1.000
    C121     C        0.45320    0.60690    0.82060    1.000
    H75      H        0.44940    0.63430    0.78960    1.000
    C122     C        0.58730    0.49620    0.94580    1.000
    C123     C        0.95450    0.82420    0.85260    1.000
    H76      H        0.00010    0.82710    0.86100    1.000
    C124     C        0.94860    0.51740    0.94980    1.000
    H77      H        0.91430    0.52930    0.91610    1.000
    C125     C        0.65650    0.49630    0.82600    1.000
    C126     C        0.40160    0.55730    0.87620    1.000
    C127     C        0.60520    0.49840    0.84200    1.000
    H78      H        0.59080    0.44350    0.85040    1.000
    C128     C        0.93440    0.79400    0.97490    1.000
    H79      H        0.89260    0.82250    0.96250    1.000
    C129     C        0.65150    0.66230    0.82100    1.000
    C130     C        0.46400    0.52730    0.91400    1.000
    H80      H        0.46770    0.50130    0.94540    1.000
    C131     C        0.90190    0.84210    0.80510    1.000
    H81      H        0.90560    0.86070    0.77490    1.000
    C132     C        0.09130    0.65880    0.18160    1.000
    H82      H        0.08670    0.63950    0.21130    1.000
    C133     C        0.03910    0.67420    0.13320    1.000
    H83      H        0.99340    0.66790    0.12380    1.000
    C134     C        0.68660    0.41020    0.81870    1.000
    C135     C        0.81610    0.56910    0.94330    1.000
    H84      H        0.81740    0.59130    0.91280    1.000
    C136     C        0.67750    0.74950    0.80830    1.000
    Ni9      Ni       0.74601    0.17163    0.24430    1.000
    Ni10     Ni       0.71899    0.49414    0.53944    1.000
    O33      O        0.28410    0.42790    0.34863    1.000
    O34      O        0.71310    0.26040    0.28401    1.000
    O35      O        0.63520    0.44960    0.47232    1.000
    O36      O        0.34750    0.48810    0.42800    1.000
    O37      O        0.72290    0.58290    0.29550    1.000
    O38      O        0.66480    0.17520    0.32310    1.000
    N25      N        0.84270    0.17110    0.30800    1.000
    O39      O        0.67300    0.66490    0.33470    1.000
    N26      N        0.77950    0.46950    0.50270    1.000
    N27      N        0.15120    0.32460    0.68050    1.000
    N28      N        0.06780    0.29910    0.60110    1.000
    N29      N        0.92670    0.19900    0.38600    1.000
    C137     C        0.52160    0.46420    0.40530    1.000
    O40      O        0.58790    0.58850    0.45020    1.000
    C138     C        0.02640    0.26370    0.45940    1.000
    H85      H        0.04550    0.27370    0.43620    1.000
    C139     C        0.59860    0.33900    0.33560    1.000
    H86      H        0.57910    0.28400    0.33840    1.000
    N30      N        0.86820    0.46860    0.48640    1.000
    C140     C        0.57500    0.42070    0.34600    1.000
    C141     C        0.98610    0.50050    0.54300    1.000
    H87      H        0.97670    0.50060    0.57220    1.000
    C142     C        0.51650    0.42420    0.35880    1.000
    C143     C        0.67930    0.42050    0.31590    1.000
    H88      H        0.71380    0.42030    0.30550    1.000
    C144     C        0.97010    0.23210    0.52880    1.000
    H89      H        0.95170    0.22160    0.55230    1.000
    C145     C        0.06130    0.28830    0.51220    1.000
    H90      H        0.10380    0.31480    0.52450    1.000
    C146     C        0.86000    0.19470    0.35720    1.000
    H91      H        0.82920    0.20690    0.37060    1.000
    C147     C        0.96350    0.22430    0.44110    1.000
    C148     C        0.39660    0.40320    0.32910    1.000
    H92      H        0.35490    0.38370    0.30340    1.000
    C149     C        0.34010    0.45350    0.38540    1.000
    C150     C        0.03330    0.27370    0.54640    1.000
    C151     C        0.13470    0.29970    0.63070    1.000
    H93      H        0.16580    0.28480    0.61800    1.000
    C152     C        0.93540    0.48360    0.49360    1.000
    C153     C        0.84340    0.49030    0.52060    1.000
    H94      H        0.86880    0.51720    0.55350    1.000
    C154     C        0.76100    0.43240    0.45420    1.000
    H95      H        0.71810    0.41130    0.43170    1.000
    C155     C        0.45320    0.39310    0.32060    1.000
    H96      H        0.44940    0.36570    0.28960    1.000
    C156     C        0.58730    0.50380    0.44580    1.000
    C157     C        0.95450    0.17580    0.35260    1.000
    H97      H        0.00010    0.17290    0.36100    1.000
    C158     C        0.94860    0.48260    0.44980    1.000
    H98      H        0.91430    0.47070    0.41610    1.000
    C159     C        0.65650    0.50370    0.32600    1.000
    C160     C        0.40160    0.44270    0.37620    1.000
    C161     C        0.60520    0.50160    0.34200    1.000
    H99      H        0.59080    0.55650    0.35040    1.000
    C162     C        0.93440    0.20600    0.47490    1.000
    H100     H        0.89260    0.17750    0.46250    1.000
    C163     C        0.65150    0.33770    0.32100    1.000
    C164     C        0.46400    0.47270    0.41400    1.000
    H101     H        0.46770    0.49870    0.44540    1.000
    C165     C        0.90190    0.15790    0.30510    1.000
    H102     H        0.90560    0.13930    0.27490    1.000
    C166     C        0.09130    0.34120    0.68160    1.000
    H103     H        0.08670    0.36050    0.71130    1.000
    C167     C        0.03910    0.32580    0.63320    1.000
    H104     H        0.99340    0.33210    0.62380    1.000
    C168     C        0.68660    0.58980    0.31870    1.000
    C169     C        0.81610    0.43090    0.44330    1.000
    H105     H        0.81740    0.40870    0.41280    1.000
    C170     C        0.67750    0.25050    0.30830    1.000
    Ni11     Ni       0.75399    0.67163    0.25570    1.000
    Ni12     Ni       0.78101    0.99414    0.96056    1.000
    O41      O        0.21590    0.92790    0.15137    1.000
    O42      O        0.78690    0.76040    0.21599    1.000
    O43      O        0.86480    0.94960    0.02768    1.000
    O44      O        0.15250    0.98810    0.07200    1.000
    O45      O        0.77710    0.08290    0.20450    1.000
    O46      O        0.83520    0.67520    0.17690    1.000
    N31      N        0.65730    0.67110    0.19200    1.000
    O47      O        0.82700    0.16490    0.16530    1.000
    N32      N        0.72050    0.96950    0.99730    1.000
    N33      N        0.34880    0.82460    0.81950    1.000
    N34      N        0.43220    0.79910    0.89890    1.000
    N35      N        0.57330    0.69900    0.11400    1.000
    C171     C        0.97840    0.96420    0.09470    1.000
    O48      O        0.91210    0.08850    0.04980    1.000
    C172     C        0.47360    0.76370    0.04060    1.000
    H106     H        0.45450    0.77370    0.06380    1.000
    C173     C        0.90140    0.83900    0.16440    1.000
    H107     H        0.92090    0.78400    0.16160    1.000
    N36      N        0.63180    0.96860    0.01360    1.000
    C174     C        0.92500    0.92070    0.15400    1.000
    C175     C        0.51390    0.00050    0.95700    1.000
    H108     H        0.52330    0.00060    0.92780    1.000
    C176     C        0.98350    0.92420    0.14120    1.000
    C177     C        0.82070    0.92050    0.18410    1.000
    H109     H        0.78620    0.92030    0.19450    1.000
    C178     C        0.52990    0.73210    0.97120    1.000
    H110     H        0.54830    0.72160    0.94770    1.000
    C179     C        0.43870    0.78830    0.98780    1.000
    H111     H        0.39620    0.81480    0.97550    1.000
    C180     C        0.64000    0.69470    0.14280    1.000
    H112     H        0.67080    0.70690    0.12940    1.000
    C181     C        0.53650    0.72430    0.05890    1.000
    C182     C        0.10340    0.90320    0.17090    1.000
    H113     H        0.14510    0.88370    0.19660    1.000
    C183     C        0.15990    0.95350    0.11460    1.000
    C184     C        0.46670    0.77370    0.95360    1.000
    C185     C        0.36530    0.79970    0.86930    1.000
    H114     H        0.33420    0.78480    0.88200    1.000
    C186     C        0.56460    0.98360    0.00640    1.000
    C187     C        0.65660    0.99030    0.97940    1.000
    H115     H        0.63120    0.01720    0.94650    1.000
    C188     C        0.73900    0.93240    0.04580    1.000
    H116     H        0.78190    0.91130    0.06830    1.000
    C189     C        0.04680    0.89310    0.17940    1.000
    H117     H        0.05060    0.86570    0.21040    1.000
    C190     C        0.91270    0.00380    0.05420    1.000
    C191     C        0.54550    0.67580    0.14740    1.000
    H118     H        0.49990    0.67290    0.13900    1.000
    C192     C        0.55140    0.98260    0.05020    1.000
    H119     H        0.58570    0.97070    0.08390    1.000
    C193     C        0.84350    0.00370    0.17400    1.000
    C194     C        0.09840    0.94270    0.12380    1.000
    C195     C        0.89480    0.00160    0.15800    1.000
    H120     H        0.90920    0.05650    0.14960    1.000
    C196     C        0.56560    0.70600    0.02510    1.000
    H121     H        0.60740    0.67750    0.03750    1.000
    C197     C        0.84850    0.83770    0.17900    1.000
    C198     C        0.03600    0.97270    0.08600    1.000
    H122     H        0.03230    0.99870    0.05460    1.000
    C199     C        0.59810    0.65790    0.19490    1.000
    H123     H        0.59440    0.63930    0.22510    1.000
    C200     C        0.40870    0.84120    0.81840    1.000
    H124     H        0.41330    0.86050    0.78870    1.000
    C201     C        0.46090    0.82580    0.86680    1.000
    H125     H        0.50660    0.83210    0.87620    1.000
    C202     C        0.81340    0.08980    0.18130    1.000
    C203     C        0.68390    0.93090    0.05670    1.000
    H126     H        0.68260    0.90870    0.08720    1.000
    C204     C        0.82250    0.75050    0.19170    1.000
    Ni13     Ni       0.25399    0.82837    0.75570    1.000
    Ni14     Ni       0.28101    0.50586    0.46056    1.000
    O49      O        0.71590    0.57210    0.65137    1.000
    O50      O        0.28690    0.73960    0.71599    1.000
    O51      O        0.36480    0.55040    0.52768    1.000
    O52      O        0.65250    0.51190    0.57200    1.000
    O53      O        0.27710    0.41710    0.70450    1.000
    O54      O        0.33520    0.82480    0.67690    1.000
    N37      N        0.15730    0.82890    0.69200    1.000
    O55      O        0.32700    0.33510    0.66530    1.000
    N38      N        0.22050    0.53050    0.49730    1.000
    N39      N        0.84880    0.67540    0.31950    1.000
    N40      N        0.93220    0.70090    0.39890    1.000
    N41      N        0.07330    0.80100    0.61400    1.000
    C205     C        0.47840    0.53580    0.59470    1.000
    O56      O        0.41210    0.41150    0.54980    1.000
    C206     C        0.97360    0.73630    0.54060    1.000
    H127     H        0.95450    0.72630    0.56380    1.000
    C207     C        0.40140    0.66100    0.66440    1.000
    H128     H        0.42090    0.71600    0.66160    1.000
    N42      N        0.13180    0.53140    0.51360    1.000
    C208     C        0.42500    0.57930    0.65400    1.000
    C209     C        0.01390    0.49950    0.45700    1.000
    H129     H        0.02330    0.49940    0.42780    1.000
    C210     C        0.48350    0.57580    0.64120    1.000
    C211     C        0.32070    0.57950    0.68410    1.000
    H130     H        0.28620    0.57970    0.69450    1.000
    C212     C        0.02990    0.76790    0.47120    1.000
    H131     H        0.04830    0.77840    0.44770    1.000
    C213     C        0.93870    0.71170    0.48780    1.000
    H132     H        0.89620    0.68520    0.47550    1.000
    C214     C        0.14000    0.80530    0.64280    1.000
    H133     H        0.17080    0.79310    0.62940    1.000
    C215     C        0.03650    0.77570    0.55890    1.000
    C216     C        0.60340    0.59680    0.67090    1.000
    H134     H        0.64510    0.61630    0.69660    1.000
    C217     C        0.65990    0.54650    0.61460    1.000
    C218     C        0.96670    0.72630    0.45360    1.000
    C219     C        0.86530    0.70030    0.36930    1.000
    H135     H        0.83420    0.71520    0.38200    1.000
    C220     C        0.06460    0.51640    0.50640    1.000
    C221     C        0.15660    0.50970    0.47940    1.000
    H136     H        0.13120    0.48280    0.44650    1.000
    C222     C        0.23900    0.56760    0.54580    1.000
    H137     H        0.28190    0.58870    0.56830    1.000
    C223     C        0.54680    0.60690    0.67940    1.000
    H138     H        0.55060    0.63430    0.71040    1.000
    C224     C        0.41270    0.49620    0.55420    1.000
    C225     C        0.04550    0.82420    0.64740    1.000
    H139     H        0.99990    0.82710    0.63900    1.000
    C226     C        0.05140    0.51740    0.55020    1.000
    H140     H        0.08570    0.52930    0.58390    1.000
    C227     C        0.34350    0.49630    0.67400    1.000
    C228     C        0.59840    0.55730    0.62380    1.000
    C229     C        0.39480    0.49840    0.65800    1.000
    H141     H        0.40920    0.44350    0.64960    1.000
    C230     C        0.06560    0.79400    0.52510    1.000
    H142     H        0.10740    0.82250    0.53750    1.000
    C231     C        0.34850    0.66230    0.67900    1.000
    C232     C        0.53600    0.52730    0.58600    1.000
    H143     H        0.53230    0.50130    0.55460    1.000
    C233     C        0.09810    0.84210    0.69490    1.000
    H144     H        0.09440    0.86070    0.72510    1.000
    C234     C        0.90870    0.65880    0.31840    1.000
    H145     H        0.91330    0.63950    0.28870    1.000
    C235     C        0.96090    0.67420    0.36680    1.000
    H146     H        0.00660    0.66790    0.37620    1.000
    C236     C        0.31340    0.41020    0.68130    1.000
    C237     C        0.18390    0.56910    0.55670    1.000
    H147     H        0.18260    0.59130    0.58720    1.000
    C238     C        0.32250    0.74950    0.69170    1.000
    Ni15     Ni       0.24601    0.32837    0.74430    1.000
    Ni16     Ni       0.21899    0.00586    0.03944    1.000
    O57      O        0.78410    0.07210    0.84863    1.000
    O58      O        0.21310    0.23960    0.78401    1.000
    O59      O        0.13520    0.05040    0.97232    1.000
    O60      O        0.84750    0.01190    0.92800    1.000
    O61      O        0.22290    0.91710    0.79550    1.000
    O62      O        0.16480    0.32480    0.82310    1.000
    N43      N        0.34270    0.32890    0.80800    1.000
    O63      O        0.17300    0.83510    0.83470    1.000
    N44      N        0.27950    0.03050    0.00270    1.000
    N45      N        0.65120    0.17540    0.18050    1.000
    N46      N        0.56780    0.20090    0.10110    1.000
    N47      N        0.42670    0.30100    0.88600    1.000
    C239     C        0.02160    0.03580    0.90530    1.000
    O64      O        0.08790    0.91150    0.95020    1.000
    C240     C        0.52640    0.23630    0.95940    1.000
    H148     H        0.54550    0.22630    0.93620    1.000
    C241     C        0.09860    0.16100    0.83560    1.000
    H149     H        0.07910    0.21600    0.83840    1.000
    N48      N        0.36820    0.03140    0.98640    1.000
    C242     C        0.07500    0.07930    0.84600    1.000
    C243     C        0.48610    0.99950    0.04300    1.000
    H150     H        0.47670    0.99940    0.07220    1.000
    C244     C        0.01650    0.07580    0.85880    1.000
    C245     C        0.17930    0.07950    0.81590    1.000
    H151     H        0.21380    0.07970    0.80550    1.000
    C246     C        0.47010    0.26790    0.02880    1.000
    H152     H        0.45170    0.27840    0.05230    1.000
    C247     C        0.56130    0.21170    0.01220    1.000
    H153     H        0.60380    0.18520    0.02450    1.000
    C248     C        0.36000    0.30530    0.85720    1.000
    H154     H        0.32920    0.29310    0.87060    1.000
    C249     C        0.46350    0.27570    0.94110    1.000
    C250     C        0.89660    0.09680    0.82910    1.000
    H155     H        0.85490    0.11630    0.80340    1.000
    C251     C        0.84010    0.04650    0.88540    1.000
    C252     C        0.53330    0.22630    0.04640    1.000
    C253     C        0.63470    0.20030    0.13070    1.000
    H156     H        0.66580    0.21520    0.11800    1.000
    C254     C        0.43540    0.01640    0.99360    1.000
    C255     C        0.34340    0.00970    0.02060    1.000
    H157     H        0.36880    0.98280    0.05350    1.000
    C256     C        0.26100    0.06760    0.95420    1.000
    H158     H        0.21810    0.08870    0.93170    1.000
    C257     C        0.95320    0.10690    0.82060    1.000
    H159     H        0.94940    0.13430    0.78960    1.000
    C258     C        0.08730    0.99620    0.94580    1.000
    C259     C        0.45450    0.32420    0.85260    1.000
    H160     H        0.50010    0.32710    0.86100    1.000
    C260     C        0.44860    0.01740    0.94980    1.000
    H161     H        0.41430    0.02930    0.91610    1.000
    C261     C        0.15650    0.99630    0.82600    1.000
    C262     C        0.90160    0.05730    0.87620    1.000
    C263     C        0.10520    0.99840    0.84200    1.000
    H162     H        0.09080    0.94350    0.85040    1.000
    C264     C        0.43440    0.29400    0.97490    1.000
    H163     H        0.39260    0.32250    0.96250    1.000
    C265     C        0.15150    0.16230    0.82100    1.000
    C266     C        0.96400    0.02730    0.91400    1.000
    H164     H        0.96770    0.00130    0.94540    1.000
    C267     C        0.40190    0.34210    0.80510    1.000
    H165     H        0.40560    0.36070    0.77490    1.000
    C268     C        0.59130    0.15880    0.18160    1.000
    H166     H        0.58670    0.13950    0.21130    1.000
    C269     C        0.53910    0.17420    0.13320    1.000
    H167     H        0.49340    0.16790    0.12380    1.000
    C270     C        0.18660    0.91020    0.81870    1.000
    C271     C        0.31610    0.06910    0.94330    1.000
    H168     H        0.31740    0.09130    0.91280    1.000
    C272     C        0.17750    0.24950    0.80830    1.000
