data_functionalizedCrystal
_audit_creation_method	'EQeq! by Chris Wilmer'
_symmetry_space_group_name_H-M	'P1'
_symmetry_Int_Tables_number	1
_symmetry_cell_setting	triclinic
loop_
_symmetry_equiv_pos_as_xyz
  x,y,z
_cell_length_a	18.2682
_cell_length_b	18.2682
_cell_length_c	21.5749
_cell_angle_alpha	69.6403
_cell_angle_beta	69.6403
_cell_angle_gamma	100.266
loop_
_atom_site_label
_atom_site_type_symbol
_atom_site_fract_x
_atom_site_fract_y
_atom_site_fract_z
_atom_site_charge
Mof_Ce	Ce	0.85212	0.10212	0.75	2.861
Mof_Ce	Ce	0.14788	0.89788	0.25	2.861
Mof_Ce	Ce	0.60212	0.35212	0.25	2.864
Mof_Ce	Ce	0.39788	0.64788	0.75	2.864
Mof_Co	Co	0.89217	0.60783	0.75	1.171
Mof_Co	Co	0.35783	0.14217	0.75	1.171
Mof_Co	Co	0.10783	0.39217	0.25	1.171
Mof_Co	Co	0.64217	0.85783	0.25	1.171
Mof_H 	H 	0.8828	0.6972	0.6056	0.016
Mof_H 	H 	0.2423	0.8603	0.7742	0.073
Mof_H 	H 	0.6974	0.7914	0.045	0.059
Mof_H 	H 	0.9101	0.4463	0.1366	0.06
Mof_H 	H 	0.3603	0.7423	0.2742	0.074
Mof_H 	H 	0.6777	0.6717	0.1346	0.062
Mof_H 	H 	0.9505	0.5447	0.6334	0.012
Mof_H 	H 	0.0447	0.4505	0.1334	0.013
Mof_H 	H 	0.8219	0.9161	0.1334	0.012
Mof_H 	H 	0.7728	0.8222	0.7486	0.078
Mof_H 	H 	0.3026	0.2086	0.955	0.059
Mof_H 	H 	0.0495	0.4553	0.3666	0.012
Mof_H 	H 	0.2426	0.4936	0.2702	0.005
Mof_H 	H 	0.0198	0.217	0.5164	0.057
Mof_H 	H 	0.6972	0.0116	0.1056	0.016
Mof_H 	H 	0.0064	0.2574	0.2298	0.006
Mof_H 	H 	0.6397	0.2577	0.7258	0.074
Mof_H 	H 	0.7577	0.1397	0.2258	0.073
Mof_H 	H 	0.7086	0.8026	0.455	0.059
Mof_H 	H 	0.6778	0.7272	0.7514	0.078
Mof_H 	H 	0.1717	0.1777	0.6346	0.062
Mof_H 	H 	0.9553	0.5495	0.8666	0.013
Mof_H 	H 	0.8123	0.3063	0.8654	0.062
Mof_H 	H 	0.5839	0.6781	0.3666	0.012
Mof_H 	H 	0.3222	0.2728	0.2486	0.078
Mof_H 	H 	0.9835	0.8655	0.7742	0.074
Mof_H 	H 	0.1172	0.3028	0.3944	0.016
Mof_H 	H 	0.1636	0.7576	0.545	0.059
Mof_H 	H 	0.9802	0.783	0.4836	0.057
Mof_H 	H 	0.7574	0.5064	0.7298	0.005
Mof_H 	H 	0.5116	0.1972	0.6056	0.016
Mof_H 	H 	0.3223	0.3283	0.8654	0.062
Mof_H 	H 	0.1877	0.6937	0.1346	0.062
Mof_H 	H 	0.6345	0.5165	0.7258	0.074
Mof_H 	H 	0.7334	0.0362	0.9836	0.056
Mof_H 	H 	0.4872	0.7362	0.2702	0.005
Mof_H 	H 	0.4171	0.4533	0.6366	0.06
Mof_H 	H 	0.1972	0.3828	0.1056	0.016
Mof_H 	H 	0.4884	0.8028	0.3944	0.016
Mof_H 	H 	0.4638	0.7666	0.5164	0.058
Mof_H 	H 	0.5128	0.2638	0.7298	0.005
Mof_H 	H 	0.4161	0.3219	0.6334	0.012
Mof_H 	H 	0.5214	0.0708	0.2514	0.078
Mof_H 	H 	0.5362	0.2334	0.4836	0.058
Mof_H 	H 	0.7424	0.3364	0.955	0.059
Mof_H 	H 	0.283	0.4802	0.9836	0.057
Mof_H 	H 	0.9533	0.9171	0.1366	0.06
Mof_H 	H 	0.7638	0.0128	0.2298	0.005
Mof_H 	H 	0.2272	0.1778	0.2514	0.078
Mof_H 	H 	0.9463	0.4101	0.6366	0.06
Mof_H 	H 	0.0899	0.5537	0.8634	0.06
Mof_H 	H 	0.3655	0.4835	0.2742	0.074
Mof_H 	H 	0.1781	0.0839	0.8666	0.012
Mof_H 	H 	0.9936	0.7426	0.7702	0.006
Mof_H 	H 	0.4786	0.9292	0.7486	0.078
Mof_H 	H 	0.4292	0.9786	0.2486	0.078
Mof_H 	H 	0.2914	0.1974	0.545	0.059
Mof_H 	H 	0.717	0.5198	0.0164	0.057
Mof_H 	H 	0.8283	0.8223	0.3654	0.062
Mof_H 	H 	0.2576	0.6636	0.045	0.059
Mof_H 	H 	0.2362	0.9872	0.7702	0.005
Mof_H 	H 	0.5829	0.5467	0.3634	0.06
Mof_H 	H 	0.5708	0.0214	0.7514	0.078
Mof_H 	H 	0.0165	0.1345	0.2258	0.074
Mof_H 	H 	0.1937	0.6877	0.6346	0.062
Mof_H 	H 	0.8063	0.3123	0.3654	0.062
Mof_H 	H 	0.0537	0.5899	0.3634	0.06
Mof_H 	H 	0.2666	0.9638	0.0164	0.056
Mof_H 	H 	0.8364	0.2424	0.455	0.059
Mof_H 	H 	0.0467	0.0829	0.8634	0.06
Mof_H 	H 	0.8028	0.6172	0.8944	0.016
Mof_H 	H 	0.3028	0.9884	0.8944	0.016
Mof_C 	C 	0.43987	0.92827	0.25386	-0.067
Mof_C 	C 	0.73912	0.50212	0.97956	-0.035
Mof_C 	C 	0.94265	0.83205	0.7683	-0.081
Mof_C 	C 	0.63895	0.11855	0.2385	0
Mof_C 	C 	0.15729	0.64269	0.18402	-0.05
Mof_C 	C 	0.99473	0.42453	0.18274	0.04
Mof_C 	C 	0.24543	0.60643	0.05654	-0.04
Mof_C 	C 	0.15209	0.61993	0.74758	-0.022
Mof_C 	C 	0.65665	0.74615	0.19	0.036
Mof_C 	C 	0.93615	0.34665	0.31	0.036
Mof_C 	C 	0.27973	0.58213	0.00234	-0.067
Mof_C 	C 	0.28207	0.08447	0.99766	-0.069
Mof_C 	C 	0.42012	0.01362	0.75406	0.041
Mof_C 	C 	0.14716	0.83956	0.42328	0.431
Mof_C 	C 	0.52498	0.21438	0.73364	0.06
Mof_C 	C 	0.36751	0.39967	0.75242	-0.021
Mof_C 	C 	0.84791	0.38007	0.25242	-0.022
Mof_C 	C 	0.48168	0.21868	0.52044	-0.036
Mof_C 	C 	0.36993	0.80173	0.75834	0.304
Mof_C 	C 	0.63007	0.19827	0.24166	0.304
Mof_C 	C 	0.91787	0.22027	0.49766	-0.069
Mof_C 	C 	0.48638	0.07988	0.74594	0.041
Mof_C 	C 	0.30197	0.16297	0.94346	-0.039
Mof_C 	C 	0.84271	0.35731	0.81598	-0.05
Mof_C 	C 	0.64295	0.62255	0.7385	0
Mof_C 	C 	0.89357	0.25457	0.44346	-0.039
Mof_C 	C 	0.10033	0.13249	0.74758	-0.022
Mof_C 	C 	0.94022	0.70912	0.59306	0.034
Mof_C 	C 	0.04608	0.69312	0.6278	0.028
Mof_C 	C 	0.60589	0.60249	0.31502	-0.046
Mof_C 	C 	0.23232	0.32582	0.25406	0.041
Mof_C 	C 	0.12255	0.14295	0.2385	0.001
Mof_C 	C 	0.24615	0.15665	0.69	0.036
Mof_C 	C 	0.57044	0.76284	0.57672	0.43
Mof_C 	C 	0.89967	0.86751	0.25242	-0.022
Mof_C 	C 	0.35705	0.37745	0.2615	0
Mof_C 	C 	0.65869	0.67329	0.18402	-0.05
Mof_C 	C 	0.17329	0.15869	0.68402	-0.05
Mof_C 	C 	0.71793	0.91553	0.00234	-0.069
Mof_C 	C 	0.39273	0.32253	0.68274	0.042
Mof_C 	C 	0.85731	0.34271	0.31598	-0.05
Mof_C 	C 	0.10249	0.10589	0.81502	-0.046
Mof_C 	C 	0.36105	0.88145	0.7615	0
Mof_C 	C 	0.05735	0.16795	0.2317	-0.081
Mof_C 	C 	0.99788	0.76088	0.52044	-0.033
Mof_C 	C 	0.05198	0.24138	0.23364	0.06
Mof_C 	C 	0.47502	0.78562	0.26636	0.06
Mof_C 	C 	0.98049	0.86713	0.25738	0.311
Mof_C 	C 	0.89751	0.89411	0.18498	-0.046
Mof_C 	C 	0.26284	0.07044	0.07672	0.434
Mof_C 	C 	0.91751	0.42091	0.18498	-0.045
Mof_C 	C 	0.71868	0.98168	0.02044	-0.033
Mof_C 	C 	0.28132	0.01832	0.97956	-0.033
Mof_C 	C 	0.11993	0.65209	0.24758	-0.021
Mof_C 	C 	0.87173	0.93993	0.75834	0.304
Mof_C 	C 	0.94802	0.75862	0.76636	0.06
Mof_C 	C 	0.74138	0.55198	0.73364	0.06
Mof_C 	C 	0.39965	0.78905	0.2683	-0.081
Mof_C 	C 	0.95392	0.30688	0.3722	0.028
Mof_C 	C 	0.01951	0.13287	0.74262	0.311
Mof_C 	C 	0.61855	0.13895	0.7385	0
Mof_C 	C 	0.26088	0.49788	0.02044	-0.035
Mof_C 	C 	0.34335	0.25385	0.81	0.036
Mof_C 	C 	0.28905	0.89965	0.7683	-0.081
Mof_C 	C 	0.30627	0.31787	0.25386	-0.067
Mof_C 	C 	0.75457	0.39357	0.94346	-0.04
Mof_C 	C 	0.51832	0.78132	0.47956	-0.036
Mof_C 	C 	0.08249	0.57909	0.81502	-0.045
Mof_C 	C 	0.12827	0.06007	0.24166	0.304
Mof_C 	C 	0.66297	0.80197	0.44346	-0.04
Mof_C 	C 	0.66044	0.35284	0.07672	0.43
Mof_C 	C 	0.67388	0.82092	0.3722	0.029
Mof_C 	C 	0.51362	0.92012	0.25406	0.041
Mof_C 	C 	0.72027	0.41787	0.99766	-0.067
Mof_C 	C 	0.92453	0.49473	0.68274	0.042
Mof_C 	C 	0.42956	0.23716	0.42328	0.43
Mof_C 	C 	0.17747	0.10727	0.81726	0.041
Mof_C 	C 	0.67908	0.82612	0.1278	0.028
Mof_C 	C 	0.84665	0.43615	0.81	0.036
Mof_C 	C 	0.42827	0.93987	0.75386	-0.067
Mof_C 	C 	0.25862	0.44802	0.26636	0.06
Mof_C 	C 	0.10643	0.74543	0.55654	-0.039
Mof_C 	C 	0.57988	0.98638	0.24594	0.041
Mof_C 	C 	0.30218	0.03328	0.90694	0.035
Mof_C 	C 	0.71095	0.10035	0.2317	-0.081
Mof_C 	C 	0.15335	0.56385	0.19	0.036
Mof_C 	C 	0.79088	0.55978	0.90694	0.035
Mof_C 	C 	0.12451	0.73787	0.24262	0.309
Mof_C 	C 	0.46672	0.19782	0.59306	0.035
Mof_C 	C 	0.56013	0.07173	0.74614	-0.067
Mof_C 	C 	0.36713	0.48049	0.75738	0.309
Mof_C 	C 	0.82671	0.84131	0.31598	-0.05
Mof_C 	C 	0.08213	0.77973	0.50234	-0.069
Mof_C 	C 	0.39411	0.39751	0.68498	-0.046
Mof_C 	C 	0.53328	0.80218	0.40694	0.035
Mof_C 	C 	0.69782	0.96672	0.09306	0.035
Mof_C 	C 	0.80688	0.45392	0.8722	0.029
Mof_C 	C 	0.23787	0.62451	0.74262	0.309
Mof_C 	C 	0.32612	0.17908	0.6278	0.029
Mof_C 	C 	0.41553	0.21793	0.50234	-0.067
Mof_C 	C 	0.76768	0.67418	0.74594	0.041
Mof_C 	C 	0.57173	0.06013	0.24614	-0.067
Mof_C 	C 	0.14269	0.65729	0.68402	-0.05
Mof_C 	C 	0.00212	0.23912	0.47956	-0.033
Mof_C 	C 	0.07547	0.50527	0.31726	0.042
Mof_C 	C 	0.69373	0.68213	0.74614	-0.067
Mof_C 	C 	0.87549	0.26213	0.75738	0.309
Mof_C 	C 	0.73716	0.92956	0.92328	0.434
Mof_C 	C 	0.30173	0.86993	0.25834	0.304
Mof_C 	C 	0.33205	0.44265	0.2683	-0.081
Mof_C 	C 	0.38145	0.86105	0.2615	0
Mof_C 	C 	0.82582	0.73232	0.75406	0.042
Mof_C 	C 	0.33956	0.64716	0.92328	0.43
Mof_C 	C 	0.82253	0.89273	0.18274	0.041
Mof_C 	C 	0.88007	0.34791	0.75242	-0.021
Mof_C 	C 	0.05978	0.29088	0.40694	0.034
Mof_C 	C 	0.60035	0.21095	0.7317	-0.081
Mof_C 	C 	0.85284	0.16044	0.57672	0.431
Mof_C 	C 	0.92091	0.41751	0.68498	-0.046
Mof_C 	C 	0.07909	0.58249	0.31502	-0.046
Mof_C 	C 	0.17418	0.26768	0.24594	0.042
Mof_C 	C 	0.71438	0.02498	0.23364	0.06
Mof_C 	C 	0.87745	0.85705	0.7615	0.001
Mof_C 	C 	0.43993	0.37173	0.25834	0.304
Mof_C 	C 	0.06385	0.65335	0.69	0.036
Mof_C 	C 	0.56007	0.62827	0.74166	0.304
Mof_C 	C 	0.60727	0.67747	0.31726	0.042
Mof_C 	C 	0.63287	0.51951	0.24262	0.309
Mof_C 	C 	0.76213	0.37549	0.25738	0.309
Mof_C 	C 	0.69827	0.13007	0.74166	0.304
Mof_C 	C 	0.63249	0.60033	0.24758	-0.021
Mof_C 	C 	0.00527	0.57547	0.81726	0.04
Mof_C 	C 	0.34131	0.32671	0.81598	-0.05
Mof_C 	C 	0.20912	0.44022	0.09306	0.035
Mof_C 	C 	0.28562	0.97502	0.76636	0.06
Mof_C 	C 	0.33703	0.19803	0.55654	-0.04
Mof_C 	C 	0.58447	0.78207	0.49766	-0.067
Mof_C 	C 	0.19312	0.54608	0.1278	0.029
Mof_C 	C 	0.18213	0.19373	0.24614	-0.067
Mof_C 	C 	0.75385	0.84335	0.31	0.036
Mof_C 	C 	0.32092	0.17388	0.8722	0.028
Mof_C 	C 	0.81787	0.80627	0.75386	-0.067
Mof_C 	C 	0.69803	0.83703	0.05654	-0.039
Mof_C 	C 	0.66795	0.55735	0.7317	-0.081
Mof_N 	N 	0.39083	0.17853	0.64584	-0.243
Mof_N 	N 	0.24794	0.1323	0.75636	-0.245
Mof_N 	N 	0.34953	0.03193	0.75918	-0.25
Mof_N 	N 	0.3677	0.25206	0.74364	-0.245
Mof_N 	N 	0.9957	0.61134	0.75636	-0.244
Mof_N 	N 	0.88866	0.5043	0.74364	-0.245
Mof_N 	N 	0.79111	0.60871	0.74082	-0.25
Mof_N 	N 	0.96333	0.67563	0.64584	-0.242
Mof_N 	N 	0.65047	0.96807	0.24082	-0.25
Mof_N 	N 	0.46807	0.15047	0.74082	-0.25
Mof_N 	N 	0.0043	0.38866	0.24364	-0.244
Mof_N 	N 	0.82437	0.53667	0.85416	-0.243
Mof_N 	N 	0.03667	0.32437	0.35416	-0.242
Mof_N 	N 	0.67853	0.89083	0.14584	-0.242
Mof_N 	N 	0.6323	0.74794	0.25636	-0.245
Mof_N 	N 	0.89129	0.70889	0.75918	-0.25
Mof_N 	N 	0.53193	0.84953	0.25918	-0.25
Mof_N 	N 	0.20889	0.39129	0.25918	-0.25
Mof_N 	N 	0.32147	0.10917	0.85416	-0.242
Mof_N 	N 	0.75206	0.8677	0.24364	-0.245
Mof_N 	N 	0.17563	0.46333	0.14584	-0.243
Mof_N 	N 	0.11134	0.4957	0.25636	-0.245
Mof_N 	N 	0.10871	0.29111	0.24082	-0.25
Mof_N 	N 	0.60917	0.82147	0.35416	-0.243
Mof_O 	O 	0.55924	0.20038	0.27018	-0.447
Mof_O 	O 	0.70038	0.05924	0.77018	-0.447
Mof_O 	O 	0.22021	0.86521	0.41238	-0.284
Mof_O 	O 	0.75917	0.19583	0.7134	-0.399
Mof_O 	O 	0.98455	0.85979	0.31608	-0.427
Mof_O 	O 	0.2346	0.99582	0.12318	-0.575
Mof_O 	O 	0.69583	0.25917	0.2134	-0.399
Mof_O 	O 	0.77979	0.13479	0.58762	-0.284
Mof_O 	O 	0.36741	0.22241	0.41238	-0.284
Mof_O 	O 	0.62499	0.46007	0.29852	-0.452
Mof_O 	O 	0.119	0.85778	0.37682	-0.573
Mof_O 	O 	0.01545	0.14021	0.68392	-0.427
Mof_O 	O 	0.44076	0.79962	0.72982	-0.447
Mof_O 	O 	0.17587	0.80063	0.18392	-0.427
Mof_O 	O 	0.881	0.14222	0.62318	-0.573
Mof_O 	O 	0.09077	0.02743	0.2134	-0.398
Mof_O 	O 	0.49582	0.7346	0.62318	-0.573
Mof_O 	O 	0.37501	0.53993	0.70148	-0.452
Mof_O 	O 	0.24141	0.57649	0.79852	-0.452
Mof_O 	O 	0.7654	0.00418	0.87682	-0.575
Mof_O 	O 	0.17058	0.02944	0.27018	-0.446
Mof_O 	O 	0.64222	0.381	0.12318	-0.573
Mof_O 	O 	0.27759	0.13259	0.08762	-0.284
Mof_O 	O 	0.35778	0.619	0.87682	-0.573
Mof_O 	O 	0.63259	0.77759	0.58762	-0.284
Mof_O 	O 	0.47257	0.40923	0.2866	-0.399
Mof_O 	O 	0.03993	0.87501	0.20148	-0.454
Mof_O 	O 	0.47056	0.32942	0.22982	-0.447
Mof_O 	O 	0.63479	0.27979	0.08762	-0.284
Mof_O 	O 	0.07649	0.74141	0.29852	-0.452
Mof_O 	O 	0.52944	0.67058	0.77018	-0.447
Mof_O 	O 	0.50418	0.2654	0.37682	-0.573
Mof_O 	O 	0.52743	0.59077	0.7134	-0.399
Mof_O 	O 	0.90923	0.97257	0.7866	-0.398
Mof_O 	O 	0.92351	0.25859	0.70148	-0.452
Mof_O 	O 	0.82942	0.97056	0.72982	-0.446
Mof_O 	O 	0.64021	0.51545	0.18392	-0.427
Mof_O 	O 	0.96007	0.12499	0.79852	-0.454
Mof_O 	O 	0.30063	0.67587	0.68392	-0.427
Mof_O 	O 	0.24083	0.80417	0.2866	-0.399
Mof_O 	O 	0.69937	0.32413	0.31608	-0.427
Mof_O 	O 	0.82413	0.19937	0.81608	-0.427
Mof_O 	O 	0.75859	0.42351	0.20148	-0.452
Mof_O 	O 	0.72241	0.86741	0.91238	-0.284
Mof_O 	O 	0.29962	0.94076	0.22982	-0.447
Mof_O 	O 	0.30417	0.74083	0.7866	-0.399
Mof_O 	O 	0.35979	0.48455	0.81608	-0.427
Mof_O 	O 	0.36521	0.72021	0.91238	-0.284
_end
