data_functionalizedCrystal
_audit_creation_method	'EQeq! by Chris Wilmer'
_symmetry_space_group_name_H-M	'P1'
_symmetry_Int_Tables_number	1
_symmetry_cell_setting	triclinic
loop_
_symmetry_equiv_pos_as_xyz
  x,y,z
_cell_length_a	10.225
_cell_length_b	13.954
_cell_length_c	19.053
_cell_angle_alpha	90
_cell_angle_beta	90
_cell_angle_gamma	99.509
loop_
_atom_site_label
_atom_site_type_symbol
_atom_site_fract_x
_atom_site_fract_y
_atom_site_fract_z
_atom_site_charge
Mof_K 	K 	0.68135	0.5887	0.85146	3.973
Mof_K 	K 	0.6684	0.08141	0.35274	3.813
Mof_K 	K 	0.8214	0.41787	0.54858	3.955
Mof_K 	K 	0.1734	0.09519	0.55079	4.024
Mof_K 	K 	0.31865	0.4113	0.35146	3.831
Mof_K 	K 	0.3316	0.91859	0.85274	3.966
Mof_K 	K 	0.1786	0.58213	0.04858	3.342
Mof_K 	K 	0.8266	0.90481	0.05079	3.385
Mof_Zr	Zr	0.49856	0.25612	0.62867	3.191
Mof_Zr	Zr	0.00885	0.75503	0.77298	3.189
Mof_Zr	Zr	0.50144	0.74388	0.12867	3.191
Mof_Zr	Zr	0.99115	0.24497	0.27298	3.189
Mof_C 	C 	0.6699	0.1658	0.5228	0.264
Mof_C 	C 	0.5285	0.1066	0.5152	0.306
Mof_C 	C 	0.4944	0.0836	0.7276	0.24
Mof_C 	C 	0.3477	0.1015	0.7253	0.288
Mof_C 	C 	0.5104	0.4286	0.7296	0.261
Mof_C 	C 	0.6572	0.4146	0.7205	0.248
Mof_C 	C 	0.3196	0.3413	0.5242	0.246
Mof_C 	C 	0.4571	0.4038	0.5152	0.301
Mof_C 	C 	0.1846	0.6678	0.8758	0.252
Mof_C 	C 	0.0432	0.6044	0.8847	0.319
Mof_C 	C 	0.0017	0.5869	0.6665	0.226
Mof_C 	C 	0.8693	0.6221	0.6592	0.267
Mof_C 	C 	0.1556	0.8973	0.6669	0.248
Mof_C 	C 	0.0197	0.9299	0.6717	0.241
Mof_C 	C 	0.8282	0.8374	0.8756	0.249
Mof_C 	C 	0.9669	0.9003	0.8877	0.314
Mof_C 	C 	0.3301	0.8342	0.0228	0.059
Mof_C 	C 	0.4715	0.8934	0.0152	0.104
Mof_C 	C 	0.5056	0.9164	0.2276	0.237
Mof_C 	C 	0.6523	0.8985	0.2253	0.283
Mof_C 	C 	0.4896	0.5714	0.2296	0.257
Mof_C 	C 	0.3428	0.5854	0.2205	0.245
Mof_C 	C 	0.6804	0.6587	0.0242	0.038
Mof_C 	C 	0.5429	0.5962	0.0152	0.096
Mof_C 	C 	0.8154	0.3322	0.3758	0.246
Mof_C 	C 	0.9568	0.3956	0.3847	0.316
Mof_C 	C 	0.9983	0.4131	0.1665	0.223
Mof_C 	C 	0.1307	0.3779	0.1592	0.263
Mof_C 	C 	0.8444	0.1027	0.1669	0.245
Mof_C 	C 	0.9803	0.0701	0.1717	0.235
Mof_C 	C 	0.1718	0.1626	0.3756	0.246
Mof_C 	C 	0.0331	0.0997	0.3877	0.296
Mof_O 	O 	0.6768	0.2313	0.5708	-0.963
Mof_O 	O 	0.4446	0.1322	0.5572	-1.015
Mof_O 	O 	0.7606	0.1484	0.4864	-0.768
Mof_O 	O 	0.5059	0.0403	0.4712	-0.753
Mof_O 	O 	0.5751	0.1484	0.6954	-0.619
Mof_O 	O 	0.3323	0.1708	0.684	-0.838
Mof_O 	O 	0.5201	0.0107	0.7563	-0.643
Mof_O 	O 	0.2624	0.0516	0.7606	-0.704
Mof_O 	O 	0.4288	0.3641	0.697	-0.628
Mof_O 	O 	0.6694	0.3425	0.6799	-0.842
Mof_O 	O 	0.4851	0.4971	0.7636	-0.678
Mof_O 	O 	0.7472	0.4687	0.7492	-0.702
Mof_O 	O 	0.3146	0.2798	0.5744	-0.965
Mof_O 	O 	0.5448	0.3803	0.5561	-0.988
Mof_O 	O 	0.2272	0.3529	0.4862	-0.784
Mof_O 	O 	0.4756	0.4688	0.4707	-0.742
Mof_O 	O 	0.1899	0.7301	0.8261	-0.953
Mof_O 	O 	0.9571	0.6318	0.8443	-0.996
Mof_O 	O 	0.275	0.6541	0.9153	-0.655
Mof_O 	O 	0.0263	0.5377	0.9268	-0.653
Mof_O 	O 	0.0794	0.6364	0.7108	-0.585
Mof_O 	O 	0.8511	0.6877	0.7044	-0.751
Mof_O 	O 	0.0282	0.5187	0.6304	-0.631
Mof_O 	O 	0.7898	0.5916	0.6122	-0.671
Mof_O 	O 	0.1718	0.8293	0.7104	-0.782
Mof_O 	O 	0.9426	0.8787	0.7154	-0.581
Mof_O 	O 	0.2376	0.9339	0.6229	-0.652
Mof_O 	O 	0.9905	0.9966	0.6371	-0.687
Mof_O 	O 	0.8248	0.7766	0.8255	-0.949
Mof_O 	O 	0.0573	0.8731	0.8487	-1.011
Mof_O 	O 	0.7359	0.8475	0.9156	-0.674
Mof_O 	O 	0.982	0.9673	0.9292	-0.615
Mof_O 	O 	0.3232	0.7687	0.0708	-0.888
Mof_O 	O 	0.5554	0.8678	0.0572	-0.939
Mof_O 	O 	0.2394	0.8516	0.9864	-0.554
Mof_O 	O 	0.4941	0.9597	0.9712	-0.544
Mof_O 	O 	0.4249	0.8516	0.1954	-0.62
Mof_O 	O 	0.6677	0.8292	0.184	-0.809
Mof_O 	O 	0.4799	0.9893	0.2563	-0.632
Mof_O 	O 	0.7376	0.9484	0.2606	-0.685
Mof_O 	O 	0.5712	0.6359	0.197	-0.631
Mof_O 	O 	0.3306	0.6575	0.1799	-0.812
Mof_O 	O 	0.5149	0.5029	0.2636	-0.673
Mof_O 	O 	0.2528	0.5313	0.2492	-0.684
Mof_O 	O 	0.6854	0.7202	0.0744	-0.885
Mof_O 	O 	0.4552	0.6197	0.0561	-0.917
Mof_O 	O 	0.7728	0.6471	0.9862	-0.563
Mof_O 	O 	0.5244	0.5312	0.9707	-0.533
Mof_O 	O 	0.8101	0.2699	0.3261	-0.948
Mof_O 	O 	0.0429	0.3682	0.3443	-0.998
Mof_O 	O 	0.725	0.3459	0.4153	-0.765
Mof_O 	O 	0.9737	0.4623	0.4268	-0.765
Mof_O 	O 	0.9206	0.3636	0.2108	-0.587
Mof_O 	O 	0.1489	0.3123	0.2044	-0.748
Mof_O 	O 	0.9718	0.4813	0.1304	-0.604
Mof_O 	O 	0.2102	0.4084	0.1122	-0.637
Mof_O 	O 	0.8282	0.1707	0.2104	-0.777
Mof_O 	O 	0.0574	0.1213	0.2154	-0.583
Mof_O 	O 	0.7624	0.0661	0.1229	-0.617
Mof_O 	O 	0.0095	0.0034	0.1371	-0.644
Mof_O 	O 	0.1752	0.2234	0.3255	-0.946
Mof_O 	O 	0.9427	0.1269	0.3487	-1.004
Mof_O 	O 	0.2641	0.1525	0.4156	-0.789
Mof_O 	O 	0.018	0.0327	0.4292	-0.731
Mof_H 	H 	0.6757	0.6872	0.6091	0.124
Mof_H 	H 	0.3852	0.867	0.6254	0.118
Mof_H 	H 	0.748	0.8398	0.5718	-0.026
Mof_H 	H 	0.7316	0.8443	0.657	0.038
Mof_H 	H 	0.5732	0.9123	0.5524	-0.028
Mof_H 	H 	0.5927	0.9474	0.6341	0.015
Mof_H 	H 	0.4819	0.6388	0.6781	-0.034
Mof_H 	H 	0.6054	0.7026	0.7204	-0.162
Mof_H 	H 	0.3692	0.7549	0.7104	-0.063
Mof_H 	H 	0.5054	0.832	0.7239	-0.118
Mof_H 	H 	0.4949	0.6325	0.5487	-0.024
Mof_H 	H 	0.5699	0.7293	0.5081	-0.049
Mof_H 	H 	0.3777	0.7868	0.5235	-0.042
Mof_H 	H 	0.3279	0.7077	0.585	0.002
Mof_C 	C 	0.6836	0.8283	0.6117	-0.025
Mof_C 	C 	0.575	0.8897	0.6022	-0.003
Mof_C 	C 	0.5418	0.7031	0.6806	0.055
Mof_C 	C 	0.4583	0.7822	0.6908	0.018
Mof_C 	C 	0.5251	0.7042	0.5527	-0
Mof_C 	C 	0.4044	0.7556	0.5673	-0.018
Mof_N 	N 	0.6164	0.7241	0.6121	-0.197
Mof_N 	N 	0.4443	0.83	0.6221	-0.192
Mof_H 	H 	0.8616	0.122	0.7739	0.101
Mof_H 	H 	0.1221	0.3876	0.7718	0.104
Mof_H 	H 	0.8168	0.225	0.8567	-0.009
Mof_H 	H 	0.7725	0.2642	0.781	0.012
Mof_H 	H 	0.9812	0.3514	0.8674	-0.016
Mof_H 	H 	0.9129	0.4014	0.8025	-0.025
Mof_H 	H 	0.9832	0.159	0.6741	-0.133
Mof_H 	H 	0.8519	0.2115	0.6761	-0.062
Mof_H 	H 	0.1062	0.3053	0.6692	-0.094
Mof_H 	H 	0.976	0.3576	0.6797	-0.141
Mof_H 	H 	0.0736	0.1084	0.7908	-0.004
Mof_H 	H 	0.0181	0.1533	0.8619	-0.01
Mof_H 	H 	0.2126	0.2461	0.7681	0.02
Mof_H 	H 	0.1799	0.2802	0.8473	-0.008
Mof_C 	C 	0.8492	0.2503	0.8096	-0.036
Mof_C 	C 	0.9522	0.3436	0.8173	0.016
Mof_C 	C 	0.9384	0.2073	0.6994	0.03
Mof_C 	C 	0.0263	0.3078	0.6989	0.048
Mof_C 	C 	0.0379	0.165	0.8109	-0.002
Mof_C 	C 	0.1405	0.258	0.8008	-0.029
Mof_N 	N 	0.9146	0.1767	0.7733	-0.183
Mof_N 	N 	0.0689	0.333	0.7723	-0.191
Mof_H 	H 	0.3243	0.3128	0.1091	0.118
Mof_H 	H 	0.6148	0.133	0.1254	0.115
Mof_H 	H 	0.252	0.1602	0.0718	-0.049
Mof_H 	H 	0.2684	0.1557	0.157	0.037
Mof_H 	H 	0.4268	0.0877	0.0524	-0.068
Mof_H 	H 	0.4073	0.0526	0.1341	0.009
Mof_H 	H 	0.5181	0.3612	0.1781	-0.033
Mof_H 	H 	0.3946	0.2974	0.2204	-0.155
Mof_H 	H 	0.6308	0.2451	0.2104	-0.061
Mof_H 	H 	0.4946	0.168	0.2239	-0.115
Mof_H 	H 	0.5051	0.3675	0.0487	-0.061
Mof_H 	H 	0.4301	0.2707	0.0081	-0.1
Mof_H 	H 	0.6223	0.2132	0.0235	-0.084
Mof_H 	H 	0.6721	0.2923	0.085	-0.014
Mof_C 	C 	0.3164	0.1717	0.1117	-0.029
Mof_C 	C 	0.425	0.1103	0.1022	0.008
Mof_C 	C 	0.4582	0.2969	0.1806	0.051
Mof_C 	C 	0.5417	0.2178	0.1908	0.017
Mof_C 	C 	0.4749	0.2958	0.0527	0.014
Mof_C 	C 	0.5956	0.2444	0.0673	-0.019
Mof_N 	N 	0.3836	0.2759	0.1121	-0.198
Mof_N 	N 	0.5557	0.17	0.1221	-0.194
Mof_H 	H 	0.1384	0.878	0.2739	0.097
Mof_H 	H 	0.8779	0.6124	0.2718	0.099
Mof_H 	H 	0.1832	0.775	0.3567	-0.041
Mof_H 	H 	0.2275	0.7358	0.281	0.007
Mof_H 	H 	0.0188	0.6486	0.3674	-0.047
Mof_H 	H 	0.0871	0.5986	0.3025	-0.027
Mof_H 	H 	0.0168	0.841	0.1741	-0.112
Mof_H 	H 	0.1481	0.7885	0.1761	-0.052
Mof_H 	H 	0.8938	0.6947	0.1692	-0.083
Mof_H 	H 	0.024	0.6424	0.1797	-0.118
Mof_H 	H 	0.9264	0.8916	0.2908	-0.002
Mof_H 	H 	0.9819	0.8467	0.3619	-0.033
Mof_H 	H 	0.7874	0.7539	0.2681	0.017
Mof_H 	H 	0.8201	0.7198	0.3473	-0.035
Mof_C 	C 	0.1508	0.7497	0.3096	-0.032
Mof_C 	C 	0.0478	0.6564	0.3173	0.017
Mof_C 	C 	0.0616	0.7927	0.1994	0.018
Mof_C 	C 	0.9737	0.6922	0.1989	0.036
Mof_C 	C 	0.9621	0.835	0.3109	0.001
Mof_C 	C 	0.8595	0.742	0.3008	-0.025
Mof_N 	N 	0.0854	0.8233	0.2733	-0.182
Mof_N 	N 	0.9311	0.667	0.2723	-0.187
_end
