# CIF file generated by openbabel 3.1.0, see https://openbabel.org
data_I
_chemical_name_common 'AFOVOH_clean'
_cell_length_a 8.723
_cell_length_b 14.179
_cell_length_c 15.0312
_cell_angle_alpha 114.83
_cell_angle_beta 106.868
_cell_angle_gamma 90
_space_group_name_H-M_alt 'P 1'
_space_group_name_Hall 'P 1'
loop_
    _symmetry_equiv_pos_as_xyz
    x,y,z
loop_
    _atom_site_label
    _atom_site_type_symbol
    _atom_site_fract_x
    _atom_site_fract_y
    _atom_site_fract_z
    _atom_site_occupancy
    Nd1      Nd       0.90417    0.00504    0.54618    1.000
    Nd2      Nd       0.35799    0.99496    0.45382    1.000
    H1       H        0.84310    0.79670    0.66340    1.000
    H2       H        0.85330    0.64160    0.68280    1.000
    H3       H        0.37940    0.55870    0.53720    1.000
    H4       H        0.36400    0.71790    0.52540    1.000
    H5       H        0.82050    0.52990    0.74580    1.000
    H6       H        0.85840    0.36380    0.73960    1.000
    H7       H        0.46850    0.23600    0.48680    1.000
    H8       H        0.44420    0.39250    0.48140    1.000
    H9       H        0.79280    0.71540    0.22520    1.000
    H10      H        0.72560    0.56430    0.07360    1.000
    H11      H        0.25680    0.58490    0.05120    1.000
    H12      H        0.33440    0.71970    0.21360    1.000
    H13      H        0.17970    0.20330    0.33660    1.000
    H14      H        0.17050    0.35840    0.31720    1.000
    H15      H        0.84220    0.44130    0.46280    1.000
    H16      H        0.83860    0.28210    0.47460    1.000
    H17      H        0.07470    0.47010    0.25420    1.000
    H18      H        0.11880    0.63620    0.26040    1.000
    H19      H        0.98170    0.76400    0.51320    1.000
    H20      H        0.96280    0.60750    0.51860    1.000
    H21      H        0.56760    0.28460    0.77480    1.000
    H22      H        0.65200    0.43570    0.92640    1.000
    H23      H        0.20560    0.41510    0.94880    1.000
    H24      H        0.12080    0.28030    0.78640    1.000
    C1       C        0.59770    0.86820    0.57480    1.000
    C2       C        0.60250    0.76980    0.58860    1.000
    C3       C        0.74970    0.74920    0.63760    1.000
    C4       C        0.75540    0.65470    0.64780    1.000
    C5       C        0.61900    0.58060    0.60680    1.000
    C6       C        0.47330    0.60560    0.56240    1.000
    C7       C        0.46370    0.70130    0.55400    1.000
    C8       C        0.62940    0.47860    0.61200    1.000
    C9       C        0.75350    0.47020    0.69160    1.000
    C10      C        0.77490    0.37040    0.68840    1.000
    C11      C        0.67210    0.28240    0.60960    1.000
    C12      C        0.54380    0.29420    0.53600    1.000
    C13      C        0.52620    0.38810    0.53460    1.000
    C14      C        0.71160    0.17550    0.60240    1.000
    C15      C        0.61650    0.83330    0.33080    1.000
    C16      C        0.57280    0.73520    0.23600    1.000
    C17      C        0.68470    0.68600    0.19220    1.000
    C18      C        0.64550    0.59450    0.10100    1.000
    C19      C        0.47930    0.54610    0.04860    1.000
    C20      C        0.36620    0.60470    0.08920    1.000
    C21      C        0.41280    0.69060    0.18360    1.000
    C22      C        0.02290    0.13180    0.42520    1.000
    C23      C        0.01390    0.23020    0.41140    1.000
    C24      C        0.11210    0.25080    0.36240    1.000
    C25      C        0.10760    0.34530    0.35220    1.000
    C26      C        0.01220    0.41940    0.39320    1.000
    C27      C        0.91090    0.39440    0.43760    1.000
    C28      C        0.90970    0.29870    0.44600    1.000
    C29      C        0.01740    0.52140    0.38800    1.000
    C30      C        0.06190    0.52980    0.30840    1.000
    C31      C        0.08650    0.62960    0.31160    1.000
    C32      C        0.06250    0.71760    0.39040    1.000
    C33      C        0.00780    0.70580    0.46400    1.000
    C34      C        0.99160    0.61190    0.46540    1.000
    C35      C        0.10920    0.82450    0.39760    1.000
    C36      C        0.28570    0.16670    0.66920    1.000
    C37      C        0.33680    0.26480    0.76400    1.000
    C38      C        0.49250    0.31400    0.80780    1.000
    C39      C        0.54450    0.40550    0.89900    1.000
    C40      C        0.43070    0.45390    0.95140    1.000
    C41      C        0.27700    0.39530    0.91080    1.000
    C42      C        0.22920    0.30940    0.81640    1.000
    O1       O        0.72390    0.91540    0.58560    1.000
    O2       O        0.45800    0.89850    0.55120    1.000
    O3       O        0.62760    0.09580    0.52160    1.000
    O4       O        0.83270    0.16990    0.66540    1.000
    O5       O        0.76610    0.87110    0.37520    1.000
    O6       O        0.50740    0.87630    0.36160    1.000
    O7       O        0.13830    0.08460    0.41440    1.000
    O8       O        0.90680    0.10150    0.44880    1.000
    O9       O        0.10600    0.90420    0.47840    1.000
    O10      O        0.16730    0.83010    0.33460    1.000
    O11      O        0.39090    0.12890    0.62480    1.000
    O12      O        0.14580    0.12370    0.63840    1.000
