data_functionalizedCrystal
_audit_creation_method	'EQeq! by Chris Wilmer'
_symmetry_space_group_name_H-M	'P1'
_symmetry_Int_Tables_number	1
_symmetry_cell_setting	triclinic
loop_
_symmetry_equiv_pos_as_xyz
  x,y,z
_cell_length_a	9.976
_cell_length_b	10.359
_cell_length_c	12.98
_cell_angle_alpha	90
_cell_angle_beta	90
_cell_angle_gamma	90
loop_
_atom_site_label
_atom_site_type_symbol
_atom_site_fract_x
_atom_site_fract_y
_atom_site_fract_z
_atom_site_charge
Mof_Zn	Zn	0.9715	0.2019	0.6352	1.253
Mof_P 	P 	0.2264	0.2147	0.4965	0.508
Mof_P 	P 	0.8895	0.4399	0.7859	0.555
Mof_O 	O 	0.9357	0.3098	0.7519	-0.405
Mof_O 	O 	0.122	0.2759	0.5657	-0.392
Mof_O 	O 	0.999	0.5259	0.8217	-0.403
Mof_O 	O 	0.3122	0.3211	0.4494	-0.375
Mof_O 	O 	0.7847	0.4175	0.8698	-0.167
Mof_O 	O 	0.8199	0.5137	0.6964	-0.19
Mof_O 	O 	0.3107	0.1137	0.5479	-0.199
Mof_O 	O 	0.1509	0.1421	0.4062	-0.18
Mof_Zn	Zn	0.5285	0.7981	0.1352	1.253
Mof_P 	P 	0.2736	0.7853	0.9965	0.505
Mof_P 	P 	0.6105	0.5601	0.2859	0.555
Mof_O 	O 	0.5643	0.6902	0.2519	-0.404
Mof_O 	O 	0.378	0.7241	0.0657	-0.391
Mof_O 	O 	0.501	0.4741	0.3217	-0.405
Mof_O 	O 	0.1878	0.6789	0.9494	-0.376
Mof_O 	O 	0.7153	0.5825	0.3698	-0.168
Mof_O 	O 	0.6801	0.4863	0.1964	-0.192
Mof_O 	O 	0.1893	0.8863	0.0479	-0.197
Mof_O 	O 	0.3491	0.8579	0.9062	-0.182
Mof_Zn	Zn	0.0285	0.7019	0.8648	1.251
Mof_P 	P 	0.7736	0.7147	0.0035	0.505
Mof_P 	P 	0.1105	0.9399	0.7141	0.548
Mof_O 	O 	0.0643	0.8098	0.7481	-0.405
Mof_O 	O 	0.878	0.7759	0.9343	-0.388
Mof_O 	O 	0.001	0.0259	0.6783	-0.401
Mof_O 	O 	0.6878	0.8211	0.0506	-0.374
Mof_O 	O 	0.2153	0.9175	0.6302	-0.168
Mof_O 	O 	0.1801	0.0137	0.8036	-0.188
Mof_O 	O 	0.6893	0.6137	0.9521	-0.197
Mof_O 	O 	0.8491	0.6421	0.0938	-0.181
Mof_Zn	Zn	0.4715	0.2981	0.3648	1.253
Mof_P 	P 	0.7264	0.2853	0.5035	0.508
Mof_P 	P 	0.3895	0.0601	0.2141	0.552
Mof_O 	O 	0.4357	0.1902	0.2481	-0.405
Mof_O 	O 	0.622	0.2241	0.4343	-0.394
Mof_O 	O 	0.499	0.9741	0.1783	-0.404
Mof_O 	O 	0.8122	0.1789	0.5506	-0.377
Mof_O 	O 	0.2847	0.0825	0.1302	-0.168
Mof_O 	O 	0.3199	0.9863	0.3036	-0.19
Mof_O 	O 	0.8107	0.3863	0.4521	-0.199
Mof_O 	O 	0.6509	0.3579	0.5938	-0.181
_end
