data_functionalizedCrystal
_audit_creation_method	'EQeq! by Chris Wilmer'
_symmetry_space_group_name_H-M	'P1'
_symmetry_Int_Tables_number	1
_symmetry_cell_setting	triclinic
loop_
_symmetry_equiv_pos_as_xyz
  x,y,z
_cell_length_a	14.1349
_cell_length_b	16.2961
_cell_length_c	16.524
_cell_angle_alpha	90
_cell_angle_beta	90
_cell_angle_gamma	90
loop_
_atom_site_label
_atom_site_type_symbol
_atom_site_fract_x
_atom_site_fract_y
_atom_site_fract_z
_atom_site_charge
Mof_Ni	Ni	0.97272	0.67263	0.11398	1.151
Mof_C 	C 	0.13894	0.49671	0.2352	-0.133
Mof_C 	C 	0.11333	0.41695	0.25374	0.065
Mof_H 	H 	0.07	0.3886	0.2198	0.013
Mof_C 	C 	0.15028	0.37775	0.32145	-0.116
Mof_C 	C 	0.22011	0.41706	0.36651	0.05
Mof_H 	H 	0.2458	0.3908	0.4129	0.029
Mof_C 	C 	0.25244	0.49409	0.34428	-0.122
Mof_C 	C 	0.20818	0.53592	0.28068	0.065
Mof_H 	H 	0.2254	0.5909	0.2687	0.035
Mof_C 	C 	0.08987	0.5391	0.16545	0.381
Mof_C 	C 	0.11163	0.29506	0.34502	0.303
Mof_C 	C 	0.33821	0.53209	0.38431	0.371
Mof_O 	O 	0.08198	0.61616	0.16901	-0.439
Mof_O 	O 	0.05962	0.49238	0.11133	-0.45
Mof_O 	O 	0.05129	0.26097	0.29906	-0.398
Mof_O 	O 	0.13573	0.26241	0.41087	-0.358
Mof_O 	O 	0.36667	0.49921	0.44907	-0.398
Mof_O 	O 	0.37515	0.59115	0.34715	-0.414
Mof_C 	C 	0.92299	0.30552	0.10718	-0.913
Mof_H 	H 	0.8539	0.3013	0.11	0.31
Mof_H 	H 	0.9515	0.2562	0.1307	0.328
Mof_H 	H 	0.9439	0.3539	0.1375	0.334
Mof_C 	C 	0.953	0.31344	0.0205	0.519
Mof_O 	O 	0.93346	0.25958	0.96925	-0.323
Mof_O 	O 	0.00589	0.37319	0.99895	-0.547
Mof_Ni	Ni	0.52728	0.32737	0.61398	1.13
Mof_C 	C 	0.36106	0.50329	0.7352	-0.112
Mof_C 	C 	0.38667	0.58305	0.75374	0.053
Mof_H 	H 	0.43	0.6114	0.7198	0.035
Mof_C 	C 	0.34972	0.62225	0.82145	-0.091
Mof_C 	C 	0.27989	0.58294	0.86651	0.039
Mof_H 	H 	0.2542	0.6092	0.9129	0.042
Mof_C 	C 	0.24756	0.50591	0.84428	-0.107
Mof_C 	C 	0.29182	0.46408	0.78068	0.056
Mof_H 	H 	0.2746	0.4091	0.7687	0.042
Mof_C 	C 	0.41013	0.4609	0.66545	0.377
Mof_C 	C 	0.38837	0.70494	0.84502	0.295
Mof_C 	C 	0.16179	0.46791	0.88431	0.364
Mof_O 	O 	0.41802	0.38384	0.66901	-0.407
Mof_O 	O 	0.44038	0.50762	0.61133	-0.414
Mof_O 	O 	0.44871	0.73903	0.79906	-0.362
Mof_O 	O 	0.36427	0.73759	0.91087	-0.331
Mof_O 	O 	0.13333	0.50079	0.94907	-0.379
Mof_O 	O 	0.12485	0.40885	0.84715	-0.421
Mof_C 	C 	0.57701	0.69448	0.60718	-0.967
Mof_H 	H 	0.6461	0.6987	0.61	0.33
Mof_H 	H 	0.5485	0.7438	0.6307	0.336
Mof_H 	H 	0.5561	0.6461	0.6375	0.33
Mof_C 	C 	0.547	0.68656	0.5205	0.603
Mof_O 	O 	0.56654	0.74042	0.46925	-0.416
Mof_O 	O 	0.49411	0.62681	0.49895	-0.573
Mof_Ni	Ni	0.02728	0.17263	0.38602	1.107
Mof_C 	C 	0.86106	0.99671	0.2648	0.019
Mof_C 	C 	0.88667	0.91695	0.24626	-0.025
Mof_H 	H 	0.93	0.8886	0.2802	0.079
Mof_C 	C 	0.84972	0.87775	0.17855	-0.029
Mof_C 	C 	0.77989	0.91706	0.13349	-0.033
Mof_H 	H 	0.7542	0.8908	0.0871	0.059
Mof_C 	C 	0.74756	0.99409	0.15572	0.012
Mof_C 	C 	0.79182	0.03592	0.21932	-0.091
Mof_H 	H 	0.7746	0.0909	0.2313	0.089
Mof_C 	C 	0.91013	0.0391	0.33455	0.291
Mof_C 	C 	0.88837	0.79506	0.15498	0.277
Mof_C 	C 	0.66179	0.03209	0.11569	0.28
Mof_O 	O 	0.91802	0.11616	0.33099	-0.36
Mof_O 	O 	0.94038	0.99238	0.38867	-0.339
Mof_O 	O 	0.94871	0.76097	0.20094	-0.332
Mof_O 	O 	0.86427	0.76241	0.08913	-0.337
Mof_O 	O 	0.63333	0.99921	0.05093	-0.361
Mof_O 	O 	0.62485	0.09115	0.15285	-0.393
Mof_C 	C 	0.07701	0.80552	0.39282	-0.844
Mof_H 	H 	0.1461	0.8013	0.39	0.29
Mof_H 	H 	0.0485	0.7562	0.3693	0.281
Mof_H 	H 	0.0561	0.8539	0.3625	0.271
Mof_C 	C 	0.047	0.81344	0.4795	0.485
Mof_O 	O 	0.06654	0.75958	0.53075	-0.416
Mof_O 	O 	0.99411	0.87319	0.50105	-0.479
Mof_Ni	Ni	0.47272	0.82737	0.88602	1.132
Mof_C 	C 	0.63894	0.00329	0.7648	-0.195
Mof_C 	C 	0.61333	0.08305	0.74626	0.11
Mof_H 	H 	0.57	0.1114	0.7802	0.017
Mof_C 	C 	0.65028	0.12225	0.67855	-0.136
Mof_C 	C 	0.72011	0.08294	0.63349	0.098
Mof_H 	H 	0.7458	0.1092	0.5871	0.015
Mof_C 	C 	0.75244	0.00591	0.65572	-0.196
Mof_C 	C 	0.70818	0.96408	0.71932	0.167
Mof_H 	H 	0.7254	0.9091	0.7313	0.016
Mof_C 	C 	0.58987	0.9609	0.83455	0.436
Mof_C 	C 	0.61163	0.20494	0.65498	0.312
Mof_C 	C 	0.83821	0.96791	0.61569	0.434
Mof_O 	O 	0.58198	0.88384	0.83099	-0.411
Mof_O 	O 	0.55962	0.00762	0.88867	-0.417
Mof_O 	O 	0.55129	0.23903	0.70094	-0.368
Mof_O 	O 	0.63573	0.23759	0.58913	-0.347
Mof_O 	O 	0.86667	0.00079	0.55093	-0.408
Mof_O 	O 	0.87515	0.90885	0.65285	-0.405
Mof_C 	C 	0.42299	0.19448	0.89282	-1.129
Mof_H 	H 	0.3539	0.1987	0.89	0.38
Mof_H 	H 	0.4515	0.2438	0.8693	0.389
Mof_H 	H 	0.4439	0.1461	0.8625	0.381
Mof_C 	C 	0.453	0.18656	0.9795	0.802
Mof_O 	O 	0.43346	0.24042	0.03075	-0.523
Mof_O 	O 	0.50589	0.12681	0.00105	-0.674
Mof_Ni	Ni	0.02728	0.32737	0.88602	1.109
Mof_C 	C 	0.86106	0.50329	0.7648	-0.091
Mof_C 	C 	0.88667	0.58305	0.74626	0.045
Mof_H 	H 	0.93	0.6114	0.7802	0.056
Mof_C 	C 	0.84972	0.62225	0.67855	-0.077
Mof_C 	C 	0.77989	0.58294	0.63349	0.037
Mof_H 	H 	0.7542	0.6092	0.5871	0.041
Mof_C 	C 	0.74756	0.50591	0.65572	-0.1
Mof_C 	C 	0.79182	0.46408	0.71932	0.051
Mof_H 	H 	0.7746	0.4091	0.7313	0.051
Mof_C 	C 	0.91013	0.4609	0.83455	0.369
Mof_C 	C 	0.88837	0.70494	0.65498	0.293
Mof_C 	C 	0.66179	0.46791	0.61569	0.367
Mof_O 	O 	0.91802	0.38384	0.83099	-0.369
Mof_O 	O 	0.94038	0.50762	0.88867	-0.357
Mof_O 	O 	0.94871	0.73903	0.70094	-0.333
Mof_O 	O 	0.86427	0.73759	0.58913	-0.329
Mof_O 	O 	0.63333	0.50079	0.55093	-0.392
Mof_O 	O 	0.62485	0.40885	0.65285	-0.407
Mof_C 	C 	0.07701	0.69448	0.89282	-0.994
Mof_H 	H 	0.1461	0.6987	0.89	0.339
Mof_H 	H 	0.0485	0.7438	0.8693	0.332
Mof_H 	H 	0.0561	0.6461	0.8625	0.318
Mof_C 	C 	0.047	0.68656	0.9795	0.664
Mof_O 	O 	0.06654	0.74042	0.03075	-0.504
Mof_O 	O 	0.99411	0.62681	0.00105	-0.572
Mof_Ni	Ni	0.47272	0.67263	0.38602	1.129
Mof_C 	C 	0.63894	0.49671	0.2648	-0.115
Mof_C 	C 	0.61333	0.41695	0.24626	0.058
Mof_H 	H 	0.57	0.3886	0.2802	0.033
Mof_C 	C 	0.65028	0.37775	0.17855	-0.103
Mof_C 	C 	0.72011	0.41706	0.13349	0.047
Mof_H 	H 	0.7458	0.3908	0.0871	0.027
Mof_C 	C 	0.75244	0.49409	0.15572	-0.115
Mof_C 	C 	0.70818	0.53592	0.21932	0.061
Mof_H 	H 	0.7254	0.5909	0.2313	0.044
Mof_C 	C 	0.58987	0.5391	0.33455	0.379
Mof_C 	C 	0.61163	0.29506	0.15498	0.301
Mof_C 	C 	0.83821	0.53209	0.11569	0.371
Mof_O 	O 	0.58198	0.61616	0.33099	-0.406
Mof_O 	O 	0.55962	0.49238	0.38867	-0.412
Mof_O 	O 	0.55129	0.26097	0.20094	-0.369
Mof_O 	O 	0.63573	0.26241	0.08913	-0.357
Mof_O 	O 	0.86667	0.49921	0.05093	-0.393
Mof_O 	O 	0.87515	0.59115	0.15285	-0.396
Mof_C 	C 	0.42299	0.30552	0.39282	-0.959
Mof_H 	H 	0.3539	0.3013	0.39	0.324
Mof_H 	H 	0.4515	0.2562	0.3693	0.33
Mof_H 	H 	0.4439	0.3539	0.3625	0.326
Mof_C 	C 	0.453	0.31344	0.4795	0.6
Mof_O 	O 	0.43346	0.25958	0.53075	-0.423
Mof_O 	O 	0.50589	0.37319	0.50105	-0.571
Mof_Ni	Ni	0.97272	0.82737	0.61398	1.152
Mof_C 	C 	0.13894	0.00329	0.7352	-0.222
Mof_C 	C 	0.11333	0.08305	0.75374	0.12
Mof_H 	H 	0.07	0.1114	0.7198	-0.005
Mof_C 	C 	0.15028	0.12225	0.82145	-0.15
Mof_C 	C 	0.22011	0.08294	0.86651	0.101
Mof_H 	H 	0.2458	0.1092	0.9129	0.018
Mof_C 	C 	0.25244	0.00591	0.84428	-0.201
Mof_C 	C 	0.20818	0.96408	0.78068	0.174
Mof_H 	H 	0.2254	0.9091	0.7687	0.006
Mof_C 	C 	0.08987	0.9609	0.66545	0.45
Mof_C 	C 	0.11163	0.20494	0.84502	0.314
Mof_C 	C 	0.33821	0.96791	0.88431	0.426
Mof_O 	O 	0.08198	0.88384	0.66901	-0.448
Mof_O 	O 	0.05962	0.00762	0.61133	-0.471
Mof_O 	O 	0.05129	0.23903	0.79906	-0.397
Mof_O 	O 	0.13573	0.23759	0.91087	-0.348
Mof_O 	O 	0.36667	0.00079	0.94907	-0.4
Mof_O 	O 	0.37515	0.90885	0.84715	-0.42
Mof_C 	C 	0.92299	0.19448	0.60718	-1.083
Mof_H 	H 	0.8539	0.1987	0.61	0.366
Mof_H 	H 	0.9515	0.2438	0.6307	0.387
Mof_H 	H 	0.9439	0.1461	0.6375	0.388
Mof_C 	C 	0.953	0.18656	0.5205	0.719
Mof_O 	O 	0.93346	0.24042	0.46925	-0.422
Mof_O 	O 	0.00589	0.12681	0.49895	-0.655
Mof_Ni	Ni	0.52728	0.17263	0.11398	1.127
Mof_C 	C 	0.36106	0.99671	0.2352	0.007
Mof_C 	C 	0.38667	0.91695	0.25374	-0.022
Mof_H 	H 	0.43	0.8886	0.2198	0.06
Mof_C 	C 	0.34972	0.87775	0.32145	-0.041
Mof_C 	C 	0.27989	0.91706	0.36651	-0.032
Mof_H 	H 	0.2542	0.8908	0.4129	0.061
Mof_C 	C 	0.24756	0.99409	0.34428	0.005
Mof_C 	C 	0.29182	0.03592	0.28068	-0.091
Mof_H 	H 	0.2746	0.0909	0.2687	0.082
Mof_C 	C 	0.41013	0.0391	0.16545	0.285
Mof_C 	C 	0.38837	0.79506	0.34502	0.278
Mof_C 	C 	0.16179	0.03209	0.38431	0.283
Mof_O 	O 	0.41802	0.11616	0.16901	-0.394
Mof_O 	O 	0.44038	0.99238	0.11133	-0.38
Mof_O 	O 	0.44871	0.76097	0.29906	-0.361
Mof_O 	O 	0.36427	0.76241	0.41087	-0.339
Mof_O 	O 	0.13333	0.99921	0.44907	-0.361
Mof_O 	O 	0.12485	0.09115	0.34715	-0.41
Mof_C 	C 	0.57701	0.80552	0.10718	-0.815
Mof_H 	H 	0.6461	0.8013	0.11	0.28
Mof_H 	H 	0.5485	0.7562	0.1307	0.283
Mof_H 	H 	0.5561	0.8539	0.1375	0.283
Mof_C 	C 	0.547	0.81344	0.0205	0.424
Mof_O 	O 	0.56654	0.75958	0.96925	-0.327
Mof_O 	O 	0.49411	0.87319	0.99895	-0.474
Mof_Ni	Ni	-0	0.5	-0	1.092
Mof_Ni	Ni	0.5	0.5	0.5	1.148
Mof_Ni	Ni	-4.44065e-33	0	0.5	1.108
Mof_Ni	Ni	0.5	0	-0	1.108
_end
