data_functionalizedCrystal
_audit_creation_method	'EQeq! by Chris Wilmer'
_symmetry_space_group_name_H-M	'P1'
_symmetry_Int_Tables_number	1
_symmetry_cell_setting	triclinic
loop_
_symmetry_equiv_pos_as_xyz
  x,y,z
_cell_length_a	20.57
_cell_length_b	9.901
_cell_length_c	27.211
_cell_angle_alpha	90
_cell_angle_beta	108.526
_cell_angle_gamma	90
loop_
_atom_site_label
_atom_site_type_symbol
_atom_site_fract_x
_atom_site_fract_y
_atom_site_fract_z
_atom_site_charge
Mof_Co	Co	0.1361	0.55592	0.17428	1.15
Mof_O 	O 	0.04672	0.68749	0.16198	-0.367
Mof_O 	O 	0.14398	0.78787	0.16952	-0.358
Mof_O 	O 	0.05904	0.40961	0.16669	-0.387
Mof_O 	O 	0.15603	0.29903	0.18086	-0.331
Mof_N 	N 	0.74673	0.06251	0.1884	-0.227
Mof_N 	N 	0.14946	0.56574	0.25629	-0.232
Mof_N 	N 	0.12319	0.4675	0.59299	-0.232
Mof_C 	C 	0.95285	0.0548	0.17935	-0.02
Mof_C 	C 	0.98375	0.9316	0.17466	-0.018
Mof_H 	H 	0.9598	0.8496	0.1748	0.053
Mof_C 	C 	0.04935	0.9275	0.16979	-0.065
Mof_C 	C 	0.0852	0.0471	0.17027	0.008
Mof_H 	H 	0.1303	0.0442	0.168	0.052
Mof_C 	C 	0.05505	0.1711	0.17406	-0.066
Mof_C 	C 	0.98921	0.1742	0.17883	-0.018
Mof_H 	H 	0.9689	0.2586	0.1818	0.05
Mof_C 	C 	0.78748	0.9546	0.20378	0.074
Mof_H 	H 	0.7698	0.8785	0.2166	0.013
Mof_C 	C 	0.85429	0.948	0.20196	-0.126
Mof_H 	H 	0.8806	0.8682	0.2128	0.08
Mof_C 	C 	0.88266	0.0588	0.18414	0.078
Mof_C 	C 	0.84104	0.1726	0.17031	-0.128
Mof_H 	H 	0.858	0.2518	0.1589	0.079
Mof_C 	C 	0.77482	0.1709	0.17312	0.067
Mof_H 	H 	0.7479	0.2504	0.1638	0.016
Mof_C 	C 	0.15691	0.5587	0.41579	-0.075
Mof_H 	H 	0.1976	0.5902	0.441	0.055
Mof_C 	C 	0.20794	0.5883	0.29484	0.087
Mof_H 	H 	0.2485	0.6047	0.2862	0.008
Mof_C 	C 	0.21202	0.589	0.34678	-0.154
Mof_H 	H 	0.2547	0.6054	0.3727	0.088
Mof_C 	C 	0.15338	0.5655	0.36092	0.109
Mof_C 	C 	0.09198	0.547	0.32068	-0.163
Mof_H 	H 	0.0502	0.5347	0.328	0.107
Mof_C 	C 	0.09257	0.547	0.27011	0.086
Mof_H 	H 	0.0503	0.5329	0.2434	0.004
Mof_C 	C 	0.10677	0.5111	0.43261	-0.089
Mof_H 	H 	0.0654	0.4824	0.4074	0.073
Mof_C 	C 	0.0818	0.7933	0.16645	0.294
Mof_C 	C 	0.0785	0.395	0.5558	0.09
Mof_H 	H 	0.0506	0.331	0.5657	0.001
Mof_C 	C 	0.0709	0.4086	0.50335	-0.159
Mof_H 	H 	0.0381	0.3556	0.4784	0.09
Mof_C 	C 	0.11175	0.5006	0.48772	0.114
Mof_C 	C 	0.15697	0.5783	0.52636	-0.155
Mof_H 	H 	0.1849	0.6443	0.5175	0.082
Mof_C 	C 	0.16105	0.5593	0.5775	0.083
Mof_H 	H 	0.1922	0.6136	0.6031	-0.002
Mof_C 	C 	0.09319	0.3011	0.17392	0.302
Mof_Co	Co	0.6361	0.05592	0.17428	1.148
Mof_O 	O 	0.54672	0.18749	0.16198	-0.368
Mof_O 	O 	0.64398	0.28787	0.16952	-0.359
Mof_O 	O 	0.55904	0.90961	0.16669	-0.388
Mof_O 	O 	0.65603	0.79903	0.18086	-0.332
Mof_N 	N 	0.24673	0.56251	0.1884	-0.227
Mof_N 	N 	0.64946	0.06574	0.25629	-0.233
Mof_N 	N 	0.62319	0.9675	0.59299	-0.234
Mof_C 	C 	0.45285	0.5548	0.17935	-0.02
Mof_C 	C 	0.48375	0.4316	0.17466	-0.019
Mof_H 	H 	0.4598	0.3496	0.1748	0.052
Mof_C 	C 	0.54935	0.4275	0.16979	-0.069
Mof_C 	C 	0.5852	0.5471	0.17027	0.009
Mof_H 	H 	0.6303	0.5442	0.168	0.051
Mof_C 	C 	0.55505	0.6711	0.17406	-0.069
Mof_C 	C 	0.48921	0.6742	0.17883	-0.018
Mof_H 	H 	0.4689	0.7586	0.1818	0.049
Mof_C 	C 	0.28748	0.4546	0.20378	0.072
Mof_H 	H 	0.2698	0.3785	0.2166	0.012
Mof_C 	C 	0.35429	0.448	0.20196	-0.129
Mof_H 	H 	0.3806	0.3682	0.2128	0.08
Mof_C 	C 	0.38266	0.5588	0.18414	0.08
Mof_C 	C 	0.34104	0.6726	0.17031	-0.129
Mof_H 	H 	0.358	0.7518	0.1589	0.079
Mof_C 	C 	0.27482	0.6709	0.17312	0.068
Mof_H 	H 	0.2479	0.7504	0.1638	0.016
Mof_C 	C 	0.65691	0.0587	0.41579	-0.074
Mof_H 	H 	0.6976	0.0902	0.441	0.054
Mof_C 	C 	0.70794	0.0883	0.29484	0.086
Mof_H 	H 	0.7485	0.1047	0.2862	0.008
Mof_C 	C 	0.71202	0.089	0.34678	-0.154
Mof_H 	H 	0.7547	0.1054	0.3727	0.088
Mof_C 	C 	0.65338	0.0655	0.36092	0.108
Mof_C 	C 	0.59198	0.047	0.32068	-0.163
Mof_H 	H 	0.5502	0.0347	0.328	0.106
Mof_C 	C 	0.59257	0.047	0.27011	0.085
Mof_H 	H 	0.5503	0.0329	0.2434	0.004
Mof_C 	C 	0.60677	0.0111	0.43261	-0.091
Mof_H 	H 	0.5654	0.9824	0.4074	0.074
Mof_C 	C 	0.5818	0.2933	0.16645	0.294
Mof_C 	C 	0.5785	0.895	0.5558	0.09
Mof_H 	H 	0.5506	0.831	0.5657	0.001
Mof_C 	C 	0.5709	0.9086	0.50335	-0.16
Mof_H 	H 	0.5381	0.8556	0.4784	0.09
Mof_C 	C 	0.61175	0.0006	0.48772	0.115
Mof_C 	C 	0.65697	0.0783	0.52636	-0.156
Mof_H 	H 	0.6849	0.1443	0.5175	0.082
Mof_C 	C 	0.66105	0.0593	0.5775	0.085
Mof_H 	H 	0.6922	0.1136	0.6031	-0.003
Mof_C 	C 	0.59319	0.8011	0.17392	0.302
Mof_Co	Co	0.1361	0.44408	0.67428	1.149
Mof_O 	O 	0.04672	0.31251	0.66198	-0.368
Mof_O 	O 	0.14398	0.21213	0.66952	-0.359
Mof_O 	O 	0.05904	0.59039	0.66669	-0.389
Mof_O 	O 	0.15603	0.70097	0.68086	-0.332
Mof_N 	N 	0.74673	0.93749	0.6884	-0.228
Mof_N 	N 	0.14946	0.43426	0.75629	-0.233
Mof_N 	N 	0.12319	0.5325	0.09299	-0.233
Mof_C 	C 	0.95285	0.9452	0.67935	-0.021
Mof_C 	C 	0.98375	0.0684	0.67466	-0.018
Mof_H 	H 	0.9598	0.1504	0.6748	0.052
Mof_C 	C 	0.04935	0.0725	0.66979	-0.068
Mof_C 	C 	0.0852	0.9529	0.67027	0.008
Mof_H 	H 	0.1303	0.9558	0.668	0.051
Mof_C 	C 	0.05505	0.8289	0.67406	-0.069
Mof_C 	C 	0.98921	0.8258	0.67883	-0.017
Mof_H 	H 	0.9689	0.7414	0.6818	0.049
Mof_C 	C 	0.78748	0.0454	0.70378	0.073
Mof_H 	H 	0.7698	0.1215	0.7166	0.012
Mof_C 	C 	0.85429	0.052	0.70196	-0.127
Mof_H 	H 	0.8806	0.1318	0.7128	0.08
Mof_C 	C 	0.88266	0.9412	0.68414	0.078
Mof_C 	C 	0.84104	0.8274	0.67031	-0.129
Mof_H 	H 	0.858	0.7482	0.6589	0.079
Mof_C 	C 	0.77482	0.8291	0.67312	0.067
Mof_H 	H 	0.7479	0.7496	0.6638	0.016
Mof_C 	C 	0.15691	0.4413	0.91579	-0.076
Mof_H 	H 	0.1976	0.4098	0.941	0.055
Mof_C 	C 	0.20794	0.4117	0.79484	0.087
Mof_H 	H 	0.2485	0.3953	0.7862	0.008
Mof_C 	C 	0.21202	0.411	0.84678	-0.154
Mof_H 	H 	0.2547	0.3946	0.8727	0.088
Mof_C 	C 	0.15338	0.4345	0.86092	0.109
Mof_C 	C 	0.09198	0.453	0.82068	-0.163
Mof_H 	H 	0.0502	0.4653	0.828	0.107
Mof_C 	C 	0.09257	0.453	0.77011	0.086
Mof_H 	H 	0.0503	0.4671	0.7434	0.004
Mof_C 	C 	0.10677	0.4889	0.93261	-0.087
Mof_H 	H 	0.0654	0.5176	0.9074	0.072
Mof_C 	C 	0.0818	0.2067	0.66645	0.294
Mof_C 	C 	0.0785	0.605	0.0558	0.088
Mof_H 	H 	0.0506	0.669	0.0657	0.002
Mof_C 	C 	0.0709	0.5914	0.00335	-0.155
Mof_H 	H 	0.0381	0.6444	0.9784	0.088
Mof_C 	C 	0.11175	0.4994	0.98772	0.111
Mof_C 	C 	0.15697	0.4217	0.02636	-0.153
Mof_H 	H 	0.1849	0.3557	0.0175	0.081
Mof_C 	C 	0.16105	0.4407	0.0775	0.082
Mof_H 	H 	0.1922	0.3864	0.1031	-0.002
Mof_C 	C 	0.09319	0.6989	0.67392	0.303
Mof_Co	Co	0.6361	0.94408	0.67428	1.148
Mof_O 	O 	0.54672	0.81251	0.66198	-0.368
Mof_O 	O 	0.64398	0.71213	0.66952	-0.359
Mof_O 	O 	0.55904	0.09039	0.66669	-0.388
Mof_O 	O 	0.65603	0.20097	0.68086	-0.332
Mof_N 	N 	0.24673	0.43749	0.6884	-0.227
Mof_N 	N 	0.64946	0.93426	0.75629	-0.233
Mof_N 	N 	0.62319	0.0325	0.09299	-0.234
Mof_C 	C 	0.45285	0.4452	0.67935	-0.02
Mof_C 	C 	0.48375	0.5684	0.67466	-0.019
Mof_H 	H 	0.4598	0.6504	0.6748	0.052
Mof_C 	C 	0.54935	0.5725	0.66979	-0.069
Mof_C 	C 	0.5852	0.4529	0.67027	0.009
Mof_H 	H 	0.6303	0.4558	0.668	0.051
Mof_C 	C 	0.55505	0.3289	0.67406	-0.069
Mof_C 	C 	0.48921	0.3258	0.67883	-0.018
Mof_H 	H 	0.4689	0.2414	0.6818	0.049
Mof_C 	C 	0.28748	0.5454	0.70378	0.072
Mof_H 	H 	0.2698	0.6215	0.7166	0.012
Mof_C 	C 	0.35429	0.552	0.70196	-0.129
Mof_H 	H 	0.3806	0.6318	0.7128	0.08
Mof_C 	C 	0.38266	0.4412	0.68414	0.08
Mof_C 	C 	0.34104	0.3274	0.67031	-0.129
Mof_H 	H 	0.358	0.2482	0.6589	0.079
Mof_C 	C 	0.27482	0.3291	0.67312	0.068
Mof_H 	H 	0.2479	0.2496	0.6638	0.016
Mof_C 	C 	0.65691	0.9413	0.91579	-0.073
Mof_H 	H 	0.6976	0.9098	0.941	0.054
Mof_C 	C 	0.70794	0.9117	0.79484	0.086
Mof_H 	H 	0.7485	0.8953	0.7862	0.008
Mof_C 	C 	0.71202	0.911	0.84678	-0.154
Mof_H 	H 	0.7547	0.8946	0.8727	0.088
Mof_C 	C 	0.65338	0.9345	0.86092	0.108
Mof_C 	C 	0.59198	0.953	0.82068	-0.163
Mof_H 	H 	0.5502	0.9653	0.828	0.106
Mof_C 	C 	0.59257	0.953	0.77011	0.085
Mof_H 	H 	0.5503	0.9671	0.7434	0.004
Mof_C 	C 	0.60677	0.9889	0.93261	-0.092
Mof_H 	H 	0.5654	0.0176	0.9074	0.075
Mof_C 	C 	0.5818	0.7067	0.66645	0.294
Mof_C 	C 	0.5785	0.105	0.0558	0.091
Mof_H 	H 	0.5506	0.169	0.0657	0.001
Mof_C 	C 	0.5709	0.0914	0.00335	-0.161
Mof_H 	H 	0.5381	0.1444	0.9784	0.091
Mof_C 	C 	0.61175	0.9994	0.98772	0.116
Mof_C 	C 	0.65697	0.9217	0.02636	-0.156
Mof_H 	H 	0.6849	0.8557	0.0175	0.083
Mof_C 	C 	0.66105	0.9407	0.0775	0.085
Mof_H 	H 	0.6922	0.8864	0.1031	-0.003
Mof_C 	C 	0.59319	0.1989	0.67392	0.303
Mof_Co	Co	0.8639	0.55592	0.32572	1.149
Mof_O 	O 	0.95328	0.68749	0.33802	-0.368
Mof_O 	O 	0.85602	0.78787	0.33048	-0.359
Mof_O 	O 	0.94096	0.40961	0.33331	-0.389
Mof_O 	O 	0.84397	0.29903	0.31914	-0.332
Mof_N 	N 	0.25327	0.06251	0.3116	-0.228
Mof_N 	N 	0.85054	0.56574	0.24371	-0.233
Mof_N 	N 	0.87681	0.4675	0.90701	-0.233
Mof_C 	C 	0.04715	0.0548	0.32065	-0.021
Mof_C 	C 	0.01625	0.9316	0.32534	-0.018
Mof_H 	H 	0.0402	0.8496	0.3252	0.052
Mof_C 	C 	0.95065	0.9275	0.33021	-0.068
Mof_C 	C 	0.9148	0.0471	0.32973	0.008
Mof_H 	H 	0.8697	0.0442	0.332	0.051
Mof_C 	C 	0.94495	0.1711	0.32594	-0.069
Mof_C 	C 	0.01079	0.1742	0.32117	-0.017
Mof_H 	H 	0.0311	0.2586	0.3182	0.049
Mof_C 	C 	0.21252	0.9546	0.29622	0.073
Mof_H 	H 	0.2302	0.8785	0.2834	0.012
Mof_C 	C 	0.14571	0.948	0.29804	-0.127
Mof_H 	H 	0.1194	0.8682	0.2872	0.08
Mof_C 	C 	0.11734	0.0588	0.31586	0.078
Mof_C 	C 	0.15896	0.1726	0.32969	-0.129
Mof_H 	H 	0.142	0.2518	0.3411	0.079
Mof_C 	C 	0.22518	0.1709	0.32688	0.067
Mof_H 	H 	0.2521	0.2504	0.3362	0.016
Mof_C 	C 	0.84309	0.5587	0.08421	-0.076
Mof_H 	H 	0.8024	0.5902	0.059	0.055
Mof_C 	C 	0.79206	0.5883	0.20516	0.087
Mof_H 	H 	0.7515	0.6047	0.2138	0.008
Mof_C 	C 	0.78798	0.589	0.15322	-0.154
Mof_H 	H 	0.7453	0.6054	0.1273	0.088
Mof_C 	C 	0.84662	0.5655	0.13908	0.109
Mof_C 	C 	0.90802	0.547	0.17932	-0.163
Mof_H 	H 	0.9498	0.5347	0.172	0.107
Mof_C 	C 	0.90743	0.547	0.22989	0.086
Mof_H 	H 	0.9497	0.5329	0.2566	0.004
Mof_C 	C 	0.89323	0.5111	0.06739	-0.087
Mof_H 	H 	0.9346	0.4824	0.0926	0.072
Mof_C 	C 	0.9182	0.7933	0.33355	0.294
Mof_C 	C 	0.9215	0.395	0.9442	0.088
Mof_H 	H 	0.9494	0.331	0.9343	0.002
Mof_C 	C 	0.9291	0.4086	0.99665	-0.155
Mof_H 	H 	0.9619	0.3556	0.0216	0.088
Mof_C 	C 	0.88825	0.5006	0.01228	0.111
Mof_C 	C 	0.84303	0.5783	0.97364	-0.153
Mof_H 	H 	0.8151	0.6443	0.9825	0.081
Mof_C 	C 	0.83895	0.5593	0.9225	0.082
Mof_H 	H 	0.8078	0.6136	0.8969	-0.002
Mof_C 	C 	0.90681	0.3011	0.32608	0.303
Mof_Co	Co	0.3639	0.05592	0.32572	1.148
Mof_O 	O 	0.45328	0.18749	0.33802	-0.368
Mof_O 	O 	0.35602	0.28787	0.33048	-0.359
Mof_O 	O 	0.44096	0.90961	0.33331	-0.388
Mof_O 	O 	0.34397	0.79903	0.31914	-0.332
Mof_N 	N 	0.75327	0.56251	0.3116	-0.227
Mof_N 	N 	0.35054	0.06574	0.24371	-0.233
Mof_N 	N 	0.37681	0.9675	0.90701	-0.234
Mof_C 	C 	0.54715	0.5548	0.32065	-0.02
Mof_C 	C 	0.51625	0.4316	0.32534	-0.019
Mof_H 	H 	0.5402	0.3496	0.3252	0.052
Mof_C 	C 	0.45065	0.4275	0.33021	-0.069
Mof_C 	C 	0.4148	0.5471	0.32973	0.009
Mof_H 	H 	0.3697	0.5442	0.332	0.051
Mof_C 	C 	0.44495	0.6711	0.32594	-0.069
Mof_C 	C 	0.51079	0.6742	0.32117	-0.018
Mof_H 	H 	0.5311	0.7586	0.3182	0.049
Mof_C 	C 	0.71252	0.4546	0.29622	0.072
Mof_H 	H 	0.7302	0.3785	0.2834	0.012
Mof_C 	C 	0.64571	0.448	0.29804	-0.129
Mof_H 	H 	0.6194	0.3682	0.2872	0.08
Mof_C 	C 	0.61734	0.5588	0.31586	0.08
Mof_C 	C 	0.65896	0.6726	0.32969	-0.129
Mof_H 	H 	0.642	0.7518	0.3411	0.079
Mof_C 	C 	0.72518	0.6709	0.32688	0.068
Mof_H 	H 	0.7521	0.7504	0.3362	0.016
Mof_C 	C 	0.34309	0.0587	0.08421	-0.073
Mof_H 	H 	0.3024	0.0902	0.059	0.054
Mof_C 	C 	0.29206	0.0883	0.20516	0.086
Mof_H 	H 	0.2515	0.1047	0.2138	0.008
Mof_C 	C 	0.28798	0.089	0.15322	-0.154
Mof_H 	H 	0.2453	0.1054	0.1273	0.088
Mof_C 	C 	0.34662	0.0655	0.13908	0.108
Mof_C 	C 	0.40802	0.047	0.17932	-0.163
Mof_H 	H 	0.4498	0.0347	0.172	0.106
Mof_C 	C 	0.40743	0.047	0.22989	0.085
Mof_H 	H 	0.4497	0.0329	0.2566	0.004
Mof_C 	C 	0.39323	0.0111	0.06739	-0.092
Mof_H 	H 	0.4346	0.9824	0.0926	0.075
Mof_C 	C 	0.4182	0.2933	0.33355	0.294
Mof_C 	C 	0.4215	0.895	0.9442	0.091
Mof_H 	H 	0.4494	0.831	0.9343	0.001
Mof_C 	C 	0.4291	0.9086	0.99665	-0.161
Mof_H 	H 	0.4619	0.8556	0.0216	0.091
Mof_C 	C 	0.38825	0.0006	0.01228	0.116
Mof_C 	C 	0.34303	0.0783	0.97364	-0.156
Mof_H 	H 	0.3151	0.1443	0.9825	0.083
Mof_C 	C 	0.33895	0.0593	0.9225	0.085
Mof_H 	H 	0.3078	0.1136	0.8969	-0.003
Mof_C 	C 	0.40681	0.8011	0.32608	0.303
Mof_Co	Co	0.8639	0.44408	0.82572	1.149
Mof_O 	O 	0.95328	0.31251	0.83802	-0.368
Mof_O 	O 	0.85602	0.21213	0.83048	-0.359
Mof_O 	O 	0.94096	0.59039	0.83331	-0.388
Mof_O 	O 	0.84397	0.70097	0.81914	-0.332
Mof_N 	N 	0.25327	0.93749	0.8116	-0.228
Mof_N 	N 	0.85054	0.43426	0.74371	-0.233
Mof_N 	N 	0.87681	0.5325	0.40701	-0.233
Mof_C 	C 	0.04715	0.9452	0.82065	-0.021
Mof_C 	C 	0.01625	0.0684	0.82534	-0.019
Mof_H 	H 	0.0402	0.1504	0.8252	0.052
Mof_C 	C 	0.95065	0.0725	0.83021	-0.066
Mof_C 	C 	0.9148	0.9529	0.82973	0.007
Mof_H 	H 	0.8697	0.9558	0.832	0.051
Mof_C 	C 	0.94495	0.8289	0.82594	-0.067
Mof_C 	C 	0.01079	0.8258	0.82117	-0.019
Mof_H 	H 	0.0311	0.7414	0.8182	0.049
Mof_C 	C 	0.21252	0.0454	0.79622	0.073
Mof_H 	H 	0.2302	0.1215	0.7834	0.012
Mof_C 	C 	0.14571	0.052	0.79804	-0.127
Mof_H 	H 	0.1194	0.1318	0.7872	0.08
Mof_C 	C 	0.11734	0.9412	0.81586	0.078
Mof_C 	C 	0.15896	0.8274	0.82969	-0.128
Mof_H 	H 	0.142	0.7482	0.8411	0.079
Mof_C 	C 	0.22518	0.8291	0.82688	0.067
Mof_H 	H 	0.2521	0.7496	0.8362	0.016
Mof_C 	C 	0.84309	0.4413	0.58421	-0.075
Mof_H 	H 	0.8024	0.4098	0.559	0.055
Mof_C 	C 	0.79206	0.4117	0.70516	0.087
Mof_H 	H 	0.7515	0.3953	0.7138	0.008
Mof_C 	C 	0.78798	0.411	0.65322	-0.154
Mof_H 	H 	0.7453	0.3946	0.6273	0.088
Mof_C 	C 	0.84662	0.4345	0.63908	0.109
Mof_C 	C 	0.90802	0.453	0.67932	-0.163
Mof_H 	H 	0.9498	0.4653	0.672	0.107
Mof_C 	C 	0.90743	0.453	0.72989	0.086
Mof_H 	H 	0.9497	0.4671	0.7566	0.004
Mof_C 	C 	0.89323	0.4889	0.56739	-0.089
Mof_H 	H 	0.9346	0.5176	0.5926	0.073
Mof_C 	C 	0.9182	0.2067	0.83355	0.294
Mof_C 	C 	0.9215	0.605	0.4442	0.09
Mof_H 	H 	0.9494	0.669	0.4343	0.001
Mof_C 	C 	0.9291	0.5914	0.49665	-0.159
Mof_H 	H 	0.9619	0.6444	0.5216	0.09
Mof_C 	C 	0.88825	0.4994	0.51228	0.114
Mof_C 	C 	0.84303	0.4217	0.47364	-0.155
Mof_H 	H 	0.8151	0.3557	0.4825	0.082
Mof_C 	C 	0.83895	0.4407	0.4225	0.083
Mof_H 	H 	0.8078	0.3864	0.3969	-0.002
Mof_C 	C 	0.90681	0.6989	0.82608	0.302
Mof_Co	Co	0.3639	0.94408	0.82572	1.148
Mof_O 	O 	0.45328	0.81251	0.83802	-0.368
Mof_O 	O 	0.35602	0.71213	0.83048	-0.359
Mof_O 	O 	0.44096	0.09039	0.83331	-0.388
Mof_O 	O 	0.34397	0.20097	0.81914	-0.332
Mof_N 	N 	0.75327	0.43749	0.8116	-0.227
Mof_N 	N 	0.35054	0.93426	0.74371	-0.233
Mof_N 	N 	0.37681	0.0325	0.40701	-0.234
Mof_C 	C 	0.54715	0.4452	0.82065	-0.02
Mof_C 	C 	0.51625	0.5684	0.82534	-0.019
Mof_H 	H 	0.5402	0.6504	0.8252	0.052
Mof_C 	C 	0.45065	0.5725	0.83021	-0.069
Mof_C 	C 	0.4148	0.4529	0.82973	0.009
Mof_H 	H 	0.3697	0.4558	0.832	0.051
Mof_C 	C 	0.44495	0.3289	0.82594	-0.069
Mof_C 	C 	0.51079	0.3258	0.82117	-0.018
Mof_H 	H 	0.5311	0.2414	0.8182	0.049
Mof_C 	C 	0.71252	0.5454	0.79622	0.072
Mof_H 	H 	0.7302	0.6215	0.7834	0.012
Mof_C 	C 	0.64571	0.552	0.79804	-0.129
Mof_H 	H 	0.6194	0.6318	0.7872	0.08
Mof_C 	C 	0.61734	0.4412	0.81586	0.08
Mof_C 	C 	0.65896	0.3274	0.82969	-0.129
Mof_H 	H 	0.642	0.2482	0.8411	0.079
Mof_C 	C 	0.72518	0.3291	0.82688	0.068
Mof_H 	H 	0.7521	0.2496	0.8362	0.016
Mof_C 	C 	0.34309	0.9413	0.58421	-0.074
Mof_H 	H 	0.3024	0.9098	0.559	0.054
Mof_C 	C 	0.29206	0.9117	0.70516	0.086
Mof_H 	H 	0.2515	0.8953	0.7138	0.008
Mof_C 	C 	0.28798	0.911	0.65322	-0.154
Mof_H 	H 	0.2453	0.8946	0.6273	0.088
Mof_C 	C 	0.34662	0.9345	0.63908	0.108
Mof_C 	C 	0.40802	0.953	0.67932	-0.163
Mof_H 	H 	0.4498	0.9653	0.672	0.106
Mof_C 	C 	0.40743	0.953	0.72989	0.085
Mof_H 	H 	0.4497	0.9671	0.7566	0.004
Mof_C 	C 	0.39323	0.9889	0.56739	-0.091
Mof_H 	H 	0.4346	0.0176	0.5926	0.074
Mof_C 	C 	0.4182	0.7067	0.83355	0.294
Mof_C 	C 	0.4215	0.105	0.4442	0.09
Mof_H 	H 	0.4494	0.169	0.4343	0.001
Mof_C 	C 	0.4291	0.0914	0.49665	-0.16
Mof_H 	H 	0.4619	0.1444	0.5216	0.09
Mof_C 	C 	0.38825	0.9994	0.51228	0.115
Mof_C 	C 	0.34303	0.9217	0.47364	-0.156
Mof_H 	H 	0.3151	0.8557	0.4825	0.082
Mof_C 	C 	0.33895	0.9407	0.4225	0.085
Mof_H 	H 	0.3078	0.8864	0.3969	-0.003
Mof_C 	C 	0.40681	0.1989	0.82608	0.302
_end
