# CIF file generated by openbabel 3.1.0, see https://openbabel.org
data_I
_chemical_name_common 'image0'
_cell_length_a 22.8411
_cell_length_b 12.5825
_cell_length_c 22.9745
_cell_angle_alpha 90
_cell_angle_beta 90
_cell_angle_gamma 90
_space_group_name_H-M_alt 'P 1'
_space_group_name_Hall 'P 1'
loop_
    _symmetry_equiv_pos_as_xyz
    x,y,z
loop_
    _atom_site_label
    _atom_site_type_symbol
    _atom_site_fract_x
    _atom_site_fract_y
    _atom_site_fract_z
    _atom_site_occupancy
    Ag1      Ag       0.75343    0.87435    0.53106    1.000
    S1       S        0.74824    0.25431    0.67837    1.000
    S2       S        0.83192    0.50861    0.77557    1.000
    S3       S        0.73886    0.75280    0.87308    1.000
    S4       S        0.59818    0.49870    0.52039    1.000
    S5       S        0.50303    0.26560    0.41699    1.000
    S6       S        0.40225    0.00437    0.48830    1.000
    N1       N        0.76910    0.00170    0.59960    1.000
    N2       N        0.75730    0.00630    0.95560    1.000
    N3       N        0.67860    0.75690    0.51650    1.000
    N4       N        0.32210    0.75420    0.45780    1.000
    C1       C        0.78410    0.07230    0.62560    1.000
    C2       C        0.80060    0.16290    0.65870    1.000
    C3       C        0.79970    0.32730    0.71530    1.000
    C4       C        0.85410    0.28220    0.71120    1.000
    H1       H        0.88790    0.31140    0.72810    1.000
    C5       C        0.85380    0.18840    0.67920    1.000
    H2       H        0.88750    0.14710    0.67260    1.000
    C6       C        0.78080    0.42180    0.74660    1.000
    C7       C        0.72570    0.45440    0.75960    1.000
    H3       H        0.69200    0.41710    0.74790    1.000
    C8       C        0.72360    0.54840    0.79190    1.000
    H4       H        0.68840    0.58100    0.80350    1.000
    C9       C        0.77790    0.58830    0.80500    1.000
    C10      C        0.79250    0.68250    0.83640    1.000
    C11      C        0.78930    0.84570    0.89590    1.000
    C12      C        0.84370    0.82360    0.87700    1.000
    H5       H        0.87640    0.86620    0.88540    1.000
    C13      C        0.84670    0.73010    0.84340    1.000
    H6       H        0.88150    0.70310    0.82750    1.000
    C14      C        0.77110    0.93440    0.92880    1.000
    C15      C        0.65230    0.68730    0.49850    1.000
    C16      C        0.61940    0.59990    0.47570    1.000
    C17      C        0.60090    0.58520    0.41970    1.000
    H7       H        0.60860    0.63310    0.38920    1.000
    C18      C        0.57000    0.49280    0.41300    1.000
    H8       H        0.55480    0.47030    0.37710    1.000
    C19      C        0.56340    0.43620    0.46330    1.000
    C20      C        0.53150    0.33780    0.47410    1.000
    C21      C        0.47440    0.17090    0.46420    1.000
    C22      C        0.48710    0.19690    0.52020    1.000
    H9       H        0.47510    0.15580    0.55220    1.000
    C23      C        0.52000    0.29160    0.52580    1.000
    H10      H        0.53250    0.31940    0.56170    1.000
    C24      C        0.44350    0.08020    0.44200    1.000
    C25      C        0.44260    0.04040    0.38760    1.000
    H11      H        0.46270    0.07170    0.35640    1.000
    C26      C        0.40840    0.94700    0.38190    1.000
    H12      H        0.40320    0.90970    0.34680    1.000
    C27      C        0.38430    0.91850    0.43330    1.000
    C28      C        0.34920    0.82580    0.44620    1.000
    Ag2      Ag       0.74657    0.12565    0.03106    1.000
    S7       S        0.75176    0.74569    0.17837    1.000
    S8       S        0.66808    0.49139    0.27557    1.000
    S9       S        0.76114    0.24720    0.37308    1.000
    S10      S        0.90182    0.50130    0.02039    1.000
    S11      S        0.99697    0.73440    0.91699    1.000
    S12      S        0.09775    0.99563    0.98830    1.000
    N5       N        0.73090    0.99830    0.09960    1.000
    N6       N        0.74270    0.99370    0.45560    1.000
    N7       N        0.82140    0.24310    0.01650    1.000
    N8       N        0.17790    0.24580    0.95780    1.000
    C29      C        0.71590    0.92770    0.12560    1.000
    C30      C        0.69940    0.83710    0.15870    1.000
    C31      C        0.70030    0.67270    0.21530    1.000
    C32      C        0.64590    0.71780    0.21120    1.000
    H13      H        0.61210    0.68860    0.22810    1.000
    C33      C        0.64620    0.81160    0.17920    1.000
    H14      H        0.61250    0.85290    0.17260    1.000
    C34      C        0.71920    0.57820    0.24660    1.000
    C35      C        0.77430    0.54560    0.25960    1.000
    H15      H        0.80800    0.58290    0.24790    1.000
    C36      C        0.77640    0.45160    0.29190    1.000
    H16      H        0.81160    0.41900    0.30350    1.000
    C37      C        0.72210    0.41170    0.30500    1.000
    C38      C        0.70750    0.31750    0.33640    1.000
    C39      C        0.71070    0.15430    0.39590    1.000
    C40      C        0.65630    0.17640    0.37700    1.000
    H17      H        0.62360    0.13380    0.38540    1.000
    C41      C        0.65330    0.26990    0.34340    1.000
    H18      H        0.61850    0.29690    0.32750    1.000
    C42      C        0.72890    0.06560    0.42880    1.000
    C43      C        0.84770    0.31270    0.99850    1.000
    C44      C        0.88060    0.40010    0.97570    1.000
    C45      C        0.89910    0.41480    0.91970    1.000
    H19      H        0.89140    0.36690    0.88920    1.000
    C46      C        0.93000    0.50720    0.91300    1.000
    H20      H        0.94520    0.52970    0.87710    1.000
    C47      C        0.93660    0.56380    0.96330    1.000
    C48      C        0.96850    0.66220    0.97410    1.000
    C49      C        0.02560    0.82910    0.96420    1.000
    C50      C        0.01290    0.80310    0.02020    1.000
    H21      H        0.02490    0.84420    0.05220    1.000
    C51      C        0.98000    0.70840    0.02580    1.000
    H22      H        0.96750    0.68060    0.06170    1.000
    C52      C        0.05650    0.91980    0.94200    1.000
    C53      C        0.05740    0.95960    0.88760    1.000
    H23      H        0.03730    0.92830    0.85640    1.000
    C54      C        0.09160    0.05300    0.88190    1.000
    H24      H        0.09680    0.09030    0.84680    1.000
    C55      C        0.11570    0.08150    0.93330    1.000
    C56      C        0.15080    0.17420    0.94620    1.000
    Ag3      Ag       0.24657    0.37435    0.96894    1.000
    S13      S        0.25176    0.75431    0.82163    1.000
    S14      S        0.16808    0.00861    0.72443    1.000
    S15      S        0.26114    0.25280    0.62692    1.000
    S16      S        0.40182    0.99870    0.97961    1.000
    S17      S        0.49697    0.76560    0.08301    1.000
    S18      S        0.59775    0.50437    0.01170    1.000
    N9       N        0.23090    0.50170    0.90040    1.000
    N10      N        0.24270    0.50630    0.54440    1.000
    N11      N        0.32140    0.25690    0.98350    1.000
    N12      N        0.67790    0.25420    0.04220    1.000
    C57      C        0.21590    0.57230    0.87440    1.000
    C58      C        0.19940    0.66290    0.84130    1.000
    C59      C        0.20030    0.82730    0.78470    1.000
    C60      C        0.14590    0.78220    0.78880    1.000
    H25      H        0.11210    0.81140    0.77190    1.000
    C61      C        0.14620    0.68840    0.82080    1.000
    H26      H        0.11250    0.64710    0.82740    1.000
    C62      C        0.21920    0.92180    0.75340    1.000
    C63      C        0.27430    0.95440    0.74040    1.000
    H27      H        0.30800    0.91710    0.75210    1.000
    C64      C        0.27640    0.04840    0.70810    1.000
    H28      H        0.31160    0.08100    0.69650    1.000
    C65      C        0.22210    0.08830    0.69500    1.000
    C66      C        0.20750    0.18250    0.66360    1.000
    C67      C        0.21070    0.34570    0.60410    1.000
    C68      C        0.15630    0.32360    0.62300    1.000
    H29      H        0.12360    0.36620    0.61460    1.000
    C69      C        0.15330    0.23010    0.65660    1.000
    H30      H        0.11850    0.20310    0.67250    1.000
    C70      C        0.22890    0.43440    0.57120    1.000
    C71      C        0.34770    0.18730    0.00150    1.000
    C72      C        0.38060    0.09990    0.02430    1.000
    C73      C        0.39910    0.08520    0.08030    1.000
    H31      H        0.39140    0.13310    0.11080    1.000
    C74      C        0.43000    0.99280    0.08700    1.000
    H32      H        0.44520    0.97030    0.12290    1.000
    C75      C        0.43660    0.93620    0.03670    1.000
    C76      C        0.46850    0.83780    0.02590    1.000
    C77      C        0.52560    0.67090    0.03580    1.000
    C78      C        0.51290    0.69690    0.97980    1.000
    H33      H        0.52490    0.65580    0.94780    1.000
    C79      C        0.48000    0.79160    0.97420    1.000
    H34      H        0.46750    0.81940    0.93830    1.000
    C80      C        0.55650    0.58020    0.05800    1.000
    C81      C        0.55740    0.54040    0.11240    1.000
    H35      H        0.53730    0.57170    0.14360    1.000
    C82      C        0.59160    0.44700    0.11810    1.000
    H36      H        0.59680    0.40970    0.15320    1.000
    C83      C        0.61570    0.41850    0.06670    1.000
    C84      C        0.65080    0.32580    0.05380    1.000
    Ag4      Ag       0.25343    0.62565    0.46894    1.000
    S19      S        0.24824    0.24569    0.32163    1.000
    S20      S        0.33192    0.99139    0.22443    1.000
    S21      S        0.23886    0.74720    0.12692    1.000
    S22      S        0.09818    0.00130    0.47961    1.000
    S23      S        0.00303    0.23440    0.58301    1.000
    S24      S        0.90225    0.49563    0.51170    1.000
    N13      N        0.26910    0.49830    0.40040    1.000
    N14      N        0.25730    0.49370    0.04440    1.000
    N15      N        0.17860    0.74310    0.48350    1.000
    N16      N        0.82210    0.74580    0.54220    1.000
    C85      C        0.28410    0.42770    0.37440    1.000
    C86      C        0.30060    0.33710    0.34130    1.000
    C87      C        0.29970    0.17270    0.28470    1.000
    C88      C        0.35410    0.21780    0.28880    1.000
    H37      H        0.38790    0.18860    0.27190    1.000
    C89      C        0.35380    0.31160    0.32080    1.000
    H38      H        0.38750    0.35290    0.32740    1.000
    C90      C        0.28080    0.07820    0.25340    1.000
    C91      C        0.22570    0.04560    0.24040    1.000
    H39      H        0.19200    0.08290    0.25210    1.000
    C92      C        0.22360    0.95160    0.20810    1.000
    H40      H        0.18840    0.91900    0.19650    1.000
    C93      C        0.27790    0.91170    0.19500    1.000
    C94      C        0.29250    0.81750    0.16360    1.000
    C95      C        0.28930    0.65430    0.10410    1.000
    C96      C        0.34370    0.67640    0.12300    1.000
    H41      H        0.37640    0.63380    0.11460    1.000
    C97      C        0.34670    0.76990    0.15660    1.000
    H42      H        0.38150    0.79690    0.17250    1.000
    C98      C        0.27110    0.56560    0.07120    1.000
    C99      C        0.15230    0.81270    0.50150    1.000
    C100     C        0.11940    0.90010    0.52430    1.000
    C101     C        0.10090    0.91480    0.58030    1.000
    H43      H        0.10860    0.86690    0.61080    1.000
    C102     C        0.07000    0.00720    0.58700    1.000
    H44      H        0.05480    0.02970    0.62290    1.000
    C103     C        0.06340    0.06380    0.53670    1.000
    C104     C        0.03150    0.16220    0.52590    1.000
    C105     C        0.97440    0.32910    0.53580    1.000
    C106     C        0.98710    0.30310    0.47980    1.000
    H45      H        0.97510    0.34420    0.44780    1.000
    C107     C        0.02000    0.20840    0.47420    1.000
    H46      H        0.03250    0.18060    0.43830    1.000
    C108     C        0.94350    0.41980    0.55800    1.000
    C109     C        0.94260    0.45960    0.61240    1.000
    H47      H        0.96270    0.42830    0.64360    1.000
    C110     C        0.90840    0.55300    0.61810    1.000
    H48      H        0.90320    0.59030    0.65320    1.000
    C111     C        0.88430    0.58150    0.56670    1.000
    C112     C        0.84920    0.67420    0.55380    1.000
    Ag5      Ag       0.24657    0.12565    0.46894    1.000
    S25      S        0.25176    0.74569    0.32163    1.000
    S26      S        0.16808    0.49139    0.22443    1.000
    S27      S        0.26114    0.24720    0.12692    1.000
    S28      S        0.40182    0.50130    0.47961    1.000
    S29      S        0.49697    0.73440    0.58301    1.000
    S30      S        0.59775    0.99563    0.51170    1.000
    N17      N        0.23090    0.99830    0.40040    1.000
    N18      N        0.24270    0.99370    0.04440    1.000
    N19      N        0.32140    0.24310    0.48350    1.000
    N20      N        0.67790    0.24580    0.54220    1.000
    C113     C        0.21590    0.92770    0.37440    1.000
    C114     C        0.19940    0.83710    0.34130    1.000
    C115     C        0.20030    0.67270    0.28470    1.000
    C116     C        0.14590    0.71780    0.28880    1.000
    H49      H        0.11210    0.68860    0.27190    1.000
    C117     C        0.14620    0.81160    0.32080    1.000
    H50      H        0.11250    0.85290    0.32740    1.000
    C118     C        0.21920    0.57820    0.25340    1.000
    C119     C        0.27430    0.54560    0.24040    1.000
    H51      H        0.30800    0.58290    0.25210    1.000
    C120     C        0.27640    0.45160    0.20810    1.000
    H52      H        0.31160    0.41900    0.19650    1.000
    C121     C        0.22210    0.41170    0.19500    1.000
    C122     C        0.20750    0.31750    0.16360    1.000
    C123     C        0.21070    0.15430    0.10410    1.000
    C124     C        0.15630    0.17640    0.12300    1.000
    H53      H        0.12360    0.13380    0.11460    1.000
    C125     C        0.15330    0.26990    0.15660    1.000
    H54      H        0.11850    0.29690    0.17250    1.000
    C126     C        0.22890    0.06560    0.07120    1.000
    C127     C        0.34770    0.31270    0.50150    1.000
    C128     C        0.38060    0.40010    0.52430    1.000
    C129     C        0.39910    0.41480    0.58030    1.000
    H55      H        0.39140    0.36690    0.61080    1.000
    C130     C        0.43000    0.50720    0.58700    1.000
    H56      H        0.44520    0.52970    0.62290    1.000
    C131     C        0.43660    0.56380    0.53670    1.000
    C132     C        0.46850    0.66220    0.52590    1.000
    C133     C        0.52560    0.82910    0.53580    1.000
    C134     C        0.51290    0.80310    0.47980    1.000
    H57      H        0.52490    0.84420    0.44780    1.000
    C135     C        0.48000    0.70840    0.47420    1.000
    H58      H        0.46750    0.68060    0.43830    1.000
    C136     C        0.55650    0.91980    0.55800    1.000
    C137     C        0.55740    0.95960    0.61240    1.000
    H59      H        0.53730    0.92830    0.64360    1.000
    C138     C        0.59160    0.05300    0.61810    1.000
    H60      H        0.59680    0.09030    0.65320    1.000
    C139     C        0.61570    0.08150    0.56670    1.000
    C140     C        0.65080    0.17420    0.55380    1.000
    Ag6      Ag       0.25343    0.87435    0.96894    1.000
    S31      S        0.24824    0.25431    0.82163    1.000
    S32      S        0.33192    0.50861    0.72443    1.000
    S33      S        0.23886    0.75280    0.62692    1.000
    S34      S        0.09818    0.49870    0.97961    1.000
    S35      S        0.00303    0.26560    0.08301    1.000
    S36      S        0.90225    0.00437    0.01170    1.000
    N21      N        0.26910    0.00170    0.90040    1.000
    N22      N        0.25730    0.00630    0.54440    1.000
    N23      N        0.17860    0.75690    0.98350    1.000
    N24      N        0.82210    0.75420    0.04220    1.000
    C141     C        0.28410    0.07230    0.87440    1.000
    C142     C        0.30060    0.16290    0.84130    1.000
    C143     C        0.29970    0.32730    0.78470    1.000
    C144     C        0.35410    0.28220    0.78880    1.000
    H61      H        0.38790    0.31140    0.77190    1.000
    C145     C        0.35380    0.18840    0.82080    1.000
    H62      H        0.38750    0.14710    0.82740    1.000
    C146     C        0.28080    0.42180    0.75340    1.000
    C147     C        0.22570    0.45440    0.74040    1.000
    H63      H        0.19200    0.41710    0.75210    1.000
    C148     C        0.22360    0.54840    0.70810    1.000
    H64      H        0.18840    0.58100    0.69650    1.000
    C149     C        0.27790    0.58830    0.69500    1.000
    C150     C        0.29250    0.68250    0.66360    1.000
    C151     C        0.28930    0.84570    0.60410    1.000
    C152     C        0.34370    0.82360    0.62300    1.000
    H65      H        0.37640    0.86620    0.61460    1.000
    C153     C        0.34670    0.73010    0.65660    1.000
    H66      H        0.38150    0.70310    0.67250    1.000
    C154     C        0.27110    0.93440    0.57120    1.000
    C155     C        0.15230    0.68730    0.00150    1.000
    C156     C        0.11940    0.59990    0.02430    1.000
    C157     C        0.10090    0.58520    0.08030    1.000
    H67      H        0.10860    0.63310    0.11080    1.000
    C158     C        0.07000    0.49280    0.08700    1.000
    H68      H        0.05480    0.47030    0.12290    1.000
    C159     C        0.06340    0.43620    0.03670    1.000
    C160     C        0.03150    0.33780    0.02590    1.000
    C161     C        0.97440    0.17090    0.03580    1.000
    C162     C        0.98710    0.19690    0.97980    1.000
    H69      H        0.97510    0.15580    0.94780    1.000
    C163     C        0.02000    0.29160    0.97420    1.000
    H70      H        0.03250    0.31940    0.93830    1.000
    C164     C        0.94350    0.08020    0.05800    1.000
    C165     C        0.94260    0.04040    0.11240    1.000
    H71      H        0.96270    0.07170    0.14360    1.000
    C166     C        0.90840    0.94700    0.11810    1.000
    H72      H        0.90320    0.90970    0.15320    1.000
    C167     C        0.88430    0.91850    0.06670    1.000
    C168     C        0.84920    0.82580    0.05380    1.000
    Ag7      Ag       0.75343    0.62565    0.03106    1.000
    S37      S        0.74824    0.24569    0.17837    1.000
    S38      S        0.83192    0.99139    0.27557    1.000
    S39      S        0.73886    0.74720    0.37308    1.000
    S40      S        0.59818    0.00130    0.02039    1.000
    S41      S        0.50303    0.23440    0.91699    1.000
    S42      S        0.40225    0.49563    0.98830    1.000
    N25      N        0.76910    0.49830    0.09960    1.000
    N26      N        0.75730    0.49370    0.45560    1.000
    N27      N        0.67860    0.74310    0.01650    1.000
    N28      N        0.32210    0.74580    0.95780    1.000
    C169     C        0.78410    0.42770    0.12560    1.000
    C170     C        0.80060    0.33710    0.15870    1.000
    C171     C        0.79970    0.17270    0.21530    1.000
    C172     C        0.85410    0.21780    0.21120    1.000
    H73      H        0.88790    0.18860    0.22810    1.000
    C173     C        0.85380    0.31160    0.17920    1.000
    H74      H        0.88750    0.35290    0.17260    1.000
    C174     C        0.78080    0.07820    0.24660    1.000
    C175     C        0.72570    0.04560    0.25960    1.000
    H75      H        0.69200    0.08290    0.24790    1.000
    C176     C        0.72360    0.95160    0.29190    1.000
    H76      H        0.68840    0.91900    0.30350    1.000
    C177     C        0.77790    0.91170    0.30500    1.000
    C178     C        0.79250    0.81750    0.33640    1.000
    C179     C        0.78930    0.65430    0.39590    1.000
    C180     C        0.84370    0.67640    0.37700    1.000
    H77      H        0.87640    0.63380    0.38540    1.000
    C181     C        0.84670    0.76990    0.34340    1.000
    H78      H        0.88150    0.79690    0.32750    1.000
    C182     C        0.77110    0.56560    0.42880    1.000
    C183     C        0.65230    0.81270    0.99850    1.000
    C184     C        0.61940    0.90010    0.97570    1.000
    C185     C        0.60090    0.91480    0.91970    1.000
    H79      H        0.60860    0.86690    0.88920    1.000
    C186     C        0.57000    0.00720    0.91300    1.000
    H80      H        0.55480    0.02970    0.87710    1.000
    C187     C        0.56340    0.06380    0.96330    1.000
    C188     C        0.53150    0.16220    0.97410    1.000
    C189     C        0.47440    0.32910    0.96420    1.000
    C190     C        0.48710    0.30310    0.02020    1.000
    H81      H        0.47510    0.34420    0.05220    1.000
    C191     C        0.52000    0.20840    0.02580    1.000
    H82      H        0.53250    0.18060    0.06170    1.000
    C192     C        0.44350    0.41980    0.94200    1.000
    C193     C        0.44260    0.45960    0.88760    1.000
    H83      H        0.46270    0.42830    0.85640    1.000
    C194     C        0.40840    0.55300    0.88190    1.000
    H84      H        0.40320    0.59030    0.84680    1.000
    C195     C        0.38430    0.58150    0.93330    1.000
    C196     C        0.34920    0.67420    0.94620    1.000
    Ag8      Ag       0.74657    0.37435    0.53106    1.000
    S43      S        0.75176    0.75431    0.67837    1.000
    S44      S        0.66808    0.00861    0.77557    1.000
    S45      S        0.76114    0.25280    0.87308    1.000
    S46      S        0.90182    0.99870    0.52039    1.000
    S47      S        0.99697    0.76560    0.41699    1.000
    S48      S        0.09775    0.50437    0.48830    1.000
    N29      N        0.73090    0.50170    0.59960    1.000
    N30      N        0.74270    0.50630    0.95560    1.000
    N31      N        0.82140    0.25690    0.51650    1.000
    N32      N        0.17790    0.25420    0.45780    1.000
    C197     C        0.71590    0.57230    0.62560    1.000
    C198     C        0.69940    0.66290    0.65870    1.000
    C199     C        0.70030    0.82730    0.71530    1.000
    C200     C        0.64590    0.78220    0.71120    1.000
    H85      H        0.61210    0.81140    0.72810    1.000
    C201     C        0.64620    0.68840    0.67920    1.000
    H86      H        0.61250    0.64710    0.67260    1.000
    C202     C        0.71920    0.92180    0.74660    1.000
    C203     C        0.77430    0.95440    0.75960    1.000
    H87      H        0.80800    0.91710    0.74790    1.000
    C204     C        0.77640    0.04840    0.79190    1.000
    H88      H        0.81160    0.08100    0.80350    1.000
    C205     C        0.72210    0.08830    0.80500    1.000
    C206     C        0.70750    0.18250    0.83640    1.000
    C207     C        0.71070    0.34570    0.89590    1.000
    C208     C        0.65630    0.32360    0.87700    1.000
    H89      H        0.62360    0.36620    0.88540    1.000
    C209     C        0.65330    0.23010    0.84340    1.000
    H90      H        0.61850    0.20310    0.82750    1.000
    C210     C        0.72890    0.43440    0.92880    1.000
    C211     C        0.84770    0.18730    0.49850    1.000
    C212     C        0.88060    0.09990    0.47570    1.000
    C213     C        0.89910    0.08520    0.41970    1.000
    H91      H        0.89140    0.13310    0.38920    1.000
    C214     C        0.93000    0.99280    0.41300    1.000
    H92      H        0.94520    0.97030    0.37710    1.000
    C215     C        0.93660    0.93620    0.46330    1.000
    C216     C        0.96850    0.83780    0.47410    1.000
    C217     C        0.02560    0.67090    0.46420    1.000
    C218     C        0.01290    0.69690    0.52020    1.000
    H93      H        0.02490    0.65580    0.55220    1.000
    C219     C        0.98000    0.79160    0.52580    1.000
    H94      H        0.96750    0.81940    0.56170    1.000
    C220     C        0.05650    0.58020    0.44200    1.000
    C221     C        0.05740    0.54040    0.38760    1.000
    H95      H        0.03730    0.57170    0.35640    1.000
    C222     C        0.09160    0.44700    0.38190    1.000
    H96      H        0.09680    0.40970    0.34680    1.000
    C223     C        0.11570    0.41850    0.43330    1.000
    C224     C        0.15080    0.32580    0.44620    1.000
