# CIF file generated by openbabel 3.1.0, see https://openbabel.org
data_I
_chemical_name_common 'image0'
_cell_length_a 18.373
_cell_length_b 11.523
_cell_length_c 11.034
_cell_angle_alpha 90
_cell_angle_beta 94.251
_cell_angle_gamma 90
_space_group_name_H-M_alt 'P 1'
_space_group_name_Hall 'P 1'
loop_
    _symmetry_equiv_pos_as_xyz
    x,y,z
loop_
    _atom_site_label
    _atom_site_type_symbol
    _atom_site_fract_x
    _atom_site_fract_y
    _atom_site_fract_z
    _atom_site_occupancy
    Co1      Co       0.07530    0.93022    0.99285    1.000
    C1       C        0.12800    0.75220    0.16580    1.000
    C2       C        0.19540    0.68760    0.22100    1.000
    C3       C        0.20040    0.66510    0.34690    1.000
    H1       H        0.16140    0.68810    0.39360    1.000
    C4       C        0.25950    0.61140    0.40350    1.000
    H2       H        0.26330    0.59730    0.48860    1.000
    C5       C        0.31310    0.57910    0.33110    1.000
    C6       C        0.31050    0.60190    0.20850    1.000
    C7       C        0.24980    0.65910    0.14950    1.000
    H3       H        0.24720    0.67650    0.06510    1.000
    N1       N        0.37710    0.52380    0.36150    1.000
    N2       N        0.41150    0.51310    0.26000    1.000
    N3       N        0.37280    0.55950    0.16610    1.000
    O1       O        0.97960    0.91360    0.06760    1.000
    H4       H        0.95750    0.85720    0.03800    1.000
    O2       O        0.07770    0.76720    0.23350    1.000
    O3       O        0.13030    0.78620    0.05700    1.000
    Co2      Co       0.57530    0.43022    0.99285    1.000
    C8       C        0.62800    0.25220    0.16580    1.000
    C9       C        0.69540    0.18760    0.22100    1.000
    C10      C        0.70040    0.16510    0.34690    1.000
    H5       H        0.66140    0.18810    0.39360    1.000
    C11      C        0.75950    0.11140    0.40350    1.000
    H6       H        0.76330    0.09730    0.48860    1.000
    C12      C        0.81310    0.07910    0.33110    1.000
    C13      C        0.81050    0.10190    0.20850    1.000
    C14      C        0.74980    0.15910    0.14950    1.000
    H7       H        0.74720    0.17650    0.06510    1.000
    N4       N        0.87710    0.02380    0.36150    1.000
    N5       N        0.91150    0.01310    0.26000    1.000
    N6       N        0.87280    0.05950    0.16610    1.000
    O4       O        0.47960    0.41360    0.06760    1.000
    H8       H        0.45750    0.35720    0.03800    1.000
    O5       O        0.57770    0.26720    0.23350    1.000
    O6       O        0.63030    0.28620    0.05700    1.000
    Co3      Co       0.92470    0.93022    0.50715    1.000
    C15      C        0.87200    0.75220    0.33420    1.000
    C16      C        0.80460    0.68760    0.27900    1.000
    C17      C        0.79960    0.66510    0.15310    1.000
    H9       H        0.83860    0.68810    0.10640    1.000
    C18      C        0.74050    0.61140    0.09650    1.000
    H10      H        0.73670    0.59730    0.01140    1.000
    C19      C        0.68690    0.57910    0.16890    1.000
    C20      C        0.68950    0.60190    0.29150    1.000
    C21      C        0.75020    0.65910    0.35050    1.000
    H11      H        0.75280    0.67650    0.43490    1.000
    N7       N        0.62290    0.52380    0.13850    1.000
    N8       N        0.58850    0.51310    0.24000    1.000
    N9       N        0.62720    0.55950    0.33390    1.000
    O7       O        0.02040    0.91360    0.43240    1.000
    H12      H        0.04250    0.85720    0.46200    1.000
    O8       O        0.92230    0.76720    0.26650    1.000
    O9       O        0.86970    0.78620    0.44300    1.000
    Co4      Co       0.42470    0.43022    0.50715    1.000
    C22      C        0.37200    0.25220    0.33420    1.000
    C23      C        0.30460    0.18760    0.27900    1.000
    C24      C        0.29960    0.16510    0.15310    1.000
    H13      H        0.33860    0.18810    0.10640    1.000
    C25      C        0.24050    0.11140    0.09650    1.000
    H14      H        0.23670    0.09730    0.01140    1.000
    C26      C        0.18690    0.07910    0.16890    1.000
    C27      C        0.18950    0.10190    0.29150    1.000
    C28      C        0.25020    0.15910    0.35050    1.000
    H15      H        0.25280    0.17650    0.43490    1.000
    N10      N        0.12290    0.02380    0.13850    1.000
    N11      N        0.08850    0.01310    0.24000    1.000
    N12      N        0.12720    0.05950    0.33390    1.000
    O10      O        0.52040    0.41360    0.43240    1.000
    H16      H        0.54250    0.35720    0.46200    1.000
    O11      O        0.42230    0.26720    0.26650    1.000
    O12      O        0.36970    0.28620    0.44300    1.000
    Co5      Co       0.92470    0.06978    0.00715    1.000
    C29      C        0.87200    0.24780    0.83420    1.000
    C30      C        0.80460    0.31240    0.77900    1.000
    C31      C        0.79960    0.33490    0.65310    1.000
    H17      H        0.83860    0.31190    0.60640    1.000
    C32      C        0.74050    0.38860    0.59650    1.000
    H18      H        0.73670    0.40270    0.51140    1.000
    C33      C        0.68690    0.42090    0.66890    1.000
    C34      C        0.68950    0.39810    0.79150    1.000
    C35      C        0.75020    0.34090    0.85050    1.000
    H19      H        0.75280    0.32350    0.93490    1.000
    N13      N        0.62290    0.47620    0.63850    1.000
    N14      N        0.58850    0.48690    0.74000    1.000
    N15      N        0.62720    0.44050    0.83390    1.000
    O13      O        0.02040    0.08640    0.93240    1.000
    H20      H        0.04250    0.14280    0.96200    1.000
    O14      O        0.92230    0.23280    0.76650    1.000
    O15      O        0.86970    0.21380    0.94300    1.000
    Co6      Co       0.42470    0.56978    0.00715    1.000
    C36      C        0.37200    0.74780    0.83420    1.000
    C37      C        0.30460    0.81240    0.77900    1.000
    C38      C        0.29960    0.83490    0.65310    1.000
    H21      H        0.33860    0.81190    0.60640    1.000
    C39      C        0.24050    0.88860    0.59650    1.000
    H22      H        0.23670    0.90270    0.51140    1.000
    C40      C        0.18690    0.92090    0.66890    1.000
    C41      C        0.18950    0.89810    0.79150    1.000
    C42      C        0.25020    0.84090    0.85050    1.000
    H23      H        0.25280    0.82350    0.93490    1.000
    N16      N        0.12290    0.97620    0.63850    1.000
    N17      N        0.08850    0.98690    0.74000    1.000
    N18      N        0.12720    0.94050    0.83390    1.000
    O16      O        0.52040    0.58640    0.93240    1.000
    H24      H        0.54250    0.64280    0.96200    1.000
    O17      O        0.42230    0.73280    0.76650    1.000
    O18      O        0.36970    0.71380    0.94300    1.000
    Co7      Co       0.07530    0.06978    0.49285    1.000
    C43      C        0.12800    0.24780    0.66580    1.000
    C44      C        0.19540    0.31240    0.72100    1.000
    C45      C        0.20040    0.33490    0.84690    1.000
    H25      H        0.16140    0.31190    0.89360    1.000
    C46      C        0.25950    0.38860    0.90350    1.000
    H26      H        0.26330    0.40270    0.98860    1.000
    C47      C        0.31310    0.42090    0.83110    1.000
    C48      C        0.31050    0.39810    0.70850    1.000
    C49      C        0.24980    0.34090    0.64950    1.000
    H27      H        0.24720    0.32350    0.56510    1.000
    N19      N        0.37710    0.47620    0.86150    1.000
    N20      N        0.41150    0.48690    0.76000    1.000
    N21      N        0.37280    0.44050    0.66610    1.000
    O19      O        0.97960    0.08640    0.56760    1.000
    H28      H        0.95750    0.14280    0.53800    1.000
    O20      O        0.07770    0.23280    0.73350    1.000
    O21      O        0.13030    0.21380    0.55700    1.000
    Co8      Co       0.57530    0.56978    0.49285    1.000
    C50      C        0.62800    0.74780    0.66580    1.000
    C51      C        0.69540    0.81240    0.72100    1.000
    C52      C        0.70040    0.83490    0.84690    1.000
    H29      H        0.66140    0.81190    0.89360    1.000
    C53      C        0.75950    0.88860    0.90350    1.000
    H30      H        0.76330    0.90270    0.98860    1.000
    C54      C        0.81310    0.92090    0.83110    1.000
    C55      C        0.81050    0.89810    0.70850    1.000
    C56      C        0.74980    0.84090    0.64950    1.000
    H31      H        0.74720    0.82350    0.56510    1.000
    N22      N        0.87710    0.97620    0.86150    1.000
    N23      N        0.91150    0.98690    0.76000    1.000
    N24      N        0.87280    0.94050    0.66610    1.000
    O22      O        0.47960    0.58640    0.56760    1.000
    H32      H        0.45750    0.64280    0.53800    1.000
    O23      O        0.57770    0.73280    0.73350    1.000
    O24      O        0.63030    0.71380    0.55700    1.000
    Co9      Co       0.00000    0.89567    0.25000    1.000
    Co10     Co       0.50000    0.39567    0.25000    1.000
    Co11     Co       0.00000    0.10433    0.75000    1.000
    Co12     Co       0.50000    0.60433    0.75000    1.000
