# CIF file generated by openbabel 3.1.0, see https://openbabel.org
data_I
_chemical_name_common 'image0'
_cell_length_a 13.911
_cell_length_b 12.7722
_cell_length_c 18.634
_cell_angle_alpha 90
_cell_angle_beta 90.359
_cell_angle_gamma 90
_space_group_name_H-M_alt 'P 1'
_space_group_name_Hall 'P 1'
loop_
    _symmetry_equiv_pos_as_xyz
    x,y,z
loop_
    _atom_site_label
    _atom_site_type_symbol
    _atom_site_fract_x
    _atom_site_fract_y
    _atom_site_fract_z
    _atom_site_occupancy
    Al1      Al       0.10690    0.03880    0.16340    1.000
    Al2      Al       0.76950    0.90670    0.04740    1.000
    Al3      Al       0.88340    0.22250    0.06060    1.000
    Co1      Co       0.11660    0.77750    0.93940    1.000
    P1       P        0.23100    0.90040    0.05890    1.000
    P2       P        0.10920    0.23360    0.06110    1.000
    P3       P        0.88110    0.02990    0.16550    1.000
    O1       O        0.81320    0.94980    0.13080    1.000
    O2       O        0.14290    0.17570    0.99520    1.000
    O3       O        0.00560    0.25970    0.05130    1.000
    O4       O        0.15720    0.83340    0.02170    1.000
    O5       O        0.19010    0.94410    0.12650    1.000
    O6       O        0.98160    0.99490    0.15520    1.000
    O7       O        0.86440    0.13680    0.13180    1.000
    O8       O        0.16450    0.33580    0.06910    1.000
    O9       O        0.85670    0.03700    0.24310    1.000
    O10      O        0.31770    0.83590    0.08020    1.000
    O11      O        0.12630    0.17060    0.12760    1.000
    O12      O        0.26530    0.98690    0.00990    1.000
    Al4      Al       0.60690    0.53880    0.16340    1.000
    Al5      Al       0.26950    0.40670    0.04740    1.000
    Al6      Al       0.38340    0.72250    0.06060    1.000
    Co2      Co       0.61660    0.27750    0.93940    1.000
    P4       P        0.73100    0.40040    0.05890    1.000
    P5       P        0.60920    0.73360    0.06110    1.000
    P6       P        0.38110    0.52990    0.16550    1.000
    O13      O        0.31320    0.44980    0.13080    1.000
    O14      O        0.64290    0.67570    0.99520    1.000
    O15      O        0.50560    0.75970    0.05130    1.000
    O16      O        0.65720    0.33340    0.02170    1.000
    O17      O        0.69010    0.44410    0.12650    1.000
    O18      O        0.48160    0.49490    0.15520    1.000
    O19      O        0.36440    0.63680    0.13180    1.000
    O20      O        0.66450    0.83580    0.06910    1.000
    O21      O        0.35670    0.53700    0.24310    1.000
    O22      O        0.81770    0.33590    0.08020    1.000
    O23      O        0.62630    0.67060    0.12760    1.000
    O24      O        0.76530    0.48690    0.00990    1.000
    Al7      Al       0.89310    0.03880    0.33660    1.000
    Al8      Al       0.23050    0.90670    0.45260    1.000
    Al9      Al       0.11660    0.22250    0.43940    1.000
    Co3      Co       0.88340    0.77750    0.56060    1.000
    P7       P        0.76900    0.90040    0.44110    1.000
    P8       P        0.89080    0.23360    0.43890    1.000
    P9       P        0.11890    0.02990    0.33450    1.000
    O25      O        0.18680    0.94980    0.36920    1.000
    O26      O        0.85710    0.17570    0.50480    1.000
    O27      O        0.99440    0.25970    0.44870    1.000
    O28      O        0.84280    0.83340    0.47830    1.000
    O29      O        0.80990    0.94410    0.37350    1.000
    O30      O        0.01840    0.99490    0.34480    1.000
    O31      O        0.13560    0.13680    0.36820    1.000
    O32      O        0.83550    0.33580    0.43090    1.000
    O33      O        0.14330    0.03700    0.25690    1.000
    O34      O        0.68230    0.83590    0.41980    1.000
    O35      O        0.87370    0.17060    0.37240    1.000
    O36      O        0.73470    0.98690    0.49010    1.000
    Al10     Al       0.39310    0.53880    0.33660    1.000
    Al11     Al       0.73050    0.40670    0.45260    1.000
    Al12     Al       0.61660    0.72250    0.43940    1.000
    Co4      Co       0.38340    0.27750    0.56060    1.000
    P10      P        0.26900    0.40040    0.44110    1.000
    P11      P        0.39080    0.73360    0.43890    1.000
    P12      P        0.61890    0.52990    0.33450    1.000
    O37      O        0.68680    0.44980    0.36920    1.000
    O38      O        0.35710    0.67570    0.50480    1.000
    O39      O        0.49440    0.75970    0.44870    1.000
    O40      O        0.34280    0.33340    0.47830    1.000
    O41      O        0.30990    0.44410    0.37350    1.000
    O42      O        0.51840    0.49490    0.34480    1.000
    O43      O        0.63560    0.63680    0.36820    1.000
    O44      O        0.33550    0.83580    0.43090    1.000
    O45      O        0.64330    0.53700    0.25690    1.000
    O46      O        0.18230    0.33590    0.41980    1.000
    O47      O        0.37370    0.67060    0.37240    1.000
    O48      O        0.23470    0.48690    0.49010    1.000
    Al13     Al       0.89310    0.96120    0.83660    1.000
    Al14     Al       0.23050    0.09330    0.95260    1.000
    P13      P        0.76900    0.09960    0.94110    1.000
    P14      P        0.89080    0.76640    0.93890    1.000
    P15      P        0.11890    0.97010    0.83450    1.000
    O49      O        0.18680    0.05020    0.86920    1.000
    O50      O        0.85710    0.82430    0.00480    1.000
    O51      O        0.99440    0.74030    0.94870    1.000
    O52      O        0.84280    0.16660    0.97830    1.000
    O53      O        0.80990    0.05590    0.87350    1.000
    O54      O        0.01840    0.00510    0.84480    1.000
    O55      O        0.13560    0.86320    0.86820    1.000
    O56      O        0.83550    0.66420    0.93090    1.000
    O57      O        0.14330    0.96300    0.75690    1.000
    O58      O        0.68230    0.16410    0.91980    1.000
    O59      O        0.87370    0.82940    0.87240    1.000
    O60      O        0.73470    0.01310    0.99010    1.000
    Al15     Al       0.39310    0.46120    0.83660    1.000
    Al16     Al       0.73050    0.59330    0.95260    1.000
    P16      P        0.26900    0.59960    0.94110    1.000
    P17      P        0.39080    0.26640    0.93890    1.000
    P18      P        0.61890    0.47010    0.83450    1.000
    O61      O        0.68680    0.55020    0.86920    1.000
    O62      O        0.35710    0.32430    0.00480    1.000
    O63      O        0.49440    0.24030    0.94870    1.000
    O64      O        0.34280    0.66660    0.97830    1.000
    O65      O        0.30990    0.55590    0.87350    1.000
    O66      O        0.51840    0.50510    0.84480    1.000
    O67      O        0.63560    0.36320    0.86820    1.000
    O68      O        0.33550    0.16420    0.93090    1.000
    O69      O        0.64330    0.46300    0.75690    1.000
    O70      O        0.18230    0.66410    0.91980    1.000
    O71      O        0.37370    0.32940    0.87240    1.000
    O72      O        0.23470    0.51310    0.99010    1.000
    Al17     Al       0.10690    0.96120    0.66340    1.000
    Al18     Al       0.76950    0.09330    0.54740    1.000
    P19      P        0.23100    0.09960    0.55890    1.000
    P20      P        0.10920    0.76640    0.56110    1.000
    P21      P        0.88110    0.97010    0.66550    1.000
    O73      O        0.81320    0.05020    0.63080    1.000
    O74      O        0.14290    0.82430    0.49520    1.000
    O75      O        0.00560    0.74030    0.55130    1.000
    O76      O        0.15720    0.16660    0.52170    1.000
    O77      O        0.19010    0.05590    0.62650    1.000
    O78      O        0.98160    0.00510    0.65520    1.000
    O79      O        0.86440    0.86320    0.63180    1.000
    O80      O        0.16450    0.66420    0.56910    1.000
    O81      O        0.85670    0.96300    0.74310    1.000
    O82      O        0.31770    0.16410    0.58020    1.000
    O83      O        0.12630    0.82940    0.62760    1.000
    O84      O        0.26530    0.01310    0.50990    1.000
    Al19     Al       0.60690    0.46120    0.66340    1.000
    Al20     Al       0.26950    0.59330    0.54740    1.000
    P22      P        0.73100    0.59960    0.55890    1.000
    P23      P        0.60920    0.26640    0.56110    1.000
    P24      P        0.38110    0.47010    0.66550    1.000
    O85      O        0.31320    0.55020    0.63080    1.000
    O86      O        0.64290    0.32430    0.49520    1.000
    O87      O        0.50560    0.24030    0.55130    1.000
    O88      O        0.65720    0.66660    0.52170    1.000
    O89      O        0.69010    0.55590    0.62650    1.000
    O90      O        0.48160    0.50510    0.65520    1.000
    O91      O        0.36440    0.36320    0.63180    1.000
    O92      O        0.66450    0.16420    0.56910    1.000
    O93      O        0.35670    0.46300    0.74310    1.000
    O94      O        0.81770    0.66410    0.58020    1.000
    O95      O        0.62630    0.32940    0.62760    1.000
    O96      O        0.76530    0.51310    0.50990    1.000
