data_functionalizedCrystal
_audit_creation_method	'EQeq! by Chris Wilmer'
_symmetry_space_group_name_H-M	'P1'
_symmetry_Int_Tables_number	1
_symmetry_cell_setting	triclinic
loop_
_symmetry_equiv_pos_as_xyz
  x,y,z
_cell_length_a	27.418
_cell_length_b	27.418
_cell_length_c	27.418
_cell_angle_alpha	90
_cell_angle_beta	90
_cell_angle_gamma	90
loop_
_atom_site_label
_atom_site_type_symbol
_atom_site_fract_x
_atom_site_fract_y
_atom_site_fract_z
_atom_site_charge
Mof_O 	O 	0.95047	0.79068	0.5498	-0.39
Mof_C 	C 	0.878	0.793	0.6216	0.054
Mof_H 	H 	0.8894	0.8224	0.609	0.035
Mof_C 	C 	0.8436	0.7938	0.6573	-0.112
Mof_H 	H 	0.8326	0.8234	0.6697	0.076
Mof_O 	O 	0.04953	0.20932	0.5498	-0.418
Mof_C 	C 	0.122	0.207	0.6216	0.058
Mof_H 	H 	0.1106	0.1776	0.609	0.02
Mof_C 	C 	0.1564	0.2062	0.6573	-0.124
Mof_H 	H 	0.1674	0.1766	0.6697	0.07
Mof_O 	O 	0.04953	0.79068	0.4502	-0.414
Mof_C 	C 	0.122	0.793	0.3784	0.058
Mof_H 	H 	0.1106	0.8224	0.391	0.025
Mof_C 	C 	0.1564	0.7938	0.3427	-0.122
Mof_H 	H 	0.1674	0.8234	0.3303	0.073
Mof_O 	O 	0.95047	0.20932	0.4502	-0.396
Mof_C 	C 	0.878	0.207	0.3784	0.053
Mof_H 	H 	0.8894	0.1776	0.391	0.027
Mof_C 	C 	0.8436	0.2062	0.3427	-0.116
Mof_H 	H 	0.8326	0.1766	0.3303	0.07
Mof_O 	O 	0.5498	0.95047	0.79068	-0.391
Mof_C 	C 	0.6216	0.878	0.793	0.053
Mof_H 	H 	0.609	0.8894	0.8224	0.034
Mof_C 	C 	0.6573	0.8436	0.7938	-0.112
Mof_H 	H 	0.6697	0.8326	0.8234	0.076
Mof_O 	O 	0.5498	0.04953	0.20932	-0.418
Mof_C 	C 	0.6216	0.122	0.207	0.058
Mof_H 	H 	0.609	0.1106	0.1776	0.02
Mof_C 	C 	0.6573	0.1564	0.2062	-0.124
Mof_H 	H 	0.6697	0.1674	0.1766	0.07
Mof_O 	O 	0.4502	0.04953	0.79068	-0.414
Mof_C 	C 	0.3784	0.122	0.793	0.058
Mof_H 	H 	0.391	0.1106	0.8224	0.025
Mof_C 	C 	0.3427	0.1564	0.7938	-0.122
Mof_H 	H 	0.3303	0.1674	0.8234	0.073
Mof_O 	O 	0.4502	0.95047	0.20932	-0.396
Mof_C 	C 	0.3784	0.878	0.207	0.053
Mof_H 	H 	0.391	0.8894	0.1776	0.027
Mof_C 	C 	0.3427	0.8436	0.2062	-0.116
Mof_H 	H 	0.3303	0.8326	0.1766	0.07
Mof_O 	O 	0.79068	0.5498	0.95047	-0.391
Mof_C 	C 	0.793	0.6216	0.878	0.053
Mof_H 	H 	0.8224	0.609	0.8894	0.034
Mof_C 	C 	0.7938	0.6573	0.8436	-0.112
Mof_H 	H 	0.8234	0.6697	0.8326	0.076
Mof_O 	O 	0.20932	0.5498	0.04953	-0.418
Mof_C 	C 	0.207	0.6216	0.122	0.058
Mof_H 	H 	0.1776	0.609	0.1106	0.02
Mof_C 	C 	0.2062	0.6573	0.1564	-0.124
Mof_H 	H 	0.1766	0.6697	0.1674	0.07
Mof_O 	O 	0.79068	0.4502	0.04953	-0.414
Mof_C 	C 	0.793	0.3784	0.122	0.058
Mof_H 	H 	0.8224	0.391	0.1106	0.025
Mof_C 	C 	0.7938	0.3427	0.1564	-0.122
Mof_H 	H 	0.8234	0.3303	0.1674	0.073
Mof_O 	O 	0.20932	0.4502	0.95047	-0.396
Mof_C 	C 	0.207	0.3784	0.878	0.053
Mof_H 	H 	0.1776	0.391	0.8894	0.027
Mof_C 	C 	0.2062	0.3427	0.8436	-0.116
Mof_H 	H 	0.1766	0.3303	0.8326	0.07
Mof_O 	O 	0.29068	0.45047	0.9502	-0.394
Mof_C 	C 	0.293	0.378	0.8784	0.053
Mof_H 	H 	0.3224	0.3894	0.891	0.03
Mof_C 	C 	0.2938	0.3436	0.8427	-0.115
Mof_H 	H 	0.3234	0.3326	0.8303	0.073
Mof_O 	O 	0.70932	0.54953	0.9502	-0.393
Mof_C 	C 	0.707	0.622	0.8784	0.052
Mof_H 	H 	0.6776	0.6106	0.891	0.032
Mof_C 	C 	0.7062	0.6564	0.8427	-0.113
Mof_H 	H 	0.6766	0.6674	0.8303	0.073
Mof_O 	O 	0.29068	0.54953	0.0498	-0.416
Mof_C 	C 	0.293	0.622	0.1216	0.059
Mof_H 	H 	0.3224	0.6106	0.109	0.022
Mof_C 	C 	0.2938	0.6564	0.1573	-0.123
Mof_H 	H 	0.3234	0.6674	0.1697	0.072
Mof_O 	O 	0.70932	0.45047	0.0498	-0.416
Mof_C 	C 	0.707	0.378	0.1216	0.057
Mof_H 	H 	0.6776	0.3894	0.109	0.022
Mof_C 	C 	0.7062	0.3436	0.1573	-0.122
Mof_H 	H 	0.6766	0.3326	0.1697	0.072
Mof_O 	O 	0.45047	0.0498	0.70932	-0.416
Mof_C 	C 	0.378	0.1216	0.707	0.057
Mof_H 	H 	0.3894	0.109	0.6776	0.022
Mof_C 	C 	0.3436	0.1573	0.7062	-0.122
Mof_H 	H 	0.3326	0.1697	0.6766	0.072
Mof_O 	O 	0.54953	0.0498	0.29068	-0.416
Mof_C 	C 	0.622	0.1216	0.293	0.059
Mof_H 	H 	0.6106	0.109	0.3224	0.022
Mof_C 	C 	0.6564	0.1573	0.2938	-0.123
Mof_H 	H 	0.6674	0.1697	0.3234	0.072
Mof_O 	O 	0.54953	0.9502	0.70932	-0.393
Mof_C 	C 	0.622	0.8784	0.707	0.052
Mof_H 	H 	0.6106	0.891	0.6776	0.032
Mof_C 	C 	0.6564	0.8427	0.7062	-0.113
Mof_H 	H 	0.6674	0.8303	0.6766	0.073
Mof_O 	O 	0.45047	0.9502	0.29068	-0.394
Mof_C 	C 	0.378	0.8784	0.293	0.053
Mof_H 	H 	0.3894	0.891	0.3224	0.03
Mof_C 	C 	0.3436	0.8427	0.2938	-0.115
Mof_H 	H 	0.3326	0.8303	0.3234	0.073
Mof_O 	O 	0.0498	0.29068	0.54953	-0.416
Mof_C 	C 	0.1216	0.293	0.622	0.059
Mof_H 	H 	0.109	0.3224	0.6106	0.022
Mof_C 	C 	0.1573	0.2938	0.6564	-0.123
Mof_H 	H 	0.1697	0.3234	0.6674	0.072
Mof_O 	O 	0.0498	0.70932	0.45047	-0.416
Mof_C 	C 	0.1216	0.707	0.378	0.057
Mof_H 	H 	0.109	0.6776	0.3894	0.022
Mof_C 	C 	0.1573	0.7062	0.3436	-0.122
Mof_H 	H 	0.1697	0.6766	0.3326	0.072
Mof_O 	O 	0.9502	0.29068	0.45047	-0.394
Mof_C 	C 	0.8784	0.293	0.378	0.053
Mof_H 	H 	0.891	0.3224	0.3894	0.03
Mof_C 	C 	0.8427	0.2938	0.3436	-0.115
Mof_H 	H 	0.8303	0.3234	0.3326	0.073
Mof_O 	O 	0.9502	0.70932	0.54953	-0.393
Mof_C 	C 	0.8784	0.707	0.622	0.052
Mof_H 	H 	0.891	0.6776	0.6106	0.032
Mof_C 	C 	0.8427	0.7062	0.6564	-0.113
Mof_H 	H 	0.8303	0.6766	0.6674	0.073
Mof_O 	O 	0.04953	0.20932	0.4502	-0.419
Mof_C 	C 	0.122	0.207	0.3784	0.058
Mof_H 	H 	0.1106	0.1776	0.391	0.019
Mof_C 	C 	0.1564	0.2062	0.3427	-0.125
Mof_H 	H 	0.1674	0.1766	0.3303	0.068
Mof_O 	O 	0.95047	0.79068	0.4502	-0.391
Mof_C 	C 	0.878	0.793	0.3784	0.053
Mof_H 	H 	0.8894	0.8224	0.391	0.034
Mof_C 	C 	0.8436	0.7938	0.3427	-0.113
Mof_H 	H 	0.8326	0.8234	0.3303	0.075
Mof_O 	O 	0.95047	0.20932	0.5498	-0.396
Mof_C 	C 	0.878	0.207	0.6216	0.053
Mof_H 	H 	0.8894	0.1776	0.609	0.028
Mof_C 	C 	0.8436	0.2062	0.6573	-0.115
Mof_H 	H 	0.8326	0.1766	0.6697	0.071
Mof_O 	O 	0.04953	0.79068	0.5498	-0.414
Mof_C 	C 	0.122	0.793	0.6216	0.058
Mof_H 	H 	0.1106	0.8224	0.609	0.026
Mof_C 	C 	0.1564	0.7938	0.6573	-0.121
Mof_H 	H 	0.1674	0.8234	0.6697	0.075
Mof_O 	O 	0.4502	0.04953	0.20932	-0.419
Mof_C 	C 	0.3784	0.122	0.207	0.058
Mof_H 	H 	0.391	0.1106	0.1776	0.019
Mof_C 	C 	0.3427	0.1564	0.2062	-0.125
Mof_H 	H 	0.3303	0.1674	0.1766	0.068
Mof_O 	O 	0.4502	0.95047	0.79068	-0.391
Mof_C 	C 	0.3784	0.878	0.793	0.053
Mof_H 	H 	0.391	0.8894	0.8224	0.034
Mof_C 	C 	0.3427	0.8436	0.7938	-0.113
Mof_H 	H 	0.3303	0.8326	0.8234	0.075
Mof_O 	O 	0.5498	0.95047	0.20932	-0.396
Mof_C 	C 	0.6216	0.878	0.207	0.053
Mof_H 	H 	0.609	0.8894	0.1776	0.028
Mof_C 	C 	0.6573	0.8436	0.2062	-0.115
Mof_H 	H 	0.6697	0.8326	0.1766	0.071
Mof_O 	O 	0.5498	0.04953	0.79068	-0.414
Mof_C 	C 	0.6216	0.122	0.793	0.058
Mof_H 	H 	0.609	0.1106	0.8224	0.026
Mof_C 	C 	0.6573	0.1564	0.7938	-0.121
Mof_H 	H 	0.6697	0.1674	0.8234	0.075
Mof_O 	O 	0.20932	0.4502	0.04953	-0.419
Mof_C 	C 	0.207	0.3784	0.122	0.058
Mof_H 	H 	0.1776	0.391	0.1106	0.019
Mof_C 	C 	0.2062	0.3427	0.1564	-0.125
Mof_H 	H 	0.1766	0.3303	0.1674	0.068
Mof_O 	O 	0.79068	0.4502	0.95047	-0.391
Mof_C 	C 	0.793	0.3784	0.878	0.053
Mof_H 	H 	0.8224	0.391	0.8894	0.034
Mof_C 	C 	0.7938	0.3427	0.8436	-0.113
Mof_H 	H 	0.8234	0.3303	0.8326	0.075
Mof_O 	O 	0.20932	0.5498	0.95047	-0.396
Mof_C 	C 	0.207	0.6216	0.878	0.053
Mof_H 	H 	0.1776	0.609	0.8894	0.028
Mof_C 	C 	0.2062	0.6573	0.8436	-0.115
Mof_H 	H 	0.1766	0.6697	0.8326	0.071
Mof_O 	O 	0.79068	0.5498	0.04953	-0.414
Mof_C 	C 	0.793	0.6216	0.122	0.058
Mof_H 	H 	0.8224	0.609	0.1106	0.026
Mof_C 	C 	0.7938	0.6573	0.1564	-0.121
Mof_H 	H 	0.8234	0.6697	0.1674	0.075
Mof_O 	O 	0.70932	0.54953	0.0498	-0.416
Mof_C 	C 	0.707	0.622	0.1216	0.058
Mof_H 	H 	0.6776	0.6106	0.109	0.023
Mof_C 	C 	0.7062	0.6564	0.1573	-0.121
Mof_H 	H 	0.6766	0.6674	0.1697	0.072
Mof_O 	O 	0.29068	0.45047	0.0498	-0.417
Mof_C 	C 	0.293	0.378	0.1216	0.058
Mof_H 	H 	0.3224	0.3894	0.109	0.021
Mof_C 	C 	0.2938	0.3436	0.1573	-0.124
Mof_H 	H 	0.3234	0.3326	0.1697	0.072
Mof_O 	O 	0.70932	0.45047	0.9502	-0.393
Mof_C 	C 	0.707	0.378	0.8784	0.052
Mof_H 	H 	0.6776	0.3894	0.891	0.031
Mof_C 	C 	0.7062	0.3436	0.8427	-0.113
Mof_H 	H 	0.6766	0.3326	0.8303	0.072
Mof_O 	O 	0.29068	0.54953	0.9502	-0.394
Mof_C 	C 	0.293	0.622	0.8784	0.053
Mof_H 	H 	0.3224	0.6106	0.891	0.031
Mof_C 	C 	0.2938	0.6564	0.8427	-0.115
Mof_H 	H 	0.3234	0.6674	0.8303	0.073
Mof_O 	O 	0.54953	0.9502	0.29068	-0.394
Mof_C 	C 	0.622	0.8784	0.293	0.053
Mof_H 	H 	0.6106	0.891	0.3224	0.031
Mof_C 	C 	0.6564	0.8427	0.2938	-0.115
Mof_H 	H 	0.6674	0.8303	0.3234	0.073
Mof_O 	O 	0.45047	0.9502	0.70932	-0.393
Mof_C 	C 	0.378	0.8784	0.707	0.052
Mof_H 	H 	0.3894	0.891	0.6776	0.031
Mof_C 	C 	0.3436	0.8427	0.7062	-0.113
Mof_H 	H 	0.3326	0.8303	0.6766	0.072
Mof_O 	O 	0.45047	0.0498	0.29068	-0.417
Mof_C 	C 	0.378	0.1216	0.293	0.058
Mof_H 	H 	0.3894	0.109	0.3224	0.021
Mof_C 	C 	0.3436	0.1573	0.2938	-0.124
Mof_H 	H 	0.3326	0.1697	0.3234	0.072
Mof_O 	O 	0.54953	0.0498	0.70932	-0.416
Mof_C 	C 	0.622	0.1216	0.707	0.058
Mof_H 	H 	0.6106	0.109	0.6776	0.023
Mof_C 	C 	0.6564	0.1573	0.7062	-0.121
Mof_H 	H 	0.6674	0.1697	0.6766	0.072
Mof_O 	O 	0.9502	0.70932	0.45047	-0.393
Mof_C 	C 	0.8784	0.707	0.378	0.052
Mof_H 	H 	0.891	0.6776	0.3894	0.031
Mof_C 	C 	0.8427	0.7062	0.3436	-0.113
Mof_H 	H 	0.8303	0.6766	0.3326	0.072
Mof_O 	O 	0.9502	0.29068	0.54953	-0.394
Mof_C 	C 	0.8784	0.293	0.622	0.053
Mof_H 	H 	0.891	0.3224	0.6106	0.031
Mof_C 	C 	0.8427	0.2938	0.6564	-0.115
Mof_H 	H 	0.8303	0.3234	0.6674	0.073
Mof_O 	O 	0.0498	0.70932	0.54953	-0.416
Mof_C 	C 	0.1216	0.707	0.622	0.058
Mof_H 	H 	0.109	0.6776	0.6106	0.023
Mof_C 	C 	0.1573	0.7062	0.6564	-0.121
Mof_H 	H 	0.1697	0.6766	0.6674	0.072
Mof_O 	O 	0.0498	0.29068	0.45047	-0.417
Mof_C 	C 	0.1216	0.293	0.378	0.058
Mof_H 	H 	0.109	0.3224	0.3894	0.021
Mof_C 	C 	0.1573	0.2938	0.3436	-0.124
Mof_H 	H 	0.1697	0.3234	0.3326	0.072
Mof_Cu	Cu	1.8747e-33	0.79822	0.5	0.899
Mof_Cu	Cu	1.8747e-33	0.20178	0.5	0.896
Mof_Cu	Cu	0.5	0	0.79822	0.899
Mof_Cu	Cu	0.5	2.44948e-33	0.20178	0.896
Mof_Cu	Cu	0.79822	0.5	-0	0.899
Mof_Cu	Cu	0.20178	0.5	-0	0.896
Mof_Cu	Cu	0.29822	0.5	-0	0.898
Mof_Cu	Cu	0.70178	0.5	-0	0.897
Mof_Cu	Cu	0.5	0	0.70178	0.897
Mof_Cu	Cu	0.5	0	0.29822	0.898
Mof_Cu	Cu	1.8747e-33	0.29822	0.5	0.898
Mof_Cu	Cu	1.8747e-33	0.70178	0.5	0.897
Mof_C 	C 	0.8965	0.75	0.6035	-0.118
Mof_C 	C 	0.93475	0.75	0.56525	0.363
Mof_C 	C 	0.78482	0.75	0.71518	0.067
Mof_C 	C 	0.8246	0.75	0.6754	0.044
Mof_C 	C 	0.1035	0.25	0.6035	-0.134
Mof_C 	C 	0.06525	0.25	0.56525	0.368
Mof_C 	C 	0.21518	0.25	0.71518	0.058
Mof_C 	C 	0.1754	0.25	0.6754	0.046
Mof_C 	C 	0.1035	0.75	0.3965	-0.132
Mof_C 	C 	0.06525	0.75	0.43475	0.367
Mof_C 	C 	0.21518	0.75	0.28482	0.058
Mof_C 	C 	0.1754	0.75	0.3246	0.046
Mof_C 	C 	0.8965	0.25	0.3965	-0.122
Mof_C 	C 	0.93475	0.25	0.43475	0.364
Mof_C 	C 	0.78482	0.25	0.28482	0.06
Mof_C 	C 	0.8246	0.25	0.3246	0.043
Mof_C 	C 	0.6035	0.8965	0.75	-0.118
Mof_C 	C 	0.56525	0.93475	0.75	0.363
Mof_C 	C 	0.71518	0.78482	0.75	0.067
Mof_C 	C 	0.6754	0.8246	0.75	0.044
Mof_C 	C 	0.6035	0.1035	0.25	-0.134
Mof_C 	C 	0.56525	0.06525	0.25	0.368
Mof_C 	C 	0.71518	0.21518	0.25	0.058
Mof_C 	C 	0.6754	0.1754	0.25	0.046
Mof_C 	C 	0.3965	0.1035	0.75	-0.132
Mof_C 	C 	0.43475	0.06525	0.75	0.367
Mof_C 	C 	0.28482	0.21518	0.75	0.058
Mof_C 	C 	0.3246	0.1754	0.75	0.046
Mof_C 	C 	0.3965	0.8965	0.25	-0.122
Mof_C 	C 	0.43475	0.93475	0.25	0.364
Mof_C 	C 	0.28482	0.78482	0.25	0.06
Mof_C 	C 	0.3246	0.8246	0.25	0.043
Mof_C 	C 	0.75	0.6035	0.8965	-0.118
Mof_C 	C 	0.75	0.56525	0.93475	0.363
Mof_C 	C 	0.75	0.71518	0.78482	0.067
Mof_C 	C 	0.75	0.6754	0.8246	0.044
Mof_C 	C 	0.25	0.6035	0.1035	-0.134
Mof_C 	C 	0.25	0.56525	0.06525	0.368
Mof_C 	C 	0.25	0.71518	0.21518	0.058
Mof_C 	C 	0.25	0.6754	0.1754	0.046
Mof_C 	C 	0.75	0.3965	0.1035	-0.132
Mof_C 	C 	0.75	0.43475	0.06525	0.367
Mof_C 	C 	0.75	0.28482	0.21518	0.058
Mof_C 	C 	0.75	0.3246	0.1754	0.046
Mof_C 	C 	0.25	0.3965	0.8965	-0.122
Mof_C 	C 	0.25	0.43475	0.93475	0.364
Mof_C 	C 	0.25	0.28482	0.78482	0.06
Mof_C 	C 	0.25	0.3246	0.8246	0.043
Mof_C 	C 	0.1035	0.25	0.3965	-0.135
Mof_C 	C 	0.06525	0.25	0.43475	0.368
Mof_C 	C 	0.21518	0.25	0.28482	0.055
Mof_C 	C 	0.1754	0.25	0.3246	0.046
Mof_C 	C 	0.8965	0.75	0.3965	-0.119
Mof_C 	C 	0.93475	0.75	0.43475	0.363
Mof_C 	C 	0.78482	0.75	0.28482	0.064
Mof_C 	C 	0.8246	0.75	0.3246	0.043
Mof_C 	C 	0.8965	0.25	0.6035	-0.121
Mof_C 	C 	0.93475	0.25	0.56525	0.364
Mof_C 	C 	0.78482	0.25	0.71518	0.063
Mof_C 	C 	0.8246	0.25	0.6754	0.044
Mof_C 	C 	0.1035	0.75	0.6035	-0.131
Mof_C 	C 	0.06525	0.75	0.56525	0.367
Mof_C 	C 	0.21518	0.75	0.71518	0.061
Mof_C 	C 	0.1754	0.75	0.6754	0.046
Mof_C 	C 	0.3965	0.1035	0.25	-0.135
Mof_C 	C 	0.43475	0.06525	0.25	0.368
Mof_C 	C 	0.28482	0.21518	0.25	0.055
Mof_C 	C 	0.3246	0.1754	0.25	0.046
Mof_C 	C 	0.3965	0.8965	0.75	-0.119
Mof_C 	C 	0.43475	0.93475	0.75	0.363
Mof_C 	C 	0.28482	0.78482	0.75	0.064
Mof_C 	C 	0.3246	0.8246	0.75	0.043
Mof_C 	C 	0.6035	0.8965	0.25	-0.121
Mof_C 	C 	0.56525	0.93475	0.25	0.364
Mof_C 	C 	0.71518	0.78482	0.25	0.063
Mof_C 	C 	0.6754	0.8246	0.25	0.044
Mof_C 	C 	0.6035	0.1035	0.75	-0.131
Mof_C 	C 	0.56525	0.06525	0.75	0.367
Mof_C 	C 	0.71518	0.21518	0.75	0.061
Mof_C 	C 	0.6754	0.1754	0.75	0.046
Mof_C 	C 	0.25	0.3965	0.1035	-0.135
Mof_C 	C 	0.25	0.43475	0.06525	0.368
Mof_C 	C 	0.25	0.28482	0.21518	0.055
Mof_C 	C 	0.25	0.3246	0.1754	0.046
Mof_C 	C 	0.75	0.3965	0.8965	-0.119
Mof_C 	C 	0.75	0.43475	0.93475	0.363
Mof_C 	C 	0.75	0.28482	0.78482	0.064
Mof_C 	C 	0.75	0.3246	0.8246	0.043
Mof_C 	C 	0.25	0.6035	0.8965	-0.121
Mof_C 	C 	0.25	0.56525	0.93475	0.364
Mof_C 	C 	0.25	0.71518	0.78482	0.063
Mof_C 	C 	0.25	0.6754	0.8246	0.044
Mof_C 	C 	0.75	0.6035	0.1035	-0.131
Mof_C 	C 	0.75	0.56525	0.06525	0.367
Mof_C 	C 	0.75	0.71518	0.21518	0.061
Mof_C 	C 	0.75	0.6754	0.1754	0.046
Mof_C 	C 	0.75	0.7861	0.7139	-0.135
Mof_H 	H 	0.75	0.8101	0.6899	0.081
Mof_C 	C 	0.25	0.2139	0.7139	-0.131
Mof_H 	H 	0.25	0.1899	0.6899	0.074
Mof_C 	C 	0.25	0.7861	0.2861	-0.132
Mof_H 	H 	0.25	0.8101	0.3101	0.077
Mof_C 	C 	0.75	0.2139	0.2861	-0.131
Mof_H 	H 	0.75	0.1899	0.3101	0.075
Mof_C 	C 	0.7139	0.75	0.7861	-0.135
Mof_H 	H 	0.6899	0.75	0.8101	0.081
Mof_C 	C 	0.7139	0.25	0.2139	-0.131
Mof_H 	H 	0.6899	0.25	0.1899	0.074
Mof_C 	C 	0.2861	0.25	0.7861	-0.132
Mof_H 	H 	0.3101	0.25	0.8101	0.077
Mof_C 	C 	0.2861	0.75	0.2139	-0.131
Mof_H 	H 	0.3101	0.75	0.1899	0.075
Mof_C 	C 	0.7861	0.7139	0.75	-0.135
Mof_H 	H 	0.8101	0.6899	0.75	0.081
Mof_C 	C 	0.2139	0.7139	0.25	-0.131
Mof_H 	H 	0.1899	0.6899	0.25	0.074
Mof_C 	C 	0.7861	0.2861	0.25	-0.132
Mof_H 	H 	0.8101	0.3101	0.25	0.077
Mof_C 	C 	0.2139	0.2861	0.75	-0.131
Mof_H 	H 	0.1899	0.3101	0.75	0.075
Mof_C 	C 	0.25	0.2139	0.2861	-0.129
Mof_H 	H 	0.25	0.1899	0.3101	0.073
Mof_C 	C 	0.75	0.7861	0.2861	-0.134
Mof_H 	H 	0.75	0.8101	0.3101	0.08
Mof_C 	C 	0.75	0.2139	0.7139	-0.133
Mof_H 	H 	0.75	0.1899	0.6899	0.076
Mof_C 	C 	0.25	0.7861	0.7139	-0.133
Mof_H 	H 	0.25	0.8101	0.6899	0.079
Mof_C 	C 	0.2861	0.25	0.2139	-0.129
Mof_H 	H 	0.3101	0.25	0.1899	0.073
Mof_C 	C 	0.2861	0.75	0.7861	-0.134
Mof_H 	H 	0.3101	0.75	0.8101	0.08
Mof_C 	C 	0.7139	0.75	0.2139	-0.133
Mof_H 	H 	0.6899	0.75	0.1899	0.076
Mof_C 	C 	0.7139	0.25	0.7861	-0.133
Mof_H 	H 	0.6899	0.25	0.8101	0.079
Mof_C 	C 	0.2139	0.2861	0.25	-0.129
Mof_H 	H 	0.1899	0.3101	0.25	0.073
Mof_C 	C 	0.7861	0.2861	0.75	-0.134
Mof_H 	H 	0.8101	0.3101	0.75	0.08
Mof_C 	C 	0.2139	0.7139	0.75	-0.133
Mof_H 	H 	0.1899	0.6899	0.75	0.076
Mof_C 	C 	0.7861	0.7139	0.25	-0.133
Mof_H 	H 	0.8101	0.6899	0.25	0.079
_end
