data_functionalizedCrystal
_audit_creation_method	'EQeq! by Chris Wilmer'
_symmetry_space_group_name_H-M	'P1'
_symmetry_Int_Tables_number	1
_symmetry_cell_setting	triclinic
loop_
_symmetry_equiv_pos_as_xyz
  x,y,z
_cell_length_a	9.964
_cell_length_b	11.57
_cell_length_c	13.32
_cell_angle_alpha	67.7
_cell_angle_beta	87.18
_cell_angle_gamma	76.68
loop_
_atom_site_label
_atom_site_type_symbol
_atom_site_fract_x
_atom_site_fract_y
_atom_site_fract_z
_atom_site_charge
Mof_Tb	Tb	0.76337	0.47407	0.99498	1.936
Mof_Tb	Tb	0.23663	0.52593	0.00502	1.936
Mof_H 	H 	0.0122	0.1244	0.4432	0.032
Mof_H 	H 	0.0561	0.2354	0.2657	0.041
Mof_H 	H 	0.4375	0.0092	0.3203	0.074
Mof_H 	H 	0.3047	0.8263	0.6594	0.048
Mof_H 	H 	0.6851	0.5996	0.7056	0.036
Mof_H 	H 	0.7156	0.699	0.523	0.04
Mof_H 	H 	0.0911	0.5314	0.3393	0.048
Mof_H 	H 	0.7621	0.4293	0.2725	0.017
Mof_H 	H 	0.69	0.4056	0.4448	0.037
Mof_H 	H 	0.9878	0.8756	0.5568	0.033
Mof_H 	H 	0.9439	0.7646	0.7343	0.042
Mof_H 	H 	0.5625	0.9908	0.6797	0.074
Mof_H 	H 	0.6953	0.1737	0.3406	0.048
Mof_H 	H 	0.3149	0.4004	0.2944	0.036
Mof_H 	H 	0.2844	0.301	0.477	0.04
Mof_H 	H 	0.9089	0.4686	0.6607	0.048
Mof_H 	H 	0.2379	0.5707	0.7275	0.017
Mof_H 	H 	0.31	0.5944	0.5552	0.037
Mof_C 	C 	0.2881	0.2096	0.1589	0.349
Mof_C 	C 	0.0982	0.1004	0.4173	0.028
Mof_C 	C 	0.124	0.1685	0.3109	-0.046
Mof_C 	C 	0.2523	0.1352	0.2732	-0.053
Mof_C 	C 	0.3496	0.0332	0.3434	-0.067
Mof_C 	C 	0.3143	0.9685	0.4469	0.069
Mof_C 	C 	0.4161	0.8598	0.5242	0.04
Mof_C 	C 	0.3895	0.7998	0.6331	-0.017
Mof_C 	C 	0.4885	0.7015	0.7015	-0.123
Mof_C 	C 	0.6149	0.6641	0.6609	-0.008
Mof_C 	C 	0.6328	0.7261	0.5517	0.011
Mof_C 	C 	0.4657	0.6317	0.8201	0.485
Mof_C 	C 	0.9864	0.5031	0.1758	0.511
Mof_C 	C 	0.9608	0.4899	0.4593	0.041
Mof_C 	C 	0.0083	0.5063	0.3587	-0.014
Mof_C 	C 	0.9345	0.4859	0.2861	-0.145
Mof_C 	C 	0.8145	0.4458	0.3192	0.005
Mof_C 	C 	0.7727	0.4304	0.4239	0.003
Mof_C 	C 	0.7119	0.7904	0.8411	0.349
Mof_C 	C 	0.9018	0.8996	0.5827	0.028
Mof_C 	C 	0.876	0.8315	0.6891	-0.046
Mof_C 	C 	0.7477	0.8648	0.7268	-0.053
Mof_C 	C 	0.6504	0.9668	0.6566	-0.067
Mof_C 	C 	0.6857	0.0315	0.5531	0.069
Mof_C 	C 	0.5839	0.1402	0.4758	0.04
Mof_C 	C 	0.6105	0.2002	0.3669	-0.017
Mof_C 	C 	0.5115	0.2985	0.2985	-0.123
Mof_C 	C 	0.3851	0.3359	0.3391	-0.008
Mof_C 	C 	0.3672	0.2739	0.4483	0.011
Mof_C 	C 	0.5343	0.3683	0.1799	0.485
Mof_C 	C 	0.0136	0.4969	0.8242	0.511
Mof_C 	C 	0.0392	0.5101	0.5407	0.041
Mof_C 	C 	0.9917	0.4937	0.6413	-0.014
Mof_C 	C 	0.0655	0.5141	0.7139	-0.145
Mof_C 	C 	0.1855	0.5542	0.6808	0.005
Mof_C 	C 	0.2273	0.5696	0.5761	0.003
Mof_N 	N 	0.1912	0.0016	0.485	-0.122
Mof_N 	N 	0.5369	0.8236	0.4843	-0.111
Mof_N 	N 	0.8433	0.4486	0.4945	-0.114
Mof_N 	N 	0.8088	0.9984	0.515	-0.122
Mof_N 	N 	0.4631	0.1764	0.5157	-0.111
Mof_N 	N 	0.1567	0.5514	0.5055	-0.114
Mof_O 	O 	0.2042	0.3146	0.1066	-0.464
Mof_O 	O 	0.3965	0.1643	0.1233	-0.298
Mof_O 	O 	0.344	0.6477	0.8505	-0.553
Mof_O 	O 	0.5693	0.5581	0.8789	-0.579
Mof_O 	O 	0.1048	0.5257	0.157	-0.541
Mof_O 	O 	0.9099	0.4945	0.1096	-0.597
Mof_O 	O 	0.7958	0.6854	0.8934	-0.464
Mof_O 	O 	0.6035	0.8357	0.8767	-0.298
Mof_O 	O 	0.656	0.3523	0.1495	-0.553
Mof_O 	O 	0.4307	0.4419	0.1211	-0.579
Mof_O 	O 	0.8952	0.4743	0.843	-0.541
Mof_O 	O 	0.0901	0.5055	0.8904	-0.597
_end
