# CIF file generated by openbabel 3.1.0, see https://openbabel.org
data_I
_chemical_name_common 'YAPYUK_clean'
_cell_length_a 7.3627
_cell_length_b 12.33
_cell_length_c 13.929
_cell_angle_alpha 83.439
_cell_angle_beta 81.485
_cell_angle_gamma 72.674
_space_group_name_H-M_alt 'P 1'
_space_group_name_Hall 'P 1'
loop_
    _symmetry_equiv_pos_as_xyz
    x,y,z
loop_
    _atom_site_label
    _atom_site_type_symbol
    _atom_site_fract_x
    _atom_site_fract_y
    _atom_site_fract_z
    _atom_site_occupancy
    Co1      Co       0.45522    0.78990    0.95969    1.000
    Co2      Co       0.91581    0.93628    0.75184    1.000
    Co3      Co       0.54478    0.21010    0.04031    1.000
    Co4      Co       0.08419    0.06372    0.24816    1.000
    H1       H        0.92420    0.57440    0.69820    1.000
    H2       H        0.98850    0.37040    0.77940    1.000
    H3       H        0.29690    0.60120    0.66750    1.000
    H4       H        0.54320    0.22070    0.57510    1.000
    H5       H        0.54120    0.45480    0.60110    1.000
    H6       H        0.25970    0.31250    0.51100    1.000
    H7       H        0.20700    0.62500    0.98000    1.000
    H8       H        0.75100    0.56800    0.98000    1.000
    H9       H        0.00600    0.81500    0.55900    1.000
    H10      H        0.93100    0.13300    0.60000    1.000
    H11      H        0.07580    0.42560    0.30180    1.000
    H12      H        0.01150    0.62960    0.22060    1.000
    H13      H        0.70310    0.39880    0.33250    1.000
    H14      H        0.45680    0.77930    0.42490    1.000
    H15      H        0.45880    0.54520    0.39890    1.000
    H16      H        0.74030    0.68750    0.48900    1.000
    H17      H        0.79300    0.37500    0.02000    1.000
    H18      H        0.24900    0.43200    0.02000    1.000
    H19      H        0.99400    0.18500    0.44100    1.000
    H20      H        0.06900    0.86700    0.40000    1.000
    C1       C        0.76050    0.49880    0.64350    1.000
    C2       C        0.09550    0.35120    0.63910    1.000
    C3       C        0.79770    0.57950    0.69220    1.000
    C4       C        0.09890    0.33830    0.73850    1.000
    C5       C        0.65230    0.66840    0.73290    1.000
    C6       C        0.26760    0.27710    0.77870    1.000
    C7       C        0.46120    0.67380    0.72600    1.000
    C8       C        0.43420    0.23500    0.71770    1.000
    C9       C        0.42310    0.59520    0.67490    1.000
    C10      C        0.43150    0.24910    0.61640    1.000
    C11      C        0.56950    0.50780    0.63440    1.000
    C12      C        0.26210    0.30530    0.57800    1.000
    C13      C        0.70700    0.75880    0.77630    1.000
    C14      C        0.26290    0.26080    0.88860    1.000
    C15      C        0.29480    0.76650    0.76910    1.000
    C16      C        0.62750    0.17070    0.75120    1.000
    C17      C        0.91290    0.40630    0.59360    1.000
    C18      C        0.33020    0.57370    0.99280    1.000
    C19      C        0.64930    0.54230    0.98910    1.000
    C20      C        0.99940    0.89500    0.53820    1.000
    C21      C        0.96260    0.08280    0.56010    1.000
    C22      C        0.23950    0.50120    0.35650    1.000
    C23      C        0.90450    0.64880    0.36090    1.000
    C24      C        0.20230    0.42050    0.30780    1.000
    C25      C        0.90110    0.66170    0.26150    1.000
    C26      C        0.34770    0.33160    0.26710    1.000
    C27      C        0.73240    0.72290    0.22130    1.000
    C28      C        0.53880    0.32620    0.27400    1.000
    C29      C        0.56580    0.76500    0.28230    1.000
    C30      C        0.57690    0.40480    0.32510    1.000
    C31      C        0.56850    0.75090    0.38360    1.000
    C32      C        0.43050    0.49220    0.36560    1.000
    C33      C        0.73790    0.69470    0.42200    1.000
    C34      C        0.29300    0.24120    0.22370    1.000
    C35      C        0.73710    0.73920    0.11140    1.000
    C36      C        0.70520    0.23350    0.23090    1.000
    C37      C        0.37250    0.82930    0.24880    1.000
    C38      C        0.08710    0.59370    0.40640    1.000
    C39      C        0.66980    0.42630    0.00720    1.000
    C40      C        0.35070    0.45770    0.01090    1.000
    C41      C        0.00060    0.10500    0.46180    1.000
    C42      C        0.03740    0.91720    0.43990    1.000
    N1       N        0.48060    0.61650    0.98290    1.000
    N2       N        0.96030    0.97800    0.59940    1.000
    N3       N        0.51940    0.38350    0.01710    1.000
    N4       N        0.03970    0.02200    0.40060    1.000
    O1       O        0.76290    0.82910    0.71890    1.000
    O2       O        0.10850    0.29120    0.94110    1.000
    O3       O        0.70590    0.75510    0.86780    1.000
    O4       O        0.42380    0.21340    0.91850    1.000
    O5       O        0.30490    0.80950    0.84450    1.000
    O6       O        0.74520    0.22270    0.75860    1.000
    O7       O        0.14980    0.79730    0.72710    1.000
    O8       O        0.65960    0.06300    0.76290    1.000
    O9       O        0.88980    0.37600    0.51720    1.000
    O10      O        0.23710    0.17090    0.28110    1.000
    O11      O        0.89150    0.70880    0.05890    1.000
    O12      O        0.29410    0.24490    0.13220    1.000
    O13      O        0.57620    0.78660    0.08150    1.000
    O14      O        0.69510    0.19050    0.15550    1.000
    O15      O        0.25480    0.77730    0.24140    1.000
    O16      O        0.85020    0.20270    0.27290    1.000
    O17      O        0.34040    0.93700    0.23710    1.000
    O18      O        0.11020    0.62400    0.48280    1.000
