data_functionalizedCrystal
_audit_creation_method	'EQeq! by Chris Wilmer'
_symmetry_space_group_name_H-M	'P1'
_symmetry_Int_Tables_number	1
_symmetry_cell_setting	triclinic
loop_
_symmetry_equiv_pos_as_xyz
  x,y,z
_cell_length_a	11.4463
_cell_length_b	24.6528
_cell_length_c	20.3256
_cell_angle_alpha	90
_cell_angle_beta	92.6948
_cell_angle_gamma	90
loop_
_atom_site_label
_atom_site_type_symbol
_atom_site_fract_x
_atom_site_fract_y
_atom_site_fract_z
_atom_site_charge
Mof_Co	Co	0.43882	0.1904	0.2673	1.162
Mof_Co	Co	0.44119	0.26607	0.0145	1.158
Mof_Co	Co	0.46446	0.18621	0.76266	1.162
Mof_Co	Co	0.42579	0.27185	0.51247	1.157
Mof_N 	N 	0.6284	0.191	0.2672	-0.227
Mof_N 	N 	0.2496	0.1838	0.2699	-0.222
Mof_O 	O 	0.4322	0.16233	0.1732	-0.431
Mof_O 	O 	0.4424	0.22575	0.359	-0.433
Mof_O 	O 	0.4575	0.16149	0.6664	-0.431
Mof_N 	N 	0.631	0.2674	0.0139	-0.223
Mof_O 	O 	0.4519	0.23528	0.1096	-0.433
Mof_O 	O 	0.4146	0.30062	0.4177	-0.427
Mof_N 	N 	0.2353	0.2775	0.5134	-0.226
Mof_N 	N 	0.2497	0.2715	0.015	-0.223
Mof_O 	O 	0.4415	0.23685	0.6066	-0.43
Mof_C 	C 	0.6748	0.2758	0.454	0.065
Mof_H 	H 	0.632	0.2726	0.413	0.004
Mof_N 	N 	0.2733	0.1793	0.7611	-0.221
Mof_O 	O 	0.433	0.27632	0.2458	-0.433
Mof_H 	H 	0.503	0.28	0.233	0.195
Mof_C 	C 	0.0709	0.262	0.0715	-0.115
Mof_H 	H 	0.0341	0.2532	0.1111	0.064
Mof_N 	N 	0.6155	0.277	0.5094	-0.225
Mof_C 	C 	0.192	0.2594	0.069	0.057
Mof_H 	H 	0.2361	0.2486	0.1076	0.002
Mof_C 	C 	0.1908	0.1967	0.3242	0.064
Mof_H 	H 	0.2351	0.2066	0.3631	-0.001
Mof_C 	C 	0.0708	0.1963	0.3264	-0.121
Mof_H 	H 	0.0345	0.2049	0.3661	0.068
Mof_C 	C 	0.0949	0.1908	0.8152	-0.123
Mof_H 	H 	0.0574	0.2005	0.8542	0.068
Mof_O 	O 	0.4092	0.1846	0.495	-0.453
Mof_C 	C 	0.1821	0.1684	0.2168	0.062
Mof_H 	H 	0.2205	0.1573	0.1786	0.004
Mof_C 	C 	0.0649	0.2917	0.9603	-0.113
Mof_H 	H 	0.0232	0.3037	0.9215	0.066
Mof_C 	C 	0.1861	0.2885	0.9617	0.053
Mof_H 	H 	0.2255	0.2987	0.9235	0.011
Mof_C 	C 	0.0039	0.2773	0.0157	0.039
Mof_C 	C 	0.2096	0.1609	0.708	0.06
Mof_H 	H 	0.2498	0.1489	0.6709	0.005
Mof_C 	C 	0.4245	0.2757	0.3642	0.336
Mof_C 	C 	0.8112	0.1771	0.3265	-0.121
Mof_H 	H 	0.8524	0.1696	0.3672	0.068
Mof_C 	C 	0.8609	0.2839	0.5128	0.048
Mof_C 	C 	0.1763	0.2595	0.5644	0.062
Mof_H 	H 	0.2194	0.2444	0.6011	-0
Mof_C 	C 	0.0509	0.3049	0.4628	-0.119
Mof_H 	H 	0.0095	0.3216	0.4266	0.068
Mof_C 	C 	0.0882	0.1587	0.7052	-0.12
Mof_H 	H 	0.0469	0.1462	0.6665	0.066
Mof_C 	C 	0.2143	0.1925	0.8139	0.07
Mof_H 	H 	0.2574	0.2037	0.8526	-0.003
Mof_C 	C 	0.6916	0.1805	0.3236	0.062
Mof_H 	H 	0.6513	0.1753	0.3629	0.004
Mof_C 	C 	0.4471	0.1867	0.6132	0.346
Mof_C 	C 	0.028	0.1749	0.7594	0.046
Mof_C 	C 	0.4359	0.151	0.5505	-0.04
Mof_H 	H 	0.37	0.1249	0.5553	0.045
Mof_C 	C 	0.0026	0.183	0.2701	0.044
Mof_C 	C 	0.4159	0.3103	0.3014	-0.054
Mof_H 	H 	0.4801	0.3379	0.3041	0.046
Mof_C 	C 	0.7964	0.279	0.454	-0.124
Mof_H 	H 	0.8347	0.2779	0.4136	0.068
Mof_C 	C 	0.8724	0.1849	0.2693	0.048
Mof_C 	C 	0.0625	0.1675	0.2141	-0.122
Mof_H 	H 	0.0203	0.1566	0.175	0.067
Mof_C 	C 	0.9911	0.2838	0.5146	0.046
Mof_C 	C 	0.1727	0.3013	0.4642	0.057
Mof_H 	H 	0.2129	0.3164	0.4287	0.013
Mof_C 	C 	0.0563	0.2619	0.5664	-0.123
Mof_H 	H 	0.0186	0.2482	0.6037	0.066
Mof_C 	C 	0.6774	0.2835	0.5656	0.07
Mof_H 	H 	0.6364	0.286	0.605	-0.005
Mof_N 	N 	0.4555	0.1095	0.3034	-0.229
Mof_N 	N 	0.5504	0.846	0.9454	-0.228
Mof_C 	C 	0.4365	0.186	0.1186	0.348
Mof_C 	C 	0.2998	0.3402	0.295	0.087
Mof_O 	O 	0.4259	0.17943	0.0001	-0.419
Mof_H 	H 	0.358	0.178	0.978	0.179
Mof_O 	O 	0.469	0.27277	0.7472	-0.45
Mof_H 	H 	0.523	0.29	0.727	0.215
Mof_O 	O 	0.4663	0.21866	0.8576	-0.421
Mof_C 	C 	0.5004	0.0071	0.359	0.053
Mof_C 	C 	0.5474	0.0226	0.2997	-0.107
Mof_H 	H 	0.5957	0.9983	0.277	0.06
Mof_C 	C 	0.4094	0.0945	0.3601	0.072
Mof_H 	H 	0.3609	0.1196	0.3814	0
Mof_C 	C 	0.8101	0.2598	0.959	-0.129
Mof_H 	H 	0.8485	0.2509	0.92	0.07
Mof_C 	C 	0.8995	0.1754	0.759	0.05
Mof_C 	C 	0.8392	0.1669	0.8174	-0.123
Mof_H 	H 	0.881	0.1585	0.8575	0.069
Mof_C 	C 	0.6914	0.2561	0.9604	0.07
Mof_H 	H 	0.6489	0.245	0.9214	0.006
Mof_C 	C 	0.4438	0.305	0.8031	-0.054
Mof_H 	H 	0.5051	0.3337	0.8088	0.044
Mof_C 	C 	0.6935	0.2847	0.0678	0.066
Mof_H 	H 	0.6528	0.2945	0.1057	-0
Mof_C 	C 	0.3251	0.3322	0.7936	0.084
Mof_C 	C 	0.2416	0.3137	0.7475	-0.124
Mof_H 	H 	0.2606	0.2849	0.7189	0.081
Mof_C 	C 	0.5096	0.0026	0.857	0.059
Mof_C 	C 	0.5121	0.944	0.4558	-0.123
Mof_H 	H 	0.4885	0.9727	0.4835	0.066
Mof_C 	C 	0.4778	0.9363	0.9474	-0.118
Mof_H 	H 	0.4346	0.963	0.9696	0.066
Mof_C 	C 	0.1314	0.3364	0.7423	0.035
Mof_H 	H 	0.0747	0.3224	0.7111	0.016
Mof_C 	C 	0.5324	0.8935	0.4815	0.072
Mof_H 	H 	0.5221	0.8882	0.5271	-0.001
Mof_C 	C 	0.5008	0.0102	0.7896	-0.112
Mof_H 	H 	0.5061	0.9801	0.7607	0.059
Mof_N 	N 	0.4776	0.1058	0.8024	-0.229
Mof_C 	C 	0.5815	0.8601	0.3833	0.067
Mof_H 	H 	0.6072	0.8307	0.3574	0.007
Mof_C 	C 	0.4841	0.0616	0.7647	0.066
Mof_H 	H 	0.4769	0.0659	0.7182	0.004
Mof_C 	C 	0.4939	0.8856	0.9749	0.068
Mof_H 	H 	0.4632	0.8786	0.0166	-0.002
Mof_C 	C 	0.5854	0.9073	0.8565	-0.112
Mof_H 	H 	0.6189	0.9134	0.8153	0.07
Mof_N 	N 	0.5657	0.8516	0.4462	-0.232
Mof_C 	C 	0.5623	0.91	0.353	-0.121
Mof_H 	H 	0.5743	0.914	0.3073	0.069
Mof_O 	O 	0.4359	0.29215	0.9186	-0.429
Mof_C 	C 	0.5961	0.8572	0.8869	0.059
Mof_H 	H 	0.6376	0.8294	0.8656	0.015
Mof_C 	C 	0.205	0.3195	0.2584	-0.122
Mof_H 	H 	0.2139	0.2873	0.2336	0.081
Mof_N 	N 	0.6539	0.1822	0.7599	-0.227
Mof_C 	C 	0.5479	0.119	0.544	0.091
Mof_C 	C 	0.8744	0.2764	0.0147	0.052
Mof_C 	C 	0.0971	0.3453	0.2574	0.034
Mof_H 	H 	0.0329	0.3303	0.2323	0.015
Mof_C 	C 	0.4486	0.2691	0.8644	0.335
Mof_C 	C 	0.7189	0.171	0.815	0.066
Mof_H 	H 	0.6797	0.1655	0.8547	0.001
Mof_C 	C 	0.1034	0.3791	0.782	-0.107
Mof_H 	H 	0.0279	0.3951	0.7782	0.063
Mof_C 	C 	0.1864	0.3984	0.8274	0.033
Mof_H 	H 	0.1675	0.4278	0.8552	0.014
Mof_C 	C 	0.813	0.2887	0.0705	-0.126
Mof_H 	H 	0.8537	0.2997	0.1101	0.069
Mof_C 	C 	0.5248	0.9485	0.8872	0.036
Mof_C 	C 	0.807	0.1945	0.211	-0.126
Mof_H 	H 	0.8444	0.1989	0.1706	0.069
Mof_C 	C 	0.8307	0.1819	0.7022	-0.132
Mof_H 	H 	0.8656	0.1833	0.6608	0.071
Mof_C 	C 	0.4907	0.0982	0.8674	0.064
Mof_H 	H 	0.4884	0.1291	0.8953	0.016
Mof_C 	C 	0.6882	0.1975	0.2129	0.069
Mof_H 	H 	0.645	0.2047	0.1728	0.003
Mof_C 	C 	0.5231	0.0733	0.2744	0.065
Mof_H 	H 	0.5562	0.0832	0.234	0.009
Mof_C 	C 	0.297	0.3755	0.8334	-0.126
Mof_H 	H 	0.3535	0.3895	0.8647	0.074
Mof_C 	C 	0.7128	0.1863	0.7054	0.079
Mof_H 	H 	0.6689	0.1928	0.6654	0.001
Mof_C 	C 	0.7982	0.2868	0.5703	-0.125
Mof_H 	H 	0.8381	0.2911	0.612	0.068
Mof_C 	C 	0.5259	0.9536	0.389	0.043
Mof_C 	C 	0.6388	0.1402	0.5113	-0.123
Mof_H 	H 	0.6297	0.1744	0.4902	0.08
Mof_C 	C 	0.4288	0.0443	0.3889	-0.119
Mof_H 	H 	0.3935	0.0353	0.4288	0.072
Mof_C 	C 	0.5073	0.0481	0.896	-0.124
Mof_H 	H 	0.517	0.045	0.9426	0.08
Mof_C 	C 	0.4211	0.1482	0.0587	-0.061
Mof_H 	H 	0.3419	0.1311	0.0595	0.046
Mof_C 	C 	0.5118	0.1036	0.0638	0.1
Mof_C 	C 	0.1791	0.4151	0.3263	0.028
Mof_H 	H 	0.171	0.4489	0.348	0.017
Mof_C 	C 	0.6254	0.1148	0.0533	-0.123
Mof_H 	H 	0.648	0.1501	0.04	0.078
Mof_C 	C 	0.2858	0.389	0.3283	-0.123
Mof_H 	H 	0.3504	0.4044	0.3526	0.072
Mof_C 	C 	0.0825	0.3915	0.292	-0.104
Mof_H 	H 	0.0075	0.4079	0.293	0.061
Mof_C 	C 	0.7596	0.064	0.5382	-0.106
Mof_H 	H 	0.8318	0.0451	0.5371	0.065
Mof_C 	C 	0.5594	0.0695	0.5732	-0.126
Mof_H 	H 	0.4961	0.0537	0.5949	0.072
Mof_C 	C 	0.6665	0.0424	0.5706	0.034
Mof_H 	H 	0.6756	0.0082	0.5917	0.017
Mof_C 	C 	0.4798	0.0526	0.0842	-0.137
Mof_H 	H 	0.4002	0.0461	0.0928	0.077
Mof_C 	C 	0.6712	0.0219	0.0814	-0.094
Mof_H 	H 	0.7267	0.9934	0.0865	0.053
Mof_C 	C 	0.7102	0.073	0.0627	0.023
Mof_H 	H 	0.7907	0.0797	0.0564	0.021
Mof_C 	C 	0.5583	0.0111	0.0924	0.049
Mof_H 	H 	0.5343	0.976	0.1055	0.003
Mof_C 	C 	0.7451	0.1126	0.5084	0.037
Mof_H 	H 	0.8073	0.128	0.4853	0.014
Mof_H 	H 	0.3423	0.186	0.4772	0.208
Mof_Co	Co	0.56118	0.6904	0.7327	1.163
Mof_Co	Co	0.55881	0.76607	0.9855	1.159
Mof_Co	Co	0.53554	0.68621	0.23734	1.163
Mof_Co	Co	0.57421	0.77185	0.48753	1.157
Mof_N 	N 	0.3716	0.691	0.7328	-0.227
Mof_N 	N 	0.7504	0.6838	0.7301	-0.222
Mof_O 	O 	0.5678	0.66233	0.8268	-0.431
Mof_O 	O 	0.5576	0.72575	0.641	-0.433
Mof_O 	O 	0.5425	0.66149	0.3336	-0.431
Mof_N 	N 	0.369	0.7674	0.9861	-0.222
Mof_O 	O 	0.5481	0.73528	0.8904	-0.433
Mof_O 	O 	0.5854	0.80062	0.5823	-0.427
Mof_N 	N 	0.7647	0.7775	0.4866	-0.226
Mof_N 	N 	0.7503	0.7715	0.985	-0.223
Mof_O 	O 	0.5585	0.73685	0.3934	-0.43
Mof_C 	C 	0.3252	0.7758	0.546	0.065
Mof_H 	H 	0.368	0.7726	0.587	0.004
Mof_N 	N 	0.7267	0.6793	0.2389	-0.221
Mof_O 	O 	0.567	0.77632	0.7542	-0.433
Mof_H 	H 	0.497	0.78	0.767	0.195
Mof_C 	C 	0.9291	0.762	0.9285	-0.115
Mof_H 	H 	0.9659	0.7532	0.8889	0.064
Mof_N 	N 	0.3845	0.777	0.4906	-0.225
Mof_C 	C 	0.808	0.7594	0.931	0.057
Mof_H 	H 	0.7639	0.7486	0.8924	0.002
Mof_C 	C 	0.8092	0.6967	0.6758	0.063
Mof_H 	H 	0.7649	0.7066	0.6369	-0.001
Mof_C 	C 	0.9292	0.6963	0.6736	-0.121
Mof_H 	H 	0.9655	0.7049	0.6339	0.068
Mof_C 	C 	0.9051	0.6908	0.1848	-0.124
Mof_H 	H 	0.9426	0.7005	0.1458	0.068
Mof_O 	O 	0.5908	0.6846	0.505	-0.453
Mof_C 	C 	0.8179	0.6684	0.7832	0.062
Mof_H 	H 	0.7795	0.6573	0.8214	0.004
Mof_C 	C 	0.9351	0.7917	0.0397	-0.114
Mof_H 	H 	0.9768	0.8037	0.0785	0.066
Mof_C 	C 	0.8139	0.7885	0.0383	0.053
Mof_H 	H 	0.7745	0.7987	0.0765	0.011
Mof_C 	C 	0.9961	0.7773	0.9843	0.039
Mof_C 	C 	0.7904	0.6609	0.292	0.06
Mof_H 	H 	0.7502	0.6489	0.3291	0.005
Mof_C 	C 	0.5755	0.7757	0.6358	0.336
Mof_C 	C 	0.1888	0.6771	0.6735	-0.121
Mof_H 	H 	0.1476	0.6696	0.6328	0.067
Mof_C 	C 	0.1391	0.7839	0.4872	0.048
Mof_C 	C 	0.8237	0.7595	0.4356	0.061
Mof_H 	H 	0.7806	0.7444	0.3989	-0
Mof_C 	C 	0.9491	0.8049	0.5372	-0.118
Mof_H 	H 	0.9905	0.8216	0.5734	0.068
Mof_C 	C 	0.9118	0.6587	0.2948	-0.12
Mof_H 	H 	0.9531	0.6462	0.3335	0.065
Mof_C 	C 	0.7857	0.6925	0.1861	0.07
Mof_H 	H 	0.7426	0.7037	0.1474	-0.003
Mof_C 	C 	0.3084	0.6805	0.6764	0.062
Mof_H 	H 	0.3487	0.6753	0.6371	0.004
Mof_C 	C 	0.5529	0.6867	0.3868	0.346
Mof_C 	C 	0.972	0.6749	0.2406	0.046
Mof_C 	C 	0.5641	0.651	0.4495	-0.04
Mof_H 	H 	0.63	0.6249	0.4447	0.044
Mof_C 	C 	0.9974	0.683	0.7299	0.045
Mof_C 	C 	0.5841	0.8103	0.6986	-0.054
Mof_H 	H 	0.5199	0.8379	0.6959	0.045
Mof_C 	C 	0.2036	0.779	0.546	-0.125
Mof_H 	H 	0.1653	0.7779	0.5864	0.068
Mof_C 	C 	0.1276	0.6849	0.7307	0.047
Mof_C 	C 	0.9375	0.6675	0.7859	-0.122
Mof_H 	H 	0.9797	0.6566	0.825	0.067
Mof_C 	C 	0.0089	0.7838	0.4854	0.045
Mof_C 	C 	0.8273	0.8013	0.5358	0.056
Mof_H 	H 	0.7871	0.8164	0.5713	0.013
Mof_C 	C 	0.9437	0.7619	0.4336	-0.122
Mof_H 	H 	0.9814	0.7482	0.3963	0.066
Mof_C 	C 	0.3226	0.7835	0.4344	0.07
Mof_H 	H 	0.3636	0.786	0.395	-0.005
Mof_N 	N 	0.5445	0.6095	0.6966	-0.23
Mof_N 	N 	0.4496	0.346	0.0546	-0.229
Mof_C 	C 	0.5635	0.686	0.8814	0.348
Mof_C 	C 	0.7002	0.8402	0.705	0.087
Mof_O 	O 	0.5741	0.67943	0.9999	-0.419
Mof_H 	H 	0.642	0.678	0.022	0.178
Mof_O 	O 	0.531	0.77277	0.2528	-0.45
Mof_H 	H 	0.477	0.79	0.273	0.215
Mof_O 	O 	0.5337	0.71866	0.1424	-0.421
Mof_C 	C 	0.4996	0.5071	0.641	0.047
Mof_C 	C 	0.4526	0.5226	0.7003	-0.121
Mof_H 	H 	0.4043	0.4983	0.723	0.07
Mof_C 	C 	0.5906	0.5945	0.6399	0.071
Mof_H 	H 	0.6391	0.6196	0.6186	0
Mof_C 	C 	0.1899	0.7598	0.041	-0.129
Mof_H 	H 	0.1515	0.7509	0.08	0.07
Mof_C 	C 	0.1005	0.6754	0.241	0.049
Mof_C 	C 	0.1608	0.6669	0.1826	-0.123
Mof_H 	H 	0.119	0.6585	0.1425	0.068
Mof_C 	C 	0.3086	0.7561	0.0396	0.069
Mof_H 	H 	0.3511	0.745	0.0786	0.006
Mof_C 	C 	0.5562	0.805	0.1969	-0.054
Mof_H 	H 	0.4949	0.8337	0.1912	0.044
Mof_C 	C 	0.3065	0.7847	0.9322	0.065
Mof_H 	H 	0.3472	0.7945	0.8943	-0
Mof_C 	C 	0.6749	0.8322	0.2064	0.084
Mof_C 	C 	0.7584	0.8137	0.2525	-0.124
Mof_H 	H 	0.7394	0.7849	0.2811	0.081
Mof_C 	C 	0.4904	0.5026	0.143	0.054
Mof_C 	C 	0.4879	0.444	0.5442	-0.128
Mof_H 	H 	0.5115	0.4727	0.5165	0.071
Mof_C 	C 	0.5222	0.4363	0.0526	-0.122
Mof_H 	H 	0.5654	0.463	0.0304	0.07
Mof_C 	C 	0.8686	0.8364	0.2577	0.035
Mof_H 	H 	0.9253	0.8224	0.2889	0.016
Mof_C 	C 	0.4676	0.3935	0.5185	0.076
Mof_H 	H 	0.4779	0.3882	0.4729	-0.002
Mof_C 	C 	0.4992	0.5102	0.2104	-0.127
Mof_H 	H 	0.4939	0.4801	0.2393	0.069
Mof_N 	N 	0.5224	0.6058	0.1976	-0.23
Mof_C 	C 	0.4185	0.3601	0.6167	0.07
Mof_H 	H 	0.3928	0.3307	0.6426	0.006
Mof_C 	C 	0.5159	0.5616	0.2353	0.072
Mof_H 	H 	0.5231	0.5659	0.2818	0.001
Mof_C 	C 	0.5061	0.3856	0.0251	0.07
Mof_H 	H 	0.5368	0.3786	0.9834	-0.002
Mof_C 	C 	0.4146	0.4073	0.1435	-0.116
Mof_H 	H 	0.3811	0.4134	0.1847	0.073
Mof_N 	N 	0.4343	0.3516	0.5538	-0.233
Mof_C 	C 	0.4377	0.41	0.647	-0.125
Mof_H 	H 	0.4257	0.414	0.6927	0.071
Mof_O 	O 	0.5641	0.79215	0.0814	-0.429
Mof_C 	C 	0.4039	0.3572	0.1131	0.062
Mof_H 	H 	0.3624	0.3294	0.1344	0.014
Mof_C 	C 	0.795	0.8195	0.7416	-0.122
Mof_H 	H 	0.7861	0.7873	0.7664	0.081
Mof_N 	N 	0.3461	0.6822	0.2401	-0.227
Mof_C 	C 	0.4521	0.619	0.456	0.091
Mof_C 	C 	0.1256	0.7764	0.9853	0.052
Mof_C 	C 	0.9029	0.8453	0.7426	0.033
Mof_H 	H 	0.9671	0.8303	0.7677	0.015
Mof_C 	C 	0.5514	0.7691	0.1356	0.335
Mof_C 	C 	0.2811	0.671	0.185	0.065
Mof_H 	H 	0.3203	0.6655	0.1453	0.001
Mof_C 	C 	0.8966	0.8791	0.218	-0.108
Mof_H 	H 	0.9721	0.8951	0.2218	0.062
Mof_C 	C 	0.8136	0.8984	0.1726	0.032
Mof_H 	H 	0.8325	0.9278	0.1448	0.013
Mof_C 	C 	0.187	0.7887	0.9295	-0.126
Mof_H 	H 	0.1463	0.7997	0.8899	0.068
Mof_C 	C 	0.4752	0.4485	0.1128	0.046
Mof_C 	C 	0.193	0.6945	0.789	-0.126
Mof_H 	H 	0.1556	0.6989	0.8294	0.069
Mof_C 	C 	0.1693	0.6819	0.2978	-0.132
Mof_H 	H 	0.1344	0.6833	0.3392	0.071
Mof_C 	C 	0.5093	0.5982	0.1326	0.063
Mof_H 	H 	0.5116	0.6291	0.1047	0.016
Mof_C 	C 	0.3118	0.6975	0.7871	0.069
Mof_H 	H 	0.355	0.7047	0.8272	0.003
Mof_C 	C 	0.4769	0.5733	0.7256	0.07
Mof_H 	H 	0.4438	0.5832	0.766	0.006
Mof_C 	C 	0.703	0.8755	0.1666	-0.126
Mof_H 	H 	0.6465	0.8895	0.1353	0.074
Mof_C 	C 	0.2872	0.6863	0.2946	0.078
Mof_H 	H 	0.3311	0.6928	0.3346	0.001
Mof_C 	C 	0.2018	0.7868	0.4297	-0.125
Mof_H 	H 	0.1619	0.7911	0.388	0.068
Mof_C 	C 	0.4741	0.4536	0.611	0.054
Mof_C 	C 	0.3612	0.6402	0.4887	-0.123
Mof_H 	H 	0.3703	0.6744	0.5098	0.08
Mof_C 	C 	0.5712	0.5443	0.6111	-0.118
Mof_H 	H 	0.6065	0.5353	0.5712	0.069
Mof_C 	C 	0.4927	0.5481	0.104	-0.123
Mof_H 	H 	0.483	0.545	0.0574	0.078
Mof_C 	C 	0.5789	0.6482	0.9413	-0.06
Mof_H 	H 	0.6581	0.6311	0.9405	0.046
Mof_C 	C 	0.4882	0.6036	0.9362	0.097
Mof_C 	C 	0.8209	0.9151	0.6737	0.028
Mof_H 	H 	0.829	0.9489	0.652	0.015
Mof_C 	C 	0.3746	0.6148	0.9467	-0.123
Mof_H 	H 	0.352	0.6501	0.96	0.078
Mof_C 	C 	0.7142	0.889	0.6717	-0.123
Mof_H 	H 	0.6496	0.9044	0.6474	0.071
Mof_C 	C 	0.9175	0.8915	0.708	-0.105
Mof_H 	H 	0.9925	0.9079	0.707	0.06
Mof_C 	C 	0.2404	0.564	0.4618	-0.107
Mof_H 	H 	0.1682	0.5451	0.4629	0.063
Mof_C 	C 	0.4406	0.5695	0.4268	-0.127
Mof_H 	H 	0.5039	0.5537	0.4051	0.071
Mof_C 	C 	0.3335	0.5424	0.4294	0.034
Mof_H 	H 	0.3244	0.5082	0.4083	0.015
Mof_C 	C 	0.5202	0.5526	0.9158	-0.131
Mof_H 	H 	0.5998	0.5461	0.9072	0.073
Mof_C 	C 	0.3288	0.5219	0.9186	-0.103
Mof_H 	H 	0.2733	0.4934	0.9135	0.061
Mof_C 	C 	0.2898	0.573	0.9373	0.026
Mof_H 	H 	0.2093	0.5797	0.9436	0.018
Mof_C 	C 	0.4417	0.5111	0.9076	0.037
Mof_H 	H 	0.4657	0.476	0.8945	0.011
Mof_C 	C 	0.2549	0.6126	0.4916	0.037
Mof_H 	H 	0.1927	0.628	0.5147	0.014
Mof_H 	H 	0.6577	0.686	0.5228	0.208
_end
