data_functionalizedCrystal
_audit_creation_method	'EQeq! by Chris Wilmer'
_symmetry_space_group_name_H-M	'P1'
_symmetry_Int_Tables_number	1
_symmetry_cell_setting	triclinic
loop_
_symmetry_equiv_pos_as_xyz
  x,y,z
_cell_length_a	11.4341
_cell_length_b	12.5791
_cell_length_c	14.7759
_cell_angle_alpha	90
_cell_angle_beta	90
_cell_angle_gamma	90
loop_
_atom_site_label
_atom_site_type_symbol
_atom_site_fract_x
_atom_site_fract_y
_atom_site_fract_z
_atom_site_charge
Mof_Zn	Zn	0.5	0.5	0.25	1.188
Mof_Zn	Zn	0.5	0.5	0.75	1.186
Mof_H 	H 	0.6967	0.2179	0.1361	0.064
Mof_H 	H 	0.8286	0.0791	0.1359	0.062
Mof_H 	H 	0.9106	0.3444	0.2804	0.09
Mof_H 	H 	0.7093	0.3496	0.2808	-0.009
Mof_H 	H 	0.3033	0.7821	0.1361	0.064
Mof_H 	H 	0.1714	0.9209	0.1359	0.062
Mof_H 	H 	0.0894	0.6556	0.2804	0.09
Mof_H 	H 	0.2907	0.6504	0.2808	-0.009
Mof_H 	H 	0.3033	0.2179	0.3639	0.064
Mof_H 	H 	0.1714	0.0791	0.3641	0.062
Mof_H 	H 	0.0894	0.3444	0.2196	0.09
Mof_H 	H 	0.2907	0.3496	0.2192	-0.008
Mof_H 	H 	0.6967	0.7821	0.3639	0.064
Mof_H 	H 	0.8286	0.9209	0.3641	0.062
Mof_H 	H 	0.9106	0.6556	0.2196	0.09
Mof_H 	H 	0.7093	0.6504	0.2192	-0.008
Mof_H 	H 	0.3033	0.7821	0.8639	0.065
Mof_H 	H 	0.1714	0.9209	0.8641	0.064
Mof_H 	H 	0.0894	0.6556	0.7196	0.089
Mof_H 	H 	0.2907	0.6504	0.7192	-0.009
Mof_H 	H 	0.6967	0.2179	0.8639	0.065
Mof_H 	H 	0.8286	0.0791	0.8641	0.064
Mof_H 	H 	0.9106	0.3444	0.7196	0.089
Mof_H 	H 	0.7093	0.3496	0.7192	-0.009
Mof_H 	H 	0.6967	0.7821	0.6361	0.064
Mof_H 	H 	0.8286	0.9209	0.6359	0.061
Mof_H 	H 	0.9106	0.6556	0.7804	0.089
Mof_H 	H 	0.7093	0.6504	0.7808	-0.009
Mof_H 	H 	0.3033	0.2179	0.6361	0.064
Mof_H 	H 	0.1714	0.0791	0.6359	0.061
Mof_H 	H 	0.0894	0.3444	0.7804	0.089
Mof_H 	H 	0.2907	0.3496	0.7808	-0.009
Mof_C 	C 	0.87186	0.40778	0.26813	-0.138
Mof_C 	C 	0.75022	0.41168	0.26799	0.081
Mof_C 	C 	0.53842	0.34899	0.08035	0.133
Mof_C 	C 	0.7207	0.1889	0.08133	-0.083
Mof_C 	C 	0.8014	0.1066	0.08143	-0.052
Mof_C 	C 	0.9214	0.9093	0.081	0.095
Mof_C 	C 	0.12814	0.59222	0.26813	-0.138
Mof_C 	C 	0.24978	0.58832	0.26799	0.081
Mof_C 	C 	0.46158	0.65101	0.08035	0.133
Mof_C 	C 	0.2793	0.8111	0.08133	-0.083
Mof_C 	C 	0.1986	0.8934	0.08143	-0.052
Mof_C 	C 	0.0786	0.0907	0.081	0.095
Mof_C 	C 	0.12814	0.40778	0.23187	-0.137
Mof_C 	C 	0.24978	0.41168	0.23201	0.081
Mof_C 	C 	0.46158	0.34899	0.41965	0.134
Mof_C 	C 	0.2793	0.1889	0.41867	-0.084
Mof_C 	C 	0.1986	0.1066	0.41857	-0.05
Mof_C 	C 	0.0786	0.9093	0.419	0.094
Mof_C 	C 	0.87186	0.59222	0.23187	-0.137
Mof_C 	C 	0.75022	0.58832	0.23201	0.081
Mof_C 	C 	0.53842	0.65101	0.41965	0.134
Mof_C 	C 	0.7207	0.8111	0.41867	-0.084
Mof_C 	C 	0.8014	0.8934	0.41857	-0.05
Mof_C 	C 	0.9214	0.0907	0.419	0.094
Mof_C 	C 	0.12814	0.59222	0.73187	-0.138
Mof_C 	C 	0.24978	0.58832	0.73201	0.08
Mof_C 	C 	0.46158	0.65101	0.91965	0.124
Mof_C 	C 	0.2793	0.8111	0.91867	-0.089
Mof_C 	C 	0.1986	0.8934	0.91857	-0.058
Mof_C 	C 	0.0786	0.0907	0.919	0.087
Mof_C 	C 	0.87186	0.40778	0.73187	-0.138
Mof_C 	C 	0.75022	0.41168	0.73201	0.08
Mof_C 	C 	0.53842	0.34899	0.91965	0.124
Mof_C 	C 	0.7207	0.1889	0.91867	-0.089
Mof_C 	C 	0.8014	0.1066	0.91857	-0.058
Mof_C 	C 	0.9214	0.9093	0.919	0.087
Mof_C 	C 	0.87186	0.59222	0.76813	-0.138
Mof_C 	C 	0.75022	0.58832	0.76799	0.08
Mof_C 	C 	0.53842	0.65101	0.58035	0.134
Mof_C 	C 	0.7207	0.8111	0.58133	-0.084
Mof_C 	C 	0.8014	0.8934	0.58143	-0.05
Mof_C 	C 	0.9214	0.0907	0.581	0.094
Mof_C 	C 	0.12814	0.40778	0.76813	-0.138
Mof_C 	C 	0.24978	0.41168	0.76799	0.08
Mof_C 	C 	0.46158	0.34899	0.58035	0.134
Mof_C 	C 	0.2793	0.1889	0.58133	-0.084
Mof_C 	C 	0.1986	0.1066	0.58143	-0.05
Mof_C 	C 	0.0786	0.9093	0.581	0.094
Mof_C 	C 	0.9351	0.5	0.25	0.062
Mof_C 	C 	0.0649	0.5	0.25	0.062
Mof_C 	C 	0.0649	0.5	0.75	0.061
Mof_C 	C 	0.9351	0.5	0.75	0.061
Mof_C 	C 	0.5852	0.3106	-0	-0.142
Mof_C 	C 	0.6764	0.23	-0	0.09
Mof_C 	C 	0.8417	0.0648	-0	0.049
Mof_C 	C 	0.934	0.9764	-0	-0.062
Mof_C 	C 	0.4148	0.6894	-0	-0.142
Mof_C 	C 	0.3236	0.77	-0	0.09
Mof_C 	C 	0.1583	0.9352	-0	0.049
Mof_C 	C 	0.066	0.0236	-0	-0.062
Mof_C 	C 	0.4148	0.3106	0.5	-0.15
Mof_C 	C 	0.3236	0.23	0.5	0.085
Mof_C 	C 	0.1583	0.0648	0.5	0.041
Mof_C 	C 	0.066	0.9764	0.5	-0.066
Mof_C 	C 	0.5852	0.6894	0.5	-0.15
Mof_C 	C 	0.6764	0.77	0.5	0.085
Mof_C 	C 	0.8417	0.9352	0.5	0.041
Mof_C 	C 	0.934	0.0236	0.5	-0.066
Mof_N 	N 	0.50101	0.37981	0.14765	-0.271
Mof_N 	N 	0.9108	0.8592	0.1447	-0.128
Mof_N 	N 	0.49899	0.62019	0.14765	-0.271
Mof_N 	N 	0.0892	0.1408	0.1447	-0.128
Mof_N 	N 	0.49899	0.37981	0.35235	-0.272
Mof_N 	N 	0.0892	0.8592	0.3553	-0.129
Mof_N 	N 	0.50101	0.62019	0.35235	-0.272
Mof_N 	N 	0.9108	0.1408	0.3553	-0.129
Mof_N 	N 	0.49899	0.62019	0.85235	-0.27
Mof_N 	N 	0.0892	0.1408	0.8553	-0.128
Mof_N 	N 	0.50101	0.37981	0.85235	-0.27
Mof_N 	N 	0.9108	0.8592	0.8553	-0.128
Mof_N 	N 	0.50101	0.62019	0.64765	-0.272
Mof_N 	N 	0.9108	0.1408	0.6447	-0.129
Mof_N 	N 	0.49899	0.37981	0.64765	-0.272
Mof_N 	N 	0.0892	0.8592	0.6447	-0.129
Mof_N 	N 	0.6897	0.5	0.25	-0.25
Mof_N 	N 	0.3103	0.5	0.25	-0.25
Mof_N 	N 	0.3103	0.5	0.75	-0.251
Mof_N 	N 	0.6897	0.5	0.75	-0.251
_end
