data_functionalizedCrystal
_audit_creation_method	'EQeq! by Chris Wilmer'
_symmetry_space_group_name_H-M	'P1'
_symmetry_Int_Tables_number	1
_symmetry_cell_setting	triclinic
loop_
_symmetry_equiv_pos_as_xyz
  x,y,z
_cell_length_a	20.425
_cell_length_b	20.425
_cell_length_c	20.425
_cell_angle_alpha	90
_cell_angle_beta	90
_cell_angle_gamma	90
loop_
_atom_site_label
_atom_site_type_symbol
_atom_site_fract_x
_atom_site_fract_y
_atom_site_fract_z
_atom_site_charge
Mof_O 	O 	0.1332	0.8084	0.245	-0.439
Mof_O 	O 	0.0625	0.8822	0.2144	-0.351
Mof_N 	N 	0.9992	0.6556	0.0092	-0.255
Mof_H 	H 	0.9633	0.6703	0.9907	0.168
Mof_N 	N 	0.9915	0.578	0.9294	-0.176
Mof_C 	C 	0.0876	0.828	0.209	0.397
Mof_C 	C 	0.0661	0.7814	0.1561	-0.203
Mof_C 	C 	0.0173	0.7974	0.114	0.142
Mof_H 	H 	0.9978	0.8395	0.1171	-0.015
Mof_C 	C 	0.9953	0.755	0.0675	-0.236
Mof_H 	H 	0.9606	0.7677	0.0393	0.113
Mof_C 	C 	0.0238	0.6922	0.0607	0.219
Mof_C 	C 	0.0743	0.6766	0.1037	-0.242
Mof_H 	H 	0.0952	0.6352	0.1003	0.125
Mof_C 	C 	0.0939	0.7189	0.1499	0.144
Mof_H 	H 	0.1276	0.7062	0.1794	-0.003
Mof_C 	C 	0.0252	0.5979	0.9835	0.189
Mof_O 	O 	0.3668	0.1916	0.745	-0.44
Mof_O 	O 	0.4375	0.1178	0.7144	-0.352
Mof_N 	N 	0.5008	0.3444	0.5092	-0.255
Mof_H 	H 	0.5367	0.3297	0.4907	0.167
Mof_N 	N 	0.5085	0.422	0.4294	-0.177
Mof_C 	C 	0.4124	0.172	0.709	0.396
Mof_C 	C 	0.4339	0.2186	0.6561	-0.203
Mof_C 	C 	0.4827	0.2026	0.614	0.14
Mof_H 	H 	0.5022	0.1605	0.6171	-0.014
Mof_C 	C 	0.5047	0.245	0.5675	-0.234
Mof_H 	H 	0.5394	0.2323	0.5393	0.113
Mof_C 	C 	0.4762	0.3078	0.5607	0.218
Mof_C 	C 	0.4257	0.3234	0.6037	-0.241
Mof_H 	H 	0.4048	0.3648	0.6003	0.125
Mof_C 	C 	0.4061	0.2811	0.6499	0.143
Mof_H 	H 	0.3724	0.2938	0.6794	-0.003
Mof_C 	C 	0.4748	0.4021	0.4835	0.19
Mof_O 	O 	0.8668	0.3084	0.255	-0.44
Mof_O 	O 	0.9375	0.3822	0.2856	-0.352
Mof_N 	N 	0.0008	0.1556	0.4908	-0.255
Mof_H 	H 	0.0367	0.1703	0.5093	0.167
Mof_N 	N 	0.0085	0.078	0.5706	-0.177
Mof_C 	C 	0.9124	0.328	0.291	0.396
Mof_C 	C 	0.9339	0.2814	0.3439	-0.202
Mof_C 	C 	0.9827	0.2974	0.386	0.138
Mof_H 	H 	0.0022	0.3395	0.3829	-0.013
Mof_C 	C 	0.0047	0.255	0.4325	-0.232
Mof_H 	H 	0.0394	0.2677	0.4607	0.112
Mof_C 	C 	0.9762	0.1922	0.4393	0.216
Mof_C 	C 	0.9257	0.1766	0.3963	-0.24
Mof_H 	H 	0.9048	0.1352	0.3997	0.124
Mof_C 	C 	0.9061	0.2189	0.3501	0.142
Mof_H 	H 	0.8724	0.2062	0.3206	-0.003
Mof_C 	C 	0.9748	0.0979	0.5165	0.189
Mof_O 	O 	0.6332	0.6916	0.755	-0.44
Mof_O 	O 	0.5625	0.6178	0.7856	-0.352
Mof_N 	N 	0.4992	0.8444	0.9908	-0.255
Mof_H 	H 	0.4633	0.8297	0.0093	0.167
Mof_N 	N 	0.4915	0.922	0.0706	-0.177
Mof_C 	C 	0.5876	0.672	0.791	0.396
Mof_C 	C 	0.5661	0.7186	0.8439	-0.203
Mof_C 	C 	0.5173	0.7026	0.886	0.14
Mof_H 	H 	0.4978	0.6605	0.8829	-0.014
Mof_C 	C 	0.4953	0.745	0.9325	-0.234
Mof_H 	H 	0.4606	0.7323	0.9607	0.113
Mof_C 	C 	0.5238	0.8078	0.9393	0.218
Mof_C 	C 	0.5743	0.8234	0.8963	-0.241
Mof_H 	H 	0.5952	0.8648	0.8997	0.125
Mof_C 	C 	0.5939	0.7811	0.8501	0.143
Mof_H 	H 	0.6276	0.7938	0.8206	-0.003
Mof_C 	C 	0.5252	0.9021	0.0165	0.19
Mof_O 	O 	0.245	0.1332	0.8084	-0.44
Mof_O 	O 	0.2144	0.0625	0.8822	-0.352
Mof_N 	N 	0.0092	0.9992	0.6556	-0.256
Mof_H 	H 	0.9907	0.9633	0.6703	0.167
Mof_N 	N 	0.9294	0.9915	0.578	-0.177
Mof_C 	C 	0.209	0.0876	0.828	0.396
Mof_C 	C 	0.1561	0.0661	0.7814	-0.204
Mof_C 	C 	0.114	0.0173	0.7974	0.142
Mof_H 	H 	0.1171	0.9978	0.8395	-0.015
Mof_C 	C 	0.0675	0.9953	0.755	-0.236
Mof_H 	H 	0.0393	0.9606	0.7677	0.113
Mof_C 	C 	0.0607	0.0238	0.6922	0.219
Mof_C 	C 	0.1037	0.0743	0.6766	-0.242
Mof_H 	H 	0.1003	0.0952	0.6352	0.125
Mof_C 	C 	0.1499	0.0939	0.7189	0.144
Mof_H 	H 	0.1794	0.1276	0.7062	-0.003
Mof_C 	C 	0.9835	0.0252	0.5979	0.189
Mof_O 	O 	0.745	0.3668	0.1916	-0.44
Mof_O 	O 	0.7144	0.4375	0.1178	-0.352
Mof_N 	N 	0.5092	0.5008	0.3444	-0.255
Mof_H 	H 	0.4907	0.5367	0.3297	0.167
Mof_N 	N 	0.4294	0.5085	0.422	-0.177
Mof_C 	C 	0.709	0.4124	0.172	0.396
Mof_C 	C 	0.6561	0.4339	0.2186	-0.203
Mof_C 	C 	0.614	0.4827	0.2026	0.14
Mof_H 	H 	0.6171	0.5022	0.1605	-0.014
Mof_C 	C 	0.5675	0.5047	0.245	-0.234
Mof_H 	H 	0.5393	0.5394	0.2323	0.113
Mof_C 	C 	0.5607	0.4762	0.3078	0.218
Mof_C 	C 	0.6037	0.4257	0.3234	-0.241
Mof_H 	H 	0.6003	0.4048	0.3648	0.125
Mof_C 	C 	0.6499	0.4061	0.2811	0.143
Mof_H 	H 	0.6794	0.3724	0.2938	-0.003
Mof_C 	C 	0.4835	0.4748	0.4021	0.19
Mof_O 	O 	0.255	0.8668	0.3084	-0.44
Mof_O 	O 	0.2856	0.9375	0.3822	-0.352
Mof_N 	N 	0.4908	0.0008	0.1556	-0.255
Mof_H 	H 	0.5093	0.0367	0.1703	0.167
Mof_N 	N 	0.5706	0.0085	0.078	-0.177
Mof_C 	C 	0.291	0.9124	0.328	0.396
Mof_C 	C 	0.3439	0.9339	0.2814	-0.202
Mof_C 	C 	0.386	0.9827	0.2974	0.138
Mof_H 	H 	0.3829	0.0022	0.3395	-0.013
Mof_C 	C 	0.4325	0.0047	0.255	-0.232
Mof_H 	H 	0.4607	0.0394	0.2677	0.112
Mof_C 	C 	0.4393	0.9762	0.1922	0.216
Mof_C 	C 	0.3963	0.9257	0.1766	-0.24
Mof_H 	H 	0.3997	0.9048	0.1352	0.124
Mof_C 	C 	0.3501	0.9061	0.2189	0.142
Mof_H 	H 	0.3206	0.8724	0.2062	-0.003
Mof_C 	C 	0.5165	0.9748	0.0979	0.189
Mof_O 	O 	0.755	0.6332	0.6916	-0.44
Mof_O 	O 	0.7856	0.5625	0.6178	-0.352
Mof_N 	N 	0.9908	0.4992	0.8444	-0.255
Mof_H 	H 	0.0093	0.4633	0.8297	0.167
Mof_N 	N 	0.0706	0.4915	0.922	-0.177
Mof_C 	C 	0.791	0.5876	0.672	0.396
Mof_C 	C 	0.8439	0.5661	0.7186	-0.203
Mof_C 	C 	0.886	0.5173	0.7026	0.14
Mof_H 	H 	0.8829	0.4978	0.6605	-0.014
Mof_C 	C 	0.9325	0.4953	0.745	-0.234
Mof_H 	H 	0.9607	0.4606	0.7323	0.113
Mof_C 	C 	0.9393	0.5238	0.8078	0.218
Mof_C 	C 	0.8963	0.5743	0.8234	-0.241
Mof_H 	H 	0.8997	0.5952	0.8648	0.125
Mof_C 	C 	0.8501	0.5939	0.7811	0.143
Mof_H 	H 	0.8206	0.6276	0.7938	-0.003
Mof_C 	C 	0.0165	0.5252	0.9021	0.19
Mof_O 	O 	0.8084	0.245	0.1332	-0.44
Mof_O 	O 	0.8822	0.2144	0.0625	-0.352
Mof_N 	N 	0.6556	0.0092	0.9992	-0.256
Mof_H 	H 	0.6703	0.9907	0.9633	0.167
Mof_N 	N 	0.578	0.9294	0.9915	-0.177
Mof_C 	C 	0.828	0.209	0.0876	0.396
Mof_C 	C 	0.7814	0.1561	0.0661	-0.204
Mof_C 	C 	0.7974	0.114	0.0173	0.142
Mof_H 	H 	0.8395	0.1171	0.9978	-0.015
Mof_C 	C 	0.755	0.0675	0.9953	-0.236
Mof_H 	H 	0.7677	0.0393	0.9606	0.113
Mof_C 	C 	0.6922	0.0607	0.0238	0.219
Mof_C 	C 	0.6766	0.1037	0.0743	-0.242
Mof_H 	H 	0.6352	0.1003	0.0952	0.125
Mof_C 	C 	0.7189	0.1499	0.0939	0.144
Mof_H 	H 	0.7062	0.1794	0.1276	-0.003
Mof_C 	C 	0.5979	0.9835	0.0252	0.189
Mof_O 	O 	0.1916	0.745	0.3668	-0.44
Mof_O 	O 	0.1178	0.7144	0.4375	-0.352
Mof_N 	N 	0.3444	0.5092	0.5008	-0.255
Mof_H 	H 	0.3297	0.4907	0.5367	0.167
Mof_N 	N 	0.422	0.4294	0.5085	-0.177
Mof_C 	C 	0.172	0.709	0.4124	0.396
Mof_C 	C 	0.2186	0.6561	0.4339	-0.203
Mof_C 	C 	0.2026	0.614	0.4827	0.14
Mof_H 	H 	0.1605	0.6171	0.5022	-0.014
Mof_C 	C 	0.245	0.5675	0.5047	-0.234
Mof_H 	H 	0.2323	0.5393	0.5394	0.113
Mof_C 	C 	0.3078	0.5607	0.4762	0.218
Mof_C 	C 	0.3234	0.6037	0.4257	-0.241
Mof_H 	H 	0.3648	0.6003	0.4048	0.125
Mof_C 	C 	0.2811	0.6499	0.4061	0.143
Mof_H 	H 	0.2938	0.6794	0.3724	-0.003
Mof_C 	C 	0.4021	0.4835	0.4748	0.19
Mof_O 	O 	0.3084	0.255	0.8668	-0.44
Mof_O 	O 	0.3822	0.2856	0.9375	-0.352
Mof_N 	N 	0.1556	0.4908	0.0008	-0.255
Mof_H 	H 	0.1703	0.5093	0.0367	0.167
Mof_N 	N 	0.078	0.5706	0.0085	-0.177
Mof_C 	C 	0.328	0.291	0.9124	0.396
Mof_C 	C 	0.2814	0.3439	0.9339	-0.202
Mof_C 	C 	0.2974	0.386	0.9827	0.138
Mof_H 	H 	0.3395	0.3829	0.0022	-0.013
Mof_C 	C 	0.255	0.4325	0.0047	-0.232
Mof_H 	H 	0.2677	0.4607	0.0394	0.112
Mof_C 	C 	0.1922	0.4393	0.9762	0.216
Mof_C 	C 	0.1766	0.3963	0.9257	-0.24
Mof_H 	H 	0.1352	0.3997	0.9048	0.124
Mof_C 	C 	0.2189	0.3501	0.9061	0.142
Mof_H 	H 	0.2062	0.3206	0.8724	-0.003
Mof_C 	C 	0.0979	0.5165	0.9748	0.189
Mof_O 	O 	0.6916	0.755	0.6332	-0.44
Mof_O 	O 	0.6178	0.7856	0.5625	-0.352
Mof_N 	N 	0.8444	0.9908	0.4992	-0.255
Mof_H 	H 	0.8297	0.0093	0.4633	0.167
Mof_N 	N 	0.922	0.0706	0.4915	-0.177
Mof_C 	C 	0.672	0.791	0.5876	0.396
Mof_C 	C 	0.7186	0.8439	0.5661	-0.203
Mof_C 	C 	0.7026	0.886	0.5173	0.14
Mof_H 	H 	0.6605	0.8829	0.4978	-0.014
Mof_C 	C 	0.745	0.9325	0.4953	-0.234
Mof_H 	H 	0.7323	0.9607	0.4606	0.113
Mof_C 	C 	0.8078	0.9393	0.5238	0.218
Mof_C 	C 	0.8234	0.8963	0.5743	-0.241
Mof_H 	H 	0.8648	0.8997	0.5952	0.125
Mof_C 	C 	0.7811	0.8501	0.5939	0.143
Mof_H 	H 	0.7938	0.8206	0.6276	-0.003
Mof_C 	C 	0.9021	0.0165	0.5252	0.19
Mof_Gd	Gd	0.15252	0.84748	0.34748	1.3
Mof_Gd	Gd	0.34748	0.15252	0.84748	1.3
Mof_Gd	Gd	0.84748	0.34748	0.15252	1.3
Mof_Gd	Gd	0.65252	0.65252	0.65252	1.3
Mof_O 	O 	0.2355	0.6172	0.1788	-0.476
Mof_O 	O 	0.2099	0.532	0.1156	-0.331
Mof_N 	N 	0.0062	0.4916	0.3485	-0.257
Mof_H 	H 	0.9869	0.4548	0.3371	0.157
Mof_N 	N 	0.0104	0.573	0.4277	-0.178
Mof_C 	C 	0.2031	0.5655	0.1666	0.402
Mof_C 	C 	0.1525	0.5461	0.2151	-0.21
Mof_C 	C 	0.1466	0.5789	0.2734	0.143
Mof_H 	H 	0.1758	0.6139	0.2827	-0.006
Mof_C 	C 	0.0997	0.5627	0.3189	-0.233
Mof_H 	H 	0.0964	0.5868	0.3585	0.126
Mof_C 	C 	0.0572	0.5108	0.3066	0.214
Mof_C 	C 	0.0624	0.478	0.2468	-0.236
Mof_H 	H 	0.033	0.4434	0.2367	0.104
Mof_C 	C 	0.1097	0.4954	0.203	0.138
Mof_H 	H 	0.1132	0.472	0.163	-0.013
Mof_C 	C 	0.982	0.5191	0.4025	0.2
Mof_O 	O 	0.2645	0.3828	0.6788	-0.476
Mof_O 	O 	0.2901	0.468	0.6156	-0.331
Mof_N 	N 	0.4938	0.5084	0.8485	-0.257
Mof_H 	H 	0.5131	0.5452	0.8371	0.157
Mof_N 	N 	0.4896	0.427	0.9277	-0.178
Mof_C 	C 	0.2969	0.4345	0.6666	0.402
Mof_C 	C 	0.3475	0.4539	0.7151	-0.21
Mof_C 	C 	0.3534	0.4211	0.7734	0.143
Mof_H 	H 	0.3242	0.3861	0.7827	-0.006
Mof_C 	C 	0.4003	0.4373	0.8189	-0.233
Mof_H 	H 	0.4036	0.4132	0.8585	0.126
Mof_C 	C 	0.4428	0.4892	0.8066	0.214
Mof_C 	C 	0.4376	0.522	0.7468	-0.236
Mof_H 	H 	0.467	0.5566	0.7367	0.104
Mof_C 	C 	0.3903	0.5046	0.703	0.138
Mof_H 	H 	0.3868	0.528	0.663	-0.013
Mof_C 	C 	0.518	0.4809	0.9025	0.2
Mof_O 	O 	0.7645	0.1172	0.3212	-0.476
Mof_O 	O 	0.7901	0.032	0.3844	-0.331
Mof_N 	N 	0.9938	0.9916	0.1515	-0.258
Mof_H 	H 	0.0131	0.9548	0.1629	0.157
Mof_N 	N 	0.9896	0.073	0.0723	-0.179
Mof_C 	C 	0.7969	0.0655	0.3334	0.402
Mof_C 	C 	0.8475	0.0461	0.2849	-0.21
Mof_C 	C 	0.8534	0.0789	0.2266	0.143
Mof_H 	H 	0.8242	0.1139	0.2173	-0.006
Mof_C 	C 	0.9003	0.0627	0.1811	-0.233
Mof_H 	H 	0.9036	0.0868	0.1415	0.126
Mof_C 	C 	0.9428	0.0108	0.1934	0.214
Mof_C 	C 	0.9376	0.978	0.2532	-0.236
Mof_H 	H 	0.967	0.9434	0.2633	0.104
Mof_C 	C 	0.8903	0.9954	0.297	0.138
Mof_H 	H 	0.8868	0.972	0.337	-0.013
Mof_C 	C 	0.018	0.0191	0.0975	0.201
Mof_O 	O 	0.7355	0.8828	0.8212	-0.476
Mof_O 	O 	0.7099	0.968	0.8844	-0.331
Mof_N 	N 	0.5062	0.0084	0.6515	-0.257
Mof_H 	H 	0.4869	0.0452	0.6629	0.157
Mof_N 	N 	0.5104	0.927	0.5723	-0.178
Mof_C 	C 	0.7031	0.9345	0.8334	0.402
Mof_C 	C 	0.6525	0.9539	0.7849	-0.21
Mof_C 	C 	0.6466	0.9211	0.7266	0.143
Mof_H 	H 	0.6758	0.8861	0.7173	-0.006
Mof_C 	C 	0.5997	0.9373	0.6811	-0.233
Mof_H 	H 	0.5964	0.9132	0.6415	0.125
Mof_C 	C 	0.5572	0.9892	0.6934	0.213
Mof_C 	C 	0.5624	0.022	0.7532	-0.236
Mof_H 	H 	0.533	0.0566	0.7633	0.104
Mof_C 	C 	0.6097	0.0046	0.797	0.138
Mof_H 	H 	0.6132	0.028	0.837	-0.013
Mof_C 	C 	0.482	0.9809	0.5975	0.2
Mof_O 	O 	0.1788	0.2355	0.6172	-0.476
Mof_O 	O 	0.1156	0.2099	0.532	-0.331
Mof_N 	N 	0.3485	0.0062	0.4916	-0.257
Mof_H 	H 	0.3371	0.9869	0.4548	0.157
Mof_N 	N 	0.4277	0.0104	0.573	-0.178
Mof_C 	C 	0.1666	0.2031	0.5655	0.402
Mof_C 	C 	0.2151	0.1525	0.5461	-0.21
Mof_C 	C 	0.2734	0.1466	0.5789	0.143
Mof_H 	H 	0.2827	0.1758	0.6139	-0.006
Mof_C 	C 	0.3189	0.0997	0.5627	-0.233
Mof_H 	H 	0.3585	0.0964	0.5868	0.126
Mof_C 	C 	0.3066	0.0572	0.5108	0.214
Mof_C 	C 	0.2468	0.0624	0.478	-0.236
Mof_H 	H 	0.2367	0.033	0.4434	0.104
Mof_C 	C 	0.203	0.1097	0.4954	0.138
Mof_H 	H 	0.163	0.1132	0.472	-0.013
Mof_C 	C 	0.4025	0.982	0.5191	0.2
Mof_O 	O 	0.6788	0.2645	0.3828	-0.476
Mof_O 	O 	0.6156	0.2901	0.468	-0.331
Mof_N 	N 	0.8485	0.4938	0.5084	-0.257
Mof_H 	H 	0.8371	0.5131	0.5452	0.157
Mof_N 	N 	0.9277	0.4896	0.427	-0.178
Mof_C 	C 	0.6666	0.2969	0.4345	0.402
Mof_C 	C 	0.7151	0.3475	0.4539	-0.21
Mof_C 	C 	0.7734	0.3534	0.4211	0.143
Mof_H 	H 	0.7827	0.3242	0.3861	-0.006
Mof_C 	C 	0.8189	0.4003	0.4373	-0.233
Mof_H 	H 	0.8585	0.4036	0.4132	0.126
Mof_C 	C 	0.8066	0.4428	0.4892	0.214
Mof_C 	C 	0.7468	0.4376	0.522	-0.236
Mof_H 	H 	0.7367	0.467	0.5566	0.104
Mof_C 	C 	0.703	0.3903	0.5046	0.138
Mof_H 	H 	0.663	0.3868	0.528	-0.013
Mof_C 	C 	0.9025	0.518	0.4809	0.2
Mof_O 	O 	0.3212	0.7645	0.1172	-0.476
Mof_O 	O 	0.3844	0.7901	0.032	-0.331
Mof_N 	N 	0.1515	0.9938	0.9916	-0.258
Mof_H 	H 	0.1629	0.0131	0.9548	0.157
Mof_N 	N 	0.0723	0.9896	0.073	-0.179
Mof_C 	C 	0.3334	0.7969	0.0655	0.402
Mof_C 	C 	0.2849	0.8475	0.0461	-0.21
Mof_C 	C 	0.2266	0.8534	0.0789	0.143
Mof_H 	H 	0.2173	0.8242	0.1139	-0.006
Mof_C 	C 	0.1811	0.9003	0.0627	-0.233
Mof_H 	H 	0.1415	0.9036	0.0868	0.126
Mof_C 	C 	0.1934	0.9428	0.0108	0.214
Mof_C 	C 	0.2532	0.9376	0.978	-0.236
Mof_H 	H 	0.2633	0.967	0.9434	0.104
Mof_C 	C 	0.297	0.8903	0.9954	0.138
Mof_H 	H 	0.337	0.8868	0.972	-0.013
Mof_C 	C 	0.0975	0.018	0.0191	0.201
Mof_O 	O 	0.8212	0.7355	0.8828	-0.476
Mof_O 	O 	0.8844	0.7099	0.968	-0.331
Mof_N 	N 	0.6515	0.5062	0.0084	-0.257
Mof_H 	H 	0.6629	0.4869	0.0452	0.157
Mof_N 	N 	0.5723	0.5104	0.927	-0.178
Mof_C 	C 	0.8334	0.7031	0.9345	0.402
Mof_C 	C 	0.7849	0.6525	0.9539	-0.21
Mof_C 	C 	0.7266	0.6466	0.9211	0.143
Mof_H 	H 	0.7173	0.6758	0.8861	-0.006
Mof_C 	C 	0.6811	0.5997	0.9373	-0.233
Mof_H 	H 	0.6415	0.5964	0.9132	0.125
Mof_C 	C 	0.6934	0.5572	0.9892	0.213
Mof_C 	C 	0.7532	0.5624	0.022	-0.236
Mof_H 	H 	0.7633	0.533	0.0566	0.104
Mof_C 	C 	0.797	0.6097	0.0046	0.138
Mof_H 	H 	0.837	0.6132	0.028	-0.013
Mof_C 	C 	0.5975	0.482	0.9809	0.2
Mof_O 	O 	0.6172	0.1788	0.2355	-0.476
Mof_O 	O 	0.532	0.1156	0.2099	-0.331
Mof_N 	N 	0.4916	0.3485	0.0062	-0.257
Mof_H 	H 	0.4548	0.3371	0.9869	0.157
Mof_N 	N 	0.573	0.4277	0.0104	-0.178
Mof_C 	C 	0.5655	0.1666	0.2031	0.402
Mof_C 	C 	0.5461	0.2151	0.1525	-0.21
Mof_C 	C 	0.5789	0.2734	0.1466	0.143
Mof_H 	H 	0.6139	0.2827	0.1758	-0.006
Mof_C 	C 	0.5627	0.3189	0.0997	-0.233
Mof_H 	H 	0.5868	0.3585	0.0964	0.126
Mof_C 	C 	0.5108	0.3066	0.0572	0.214
Mof_C 	C 	0.478	0.2468	0.0624	-0.236
Mof_H 	H 	0.4434	0.2367	0.033	0.104
Mof_C 	C 	0.4954	0.203	0.1097	0.138
Mof_H 	H 	0.472	0.163	0.1132	-0.013
Mof_C 	C 	0.5191	0.4025	0.982	0.2
Mof_O 	O 	0.3828	0.6788	0.2645	-0.476
Mof_O 	O 	0.468	0.6156	0.2901	-0.331
Mof_N 	N 	0.5084	0.8485	0.4938	-0.257
Mof_H 	H 	0.5452	0.8371	0.5131	0.157
Mof_N 	N 	0.427	0.9277	0.4896	-0.178
Mof_C 	C 	0.4345	0.6666	0.2969	0.402
Mof_C 	C 	0.4539	0.7151	0.3475	-0.21
Mof_C 	C 	0.4211	0.7734	0.3534	0.143
Mof_H 	H 	0.3861	0.7827	0.3242	-0.006
Mof_C 	C 	0.4373	0.8189	0.4003	-0.233
Mof_H 	H 	0.4132	0.8585	0.4036	0.126
Mof_C 	C 	0.4892	0.8066	0.4428	0.214
Mof_C 	C 	0.522	0.7468	0.4376	-0.236
Mof_H 	H 	0.5566	0.7367	0.467	0.104
Mof_C 	C 	0.5046	0.703	0.3903	0.138
Mof_H 	H 	0.528	0.663	0.3868	-0.013
Mof_C 	C 	0.4809	0.9025	0.518	0.2
Mof_O 	O 	0.1172	0.3212	0.7645	-0.476
Mof_O 	O 	0.032	0.3844	0.7901	-0.331
Mof_N 	N 	0.9916	0.1515	0.9938	-0.258
Mof_H 	H 	0.9548	0.1629	0.0131	0.157
Mof_N 	N 	0.073	0.0723	0.9896	-0.179
Mof_C 	C 	0.0655	0.3334	0.7969	0.402
Mof_C 	C 	0.0461	0.2849	0.8475	-0.21
Mof_C 	C 	0.0789	0.2266	0.8534	0.143
Mof_H 	H 	0.1139	0.2173	0.8242	-0.006
Mof_C 	C 	0.0627	0.1811	0.9003	-0.233
Mof_H 	H 	0.0868	0.1415	0.9036	0.126
Mof_C 	C 	0.0108	0.1934	0.9428	0.214
Mof_C 	C 	0.978	0.2532	0.9376	-0.236
Mof_H 	H 	0.9434	0.2633	0.967	0.104
Mof_C 	C 	0.9954	0.297	0.8903	0.138
Mof_H 	H 	0.972	0.337	0.8868	-0.013
Mof_C 	C 	0.0191	0.0975	0.018	0.201
Mof_O 	O 	0.8828	0.8212	0.7355	-0.476
Mof_O 	O 	0.968	0.8844	0.7099	-0.331
Mof_N 	N 	0.0084	0.6515	0.5062	-0.257
Mof_H 	H 	0.0452	0.6629	0.4869	0.157
Mof_N 	N 	0.927	0.5723	0.5104	-0.178
Mof_C 	C 	0.9345	0.8334	0.7031	0.402
Mof_C 	C 	0.9539	0.7849	0.6525	-0.21
Mof_C 	C 	0.9211	0.7266	0.6466	0.143
Mof_H 	H 	0.8861	0.7173	0.6758	-0.006
Mof_C 	C 	0.9373	0.6811	0.5997	-0.233
Mof_H 	H 	0.9132	0.6415	0.5964	0.125
Mof_C 	C 	0.9892	0.6934	0.5572	0.213
Mof_C 	C 	0.022	0.7532	0.5624	-0.236
Mof_H 	H 	0.0566	0.7633	0.533	0.104
Mof_C 	C 	0.0046	0.797	0.6097	0.138
Mof_H 	H 	0.028	0.837	0.6132	-0.013
Mof_C 	C 	0.9809	0.5975	0.482	0.2
Mof_Gd	Gd	0.33384	0.66616	0.16616	1.354
Mof_Gd	Gd	0.16616	0.33384	0.66616	1.354
Mof_Gd	Gd	0.66616	0.16616	0.33384	1.354
Mof_Gd	Gd	0.83384	0.83384	0.83384	1.354
_end
