# CIF file generated by openbabel 3.1.0, see https://openbabel.org
data_I
_chemical_name_common 'image0'
_cell_length_a 19.469
_cell_length_b 18.077
_cell_length_c 13.265
_cell_angle_alpha 90
_cell_angle_beta 131.213
_cell_angle_gamma 90
_space_group_name_H-M_alt 'P 1'
_space_group_name_Hall 'P 1'
loop_
    _symmetry_equiv_pos_as_xyz
    x,y,z
loop_
    _atom_site_label
    _atom_site_type_symbol
    _atom_site_fract_x
    _atom_site_fract_y
    _atom_site_fract_z
    _atom_site_occupancy
    O1       O        0.87631    0.96414    0.43340    1.000
    O2       O        0.84670    0.04370    0.52800    1.000
    O3       O        0.68680    0.05550    0.44210    1.000
    H1       H        0.74220    0.06140    0.49170    1.000
    N1       N        0.06660    0.91631    0.64330    1.000
    C1       C        0.82330    0.99460    0.44210    1.000
    C2       C        0.69560    0.92380    0.24480    1.000
    H2       H        0.73830    0.90190    0.24390    1.000
    C3       C        0.72350    0.97310    0.34110    1.000
    C4       C        0.65930    0.00650    0.34410    1.000
    C5       C        0.56680    0.98920    0.24880    1.000
    C6       C        0.53740    0.93950    0.14660    1.000
    C7       C        0.60240    0.90470    0.14500    1.000
    C8       C        0.57220    0.85620    0.04220    1.000
    H3       H        0.61460    0.83420    0.04040    1.000
    C9       C        0.48120    0.83990    0.94270    1.000
    H4       H        0.46230    0.80640    0.87550    1.000
    C10      C        0.41780    0.87370    0.94370    1.000
    H5       H        0.35610    0.86260    0.87660    1.000
    C11      C        0.44400    0.92250    0.04030    1.000
    H6       H        0.39990    0.94540    0.03710    1.000
    H7       H        0.53540    0.06350    0.32810    1.000
    C12      C        0.02970    0.84900    0.62100    1.000
    H8       H        0.97320    0.83900    0.53750    1.000
    C13      C        0.07240    0.79450    0.71670    1.000
    H9       H        0.04500    0.74830    0.69630    1.000
    C14      C        0.15550    0.80740    0.84260    1.000
    C15      C        0.19300    0.87650    0.86420    1.000
    H10      H        0.24950    0.88780    0.94700    1.000
    C16      C        0.14760    0.92890    0.76420    1.000
    H11      H        0.17450    0.97510    0.78170    1.000
    C17      C        0.20150    0.74840    0.94810    1.000
    H12      H        0.18600    0.70100    0.90360    1.000
    H13      H        0.17540    0.74950    0.99000    1.000
    O4       O        0.37631    0.46414    0.43340    1.000
    O5       O        0.34670    0.54370    0.52800    1.000
    O6       O        0.18680    0.55550    0.44210    1.000
    H14      H        0.24220    0.56140    0.49170    1.000
    N2       N        0.56660    0.41631    0.64330    1.000
    C18      C        0.32330    0.49460    0.44210    1.000
    C19      C        0.19560    0.42380    0.24480    1.000
    H15      H        0.23830    0.40190    0.24390    1.000
    C20      C        0.22350    0.47310    0.34110    1.000
    C21      C        0.15930    0.50650    0.34410    1.000
    C22      C        0.06680    0.48920    0.24880    1.000
    C23      C        0.03740    0.43950    0.14660    1.000
    C24      C        0.10240    0.40470    0.14500    1.000
    C25      C        0.07220    0.35620    0.04220    1.000
    H16      H        0.11460    0.33420    0.04040    1.000
    C26      C        0.98120    0.33990    0.94270    1.000
    H17      H        0.96230    0.30640    0.87550    1.000
    C27      C        0.91780    0.37370    0.94370    1.000
    H18      H        0.85610    0.36260    0.87660    1.000
    C28      C        0.94400    0.42250    0.04030    1.000
    H19      H        0.89990    0.44540    0.03710    1.000
    H20      H        0.03540    0.56350    0.32810    1.000
    C29      C        0.52970    0.34900    0.62100    1.000
    H21      H        0.47320    0.33900    0.53750    1.000
    C30      C        0.57240    0.29450    0.71670    1.000
    H22      H        0.54500    0.24830    0.69630    1.000
    C31      C        0.65550    0.30740    0.84260    1.000
    C32      C        0.69300    0.37650    0.86420    1.000
    H23      H        0.74950    0.38780    0.94700    1.000
    C33      C        0.64760    0.42890    0.76420    1.000
    H24      H        0.67450    0.47510    0.78170    1.000
    C34      C        0.70150    0.24840    0.94810    1.000
    H25      H        0.68600    0.20100    0.90360    1.000
    H26      H        0.67540    0.24950    0.99000    1.000
    O7       O        0.12369    0.96414    0.06660    1.000
    O8       O        0.15330    0.04370    0.97200    1.000
    O9       O        0.31320    0.05550    0.05790    1.000
    H27      H        0.25780    0.06140    0.00830    1.000
    N3       N        0.93340    0.91631    0.85670    1.000
    C35      C        0.17670    0.99460    0.05790    1.000
    C36      C        0.30440    0.92380    0.25520    1.000
    H28      H        0.26170    0.90190    0.25610    1.000
    C37      C        0.27650    0.97310    0.15890    1.000
    C38      C        0.34070    0.00650    0.15590    1.000
    C39      C        0.43320    0.98920    0.25120    1.000
    C40      C        0.46260    0.93950    0.35340    1.000
    C41      C        0.39760    0.90470    0.35500    1.000
    C42      C        0.42780    0.85620    0.45780    1.000
    H29      H        0.38540    0.83420    0.45960    1.000
    C43      C        0.51880    0.83990    0.55730    1.000
    H30      H        0.53770    0.80640    0.62450    1.000
    C44      C        0.58220    0.87370    0.55630    1.000
    H31      H        0.64390    0.86260    0.62340    1.000
    C45      C        0.55600    0.92250    0.45970    1.000
    H32      H        0.60010    0.94540    0.46290    1.000
    H33      H        0.46460    0.06350    0.17190    1.000
    C46      C        0.97030    0.84900    0.87900    1.000
    H34      H        0.02680    0.83900    0.96250    1.000
    C47      C        0.92760    0.79450    0.78330    1.000
    H35      H        0.95500    0.74830    0.80370    1.000
    C48      C        0.84450    0.80740    0.65740    1.000
    C49      C        0.80700    0.87650    0.63580    1.000
    H36      H        0.75050    0.88780    0.55300    1.000
    C50      C        0.85240    0.92890    0.73580    1.000
    H37      H        0.82550    0.97510    0.71830    1.000
    C51      C        0.79850    0.74840    0.55190    1.000
    H38      H        0.81400    0.70100    0.59640    1.000
    H39      H        0.82460    0.74950    0.51000    1.000
    O10      O        0.62369    0.46414    0.06660    1.000
    O11      O        0.65330    0.54370    0.97200    1.000
    O12      O        0.81320    0.55550    0.05790    1.000
    H40      H        0.75780    0.56140    0.00830    1.000
    N4       N        0.43340    0.41631    0.85670    1.000
    C52      C        0.67670    0.49460    0.05790    1.000
    C53      C        0.80440    0.42380    0.25520    1.000
    H41      H        0.76170    0.40190    0.25610    1.000
    C54      C        0.77650    0.47310    0.15890    1.000
    C55      C        0.84070    0.50650    0.15590    1.000
    C56      C        0.93320    0.48920    0.25120    1.000
    C57      C        0.96260    0.43950    0.35340    1.000
    C58      C        0.89760    0.40470    0.35500    1.000
    C59      C        0.92780    0.35620    0.45780    1.000
    H42      H        0.88540    0.33420    0.45960    1.000
    C60      C        0.01880    0.33990    0.55730    1.000
    H43      H        0.03770    0.30640    0.62450    1.000
    C61      C        0.08220    0.37370    0.55630    1.000
    H44      H        0.14390    0.36260    0.62340    1.000
    C62      C        0.05600    0.42250    0.45970    1.000
    H45      H        0.10010    0.44540    0.46290    1.000
    H46      H        0.96460    0.56350    0.17190    1.000
    C63      C        0.47030    0.34900    0.87900    1.000
    H47      H        0.52680    0.33900    0.96250    1.000
    C64      C        0.42760    0.29450    0.78330    1.000
    H48      H        0.45500    0.24830    0.80370    1.000
    C65      C        0.34450    0.30740    0.65740    1.000
    C66      C        0.30700    0.37650    0.63580    1.000
    H49      H        0.25050    0.38780    0.55300    1.000
    C67      C        0.35240    0.42890    0.73580    1.000
    H50      H        0.32550    0.47510    0.71830    1.000
    C68      C        0.29850    0.24840    0.55190    1.000
    H51      H        0.31400    0.20100    0.59640    1.000
    H52      H        0.32460    0.24950    0.51000    1.000
    O13      O        0.12369    0.03586    0.56660    1.000
    O14      O        0.15330    0.95630    0.47200    1.000
    O15      O        0.31320    0.94450    0.55790    1.000
    H53      H        0.25780    0.93860    0.50830    1.000
    N5       N        0.93340    0.08369    0.35670    1.000
    C69      C        0.17670    0.00540    0.55790    1.000
    C70      C        0.30440    0.07620    0.75520    1.000
    H54      H        0.26170    0.09810    0.75610    1.000
    C71      C        0.27650    0.02690    0.65890    1.000
    C72      C        0.34070    0.99350    0.65590    1.000
    C73      C        0.43320    0.01080    0.75120    1.000
    C74      C        0.46260    0.06050    0.85340    1.000
    C75      C        0.39760    0.09530    0.85500    1.000
    C76      C        0.42780    0.14380    0.95780    1.000
    H55      H        0.38540    0.16580    0.95960    1.000
    C77      C        0.51880    0.16010    0.05730    1.000
    H56      H        0.53770    0.19360    0.12450    1.000
    C78      C        0.58220    0.12630    0.05630    1.000
    H57      H        0.64390    0.13740    0.12340    1.000
    C79      C        0.55600    0.07750    0.95970    1.000
    H58      H        0.60010    0.05460    0.96290    1.000
    H59      H        0.46460    0.93650    0.67190    1.000
    C80      C        0.97030    0.15100    0.37900    1.000
    H60      H        0.02680    0.16100    0.46250    1.000
    C81      C        0.92760    0.20550    0.28330    1.000
    H61      H        0.95500    0.25170    0.30370    1.000
    C82      C        0.84450    0.19260    0.15740    1.000
    C83      C        0.80700    0.12350    0.13580    1.000
    H62      H        0.75050    0.11220    0.05300    1.000
    C84      C        0.85240    0.07110    0.23580    1.000
    H63      H        0.82550    0.02490    0.21830    1.000
    C85      C        0.79850    0.25160    0.05190    1.000
    H64      H        0.81400    0.29900    0.09640    1.000
    H65      H        0.82460    0.25050    0.01000    1.000
    O16      O        0.62369    0.53586    0.56660    1.000
    O17      O        0.65330    0.45630    0.47200    1.000
    O18      O        0.81320    0.44450    0.55790    1.000
    H66      H        0.75780    0.43860    0.50830    1.000
    N6       N        0.43340    0.58369    0.35670    1.000
    C86      C        0.67670    0.50540    0.55790    1.000
    C87      C        0.80440    0.57620    0.75520    1.000
    H67      H        0.76170    0.59810    0.75610    1.000
    C88      C        0.77650    0.52690    0.65890    1.000
    C89      C        0.84070    0.49350    0.65590    1.000
    C90      C        0.93320    0.51080    0.75120    1.000
    C91      C        0.96260    0.56050    0.85340    1.000
    C92      C        0.89760    0.59530    0.85500    1.000
    C93      C        0.92780    0.64380    0.95780    1.000
    H68      H        0.88540    0.66580    0.95960    1.000
    C94      C        0.01880    0.66010    0.05730    1.000
    H69      H        0.03770    0.69360    0.12450    1.000
    C95      C        0.08220    0.62630    0.05630    1.000
    H70      H        0.14390    0.63740    0.12340    1.000
    C96      C        0.05600    0.57750    0.95970    1.000
    H71      H        0.10010    0.55460    0.96290    1.000
    H72      H        0.96460    0.43650    0.67190    1.000
    C97      C        0.47030    0.65100    0.37900    1.000
    H73      H        0.52680    0.66100    0.46250    1.000
    C98      C        0.42760    0.70550    0.28330    1.000
    H74      H        0.45500    0.75170    0.30370    1.000
    C99      C        0.34450    0.69260    0.15740    1.000
    C100     C        0.30700    0.62350    0.13580    1.000
    H75      H        0.25050    0.61220    0.05300    1.000
    C101     C        0.35240    0.57110    0.23580    1.000
    H76      H        0.32550    0.52490    0.21830    1.000
    C102     C        0.29850    0.75160    0.05190    1.000
    H77      H        0.31400    0.79900    0.09640    1.000
    H78      H        0.32460    0.75050    0.01000    1.000
    O19      O        0.87631    0.03586    0.93340    1.000
    O20      O        0.84670    0.95630    0.02800    1.000
    O21      O        0.68680    0.94450    0.94210    1.000
    H79      H        0.74220    0.93860    0.99170    1.000
    N7       N        0.06660    0.08369    0.14330    1.000
    C103     C        0.82330    0.00540    0.94210    1.000
    C104     C        0.69560    0.07620    0.74480    1.000
    H80      H        0.73830    0.09810    0.74390    1.000
    C105     C        0.72350    0.02690    0.84110    1.000
    C106     C        0.65930    0.99350    0.84410    1.000
    C107     C        0.56680    0.01080    0.74880    1.000
    C108     C        0.53740    0.06050    0.64660    1.000
    C109     C        0.60240    0.09530    0.64500    1.000
    C110     C        0.57220    0.14380    0.54220    1.000
    H81      H        0.61460    0.16580    0.54040    1.000
    C111     C        0.48120    0.16010    0.44270    1.000
    H82      H        0.46230    0.19360    0.37550    1.000
    C112     C        0.41780    0.12630    0.44370    1.000
    H83      H        0.35610    0.13740    0.37660    1.000
    C113     C        0.44400    0.07750    0.54030    1.000
    H84      H        0.39990    0.05460    0.53710    1.000
    H85      H        0.53540    0.93650    0.82810    1.000
    C114     C        0.02970    0.15100    0.12100    1.000
    H86      H        0.97320    0.16100    0.03750    1.000
    C115     C        0.07240    0.20550    0.21670    1.000
    H87      H        0.04500    0.25170    0.19630    1.000
    C116     C        0.15550    0.19260    0.34260    1.000
    C117     C        0.19300    0.12350    0.36420    1.000
    H88      H        0.24950    0.11220    0.44700    1.000
    C118     C        0.14760    0.07110    0.26420    1.000
    H89      H        0.17450    0.02490    0.28170    1.000
    C119     C        0.20150    0.25160    0.44810    1.000
    H90      H        0.18600    0.29900    0.40360    1.000
    H91      H        0.17540    0.25050    0.49000    1.000
    O22      O        0.37631    0.53586    0.93340    1.000
    O23      O        0.34670    0.45630    0.02800    1.000
    O24      O        0.18680    0.44450    0.94210    1.000
    H92      H        0.24220    0.43860    0.99170    1.000
    N8       N        0.56660    0.58369    0.14330    1.000
    C120     C        0.32330    0.50540    0.94210    1.000
    C121     C        0.19560    0.57620    0.74480    1.000
    H93      H        0.23830    0.59810    0.74390    1.000
    C122     C        0.22350    0.52690    0.84110    1.000
    C123     C        0.15930    0.49350    0.84410    1.000
    C124     C        0.06680    0.51080    0.74880    1.000
    C125     C        0.03740    0.56050    0.64660    1.000
    C126     C        0.10240    0.59530    0.64500    1.000
    C127     C        0.07220    0.64380    0.54220    1.000
    H94      H        0.11460    0.66580    0.54040    1.000
    C128     C        0.98120    0.66010    0.44270    1.000
    H95      H        0.96230    0.69360    0.37550    1.000
    C129     C        0.91780    0.62630    0.44370    1.000
    H96      H        0.85610    0.63740    0.37660    1.000
    C130     C        0.94400    0.57750    0.54030    1.000
    H97      H        0.89990    0.55460    0.53710    1.000
    H98      H        0.03540    0.43650    0.82810    1.000
    C131     C        0.52970    0.65100    0.12100    1.000
    H99      H        0.47320    0.66100    0.03750    1.000
    C132     C        0.57240    0.70550    0.21670    1.000
    H100     H        0.54500    0.75170    0.19630    1.000
    C133     C        0.65550    0.69260    0.34260    1.000
    C134     C        0.69300    0.62350    0.36420    1.000
    H101     H        0.74950    0.61220    0.44700    1.000
    C135     C        0.64760    0.57110    0.26420    1.000
    H102     H        0.67450    0.52490    0.28170    1.000
    C136     C        0.70150    0.75160    0.44810    1.000
    H103     H        0.68600    0.79900    0.40360    1.000
    H104     H        0.67540    0.75050    0.49000    1.000
    Ni1      Ni       0.00000    0.00000    0.50000    1.000
    Ni2      Ni       0.50000    0.50000    0.50000    1.000
    Ni3      Ni       0.00000    0.00000    0.00000    1.000
    Ni4      Ni       0.50000    0.50000    0.00000    1.000
    C137     C        0.50000    0.03160    0.25000    1.000
    C138     C        0.00000    0.53160    0.25000    1.000
    C139     C        0.50000    0.96840    0.75000    1.000
    C140     C        0.00000    0.46840    0.75000    1.000
