data_functionalizedCrystal
_audit_creation_method	'EQeq! by Chris Wilmer'
_symmetry_space_group_name_H-M	'P1'
_symmetry_Int_Tables_number	1
_symmetry_cell_setting	triclinic
loop_
_symmetry_equiv_pos_as_xyz
  x,y,z
_cell_length_a	15.916
_cell_length_b	15.74
_cell_length_c	5.471
_cell_angle_alpha	90
_cell_angle_beta	90
_cell_angle_gamma	90
loop_
_atom_site_label
_atom_site_type_symbol
_atom_site_fract_x
_atom_site_fract_y
_atom_site_fract_z
_atom_site_charge
Mof_N 	N 	0.2562	0.113	0.8789	-0.207
Mof_N 	N 	0.1368	0.0059	0.3667	-0.19
Mof_C 	C 	0.2496	0.1512	0.058	0.048
Mof_C 	C 	0.2454	0.2021	0.279	-0.039
Mof_H 	H 	0.2932	0.1888	0.3824	0.051
Mof_H 	H 	0.1947	0.1878	0.3685	-0.023
Mof_C 	C 	0.253	0.1798	0.968	0.047
Mof_C 	C 	0.2511	0.2575	0.113	-0.082
Mof_H 	H 	0.2011	0.2893	0.0694	0.086
Mof_H 	H 	0.2994	0.2921	0.0707	-0.004
Mof_C 	C 	0.0986	0.999	0.188	1.041
Mof_C 	C 	0.0464	0.9874	0.973	-0.617
Mof_H 	H 	0.0487	0.9285	0.9214	-0.017
Mof_H 	H 	0.0678	0.0222	0.8402	0.285
Mof_C 	C 	0.0722	0.011	0.271	-0.944
Mof_C 	C 	0.9946	0.012	0.133	0.383
Mof_H 	H 	0.9702	0.0684	0.1419	-0.257
Mof_H 	H 	0.9554	0.9728	0.2082	0.031
Mof_N 	N 	0.2438	0.887	0.8789	-0.243
Mof_N 	N 	0.3632	0.9941	0.3667	-0.262
Mof_C 	C 	0.2504	0.8488	0.058	0.108
Mof_C 	C 	0.2546	0.7979	0.279	-0.089
Mof_H 	H 	0.2068	0.8112	0.3824	0.021
Mof_H 	H 	0.3053	0.8122	0.3685	-0.023
Mof_C 	C 	0.247	0.8202	0.968	-0.042
Mof_C 	C 	0.2489	0.7425	0.113	-0.048
Mof_H 	H 	0.2989	0.7107	0.0694	0.057
Mof_H 	H 	0.2006	0.7079	0.0707	0.016
Mof_C 	C 	0.4014	0.001	0.188	-0.676
Mof_C 	C 	0.4536	0.0126	0.973	0.46
Mof_H 	H 	0.4513	0.0715	0.9214	0.08
Mof_H 	H 	0.4322	0.9778	0.8402	-0.365
Mof_C 	C 	0.4278	0.989	0.271	0.781
Mof_C 	C 	0.5054	0.988	0.133	-0.491
Mof_H 	H 	0.5298	0.9316	0.1419	0.264
Mof_H 	H 	0.5446	0.0272	0.2082	-0.043
Mof_N 	N 	0.2438	0.613	0.6211	-0.206
Mof_N 	N 	0.3632	0.5059	0.1333	-0.204
Mof_C 	C 	0.2504	0.6512	0.442	0.027
Mof_C 	C 	0.2546	0.7021	0.221	-0.047
Mof_H 	H 	0.2068	0.6888	0.1176	0.02
Mof_H 	H 	0.3053	0.6878	0.1315	-0.019
Mof_C 	C 	0.247	0.6798	0.532	0.041
Mof_C 	C 	0.2489	0.7575	0.387	-0.057
Mof_H 	H 	0.2989	0.7893	0.4306	0.063
Mof_H 	H 	0.2006	0.7921	0.4293	0.011
Mof_C 	C 	0.4014	0.499	0.312	0.016
Mof_C 	C 	0.4536	0.4874	0.527	-0.071
Mof_H 	H 	0.4513	0.4285	0.5786	0.033
Mof_H 	H 	0.4322	0.5222	0.6598	0.015
Mof_C 	C 	0.4278	0.511	0.229	0.059
Mof_C 	C 	0.5054	0.512	0.367	-0.044
Mof_H 	H 	0.5298	0.5684	0.3581	0.009
Mof_H 	H 	0.5446	0.4728	0.2918	0.029
Mof_N 	N 	0.2562	0.387	0.6211	-0.206
Mof_N 	N 	0.1368	0.4941	0.1333	-0.212
Mof_C 	C 	0.2496	0.3488	0.442	0.104
Mof_C 	C 	0.2454	0.2979	0.221	-0.065
Mof_H 	H 	0.2932	0.3112	0.1176	0.058
Mof_H 	H 	0.1947	0.3122	0.1315	-0.024
Mof_C 	C 	0.253	0.3202	0.532	-0.016
Mof_C 	C 	0.2511	0.2425	0.387	-0.065
Mof_H 	H 	0.2011	0.2107	0.4306	0.077
Mof_H 	H 	0.2994	0.2079	0.4293	-0.002
Mof_C 	C 	0.0986	0.501	0.312	0.349
Mof_C 	C 	0.0464	0.5126	0.527	-0.084
Mof_H 	H 	0.0487	0.5715	0.5786	0.032
Mof_H 	H 	0.0678	0.4778	0.6598	-0.062
Mof_C 	C 	0.0722	0.489	0.229	-0.218
Mof_C 	C 	0.9946	0.488	0.367	-0.065
Mof_H 	H 	0.9702	0.4316	0.3581	0.003
Mof_H 	H 	0.9554	0.5272	0.2918	-0.061
Mof_N 	N 	0.7438	0.887	0.1211	-0.239
Mof_N 	N 	0.8632	0.9941	0.6333	-0.253
Mof_C 	C 	0.7504	0.8488	0.942	0.124
Mof_C 	C 	0.7546	0.7979	0.721	-0.079
Mof_H 	H 	0.7068	0.8112	0.6176	0.052
Mof_H 	H 	0.8053	0.8122	0.6315	-0.053
Mof_C 	C 	0.747	0.8202	0.032	-0.06
Mof_C 	C 	0.7489	0.7425	0.887	-0.06
Mof_H 	H 	0.7989	0.7107	0.9306	0.072
Mof_H 	H 	0.7006	0.7079	0.9293	-0.011
Mof_C 	C 	0.9014	0.001	0.812	-1
Mof_C 	C 	0.9536	0.0126	0.027	0.47
Mof_H 	H 	0.9513	0.0715	0.0786	0.085
Mof_H 	H 	0.9322	0.9778	0.1598	-0.286
Mof_C 	C 	0.9278	0.989	0.729	1.05
Mof_C 	C 	0.0054	0.988	0.867	-0.47
Mof_H 	H 	0.0298	0.9316	0.8581	0.274
Mof_H 	H 	0.0446	0.0272	0.7918	0.04
Mof_N 	N 	0.7562	0.113	0.1211	-0.202
Mof_N 	N 	0.6368	0.0059	0.6333	-0.181
Mof_C 	C 	0.7496	0.1512	0.942	0.064
Mof_C 	C 	0.7454	0.2021	0.721	-0.029
Mof_H 	H 	0.7932	0.1888	0.6176	0.082
Mof_H 	H 	0.6947	0.1878	0.6315	-0.053
Mof_C 	C 	0.753	0.1798	0.032	0.029
Mof_C 	C 	0.7511	0.2575	0.887	-0.093
Mof_H 	H 	0.7011	0.2893	0.9306	0.101
Mof_H 	H 	0.7994	0.2921	0.9293	-0.032
Mof_C 	C 	0.5986	0.999	0.812	0.726
Mof_C 	C 	0.5464	0.9874	0.027	-0.608
Mof_H 	H 	0.5487	0.9285	0.0786	-0.015
Mof_H 	H 	0.5678	0.0222	0.1598	0.361
Mof_C 	C 	0.5722	0.011	0.729	-0.684
Mof_C 	C 	0.4946	0.012	0.867	0.405
Mof_H 	H 	0.4702	0.0684	0.8581	-0.244
Mof_H 	H 	0.4554	0.9728	0.7918	0.118
Mof_N 	N 	0.7562	0.387	0.3789	-0.203
Mof_N 	N 	0.6368	0.4941	0.8667	-0.203
Mof_C 	C 	0.7496	0.3488	0.558	0.103
Mof_C 	C 	0.7454	0.2979	0.779	-0.049
Mof_H 	H 	0.7932	0.3112	0.8824	0.084
Mof_H 	H 	0.6947	0.3122	0.8685	-0.05
Mof_C 	C 	0.753	0.3202	0.468	-0.015
Mof_C 	C 	0.7511	0.2425	0.613	-0.087
Mof_H 	H 	0.7011	0.2107	0.5694	0.1
Mof_H 	H 	0.7994	0.2079	0.5707	-0.031
Mof_C 	C 	0.5986	0.501	0.688	0.01
Mof_C 	C 	0.5464	0.5126	0.473	-0.068
Mof_H 	H 	0.5487	0.5715	0.4214	0.034
Mof_H 	H 	0.5678	0.4778	0.3402	0.012
Mof_C 	C 	0.5722	0.489	0.771	0.066
Mof_C 	C 	0.4946	0.488	0.633	-0.049
Mof_H 	H 	0.4702	0.4316	0.6419	0.016
Mof_H 	H 	0.4554	0.5272	0.7082	0.025
Mof_N 	N 	0.7438	0.613	0.3789	-0.203
Mof_N 	N 	0.8632	0.5059	0.8667	-0.196
Mof_C 	C 	0.7504	0.6512	0.558	0.025
Mof_C 	C 	0.7546	0.7021	0.779	-0.031
Mof_H 	H 	0.7068	0.6888	0.8824	0.046
Mof_H 	H 	0.8053	0.6878	0.8685	-0.045
Mof_C 	C 	0.747	0.6798	0.468	0.043
Mof_C 	C 	0.7489	0.7575	0.613	-0.079
Mof_H 	H 	0.7989	0.7893	0.5694	0.087
Mof_H 	H 	0.7006	0.7921	0.5707	-0.017
Mof_C 	C 	0.9014	0.499	0.688	-0.321
Mof_C 	C 	0.9536	0.4874	0.473	-0.055
Mof_H 	H 	0.9513	0.4285	0.4214	0.035
Mof_H 	H 	0.9322	0.5222	0.3402	0.089
Mof_C 	C 	0.9278	0.511	0.771	0.341
Mof_C 	C 	0.0054	0.512	0.633	-0.029
Mof_H 	H 	0.0298	0.5684	0.6419	0.022
Mof_H 	H 	0.0446	0.4728	0.7082	0.115
Mof_Ag	Ag	0.25	0	0.62102	0.754
Mof_Ag	Ag	0.25	0.5	0.87898	0.628
Mof_Ag	Ag	0.75	-1.15113e-33	0.37898	0.751
Mof_Ag	Ag	0.75	0.5	0.12102	0.629
_end
