# CIF file generated by openbabel 3.1.0, see https://openbabel.org
data_I
_chemical_name_common 'image0'
_cell_length_a 15.3827
_cell_length_b 20.9671
_cell_length_c 19.23
_cell_angle_alpha 90
_cell_angle_beta 109.487
_cell_angle_gamma 90
_space_group_name_H-M_alt 'P 1'
_space_group_name_Hall 'P 1'
loop_
    _symmetry_equiv_pos_as_xyz
    x,y,z
loop_
    _atom_site_label
    _atom_site_type_symbol
    _atom_site_fract_x
    _atom_site_fract_y
    _atom_site_fract_z
    _atom_site_occupancy
    Zn1      Zn       0.78537    0.74659    0.06359    1.000
    Zn2      Zn       0.70245    0.75435    0.90116    1.000
    O1       O        0.69520    0.67137    0.04360    1.000
    O2       O        0.61180    0.69512    0.92680    1.000
    O3       O        0.87130    0.68670    0.03530    1.000
    O4       O        0.78610    0.67580    0.91590    1.000
    O5       O        0.84790    0.82120    0.02940    1.000
    O6       O        0.80630    0.81520    0.90610    1.000
    O7       O        0.68410    0.80820    0.06070    1.000
    O8       O        0.64290    0.82823    0.93900    1.000
    N1       N        0.85360    0.74570    0.17370    1.000
    N2       N        0.63450    0.74650    0.29000    1.000
    C1       C        0.83940    0.78950    0.21870    1.000
    H1       H        0.79500    0.82060    0.19880    1.000
    C2       C        0.91660    0.70160    0.20450    1.000
    H2       H        0.92710    0.67000    0.17430    1.000
    C3       C        0.88720    0.79120    0.29350    1.000
    H3       H        0.87320    0.82190    0.32300    1.000
    C4       C        0.96760    0.69980    0.27900    1.000
    H4       H        0.00940    0.66690    0.29810    1.000
    C5       C        0.95590    0.74700    0.32440    1.000
    C6       C        0.00970    0.74900    0.40160    1.000
    C7       C        0.05560    0.75020    0.46480    1.000
    C8       C        0.12060    0.74140    0.54000    1.000
    C9       C        0.07740    0.75430    0.59110    1.000
    C10      C        0.21600    0.73330    0.56280    1.000
    C11      C        0.13170    0.75410    0.66780    1.000
    C12      C        0.26740    0.73580    0.63670    1.000
    C13      C        0.22840    0.74530    0.69040    1.000
    C14      C        0.28100    0.74640    0.77010    1.000
    C15      C        0.24810    0.71940    0.82170    1.000
    C16      C        0.35700    0.76400    0.79590    1.000
    C17      C        0.29980    0.72070    0.89630    1.000
    C18      C        0.40900    0.76070    0.86930    1.000
    C19      C        0.09960    0.76010    0.54470    1.000
    C20      C        0.06700    0.72600    0.59490    1.000
    C21      C        0.17060    0.79840    0.57080    1.000
    C22      C        0.11800    0.72530    0.66870    1.000
    C23      C        0.22380    0.79920    0.64720    1.000
    C24      C        0.20230    0.76060    0.69460    1.000
    C25      C        0.25850    0.76050    0.77550    1.000
    C26      C        0.21860    0.75090    0.82870    1.000
    C27      C        0.37000    0.77870    0.79310    1.000
    C28      C        0.27380    0.74810    0.90460    1.000
    C29      C        0.42230    0.77970    0.86820    1.000
    C30      C        0.37860    0.75200    0.92250    1.000
    C31      C        0.43320    0.75060    0.99930    1.000
    C32      C        0.48050    0.74950    0.06310    1.000
    C33      C        0.53410    0.74840    0.13980    1.000
    C34      C        0.60490    0.70620    0.16890    1.000
    H5       H        0.62070    0.67720    0.13850    1.000
    C35      C        0.51880    0.79260    0.18770    1.000
    H6       H        0.47470    0.82430    0.16990    1.000
    C36      C        0.56840    0.78980    0.26160    1.000
    H7       H        0.55560    0.81920    0.29300    1.000
    C37      C        0.65230    0.70690    0.24330    1.000
    H8       H        0.70000    0.67770    0.26190    1.000
    C38      C        0.62910    0.66250    0.98370    1.000
    C39      C        0.56880    0.60470    0.98060    1.000
    C40      C        0.49050    0.59560    0.91770    1.000
    H9       H        0.47430    0.62610    0.88050    1.000
    C41      C        0.59140    0.56150    0.03700    1.000
    H10      H        0.64180    0.56940    0.07900    1.000
    C42      C        0.43780    0.54110    0.91130    1.000
    H11      H        0.38670    0.53480    0.86940    1.000
    C43      C        0.53910    0.50470    0.03240    1.000
    C44      C        0.84840    0.65860    0.97440    1.000
    C45      C        0.89770    0.59680    0.97090    1.000
    C46      C        0.86720    0.55770    0.90800    1.000
    H12      H        0.81840    0.57080    0.86700    1.000
    C47      C        0.97050    0.57890    0.03090    1.000
    H13      H        0.99060    0.60560    0.07170    1.000
    C48      C        0.90910    0.50080    0.90700    1.000
    H14      H        0.88820    0.47500    0.86550    1.000
    C49      C        0.01570    0.51960    0.03120    1.000
    C50      C        0.84960    0.83990    0.96800    1.000
    C51      C        0.90730    0.89790    0.96810    1.000
    C52      C        0.91810    0.92020    0.90160    1.000
    H15      H        0.89210    0.89750    0.85810    1.000
    C53      C        0.94640    0.93200    0.03250    1.000
    H16      H        0.94030    0.91680    0.07610    1.000
    C54      C        0.96640    0.97500    0.90120    1.000
    H17      H        0.97390    0.98850    0.85750    1.000
    C55      C        0.99500    0.98860    0.03400    1.000
    C56      C        0.64220    0.83940    0.00290    1.000
    C57      C        0.58940    0.89680    0.01360    1.000
    C58      C        0.54760    0.93670    0.95500    1.000
    H18      H        0.54960    0.92650    0.90850    1.000
    C59      C        0.58500    0.91160    0.08430    1.000
    H19      H        0.61310    0.88480    0.12390    1.000
    C60      C        0.50140    0.99320    0.96430    1.000
    C61      C        0.53990    0.96480    0.09470    1.000
    H20      H        0.53630    0.97350    0.14120    1.000
    Zn3      Zn       0.21463    0.24659    0.43641    1.000
    Zn4      Zn       0.29755    0.25435    0.59884    1.000
    O9       O        0.30480    0.17137    0.45640    1.000
    O10      O        0.38820    0.19512    0.57320    1.000
    O11      O        0.12870    0.18670    0.46470    1.000
    O12      O        0.21390    0.17580    0.58410    1.000
    O13      O        0.15210    0.32120    0.47060    1.000
    O14      O        0.19370    0.31520    0.59390    1.000
    O15      O        0.31590    0.30820    0.43930    1.000
    O16      O        0.35710    0.32823    0.56100    1.000
    N3       N        0.14640    0.24570    0.32630    1.000
    N4       N        0.36550    0.24650    0.21000    1.000
    C62      C        0.16060    0.28950    0.28130    1.000
    H21      H        0.20500    0.32060    0.30120    1.000
    C63      C        0.08340    0.20160    0.29550    1.000
    H22      H        0.07290    0.17000    0.32570    1.000
    C64      C        0.11280    0.29120    0.20650    1.000
    H23      H        0.12680    0.32190    0.17700    1.000
    C65      C        0.03240    0.19980    0.22100    1.000
    H24      H        0.99060    0.16690    0.20190    1.000
    C66      C        0.04410    0.24700    0.17560    1.000
    C67      C        0.99030    0.24900    0.09840    1.000
    C68      C        0.94440    0.25020    0.03520    1.000
    C69      C        0.87940    0.24140    0.96000    1.000
    C70      C        0.92260    0.25430    0.90890    1.000
    C71      C        0.78400    0.23330    0.93720    1.000
    C72      C        0.86830    0.25410    0.83220    1.000
    C73      C        0.73260    0.23580    0.86330    1.000
    C74      C        0.77160    0.24530    0.80960    1.000
    C75      C        0.71900    0.24640    0.72990    1.000
    C76      C        0.75190    0.21940    0.67830    1.000
    C77      C        0.64300    0.26400    0.70410    1.000
    C78      C        0.70020    0.22070    0.60370    1.000
    C79      C        0.59100    0.26070    0.63070    1.000
    C80      C        0.90040    0.26010    0.95530    1.000
    C81      C        0.93300    0.22600    0.90510    1.000
    C82      C        0.82940    0.29840    0.92920    1.000
    C83      C        0.88200    0.22530    0.83130    1.000
    C84      C        0.77620    0.29920    0.85280    1.000
    C85      C        0.79770    0.26060    0.80540    1.000
    C86      C        0.74150    0.26050    0.72450    1.000
    C87      C        0.78140    0.25090    0.67130    1.000
    C88      C        0.63000    0.27870    0.70690    1.000
    C89      C        0.72620    0.24810    0.59540    1.000
    C90      C        0.57770    0.27970    0.63180    1.000
    C91      C        0.62140    0.25200    0.57750    1.000
    C92      C        0.56680    0.25060    0.50070    1.000
    C93      C        0.51950    0.24950    0.43690    1.000
    C94      C        0.46590    0.24840    0.36020    1.000
    C95      C        0.39510    0.20620    0.33110    1.000
    H25      H        0.37930    0.17720    0.36150    1.000
    C96      C        0.48120    0.29260    0.31230    1.000
    H26      H        0.52530    0.32430    0.33010    1.000
    C97      C        0.43160    0.28980    0.23840    1.000
    H27      H        0.44440    0.31920    0.20700    1.000
    C98      C        0.34770    0.20690    0.25670    1.000
    H28      H        0.30000    0.17770    0.23810    1.000
    C99      C        0.37090    0.16250    0.51630    1.000
    C100     C        0.43120    0.10470    0.51940    1.000
    C101     C        0.50950    0.09560    0.58230    1.000
    H29      H        0.52570    0.12610    0.61950    1.000
    C102     C        0.40860    0.06150    0.46300    1.000
    H30      H        0.35820    0.06940    0.42100    1.000
    C103     C        0.56220    0.04110    0.58870    1.000
    H31      H        0.61330    0.03480    0.63060    1.000
    C104     C        0.46090    0.00470    0.46760    1.000
    C105     C        0.15160    0.15860    0.52560    1.000
    C106     C        0.10230    0.09680    0.52910    1.000
    C107     C        0.13280    0.05770    0.59200    1.000
    H32      H        0.18160    0.07080    0.63300    1.000
    C108     C        0.02950    0.07890    0.46910    1.000
    H33      H        0.00940    0.10560    0.42830    1.000
    C109     C        0.09090    0.00080    0.59300    1.000
    H34      H        0.11180    0.97500    0.63450    1.000
    C110     C        0.98430    0.01960    0.46880    1.000
    C111     C        0.15040    0.33990    0.53200    1.000
    C112     C        0.09270    0.39790    0.53190    1.000
    C113     C        0.08190    0.42020    0.59840    1.000
    H35      H        0.10790    0.39750    0.64190    1.000
    C114     C        0.05360    0.43200    0.46750    1.000
    H36      H        0.05970    0.41680    0.42390    1.000
    C115     C        0.03360    0.47500    0.59880    1.000
    H37      H        0.02610    0.48850    0.64250    1.000
    C116     C        0.00500    0.48860    0.46600    1.000
    C117     C        0.35780    0.33940    0.49710    1.000
    C118     C        0.41060    0.39680    0.48640    1.000
    C119     C        0.45240    0.43670    0.54500    1.000
    H38      H        0.45040    0.42650    0.59150    1.000
    C120     C        0.41500    0.41160    0.41570    1.000
    H39      H        0.38690    0.38480    0.37610    1.000
    C121     C        0.49860    0.49320    0.53570    1.000
    C122     C        0.46010    0.46480    0.40530    1.000
    H40      H        0.46370    0.47350    0.35880    1.000
    Zn5      Zn       0.21463    0.25341    0.93641    1.000
    Zn6      Zn       0.29755    0.24565    0.09884    1.000
    O17      O        0.30480    0.32863    0.95640    1.000
    O18      O        0.38820    0.30488    0.07320    1.000
    O19      O        0.12870    0.31330    0.96470    1.000
    O20      O        0.21390    0.32420    0.08410    1.000
    O21      O        0.15210    0.17880    0.97060    1.000
    O22      O        0.19370    0.18480    0.09390    1.000
    O23      O        0.31590    0.19180    0.93930    1.000
    O24      O        0.35710    0.17177    0.06100    1.000
    N5       N        0.14640    0.25430    0.82630    1.000
    N6       N        0.36550    0.25350    0.71000    1.000
    C123     C        0.16060    0.21050    0.78130    1.000
    H41      H        0.20500    0.17940    0.80120    1.000
    C124     C        0.08340    0.29840    0.79550    1.000
    H42      H        0.07290    0.33000    0.82570    1.000
    C125     C        0.11280    0.20880    0.70650    1.000
    H43      H        0.12680    0.17810    0.67700    1.000
    C126     C        0.03240    0.30020    0.72100    1.000
    H44      H        0.99060    0.33310    0.70190    1.000
    C127     C        0.04410    0.25300    0.67560    1.000
    C128     C        0.99030    0.25100    0.59840    1.000
    C129     C        0.94440    0.24980    0.53520    1.000
    C130     C        0.87940    0.25860    0.46000    1.000
    C131     C        0.92260    0.24570    0.40890    1.000
    C132     C        0.78400    0.26670    0.43720    1.000
    C133     C        0.86830    0.24590    0.33220    1.000
    C134     C        0.73260    0.26420    0.36330    1.000
    C135     C        0.77160    0.25470    0.30960    1.000
    C136     C        0.71900    0.25360    0.22990    1.000
    C137     C        0.75190    0.28060    0.17830    1.000
    C138     C        0.64300    0.23600    0.20410    1.000
    C139     C        0.70020    0.27930    0.10370    1.000
    C140     C        0.59100    0.23930    0.13070    1.000
    C141     C        0.90040    0.23990    0.45530    1.000
    C142     C        0.93300    0.27400    0.40510    1.000
    C143     C        0.82940    0.20160    0.42920    1.000
    C144     C        0.88200    0.27470    0.33130    1.000
    C145     C        0.77620    0.20080    0.35280    1.000
    C146     C        0.79770    0.23940    0.30540    1.000
    C147     C        0.74150    0.23950    0.22450    1.000
    C148     C        0.78140    0.24910    0.17130    1.000
    C149     C        0.63000    0.22130    0.20690    1.000
    C150     C        0.72620    0.25190    0.09540    1.000
    C151     C        0.57770    0.22030    0.13180    1.000
    C152     C        0.62140    0.24800    0.07750    1.000
    C153     C        0.56680    0.24940    0.00070    1.000
    C154     C        0.51950    0.25050    0.93690    1.000
    C155     C        0.46590    0.25160    0.86020    1.000
    C156     C        0.39510    0.29380    0.83110    1.000
    H45      H        0.37930    0.32280    0.86150    1.000
    C157     C        0.48120    0.20740    0.81230    1.000
    H46      H        0.52530    0.17570    0.83010    1.000
    C158     C        0.43160    0.21020    0.73840    1.000
    H47      H        0.44440    0.18080    0.70700    1.000
    C159     C        0.34770    0.29310    0.75670    1.000
    H48      H        0.30000    0.32230    0.73810    1.000
    C160     C        0.37090    0.33750    0.01630    1.000
    C161     C        0.43120    0.39530    0.01940    1.000
    C162     C        0.50950    0.40440    0.08230    1.000
    H49      H        0.52570    0.37390    0.11950    1.000
    C163     C        0.40860    0.43850    0.96300    1.000
    H50      H        0.35820    0.43060    0.92100    1.000
    C164     C        0.56220    0.45890    0.08870    1.000
    H51      H        0.61330    0.46520    0.13060    1.000
    C165     C        0.46090    0.49530    0.96760    1.000
    C166     C        0.15160    0.34140    0.02560    1.000
    C167     C        0.10230    0.40320    0.02910    1.000
    C168     C        0.13280    0.44230    0.09200    1.000
    H52      H        0.18160    0.42920    0.13300    1.000
    C169     C        0.02950    0.42110    0.96910    1.000
    H53      H        0.00940    0.39440    0.92830    1.000
    C170     C        0.09090    0.49920    0.09300    1.000
    H54      H        0.11180    0.52500    0.13450    1.000
    C171     C        0.98430    0.48040    0.96880    1.000
    C172     C        0.15040    0.16010    0.03200    1.000
    C173     C        0.09270    0.10210    0.03190    1.000
    C174     C        0.08190    0.07980    0.09840    1.000
    H55      H        0.10790    0.10250    0.14190    1.000
    C175     C        0.05360    0.06800    0.96750    1.000
    H56      H        0.05970    0.08320    0.92390    1.000
    C176     C        0.03360    0.02500    0.09880    1.000
    H57      H        0.02610    0.01150    0.14250    1.000
    C177     C        0.00500    0.01140    0.96600    1.000
    C178     C        0.35780    0.16060    0.99710    1.000
    C179     C        0.41060    0.10320    0.98640    1.000
    C180     C        0.45240    0.06330    0.04500    1.000
    H58      H        0.45040    0.07350    0.09150    1.000
    C181     C        0.41500    0.08840    0.91570    1.000
    H59      H        0.38690    0.11520    0.87610    1.000
    C182     C        0.49860    0.00680    0.03570    1.000
    C183     C        0.46010    0.03520    0.90530    1.000
    H60      H        0.46370    0.02650    0.85880    1.000
    Zn7      Zn       0.78537    0.75341    0.56359    1.000
    Zn8      Zn       0.70245    0.74565    0.40116    1.000
    O25      O        0.69520    0.82863    0.54360    1.000
    O26      O        0.61180    0.80488    0.42680    1.000
    O27      O        0.87130    0.81330    0.53530    1.000
    O28      O        0.78610    0.82420    0.41590    1.000
    O29      O        0.84790    0.67880    0.52940    1.000
    O30      O        0.80630    0.68480    0.40610    1.000
    O31      O        0.68410    0.69180    0.56070    1.000
    O32      O        0.64290    0.67177    0.43900    1.000
    N7       N        0.85360    0.75430    0.67370    1.000
    N8       N        0.63450    0.75350    0.79000    1.000
    C184     C        0.83940    0.71050    0.71870    1.000
    H61      H        0.79500    0.67940    0.69880    1.000
    C185     C        0.91660    0.79840    0.70450    1.000
    H62      H        0.92710    0.83000    0.67430    1.000
    C186     C        0.88720    0.70880    0.79350    1.000
    H63      H        0.87320    0.67810    0.82300    1.000
    C187     C        0.96760    0.80020    0.77900    1.000
    H64      H        0.00940    0.83310    0.79810    1.000
    C188     C        0.95590    0.75300    0.82440    1.000
    C189     C        0.00970    0.75100    0.90160    1.000
    C190     C        0.05560    0.74980    0.96480    1.000
    C191     C        0.12060    0.75860    0.04000    1.000
    C192     C        0.07740    0.74570    0.09110    1.000
    C193     C        0.21600    0.76670    0.06280    1.000
    C194     C        0.13170    0.74590    0.16780    1.000
    C195     C        0.26740    0.76420    0.13670    1.000
    C196     C        0.22840    0.75470    0.19040    1.000
    C197     C        0.28100    0.75360    0.27010    1.000
    C198     C        0.24810    0.78060    0.32170    1.000
    C199     C        0.35700    0.73600    0.29590    1.000
    C200     C        0.29980    0.77930    0.39630    1.000
    C201     C        0.40900    0.73930    0.36930    1.000
    C202     C        0.09960    0.73990    0.04470    1.000
    C203     C        0.06700    0.77400    0.09490    1.000
    C204     C        0.17060    0.70160    0.07080    1.000
    C205     C        0.11800    0.77470    0.16870    1.000
    C206     C        0.22380    0.70080    0.14720    1.000
    C207     C        0.20230    0.73940    0.19460    1.000
    C208     C        0.25850    0.73950    0.27550    1.000
    C209     C        0.21860    0.74910    0.32870    1.000
    C210     C        0.37000    0.72130    0.29310    1.000
    C211     C        0.27380    0.75190    0.40460    1.000
    C212     C        0.42230    0.72030    0.36820    1.000
    C213     C        0.37860    0.74800    0.42250    1.000
    C214     C        0.43320    0.74940    0.49930    1.000
    C215     C        0.48050    0.75050    0.56310    1.000
    C216     C        0.53410    0.75160    0.63980    1.000
    C217     C        0.60490    0.79380    0.66890    1.000
    H65      H        0.62070    0.82280    0.63850    1.000
    C218     C        0.51880    0.70740    0.68770    1.000
    H66      H        0.47470    0.67570    0.66990    1.000
    C219     C        0.56840    0.71020    0.76160    1.000
    H67      H        0.55560    0.68080    0.79300    1.000
    C220     C        0.65230    0.79310    0.74330    1.000
    H68      H        0.70000    0.82230    0.76190    1.000
    C221     C        0.62910    0.83750    0.48370    1.000
    C222     C        0.56880    0.89530    0.48060    1.000
    C223     C        0.49050    0.90440    0.41770    1.000
    H69      H        0.47430    0.87390    0.38050    1.000
    C224     C        0.59140    0.93850    0.53700    1.000
    H70      H        0.64180    0.93060    0.57900    1.000
    C225     C        0.43780    0.95890    0.41130    1.000
    H71      H        0.38670    0.96520    0.36940    1.000
    C226     C        0.53910    0.99530    0.53240    1.000
    C227     C        0.84840    0.84140    0.47440    1.000
    C228     C        0.89770    0.90320    0.47090    1.000
    C229     C        0.86720    0.94230    0.40800    1.000
    H72      H        0.81840    0.92920    0.36700    1.000
    C230     C        0.97050    0.92110    0.53090    1.000
    H73      H        0.99060    0.89440    0.57170    1.000
    C231     C        0.90910    0.99920    0.40700    1.000
    H74      H        0.88820    0.02500    0.36550    1.000
    C232     C        0.01570    0.98040    0.53120    1.000
    C233     C        0.84960    0.66010    0.46800    1.000
    C234     C        0.90730    0.60210    0.46810    1.000
    C235     C        0.91810    0.57980    0.40160    1.000
    H75      H        0.89210    0.60250    0.35810    1.000
    C236     C        0.94640    0.56800    0.53250    1.000
    H76      H        0.94030    0.58320    0.57610    1.000
    C237     C        0.96640    0.52500    0.40120    1.000
    H77      H        0.97390    0.51150    0.35750    1.000
    C238     C        0.99500    0.51140    0.53400    1.000
    C239     C        0.64220    0.66060    0.50290    1.000
    C240     C        0.58940    0.60320    0.51360    1.000
    C241     C        0.54760    0.56330    0.45500    1.000
    H78      H        0.54960    0.57350    0.40850    1.000
    C242     C        0.58500    0.58840    0.58430    1.000
    H79      H        0.61310    0.61520    0.62390    1.000
    C243     C        0.50140    0.50680    0.46430    1.000
    C244     C        0.53990    0.53520    0.59470    1.000
    H80      H        0.53630    0.52650    0.64120    1.000
