data_functionalizedCrystal
_audit_creation_method	'EQeq! by Chris Wilmer'
_symmetry_space_group_name_H-M	'P1'
_symmetry_Int_Tables_number	1
_symmetry_cell_setting	triclinic
loop_
_symmetry_equiv_pos_as_xyz
  x,y,z
_cell_length_a	17.2
_cell_length_b	21.1459
_cell_length_c	21.1459
_cell_angle_alpha	80.4793
_cell_angle_beta	66.0024
_cell_angle_gamma	66.0024
loop_
_atom_site_label
_atom_site_type_symbol
_atom_site_fract_x
_atom_site_fract_y
_atom_site_fract_z
_atom_site_charge
Mof_Zn	Zn	0.39749	0.96431	0.24599	1.216
Mof_Zn	Zn	0.10779	0.53569	0.25401	1.217
Mof_Zn	Zn	0.64348	0.75401	0.46431	1.217
Mof_Zn	Zn	0.3618	0.74599	0.03569	1.217
Mof_H 	H 	0.6436	0.0001	0.2885	-0.091
Mof_H 	H 	0.7743	0.0285	0.2405	0.25
Mof_H 	H 	0.7741	0.0319	0.0573	0.244
Mof_H 	H 	0.6426	0.0042	0.1014	-0.082
Mof_H 	H 	0.9161	0.92	0.1056	0.207
Mof_H 	H 	0.0668	0.846	0.0758	-0.073
Mof_H 	H 	0.139	0.0012	0.07	-0.062
Mof_H 	H 	0.9916	0.077	0.096	0.211
Mof_H 	H 	0.4736	0.8443	0.3329	-0.004
Mof_H 	H 	0.5585	0.7303	0.3227	0.089
Mof_H 	H 	0.56	0.7403	0.1319	0.089
Mof_H 	H 	0.4784	0.8539	0.1467	-0.018
Mof_H 	H 	0.6916	0.6341	0.2763	0.085
Mof_H 	H 	0.7768	0.5182	0.257	0.013
Mof_H 	H 	0.6624	0.5105	0.1403	0.01
Mof_H 	H 	0.5704	0.6297	0.1557	0.085
Mof_H 	H 	0.313	0.0785	0.3425	-0.017
Mof_H 	H 	0.2483	0.1946	0.3494	0.104
Mof_H 	H 	0.3029	0.1966	0.1486	0.098
Mof_H 	H 	0.3603	0.0814	0.1516	-0.028
Mof_H 	H 	0.4322	0.4999	0.2115	-0.095
Mof_H 	H 	0.5433	0.4715	0.2595	0.257
Mof_H 	H 	0.3633	0.4681	0.4427	0.25
Mof_H 	H 	0.2482	0.4958	0.3986	-0.086
Mof_H 	H 	0.4417	0.58	0.3944	0.244
Mof_H 	H 	0.4886	0.654	0.4242	-0.107
Mof_H 	H 	0.7102	0.4988	0.43	-0.11
Mof_H 	H 	0.6646	0.423	0.404	0.261
Mof_H 	H 	0.1508	0.6557	0.1671	-0
Mof_H 	H 	0.1115	0.7697	0.1773	0.081
Mof_H 	H 	0.9322	0.7597	0.3681	0.08
Mof_H 	H 	0.979	0.6461	0.3533	-0.008
Mof_H 	H 	0.102	0.8659	0.2237	0.092
Mof_H 	H 	0.052	0.9818	0.243	0.011
Mof_H 	H 	0.8132	0.9895	0.3597	0.008
Mof_H 	H 	0.8558	0.8703	0.3443	0.091
Mof_H 	H 	0.234	0.4215	0.1575	-0.018
Mof_H 	H 	0.2923	0.3054	0.1506	0.104
Mof_H 	H 	0.1481	0.3034	0.3514	0.098
Mof_H 	H 	0.0933	0.4186	0.3484	-0.029
Mof_H 	H 	0.9321	0.7115	0.5001	-0.09
Mof_H 	H 	0.0148	0.7595	0.5285	0.249
Mof_H 	H 	0.8314	0.9427	0.5319	0.248
Mof_H 	H 	0.744	0.8986	0.5042	-0.083
Mof_H 	H 	0.0217	0.8944	0.42	0.239
Mof_H 	H 	0.1426	0.9242	0.346	-0.104
Mof_H 	H 	0.209	0.93	0.5012	-0.108
Mof_H 	H 	0.0876	0.904	0.577	0.256
Mof_H 	H 	0.8065	0.6671	0.3443	-0.003
Mof_H 	H 	0.8812	0.6773	0.2303	0.088
Mof_H 	H 	0.6919	0.8681	0.2403	0.089
Mof_H 	H 	0.6251	0.8533	0.3539	-0.017
Mof_H 	H 	0.9679	0.7237	0.1341	0.088
Mof_H 	H 	0.0338	0.743	0.0182	0.006
Mof_H 	H 	0.8027	0.8597	0.0105	0.01
Mof_H 	H 	0.7261	0.8443	0.1297	0.086
Mof_H 	H 	0.6555	0.6575	0.5785	-0.018
Mof_H 	H 	0.5977	0.6506	0.6946	0.104
Mof_H 	H 	0.4515	0.8514	0.6966	0.098
Mof_H 	H 	0.5119	0.8484	0.5814	-0.029
Mof_H 	H 	0.6437	0.7885	0.9999	-0.094
Mof_H 	H 	0.8028	0.7405	0.9715	0.257
Mof_H 	H 	0.806	0.5573	0.9681	0.25
Mof_H 	H 	0.6468	0.6014	0.9958	-0.085
Mof_H 	H 	0.8361	0.6056	0.08	0.242
Mof_H 	H 	0.9128	0.5758	0.154	-0.106
Mof_H 	H 	0.1402	0.57	0.9988	-0.106
Mof_H 	H 	0.0686	0.596	0.923	0.258
Mof_H 	H 	0.3179	0.8329	0.1557	-0.004
Mof_H 	H 	0.2888	0.8227	0.2697	0.088
Mof_H 	H 	0.3003	0.6319	0.2597	0.089
Mof_H 	H 	0.3323	0.6467	0.1461	-0.018
Mof_H 	H 	0.3257	0.7763	0.3659	0.085
Mof_H 	H 	0.295	0.757	0.4818	0.013
Mof_H 	H 	0.1729	0.6403	0.4895	0.01
Mof_H 	H 	0.2001	0.6557	0.3703	0.085
Mof_H 	H 	0.3915	0.8425	0.9215	-0.018
Mof_H 	H 	0.4429	0.8494	0.8054	0.104
Mof_H 	H 	0.4995	0.6486	0.8034	0.098
Mof_H 	H 	0.4417	0.6516	0.9186	-0.028
Mof_C 	C 	0.5436	0.9837	0.2285	0.49
Mof_C 	C 	0.6283	0.003	0.199	-0.395
Mof_C 	C 	0.6683	0.0076	0.2412	0.388
Mof_C 	C 	0.7474	0.024	0.212	-0.598
Mof_C 	C 	0.7819	0.0326	0.1474	0.597
Mof_C 	C 	0.7465	0.0259	0.1047	-0.557
Mof_C 	C 	0.6672	0.0098	0.131	0.388
Mof_C 	C 	0.9442	0.0042	0.1022	0.467
Mof_C 	C 	0.9622	0.9362	0.0974	-0.475
Mof_C 	C 	0.0516	0.893	0.0802	0.346
Mof_C 	C 	0.119	0.915	0.0692	-0.358
Mof_C 	C 	0.0938	0.9846	0.0764	0.315
Mof_C 	C 	0.0071	0.0298	0.0922	-0.458
Mof_C 	C 	0.2143	0.8679	0.0529	0.436
Mof_C 	C 	0.4927	0.8229	0.2913	0.09
Mof_C 	C 	0.5429	0.7541	0.2859	-0.15
Mof_C 	C 	0.5708	0.7194	0.2264	0.063
Mof_C 	C 	0.5438	0.7606	0.1734	-0.148
Mof_C 	C 	0.4948	0.8288	0.1828	0.098
Mof_C 	C 	0.6228	0.6458	0.217	0.066
Mof_C 	C 	0.6836	0.6108	0.2472	-0.145
Mof_C 	C 	0.7348	0.5403	0.2357	0.087
Mof_C 	C 	0.6691	0.5357	0.1685	0.079
Mof_C 	C 	0.6126	0.6089	0.1771	-0.142
Mof_C 	C 	0.3086	0.103	0.3026	0.149
Mof_C 	C 	0.2719	0.1731	0.3071	-0.182
Mof_C 	C 	0.2699	0.2118	0.2486	0.086
Mof_C 	C 	0.3032	0.1741	0.1903	-0.175
Mof_C 	C 	0.3362	0.1052	0.1928	0.129
Mof_C 	C 	0.2558	0.5163	0.2715	0.494
Mof_C 	C 	0.3303	0.497	0.301	-0.404
Mof_C 	C 	0.4171	0.4924	0.2588	0.4
Mof_C 	C 	0.4834	0.476	0.288	-0.615
Mof_C 	C 	0.4619	0.4674	0.3526	0.616
Mof_C 	C 	0.3771	0.4741	0.3953	-0.573
Mof_C 	C 	0.308	0.4902	0.369	0.4
Mof_C 	C 	0.5506	0.4958	0.3978	0.563
Mof_C 	C 	0.4958	0.5638	0.4026	-0.585
Mof_C 	C 	0.5248	0.607	0.4198	0.45
Mof_C 	C 	0.6032	0.585	0.4308	-0.445
Mof_C 	C 	0.6548	0.5154	0.4236	0.441
Mof_C 	C 	0.6291	0.4702	0.4078	-0.593
Mof_C 	C 	0.6351	0.6321	0.4471	0.47
Mof_C 	C 	0.1069	0.6771	0.2087	0.079
Mof_C 	C 	0.0829	0.7459	0.2141	-0.132
Mof_C 	C 	0.0166	0.7806	0.2736	0.035
Mof_C 	C 	0.9778	0.7394	0.3266	-0.119
Mof_C 	C 	0.0064	0.6712	0.3172	0.076
Mof_C 	C 	0.9856	0.8542	0.283	0.093
Mof_C 	C 	0.0416	0.8892	0.2528	-0.164
Mof_C 	C 	0.0108	0.9597	0.2643	0.09
Mof_C 	C 	0.8733	0.9643	0.3315	0.088
Mof_C 	C 	0.8986	0.8911	0.3229	-0.157
Mof_C 	C 	0.2142	0.397	0.1974	0.149
Mof_C 	C 	0.2521	0.3269	0.1929	-0.182
Mof_C 	C 	0.2303	0.2882	0.2514	0.086
Mof_C 	C 	0.1676	0.3259	0.3097	-0.176
Mof_C 	C 	0.1342	0.3948	0.3072	0.129
Mof_C 	C 	0.7721	0.7715	0.4837	0.491
Mof_C 	C 	0.8273	0.801	0.503	-0.396
Mof_C 	C 	0.9095	0.7588	0.5076	0.389
Mof_C 	C 	0.9594	0.788	0.524	-0.598
Mof_C 	C 	0.9293	0.8526	0.5326	0.605
Mof_C 	C 	0.8512	0.8953	0.5259	-0.562
Mof_C 	C 	0.7982	0.869	0.5098	0.391
Mof_C 	C 	0.0464	0.8978	0.5042	0.551
Mof_C 	C 	0.0596	0.9026	0.4362	-0.576
Mof_C 	C 	0.1318	0.9198	0.393	0.441
Mof_C 	C 	0.1882	0.9308	0.415	-0.439
Mof_C 	C 	0.1702	0.9236	0.4846	0.432
Mof_C 	C 	0.0993	0.9078	0.5298	-0.583
Mof_C 	C 	0.2672	0.9471	0.3679	0.467
Mof_C 	C 	0.784	0.7087	0.3229	0.089
Mof_C 	C 	0.8288	0.7141	0.2541	-0.148
Mof_C 	C 	0.7972	0.7736	0.2194	0.061
Mof_C 	C 	0.7172	0.8266	0.2606	-0.147
Mof_C 	C 	0.6776	0.8172	0.3288	0.098
Mof_C 	C 	0.8398	0.783	0.1458	0.071
Mof_C 	C 	0.9308	0.7528	0.1108	-0.152
Mof_C 	C 	0.9705	0.7643	0.0403	0.099
Mof_C 	C 	0.8376	0.8315	0.0357	0.082
Mof_C 	C 	0.7897	0.8229	0.1089	-0.145
Mof_C 	C 	0.6112	0.6974	0.603	0.149
Mof_C 	C 	0.579	0.6929	0.6731	-0.182
Mof_C 	C 	0.5185	0.7514	0.7118	0.086
Mof_C 	C 	0.4935	0.8097	0.6741	-0.176
Mof_C 	C 	0.529	0.8072	0.6052	0.129
Mof_C 	C 	0.5273	0.7285	0.0163	0.493
Mof_C 	C 	0.6313	0.699	0.997	-0.402
Mof_C 	C 	0.6759	0.7412	0.9924	0.399
Mof_C 	C 	0.7714	0.712	0.976	-0.614
Mof_C 	C 	0.8145	0.6474	0.9674	0.615
Mof_C 	C 	0.7724	0.6047	0.9741	-0.571
Mof_C 	C 	0.677	0.631	0.9902	0.398
Mof_C 	C 	0.9484	0.6022	0.9958	0.559
Mof_C 	C 	0.8984	0.5974	0.0638	-0.581
Mof_C 	C 	0.9446	0.5802	0.107	0.448
Mof_C 	C 	0.034	0.5692	0.085	-0.443
Mof_C 	C 	0.0784	0.5764	0.0154	0.432
Mof_C 	C 	0.0369	0.5922	0.9702	-0.585
Mof_C 	C 	0.0822	0.5529	0.1321	0.469
Mof_C 	C 	0.3156	0.7913	0.1771	0.09
Mof_C 	C 	0.297	0.7859	0.2459	-0.15
Mof_C 	C 	0.2902	0.7264	0.2806	0.063
Mof_C 	C 	0.3044	0.6734	0.2394	-0.148
Mof_C 	C 	0.3236	0.6828	0.1712	0.098
Mof_C 	C 	0.2686	0.717	0.3542	0.066
Mof_C 	C 	0.2944	0.7472	0.3892	-0.145
Mof_C 	C 	0.2751	0.7357	0.4597	0.087
Mof_C 	C 	0.2048	0.6685	0.4643	0.079
Mof_C 	C 	0.2215	0.6771	0.3911	-0.142
Mof_C 	C 	0.4116	0.8026	0.897	0.149
Mof_C 	C 	0.445	0.8071	0.8269	-0.182
Mof_C 	C 	0.4817	0.7486	0.7882	0.086
Mof_C 	C 	0.4773	0.6903	0.8259	-0.176
Mof_C 	C 	0.4414	0.6928	0.8948	0.129
Mof_N 	N 	0.4681	0.8631	0.2399	-0.27
Mof_N 	N 	0.7265	0.504	0.1966	-0.142
Mof_N 	N 	0.3373	0.0684	0.2492	-0.286
Mof_N 	N 	0.0711	0.6369	0.2601	-0.265
Mof_N 	N 	0.9271	0.996	0.3034	-0.141
Mof_N 	N 	0.1549	0.4316	0.2508	-0.286
Mof_N 	N 	0.708	0.7601	0.3631	-0.27
Mof_N 	N 	0.9231	0.8034	0.004	-0.143
Mof_N 	N 	0.5865	0.7508	0.5684	-0.286
Mof_N 	N 	0.3312	0.7399	0.1369	-0.27
Mof_N 	N 	0.2305	0.6966	0.496	-0.142
Mof_N 	N 	0.4057	0.7492	0.9316	-0.286
Mof_O 	O 	0.5133	0.9759	0.1899	-0.512
Mof_O 	O 	0.5102	0.9786	0.2912	-0.374
Mof_O 	O 	0.8546	0.0537	0.1205	-0.415
Mof_O 	O 	0.2343	0.8047	0.0481	-0.485
Mof_O 	O 	0.2765	0.8895	0.0451	-0.335
Mof_O 	O 	0.1791	0.5241	0.3101	-0.512
Mof_O 	O 	0.28	0.5214	0.2088	-0.375
Mof_O 	O 	0.5288	0.4463	0.3795	-0.44
Mof_O 	O 	0.5871	0.6953	0.4519	-0.493
Mof_O 	O 	0.7111	0.6105	0.4549	-0.342
Mof_O 	O 	0.7032	0.8101	0.4759	-0.511
Mof_O 	O 	0.8014	0.7088	0.4786	-0.374
Mof_O 	O 	0.9751	0.8795	0.5537	-0.431
Mof_O 	O 	0.2824	0.9519	0.3047	-0.493
Mof_O 	O 	0.3216	0.9549	0.3895	-0.342
Mof_O 	O 	0.4892	0.6899	0.0241	-0.512
Mof_O 	O 	0.4888	0.7912	0.0214	-0.375
Mof_O 	O 	0.9083	0.6205	0.9463	-0.438
Mof_O 	O 	0.039	0.5481	0.1953	-0.493
Mof_O 	O 	0.166	0.5451	0.1105	-0.342
Mof_Zn	Zn	0.60251	0.03569	0.75401	1.215
Mof_Zn	Zn	0.89221	0.46431	0.74599	1.216
Mof_Zn	Zn	0.35652	0.24599	0.53569	1.216
Mof_Zn	Zn	0.6382	0.25401	0.96431	1.216
Mof_H 	H 	0.3564	0.9999	0.7115	-0.091
Mof_H 	H 	0.2257	0.9715	0.7595	0.25
Mof_H 	H 	0.2259	0.9681	0.9427	0.244
Mof_H 	H 	0.3574	0.9958	0.8986	-0.082
Mof_H 	H 	0.0839	0.08	0.8944	0.207
Mof_H 	H 	0.9332	0.154	0.9242	-0.073
Mof_H 	H 	0.861	0.9988	0.93	-0.062
Mof_H 	H 	0.0084	0.923	0.904	0.211
Mof_H 	H 	0.5264	0.1557	0.6671	-0.004
Mof_H 	H 	0.4415	0.2697	0.6773	0.089
Mof_H 	H 	0.44	0.2597	0.8681	0.089
Mof_H 	H 	0.5216	0.1461	0.8533	-0.018
Mof_H 	H 	0.3084	0.3659	0.7237	0.085
Mof_H 	H 	0.2232	0.4818	0.743	0.013
Mof_H 	H 	0.3376	0.4895	0.8597	0.01
Mof_H 	H 	0.4296	0.3703	0.8443	0.085
Mof_H 	H 	0.687	0.9215	0.6575	-0.017
Mof_H 	H 	0.7517	0.8054	0.6506	0.104
Mof_H 	H 	0.6971	0.8034	0.8514	0.098
Mof_H 	H 	0.6397	0.9186	0.8484	-0.028
Mof_H 	H 	0.5678	0.5001	0.7885	-0.095
Mof_H 	H 	0.4567	0.5285	0.7405	0.257
Mof_H 	H 	0.6367	0.5319	0.5573	0.25
Mof_H 	H 	0.7518	0.5042	0.6014	-0.086
Mof_H 	H 	0.5583	0.42	0.6056	0.244
Mof_H 	H 	0.5114	0.346	0.5758	-0.107
Mof_H 	H 	0.2898	0.5012	0.57	-0.11
Mof_H 	H 	0.3354	0.577	0.596	0.261
Mof_H 	H 	0.8492	0.3443	0.8329	-0
Mof_H 	H 	0.8885	0.2303	0.8227	0.081
Mof_H 	H 	0.0678	0.2403	0.6319	0.08
Mof_H 	H 	0.021	0.3539	0.6467	-0.008
Mof_H 	H 	0.898	0.1341	0.7763	0.092
Mof_H 	H 	0.948	0.0182	0.757	0.011
Mof_H 	H 	0.1868	0.0105	0.6403	0.008
Mof_H 	H 	0.1442	0.1297	0.6557	0.091
Mof_H 	H 	0.766	0.5785	0.8425	-0.018
Mof_H 	H 	0.7077	0.6946	0.8494	0.104
Mof_H 	H 	0.8519	0.6966	0.6486	0.098
Mof_H 	H 	0.9067	0.5814	0.6516	-0.029
Mof_H 	H 	0.0679	0.2885	0.4999	-0.09
Mof_H 	H 	0.9852	0.2405	0.4715	0.249
Mof_H 	H 	0.1686	0.0573	0.4681	0.248
Mof_H 	H 	0.256	0.1014	0.4958	-0.083
Mof_H 	H 	0.9783	0.1056	0.58	0.239
Mof_H 	H 	0.8574	0.0758	0.654	-0.104
Mof_H 	H 	0.791	0.07	0.4988	-0.108
Mof_H 	H 	0.9124	0.096	0.423	0.256
Mof_H 	H 	0.1935	0.3329	0.6557	-0.003
Mof_H 	H 	0.1188	0.3227	0.7697	0.088
Mof_H 	H 	0.3081	0.1319	0.7597	0.089
Mof_H 	H 	0.3749	0.1467	0.6461	-0.017
Mof_H 	H 	0.0321	0.2763	0.8659	0.088
Mof_H 	H 	0.9662	0.257	0.9818	0.006
Mof_H 	H 	0.1973	0.1403	0.9895	0.01
Mof_H 	H 	0.2739	0.1557	0.8703	0.086
Mof_H 	H 	0.3445	0.3425	0.4215	-0.018
Mof_H 	H 	0.4023	0.3494	0.3054	0.104
Mof_H 	H 	0.5485	0.1486	0.3034	0.098
Mof_H 	H 	0.4881	0.1516	0.4186	-0.029
Mof_H 	H 	0.3563	0.2115	0.0001	-0.094
Mof_H 	H 	0.1972	0.2595	0.0285	0.257
Mof_H 	H 	0.194	0.4427	0.0319	0.25
Mof_H 	H 	0.3532	0.3986	0.0042	-0.085
Mof_H 	H 	0.1639	0.3944	0.92	0.242
Mof_H 	H 	0.0872	0.4242	0.846	-0.106
Mof_H 	H 	0.8598	0.43	0.0012	-0.106
Mof_H 	H 	0.9314	0.404	0.077	0.258
Mof_H 	H 	0.6821	0.1671	0.8443	-0.004
Mof_H 	H 	0.7112	0.1773	0.7303	0.088
Mof_H 	H 	0.6997	0.3681	0.7403	0.089
Mof_H 	H 	0.6677	0.3533	0.8539	-0.018
Mof_H 	H 	0.6743	0.2237	0.6341	0.085
Mof_H 	H 	0.705	0.243	0.5182	0.013
Mof_H 	H 	0.8271	0.3597	0.5105	0.01
Mof_H 	H 	0.7999	0.3443	0.6297	0.085
Mof_H 	H 	0.6085	0.1575	0.0785	-0.018
Mof_H 	H 	0.5571	0.1506	0.1946	0.104
Mof_H 	H 	0.5005	0.3514	0.1966	0.098
Mof_H 	H 	0.5583	0.3484	0.0814	-0.028
Mof_C 	C 	0.4564	0.0163	0.7715	0.49
Mof_C 	C 	0.3717	0.997	0.801	-0.395
Mof_C 	C 	0.3317	0.9924	0.7588	0.388
Mof_C 	C 	0.2526	0.976	0.788	-0.598
Mof_C 	C 	0.2181	0.9674	0.8526	0.597
Mof_C 	C 	0.2535	0.9741	0.8953	-0.557
Mof_C 	C 	0.3328	0.9902	0.869	0.388
Mof_C 	C 	0.0558	0.9958	0.8978	0.467
Mof_C 	C 	0.0378	0.0638	0.9026	-0.475
Mof_C 	C 	0.9484	0.107	0.9198	0.346
Mof_C 	C 	0.881	0.085	0.9308	-0.358
Mof_C 	C 	0.9062	0.0154	0.9236	0.315
Mof_C 	C 	0.9929	0.9702	0.9078	-0.458
Mof_C 	C 	0.7857	0.1321	0.9471	0.436
Mof_C 	C 	0.5073	0.1771	0.7087	0.09
Mof_C 	C 	0.4571	0.2459	0.7141	-0.15
Mof_C 	C 	0.4292	0.2806	0.7736	0.063
Mof_C 	C 	0.4562	0.2394	0.8266	-0.148
Mof_C 	C 	0.5052	0.1712	0.8172	0.098
Mof_C 	C 	0.3772	0.3542	0.783	0.066
Mof_C 	C 	0.3164	0.3892	0.7528	-0.145
Mof_C 	C 	0.2652	0.4597	0.7643	0.087
Mof_C 	C 	0.3309	0.4643	0.8315	0.079
Mof_C 	C 	0.3874	0.3911	0.8229	-0.142
Mof_C 	C 	0.6914	0.897	0.6974	0.149
Mof_C 	C 	0.7281	0.8269	0.6929	-0.182
Mof_C 	C 	0.7301	0.7882	0.7514	0.086
Mof_C 	C 	0.6968	0.8259	0.8097	-0.175
Mof_C 	C 	0.6638	0.8948	0.8072	0.129
Mof_C 	C 	0.7442	0.4837	0.7285	0.494
Mof_C 	C 	0.6697	0.503	0.699	-0.404
Mof_C 	C 	0.5829	0.5076	0.7412	0.4
Mof_C 	C 	0.5166	0.524	0.712	-0.615
Mof_C 	C 	0.5381	0.5326	0.6474	0.616
Mof_C 	C 	0.6229	0.5259	0.6047	-0.573
Mof_C 	C 	0.692	0.5098	0.631	0.4
Mof_C 	C 	0.4494	0.5042	0.6022	0.563
Mof_C 	C 	0.5042	0.4362	0.5974	-0.585
Mof_C 	C 	0.4752	0.393	0.5802	0.45
Mof_C 	C 	0.3968	0.415	0.5692	-0.445
Mof_C 	C 	0.3452	0.4846	0.5764	0.441
Mof_C 	C 	0.3709	0.5298	0.5922	-0.593
Mof_C 	C 	0.3649	0.3679	0.5529	0.47
Mof_C 	C 	0.8931	0.3229	0.7913	0.079
Mof_C 	C 	0.9171	0.2541	0.7859	-0.132
Mof_C 	C 	0.9834	0.2194	0.7264	0.035
Mof_C 	C 	0.0222	0.2606	0.6734	-0.119
Mof_C 	C 	0.9936	0.3288	0.6828	0.076
Mof_C 	C 	0.0144	0.1458	0.717	0.093
Mof_C 	C 	0.9584	0.1108	0.7472	-0.164
Mof_C 	C 	0.9892	0.0403	0.7357	0.09
Mof_C 	C 	0.1267	0.0357	0.6685	0.088
Mof_C 	C 	0.1014	0.1089	0.6771	-0.157
Mof_C 	C 	0.7858	0.603	0.8026	0.149
Mof_C 	C 	0.7479	0.6731	0.8071	-0.182
Mof_C 	C 	0.7697	0.7118	0.7486	0.086
Mof_C 	C 	0.8324	0.6741	0.6903	-0.176
Mof_C 	C 	0.8658	0.6052	0.6928	0.129
Mof_C 	C 	0.2279	0.2285	0.5163	0.491
Mof_C 	C 	0.1727	0.199	0.497	-0.396
Mof_C 	C 	0.0905	0.2412	0.4924	0.389
Mof_C 	C 	0.0406	0.212	0.476	-0.598
Mof_C 	C 	0.0707	0.1474	0.4674	0.605
Mof_C 	C 	0.1488	0.1047	0.4741	-0.562
Mof_C 	C 	0.2018	0.131	0.4902	0.391
Mof_C 	C 	0.9536	0.1022	0.4958	0.551
Mof_C 	C 	0.9404	0.0974	0.5638	-0.576
Mof_C 	C 	0.8682	0.0802	0.607	0.441
Mof_C 	C 	0.8118	0.0692	0.585	-0.439
Mof_C 	C 	0.8298	0.0764	0.5154	0.432
Mof_C 	C 	0.9007	0.0922	0.4702	-0.583
Mof_C 	C 	0.7328	0.0529	0.6321	0.467
Mof_C 	C 	0.216	0.2913	0.6771	0.089
Mof_C 	C 	0.1712	0.2859	0.7459	-0.148
Mof_C 	C 	0.2028	0.2264	0.7806	0.061
Mof_C 	C 	0.2828	0.1734	0.7394	-0.147
Mof_C 	C 	0.3224	0.1828	0.6712	0.098
Mof_C 	C 	0.1602	0.217	0.8542	0.071
Mof_C 	C 	0.0692	0.2472	0.8892	-0.152
Mof_C 	C 	0.0295	0.2357	0.9597	0.099
Mof_C 	C 	0.1624	0.1685	0.9643	0.082
Mof_C 	C 	0.2103	0.1771	0.8911	-0.145
Mof_C 	C 	0.3888	0.3026	0.397	0.149
Mof_C 	C 	0.421	0.3071	0.3269	-0.182
Mof_C 	C 	0.4815	0.2486	0.2882	0.086
Mof_C 	C 	0.5065	0.1903	0.3259	-0.176
Mof_C 	C 	0.471	0.1928	0.3948	0.129
Mof_C 	C 	0.4727	0.2715	0.9837	0.493
Mof_C 	C 	0.3687	0.301	0.003	-0.402
Mof_C 	C 	0.3241	0.2588	0.0076	0.399
Mof_C 	C 	0.2286	0.288	0.024	-0.614
Mof_C 	C 	0.1855	0.3526	0.0326	0.615
Mof_C 	C 	0.2276	0.3953	0.0259	-0.571
Mof_C 	C 	0.323	0.369	0.0098	0.398
Mof_C 	C 	0.0516	0.3978	0.0042	0.559
Mof_C 	C 	0.1016	0.4026	0.9362	-0.581
Mof_C 	C 	0.0554	0.4198	0.893	0.448
Mof_C 	C 	0.966	0.4308	0.915	-0.443
Mof_C 	C 	0.9216	0.4236	0.9846	0.432
Mof_C 	C 	0.9631	0.4078	0.0298	-0.585
Mof_C 	C 	0.9178	0.4471	0.8679	0.469
Mof_C 	C 	0.6844	0.2087	0.8229	0.09
Mof_C 	C 	0.703	0.2141	0.7541	-0.15
Mof_C 	C 	0.7098	0.2736	0.7194	0.063
Mof_C 	C 	0.6956	0.3266	0.7606	-0.148
Mof_C 	C 	0.6764	0.3172	0.8288	0.098
Mof_C 	C 	0.7314	0.283	0.6458	0.066
Mof_C 	C 	0.7056	0.2528	0.6108	-0.145
Mof_C 	C 	0.7249	0.2643	0.5403	0.087
Mof_C 	C 	0.7952	0.3315	0.5357	0.079
Mof_C 	C 	0.7785	0.3229	0.6089	-0.142
Mof_C 	C 	0.5884	0.1974	0.103	0.149
Mof_C 	C 	0.555	0.1929	0.1731	-0.182
Mof_C 	C 	0.5183	0.2514	0.2118	0.086
Mof_C 	C 	0.5227	0.3097	0.1741	-0.176
Mof_C 	C 	0.5586	0.3072	0.1052	0.129
Mof_N 	N 	0.5319	0.1369	0.7601	-0.27
Mof_N 	N 	0.2735	0.496	0.8034	-0.142
Mof_N 	N 	0.6627	0.9316	0.7508	-0.286
Mof_N 	N 	0.9289	0.3631	0.7399	-0.265
Mof_N 	N 	0.0729	0.004	0.6966	-0.141
Mof_N 	N 	0.8451	0.5684	0.7492	-0.286
Mof_N 	N 	0.292	0.2399	0.6369	-0.27
Mof_N 	N 	0.0769	0.1966	0.996	-0.143
Mof_N 	N 	0.4135	0.2492	0.4316	-0.286
Mof_N 	N 	0.6688	0.2601	0.8631	-0.27
Mof_N 	N 	0.7695	0.3034	0.504	-0.142
Mof_N 	N 	0.5943	0.2508	0.0684	-0.286
Mof_O 	O 	0.4867	0.0241	0.8101	-0.512
Mof_O 	O 	0.4898	0.0214	0.7088	-0.374
Mof_O 	O 	0.1454	0.9463	0.8795	-0.415
Mof_O 	O 	0.7657	0.1953	0.9519	-0.485
Mof_O 	O 	0.7235	0.1105	0.9549	-0.335
Mof_O 	O 	0.8209	0.4759	0.6899	-0.512
Mof_O 	O 	0.72	0.4786	0.7912	-0.375
Mof_O 	O 	0.4712	0.5537	0.6205	-0.44
Mof_O 	O 	0.4129	0.3047	0.5481	-0.493
Mof_O 	O 	0.2889	0.3895	0.5451	-0.342
Mof_O 	O 	0.2968	0.1899	0.5241	-0.511
Mof_O 	O 	0.1986	0.2912	0.5214	-0.374
Mof_O 	O 	0.0249	0.1205	0.4463	-0.431
Mof_O 	O 	0.7176	0.0481	0.6953	-0.493
Mof_O 	O 	0.6784	0.0451	0.6105	-0.342
Mof_O 	O 	0.5108	0.3101	0.9759	-0.512
Mof_O 	O 	0.5112	0.2088	0.9786	-0.375
Mof_O 	O 	0.0917	0.3795	0.0537	-0.438
Mof_O 	O 	0.961	0.4519	0.8047	-0.493
Mof_O 	O 	0.834	0.4549	0.8895	-0.342
_end
