# CIF file generated by openbabel 3.1.0, see https://openbabel.org
data_I
_chemical_name_common 'image0'
_cell_length_a 13.5274
_cell_length_b 13.5274
_cell_length_c 8.0726
_cell_angle_alpha 90
_cell_angle_beta 90
_cell_angle_gamma 120
_space_group_name_H-M_alt 'P 1'
_space_group_name_Hall 'P 1'
loop_
    _symmetry_equiv_pos_as_xyz
    x,y,z
loop_
    _atom_site_label
    _atom_site_type_symbol
    _atom_site_fract_x
    _atom_site_fract_y
    _atom_site_fract_z
    _atom_site_occupancy
    Mn1      Mn       0.30132    0.33822    0.54516    1.000
    O1       O        0.22957    0.18151    0.40610    1.000
    C1       C        0.53477    0.32292    0.54850    1.000
    C2       C        0.35367    0.55980    0.77660    1.000
    O2       O        0.24563    0.05844    0.24650    1.000
    C3       C        0.26730    0.15800    0.28010    1.000
    N1       N        0.34690    0.20880    0.00010    1.000
    H1       H        0.41120    0.25680    0.94530    1.000
    H2       H        0.28660    0.19880    0.93980    1.000
    C4       C        0.34560    0.25500    0.16380    1.000
    H3       H        0.42310    0.28730    0.20850    1.000
    N2       N        0.36593    0.42779    0.30290    1.000
    H4       H        0.34840    0.48370    0.29520    1.000
    H5       H        0.44250    0.46090    0.30170    1.000
    C5       C        0.31970    0.35310    0.15640    1.000
    H6       H        0.35310    0.39760    0.05690    1.000
    H7       H        0.23780    0.32200    0.15120    1.000
    N3       N        0.45550    0.32150    0.60310    1.000
    N4       N        0.36780    0.50010    0.69190    1.000
    Mn2      Mn       0.66178    0.96310    0.54516    1.000
    O3       O        0.81849    0.04806    0.40610    1.000
    C6       C        0.67708    0.21185    0.54850    1.000
    C7       C        0.44020    0.79387    0.77660    1.000
    O4       O        0.94156    0.18719    0.24650    1.000
    C8       C        0.84200    0.10930    0.28010    1.000
    N5       N        0.79120    0.13810    0.00010    1.000
    H8       H        0.74320    0.15440    0.94530    1.000
    H9       H        0.80120    0.08780    0.93980    1.000
    C9       C        0.74500    0.09060    0.16380    1.000
    H10      H        0.71270    0.13580    0.20850    1.000
    N6       N        0.57221    0.93814    0.30290    1.000
    H11      H        0.51630    0.86470    0.29520    1.000
    H12      H        0.53910    0.98160    0.30170    1.000
    C10      C        0.64690    0.96660    0.15640    1.000
    H13      H        0.60240    0.95550    0.05690    1.000
    H14      H        0.67800    0.91580    0.15120    1.000
    N7       N        0.67850    0.13400    0.60310    1.000
    N8       N        0.49990    0.86770    0.69190    1.000
    Mn3      Mn       0.03690    0.69868    0.54516    1.000
    O5       O        0.95194    0.77043    0.40610    1.000
    C11      C        0.78815    0.46523    0.54850    1.000
    C12      C        0.20613    0.64633    0.77660    1.000
    O6       O        0.81281    0.75437    0.24650    1.000
    C13      C        0.89070    0.73270    0.28010    1.000
    N9       N        0.86190    0.65310    0.00010    1.000
    H15      H        0.84560    0.58880    0.94530    1.000
    H16      H        0.91220    0.71340    0.93980    1.000
    C14      C        0.90940    0.65440    0.16380    1.000
    H17      H        0.86420    0.57690    0.20850    1.000
    N10      N        0.06186    0.63407    0.30290    1.000
    H18      H        0.13530    0.65160    0.29520    1.000
    H19      H        0.01840    0.55750    0.30170    1.000
    C15      C        0.03340    0.68030    0.15640    1.000
    H20      H        0.04450    0.64690    0.05690    1.000
    H21      H        0.08420    0.76220    0.15120    1.000
    N11      N        0.86600    0.54450    0.60310    1.000
    N12      N        0.13230    0.63220    0.69190    1.000
    Mn4      Mn       0.69868    0.66178    0.04516    1.000
    O7       O        0.77043    0.81849    0.90610    1.000
    C16      C        0.46523    0.67708    0.04850    1.000
    C17      C        0.64633    0.44020    0.27660    1.000
    O8       O        0.75437    0.94156    0.74650    1.000
    C18      C        0.73270    0.84200    0.78010    1.000
    N13      N        0.65310    0.79120    0.50010    1.000
    H22      H        0.58880    0.74320    0.44530    1.000
    H23      H        0.71340    0.80120    0.43980    1.000
    C19      C        0.65440    0.74500    0.66380    1.000
    H24      H        0.57690    0.71270    0.70850    1.000
    N14      N        0.63407    0.57221    0.80290    1.000
    H25      H        0.65160    0.51630    0.79520    1.000
    H26      H        0.55750    0.53910    0.80170    1.000
    C20      C        0.68030    0.64690    0.65640    1.000
    H27      H        0.64690    0.60240    0.55690    1.000
    H28      H        0.76220    0.67800    0.65120    1.000
    N15      N        0.54450    0.67850    0.10310    1.000
    N16      N        0.63220    0.49990    0.19190    1.000
    Mn5      Mn       0.33822    0.03690    0.04516    1.000
    O9       O        0.18151    0.95194    0.90610    1.000
    C21      C        0.32292    0.78815    0.04850    1.000
    C22      C        0.55980    0.20613    0.27660    1.000
    O10      O        0.05844    0.81281    0.74650    1.000
    C23      C        0.15800    0.89070    0.78010    1.000
    N17      N        0.20880    0.86190    0.50010    1.000
    H29      H        0.25680    0.84560    0.44530    1.000
    H30      H        0.19880    0.91220    0.43980    1.000
    C24      C        0.25500    0.90940    0.66380    1.000
    H31      H        0.28730    0.86420    0.70850    1.000
    N18      N        0.42779    0.06186    0.80290    1.000
    H32      H        0.48370    0.13530    0.79520    1.000
    H33      H        0.46090    0.01840    0.80170    1.000
    C25      C        0.35310    0.03340    0.65640    1.000
    H34      H        0.39760    0.04450    0.55690    1.000
    H35      H        0.32200    0.08420    0.65120    1.000
    N19      N        0.32150    0.86600    0.10310    1.000
    N20      N        0.50010    0.13230    0.19190    1.000
    Mn6      Mn       0.96310    0.30132    0.04516    1.000
    O11      O        0.04806    0.22957    0.90610    1.000
    C26      C        0.21185    0.53477    0.04850    1.000
    C27      C        0.79387    0.35367    0.27660    1.000
    O12      O        0.18719    0.24563    0.74650    1.000
    C28      C        0.10930    0.26730    0.78010    1.000
    N21      N        0.13810    0.34690    0.50010    1.000
    H36      H        0.15440    0.41120    0.44530    1.000
    H37      H        0.08780    0.28660    0.43980    1.000
    C29      C        0.09060    0.34560    0.66380    1.000
    H38      H        0.13580    0.42310    0.70850    1.000
    N22      N        0.93814    0.36593    0.80290    1.000
    H39      H        0.86470    0.34840    0.79520    1.000
    H40      H        0.98160    0.44250    0.80170    1.000
    C30      C        0.96660    0.31970    0.65640    1.000
    H41      H        0.95550    0.35310    0.55690    1.000
    H42      H        0.91580    0.23780    0.65120    1.000
    N23      N        0.13400    0.45550    0.10310    1.000
    N24      N        0.86770    0.36780    0.19190    1.000
    Mn7      Mn       0.33333    0.66667    0.92240    1.000
    Mn8      Mn       0.66667    0.33333    0.42240    1.000
