# CIF file generated by openbabel 3.1.0, see https://openbabel.org
data_I
_chemical_name_common 'image0'
_cell_length_a 10.8304
_cell_length_b 16.7133
_cell_length_c 28.085
_cell_angle_alpha 90
_cell_angle_beta 94.967
_cell_angle_gamma 90
_space_group_name_H-M_alt 'P 1'
_space_group_name_Hall 'P 1'
loop_
    _symmetry_equiv_pos_as_xyz
    x,y,z
loop_
    _atom_site_label
    _atom_site_type_symbol
    _atom_site_fract_x
    _atom_site_fract_y
    _atom_site_fract_z
    _atom_site_occupancy
    La1      La       0.54031    0.87735    0.53169    1.000
    O1       O        0.58716    0.79637    0.46776    1.000
    O2       O        0.00820    0.60828    0.11331    1.000
    N1       N        0.65300    0.76445    0.43471    1.000
    N2       N        0.95690    0.61871    0.15385    1.000
    C1       C        0.76340    0.79492    0.42650    1.000
    H1       H        0.79630    0.83700    0.44520    1.000
    C2       C        0.82840    0.76497    0.39102    1.000
    H2       H        0.90580    0.78580    0.38590    1.000
    C3       C        0.77830    0.70330    0.36261    1.000
    C4       C        0.66910    0.67270    0.37294    1.000
    H3       H        0.63640    0.62920    0.35550    1.000
    C5       C        0.60440    0.70401    0.40861    1.000
    H4       H        0.52750    0.68310    0.41440    1.000
    C6       C        0.84980    0.67320    0.32166    1.000
    H5       H        0.90720    0.71480    0.31400    1.000
    H6       H        0.89870    0.62740    0.33310    1.000
    C7       C        0.78670    0.65310    0.28325    1.000
    H7       H        0.72540    0.69470    0.27610    1.000
    H8       H        0.74150    0.60500    0.29020    1.000
    C8       C        0.84870    0.63700    0.23690    1.000
    C9       C        0.97090    0.62040    0.23688    1.000
    H9       H        0.01860    0.61310    0.26570    1.000
    C10      C        0.02510    0.61400    0.19429    1.000
    H10      H        0.11020    0.60640    0.19450    1.000
    C11      C        0.83770    0.62890    0.15370    1.000
    H11      H        0.78900    0.62990    0.12480    1.000
    C12      C        0.78420    0.63790    0.19474    1.000
    H12      H        0.69880    0.64500    0.19350    1.000
    O3       O        0.72311    0.80771    0.57051    1.000
    O4       O        0.00609    0.52713    0.95580    1.000
    N3       N        0.74800    0.77095    0.61233    1.000
    N4       N        0.99226    0.56032    0.91200    1.000
    C13      C        0.83700    0.79480    0.64140    1.000
    H13      H        0.88140    0.84000    0.63380    1.000
    C14      C        0.86930    0.75610    0.68338    1.000
    H14      H        0.93500    0.77600    0.70350    1.000
    C15      C        0.80930    0.68956    0.69698    1.000
    C16      C        0.71710    0.66860    0.66607    1.000
    H15      H        0.66970    0.62450    0.67330    1.000
    C17      C        0.68640    0.70780    0.62371    1.000
    H16      H        0.62110    0.68910    0.60300    1.000
    C18      C        0.84060    0.64350    0.74367    1.000
    H17      H        0.76960    0.64680    0.76240    1.000
    H18      H        0.85120    0.58760    0.73570    1.000
    C19      C        0.94870    0.66864    0.77354    1.000
    H19      H        0.94390    0.72600    0.77830    1.000
    H20      H        0.02160    0.65820    0.75670    1.000
    C20      C        0.96540    0.62813    0.82225    1.000
    C21      C        0.07520    0.59523    0.83969    1.000
    H21      H        0.14170    0.59500    0.82080    1.000
    C22      C        0.08950    0.56211    0.88511    1.000
    H22      H        0.16560    0.54130    0.89690    1.000
    C23      C        0.88210    0.58886    0.89501    1.000
    H23      H        0.81450    0.58440    0.91310    1.000
    C24      C        0.86840    0.62471    0.85093    1.000
    H24      H        0.79240    0.64710    0.84020    1.000
    La2      La       0.95969    0.37735    0.96831    1.000
    O5       O        0.91284    0.29637    0.03224    1.000
    O6       O        0.49180    0.10828    0.38669    1.000
    N5       N        0.84700    0.26445    0.06529    1.000
    N6       N        0.54310    0.11871    0.34615    1.000
    C25      C        0.73660    0.29492    0.07350    1.000
    H25      H        0.70370    0.33700    0.05480    1.000
    C26      C        0.67160    0.26497    0.10898    1.000
    H26      H        0.59420    0.28580    0.11410    1.000
    C27      C        0.72170    0.20330    0.13739    1.000
    C28      C        0.83090    0.17270    0.12706    1.000
    H27      H        0.86360    0.12920    0.14450    1.000
    C29      C        0.89560    0.20401    0.09139    1.000
    H28      H        0.97250    0.18310    0.08560    1.000
    C30      C        0.65020    0.17320    0.17834    1.000
    H29      H        0.59280    0.21480    0.18600    1.000
    H30      H        0.60130    0.12740    0.16690    1.000
    C31      C        0.71330    0.15310    0.21675    1.000
    H31      H        0.77460    0.19470    0.22390    1.000
    H32      H        0.75850    0.10500    0.20980    1.000
    C32      C        0.65130    0.13700    0.26310    1.000
    C33      C        0.52910    0.12040    0.26312    1.000
    H33      H        0.48140    0.11310    0.23430    1.000
    C34      C        0.47490    0.11400    0.30571    1.000
    H34      H        0.38980    0.10640    0.30550    1.000
    C35      C        0.66230    0.12890    0.34630    1.000
    H35      H        0.71100    0.12990    0.37520    1.000
    C36      C        0.71580    0.13790    0.30526    1.000
    H36      H        0.80120    0.14500    0.30650    1.000
    O7       O        0.77689    0.30771    0.92949    1.000
    O8       O        0.49391    0.02713    0.54420    1.000
    N7       N        0.75200    0.27095    0.88767    1.000
    N8       N        0.50774    0.06032    0.58800    1.000
    C37      C        0.66300    0.29480    0.85860    1.000
    H37      H        0.61860    0.34000    0.86620    1.000
    C38      C        0.63070    0.25610    0.81662    1.000
    H38      H        0.56500    0.27600    0.79650    1.000
    C39      C        0.69070    0.18956    0.80302    1.000
    C40      C        0.78290    0.16860    0.83393    1.000
    H39      H        0.83030    0.12450    0.82670    1.000
    C41      C        0.81360    0.20780    0.87629    1.000
    H40      H        0.87890    0.18910    0.89700    1.000
    C42      C        0.65940    0.14350    0.75633    1.000
    H41      H        0.73040    0.14680    0.73760    1.000
    H42      H        0.64880    0.08760    0.76430    1.000
    C43      C        0.55130    0.16864    0.72646    1.000
    H43      H        0.55610    0.22600    0.72170    1.000
    H44      H        0.47840    0.15820    0.74330    1.000
    C44      C        0.53460    0.12813    0.67775    1.000
    C45      C        0.42480    0.09523    0.66031    1.000
    H45      H        0.35830    0.09500    0.67920    1.000
    C46      C        0.41050    0.06211    0.61489    1.000
    H46      H        0.33440    0.04130    0.60310    1.000
    C47      C        0.61790    0.08886    0.60499    1.000
    H47      H        0.68550    0.08440    0.58690    1.000
    C48      C        0.63160    0.12471    0.64907    1.000
    H48      H        0.70760    0.14710    0.65980    1.000
    La3      La       0.45969    0.12265    0.46831    1.000
    O9       O        0.41284    0.20363    0.53224    1.000
    O10      O        0.99180    0.39172    0.88669    1.000
    N9       N        0.34700    0.23555    0.56529    1.000
    N10      N        0.04310    0.38129    0.84615    1.000
    C49      C        0.23660    0.20508    0.57350    1.000
    H49      H        0.20370    0.16300    0.55480    1.000
    C50      C        0.17160    0.23503    0.60898    1.000
    H50      H        0.09420    0.21420    0.61410    1.000
    C51      C        0.22170    0.29670    0.63739    1.000
    C52      C        0.33090    0.32730    0.62706    1.000
    H51      H        0.36360    0.37080    0.64450    1.000
    C53      C        0.39560    0.29599    0.59139    1.000
    H52      H        0.47250    0.31690    0.58560    1.000
    C54      C        0.15020    0.32680    0.67834    1.000
    H53      H        0.09280    0.28520    0.68600    1.000
    H54      H        0.10130    0.37260    0.66690    1.000
    C55      C        0.21330    0.34690    0.71675    1.000
    H55      H        0.27460    0.30530    0.72390    1.000
    H56      H        0.25850    0.39500    0.70980    1.000
    C56      C        0.15130    0.36300    0.76310    1.000
    C57      C        0.02910    0.37960    0.76312    1.000
    H57      H        0.98140    0.38690    0.73430    1.000
    C58      C        0.97490    0.38600    0.80571    1.000
    H58      H        0.88980    0.39360    0.80550    1.000
    C59      C        0.16230    0.37110    0.84630    1.000
    H59      H        0.21100    0.37010    0.87520    1.000
    C60      C        0.21580    0.36210    0.80526    1.000
    H60      H        0.30120    0.35500    0.80650    1.000
    O11      O        0.27689    0.19229    0.42949    1.000
    O12      O        0.99391    0.47287    0.04420    1.000
    N11      N        0.25200    0.22905    0.38767    1.000
    N12      N        0.00774    0.43968    0.08800    1.000
    C61      C        0.16300    0.20520    0.35860    1.000
    H61      H        0.11860    0.16000    0.36620    1.000
    C62      C        0.13070    0.24390    0.31662    1.000
    H62      H        0.06500    0.22400    0.29650    1.000
    C63      C        0.19070    0.31044    0.30302    1.000
    C64      C        0.28290    0.33140    0.33393    1.000
    H63      H        0.33030    0.37550    0.32670    1.000
    C65      C        0.31360    0.29220    0.37629    1.000
    H64      H        0.37890    0.31090    0.39700    1.000
    C66      C        0.15940    0.35650    0.25633    1.000
    H65      H        0.23040    0.35320    0.23760    1.000
    H66      H        0.14880    0.41240    0.26430    1.000
    C67      C        0.05130    0.33136    0.22646    1.000
    H67      H        0.05610    0.27400    0.22170    1.000
    H68      H        0.97840    0.34180    0.24330    1.000
    C68      C        0.03460    0.37187    0.17775    1.000
    C69      C        0.92480    0.40477    0.16031    1.000
    H69      H        0.85830    0.40500    0.17920    1.000
    C70      C        0.91050    0.43789    0.11489    1.000
    H70      H        0.83440    0.45870    0.10310    1.000
    C71      C        0.11790    0.41114    0.10499    1.000
    H71      H        0.18550    0.41560    0.08690    1.000
    C72      C        0.13160    0.37529    0.14907    1.000
    H72      H        0.20760    0.35290    0.15980    1.000
    La4      La       0.04031    0.62265    0.03169    1.000
    O13      O        0.08716    0.70363    0.96776    1.000
    O14      O        0.50820    0.89172    0.61331    1.000
    N13      N        0.15300    0.73555    0.93471    1.000
    N14      N        0.45690    0.88129    0.65385    1.000
    C73      C        0.26340    0.70508    0.92650    1.000
    H73      H        0.29630    0.66300    0.94520    1.000
    C74      C        0.32840    0.73503    0.89102    1.000
    H74      H        0.40580    0.71420    0.88590    1.000
    C75      C        0.27830    0.79670    0.86261    1.000
    C76      C        0.16910    0.82730    0.87294    1.000
    H75      H        0.13640    0.87080    0.85550    1.000
    C77      C        0.10440    0.79599    0.90861    1.000
    H76      H        0.02750    0.81690    0.91440    1.000
    C78      C        0.34980    0.82680    0.82166    1.000
    H77      H        0.40720    0.78520    0.81400    1.000
    H78      H        0.39870    0.87260    0.83310    1.000
    C79      C        0.28670    0.84690    0.78325    1.000
    H79      H        0.22540    0.80530    0.77610    1.000
    H80      H        0.24150    0.89500    0.79020    1.000
    C80      C        0.34870    0.86300    0.73690    1.000
    C81      C        0.47090    0.87960    0.73688    1.000
    H81      H        0.51860    0.88690    0.76570    1.000
    C82      C        0.52510    0.88600    0.69429    1.000
    H82      H        0.61020    0.89360    0.69450    1.000
    C83      C        0.33770    0.87110    0.65370    1.000
    H83      H        0.28900    0.87010    0.62480    1.000
    C84      C        0.28420    0.86210    0.69474    1.000
    H84      H        0.19880    0.85500    0.69350    1.000
    O15      O        0.22311    0.69229    0.07051    1.000
    O16      O        0.50609    0.97287    0.45580    1.000
    N15      N        0.24800    0.72905    0.11233    1.000
    N16      N        0.49226    0.93968    0.41200    1.000
    C85      C        0.33700    0.70520    0.14140    1.000
    H85      H        0.38140    0.66000    0.13380    1.000
    C86      C        0.36930    0.74390    0.18338    1.000
    H86      H        0.43500    0.72400    0.20350    1.000
    C87      C        0.30930    0.81044    0.19698    1.000
    C88      C        0.21710    0.83140    0.16607    1.000
    H87      H        0.16970    0.87550    0.17330    1.000
    C89      C        0.18640    0.79220    0.12371    1.000
    H88      H        0.12110    0.81090    0.10300    1.000
    C90      C        0.34060    0.85650    0.24367    1.000
    H89      H        0.26960    0.85320    0.26240    1.000
    H90      H        0.35120    0.91240    0.23570    1.000
    C91      C        0.44870    0.83136    0.27354    1.000
    H91      H        0.44390    0.77400    0.27830    1.000
    H92      H        0.52160    0.84180    0.25670    1.000
    C92      C        0.46540    0.87187    0.32225    1.000
    C93      C        0.57520    0.90477    0.33969    1.000
    H93      H        0.64170    0.90500    0.32080    1.000
    C94      C        0.58950    0.93789    0.38511    1.000
    H94      H        0.66560    0.95870    0.39690    1.000
    C95      C        0.38210    0.91114    0.39501    1.000
    H95      H        0.31450    0.91560    0.41310    1.000
    C96      C        0.36840    0.87529    0.35093    1.000
    H96      H        0.29240    0.85290    0.34020    1.000
