data_functionalizedCrystal
_audit_creation_method	'EQeq! by Chris Wilmer'
_symmetry_space_group_name_H-M	'P1'
_symmetry_Int_Tables_number	1
_symmetry_cell_setting	triclinic
loop_
_symmetry_equiv_pos_as_xyz
  x,y,z
_cell_length_a	20.136
_cell_length_b	21.19
_cell_length_c	17.292
_cell_angle_alpha	90
_cell_angle_beta	93.78
_cell_angle_gamma	90
loop_
_atom_site_label
_atom_site_type_symbol
_atom_site_fract_x
_atom_site_fract_y
_atom_site_fract_z
_atom_site_charge
Mof_Co	Co	0.10654	0.25704	0.1059	1.158
Mof_O 	O 	0.16659	0.32191	0.14923	-0.48
Mof_O 	O 	0.2602	0.31655	0.08566	-0.443
Mof_O 	O 	0.14607	0.26593	0.9857	-0.47
Mof_O 	O 	0.04235	0.27641	0.01377	-0.482
Mof_O 	O 	0.26172	0.67932	0.42101	-0.434
Mof_O 	O 	0.36383	0.66916	0.37763	-0.461
Mof_N 	N 	0.04106	0.25807	0.19512	-0.189
Mof_C 	C 	0.22442	0.34018	0.13376	0.385
Mof_C 	C 	0.2514	0.39589	0.17954	-0.1
Mof_C 	C 	0.21218	0.42697	0.22855	-0.028
Mof_H 	H 	0.1685	0.4119	0.2351	0.044
Mof_C 	C 	0.2353	0.48117	0.26985	0.016
Mof_C 	C 	0.1951	0.5145	0.3199	-0.083
Mof_H 	H 	0.1516	0.4995	0.3278	0.056
Mof_C 	C 	0.21769	0.5681	0.3571	0.012
Mof_H 	H 	0.1897	0.5904	0.3898	0.04
Mof_C 	C 	0.28278	0.59011	0.34694	-0.089
Mof_C 	C 	0.32344	0.55855	0.29992	-0.033
Mof_H 	H 	0.3672	0.5737	0.2941	0.049
Mof_C 	C 	0.30081	0.50323	0.25953	0.022
Mof_C 	C 	0.34125	0.46936	0.2098	-0.09
Mof_H 	H 	0.3855	0.4831	0.2035	0.056
Mof_C 	C 	0.31734	0.41709	0.1707	0.017
Mof_H 	H 	0.345	0.3949	0.1375	0.032
Mof_C 	C 	0.08602	0.27505	0.96379	0.406
Mof_C 	C 	0.30456	0.65065	0.3857	0.372
Mof_C 	C 	0.06504	0.28223	0.87971	-0.097
Mof_C 	C 	0.11252	0.2828	0.82411	0.022
Mof_H 	H 	0.1586	0.2808	0.8399	0.038
Mof_C 	C 	0.09242	0.2862	0.7465	-0.087
Mof_H 	H 	0.1249	0.2877	0.7091	0.061
Mof_C 	C 	0.99849	0.28609	0.85761	-0.024
Mof_H 	H 	0.967	0.2878	0.8961	0.066
Mof_C 	C 	0.02393	0.28759	0.72175	0.028
Mof_C 	C 	0.976	0.2504	0.1651	-0.089
Mof_H 	H 	0.9729	0.2126	0.1316	-0.014
Mof_H 	H 	0.9625	0.2875	0.133	0.038
Mof_C 	C 	0.0616	0.2058	0.2541	0.089
Mof_H 	H 	0.0552	0.1638	0.2297	0.008
Mof_H 	H 	0.1092	0.2105	0.2715	0.083
Mof_C 	C 	0.0518	0.3183	0.2421	-0.246
Mof_H 	H 	0.0495	0.3555	0.2074	0.029
Mof_H 	H 	0.096	0.3176	0.2707	0.105
Mof_C 	C 	0.9815	0.2117	0.1765	-0.048
Mof_H 	H 	0.954	0.2274	0.131	0.072
Mof_H 	H 	0.999	0.1696	0.1635	0.025
Mof_C 	C 	0.0707	0.2432	0.2698	0.008
Mof_H 	H 	0.1097	0.271	0.2807	-0.012
Mof_H 	H 	0.0869	0.1991	0.2694	-0.116
Mof_C 	C 	0.004	0.3215	0.2003	0.147
Mof_H 	H 	0.9843	0.3331	0.1483	-0.047
Mof_H 	H 	0.0362	0.3549	0.2173	0.025
Mof_Co	Co	0.60654	0.75704	0.1059	1.159
Mof_O 	O 	0.66659	0.82191	0.14923	-0.479
Mof_O 	O 	0.7602	0.81655	0.08566	-0.443
Mof_O 	O 	0.64607	0.76593	0.9857	-0.469
Mof_O 	O 	0.54235	0.77641	0.01377	-0.483
Mof_O 	O 	0.76172	0.17932	0.42101	-0.433
Mof_O 	O 	0.86383	0.16916	0.37763	-0.46
Mof_N 	N 	0.54106	0.75807	0.19512	-0.188
Mof_C 	C 	0.72442	0.84018	0.13376	0.386
Mof_C 	C 	0.7514	0.89589	0.17954	-0.099
Mof_C 	C 	0.71218	0.92697	0.22855	-0.027
Mof_H 	H 	0.6685	0.9119	0.2351	0.045
Mof_C 	C 	0.7353	0.98117	0.26985	0.017
Mof_C 	C 	0.6951	0.0145	0.3199	-0.083
Mof_H 	H 	0.6516	0.9995	0.3278	0.056
Mof_C 	C 	0.71769	0.0681	0.3571	0.012
Mof_H 	H 	0.6897	0.0904	0.3898	0.04
Mof_C 	C 	0.78278	0.09011	0.34694	-0.089
Mof_C 	C 	0.82344	0.05855	0.29992	-0.033
Mof_H 	H 	0.8672	0.0737	0.2941	0.049
Mof_C 	C 	0.80081	0.00323	0.25953	0.022
Mof_C 	C 	0.84125	0.96936	0.2098	-0.09
Mof_H 	H 	0.8855	0.9831	0.2035	0.056
Mof_C 	C 	0.81734	0.91709	0.1707	0.017
Mof_H 	H 	0.845	0.8949	0.1375	0.032
Mof_C 	C 	0.58602	0.77505	0.96379	0.407
Mof_C 	C 	0.80456	0.15065	0.3857	0.372
Mof_C 	C 	0.56504	0.78223	0.87971	-0.098
Mof_C 	C 	0.61252	0.7828	0.82411	0.023
Mof_H 	H 	0.6586	0.7808	0.8399	0.038
Mof_C 	C 	0.59242	0.7862	0.7465	-0.088
Mof_H 	H 	0.6249	0.7877	0.7091	0.061
Mof_C 	C 	0.49849	0.78609	0.85761	-0.022
Mof_H 	H 	0.467	0.7878	0.8961	0.066
Mof_C 	C 	0.52393	0.78759	0.72175	0.028
Mof_C 	C 	0.476	0.7504	0.1651	-0.089
Mof_H 	H 	0.4729	0.7126	0.1316	-0.016
Mof_H 	H 	0.4625	0.7875	0.133	0.038
Mof_C 	C 	0.5616	0.7058	0.2541	0.089
Mof_H 	H 	0.5552	0.6638	0.2297	0.007
Mof_H 	H 	0.6092	0.7105	0.2715	0.083
Mof_C 	C 	0.5518	0.8183	0.2421	-0.245
Mof_H 	H 	0.5495	0.8555	0.2074	0.03
Mof_H 	H 	0.596	0.8176	0.2707	0.105
Mof_C 	C 	0.4815	0.7117	0.1765	-0.046
Mof_H 	H 	0.454	0.7274	0.131	0.073
Mof_H 	H 	0.499	0.6696	0.1635	0.025
Mof_C 	C 	0.5707	0.7432	0.2698	0.008
Mof_H 	H 	0.6097	0.771	0.2807	-0.012
Mof_H 	H 	0.5869	0.6991	0.2694	-0.116
Mof_C 	C 	0.504	0.8215	0.2003	0.144
Mof_H 	H 	0.4843	0.8331	0.1483	-0.045
Mof_H 	H 	0.5362	0.8549	0.2173	0.024
Mof_Co	Co	0.89346	0.25704	0.3941	1.165
Mof_O 	O 	0.83341	0.32191	0.35077	-0.474
Mof_O 	O 	0.7398	0.31655	0.41434	-0.43
Mof_O 	O 	0.85393	0.26593	0.5143	-0.485
Mof_O 	O 	0.95765	0.27641	0.48623	-0.425
Mof_O 	O 	0.73828	0.67932	0.07899	-0.444
Mof_O 	O 	0.63617	0.66916	0.12237	-0.468
Mof_N 	N 	0.95894	0.25807	0.30488	-0.187
Mof_C 	C 	0.77558	0.34018	0.36624	0.386
Mof_C 	C 	0.7486	0.39589	0.32046	-0.095
Mof_C 	C 	0.78782	0.42697	0.27145	-0.028
Mof_H 	H 	0.8315	0.4119	0.2649	0.045
Mof_C 	C 	0.7647	0.48117	0.23015	0.018
Mof_C 	C 	0.8049	0.5145	0.1801	-0.087
Mof_H 	H 	0.8484	0.4995	0.1722	0.053
Mof_C 	C 	0.78231	0.5681	0.1429	0.012
Mof_H 	H 	0.8103	0.5904	0.1102	0.034
Mof_C 	C 	0.71722	0.59011	0.15306	-0.095
Mof_C 	C 	0.67656	0.55855	0.20008	-0.031
Mof_H 	H 	0.6328	0.5737	0.2059	0.048
Mof_C 	C 	0.69919	0.50323	0.24047	0.02
Mof_C 	C 	0.65875	0.46936	0.2902	-0.087
Mof_H 	H 	0.6145	0.4831	0.2965	0.058
Mof_C 	C 	0.68266	0.41709	0.3293	0.017
Mof_H 	H 	0.655	0.3949	0.3625	0.039
Mof_C 	C 	0.91398	0.27505	0.53621	0.343
Mof_C 	C 	0.69544	0.65065	0.1143	0.371
Mof_C 	C 	0.93496	0.28223	0.62029	-0.083
Mof_C 	C 	0.88748	0.2828	0.67589	0.01
Mof_H 	H 	0.8414	0.2808	0.6601	0.043
Mof_C 	C 	0.90758	0.2862	0.7535	-0.079
Mof_H 	H 	0.8751	0.2877	0.7909	0.064
Mof_C 	C 	0.00151	0.28609	0.64239	-0.035
Mof_H 	H 	0.033	0.2878	0.6039	0.057
Mof_C 	C 	0.97607	0.28759	0.77825	0.021
Mof_C 	C 	0.024	0.2504	0.3349	-0.09
Mof_H 	H 	0.0271	0.2126	0.3684	-0.014
Mof_H 	H 	0.0375	0.2875	0.367	0.042
Mof_C 	C 	0.9384	0.2058	0.2459	0.091
Mof_H 	H 	0.9448	0.1638	0.2703	0.006
Mof_H 	H 	0.8908	0.2105	0.2285	0.08
Mof_C 	C 	0.9482	0.3183	0.2579	-0.245
Mof_H 	H 	0.9505	0.3555	0.2926	0.03
Mof_H 	H 	0.904	0.3176	0.2293	0.103
Mof_C 	C 	0.0185	0.2117	0.3235	-0.049
Mof_H 	H 	0.046	0.2274	0.369	0.079
Mof_H 	H 	0.001	0.1696	0.3365	0.031
Mof_C 	C 	0.9293	0.2432	0.2302	0.005
Mof_H 	H 	0.8903	0.271	0.2193	-0.014
Mof_H 	H 	0.9131	0.1991	0.2306	-0.116
Mof_C 	C 	0.996	0.3215	0.2997	0.139
Mof_H 	H 	0.0157	0.3331	0.3517	-0.039
Mof_H 	H 	0.9638	0.3549	0.2827	0.026
Mof_Co	Co	0.39346	0.75704	0.3941	1.166
Mof_O 	O 	0.33341	0.82191	0.35077	-0.474
Mof_O 	O 	0.2398	0.81655	0.41434	-0.43
Mof_O 	O 	0.35393	0.76593	0.5143	-0.485
Mof_O 	O 	0.45765	0.77641	0.48623	-0.425
Mof_O 	O 	0.23828	0.17932	0.07899	-0.444
Mof_O 	O 	0.13617	0.16916	0.12237	-0.467
Mof_N 	N 	0.45894	0.75807	0.30488	-0.187
Mof_C 	C 	0.27558	0.84018	0.36624	0.386
Mof_C 	C 	0.2486	0.89589	0.32046	-0.095
Mof_C 	C 	0.28782	0.92697	0.27145	-0.028
Mof_H 	H 	0.3315	0.9119	0.2649	0.045
Mof_C 	C 	0.2647	0.98117	0.23015	0.018
Mof_C 	C 	0.3049	0.0145	0.1801	-0.086
Mof_H 	H 	0.3484	0.9995	0.1722	0.053
Mof_C 	C 	0.28231	0.0681	0.1429	0.012
Mof_H 	H 	0.3103	0.0904	0.1102	0.034
Mof_C 	C 	0.21722	0.09011	0.15306	-0.094
Mof_C 	C 	0.17656	0.05855	0.20008	-0.032
Mof_H 	H 	0.1328	0.0737	0.2059	0.048
Mof_C 	C 	0.19919	0.00323	0.24047	0.021
Mof_C 	C 	0.15875	0.96936	0.2902	-0.087
Mof_H 	H 	0.1145	0.9831	0.2965	0.058
Mof_C 	C 	0.18266	0.91709	0.3293	0.017
Mof_H 	H 	0.155	0.8949	0.3625	0.039
Mof_C 	C 	0.41398	0.77505	0.53621	0.342
Mof_C 	C 	0.19544	0.15065	0.1143	0.371
Mof_C 	C 	0.43496	0.78223	0.62029	-0.082
Mof_C 	C 	0.38748	0.7828	0.67589	0.01
Mof_H 	H 	0.3414	0.7808	0.6601	0.043
Mof_C 	C 	0.40758	0.7862	0.7535	-0.078
Mof_H 	H 	0.3751	0.7877	0.7909	0.064
Mof_C 	C 	0.50151	0.78609	0.64239	-0.037
Mof_H 	H 	0.533	0.7878	0.6039	0.057
Mof_C 	C 	0.47607	0.78759	0.77825	0.021
Mof_C 	C 	0.524	0.7504	0.3349	-0.09
Mof_H 	H 	0.5271	0.7126	0.3684	-0.013
Mof_H 	H 	0.5375	0.7875	0.367	0.041
Mof_C 	C 	0.4384	0.7058	0.2459	0.091
Mof_H 	H 	0.4448	0.6638	0.2703	0.006
Mof_H 	H 	0.3908	0.7105	0.2285	0.08
Mof_C 	C 	0.4482	0.8183	0.2579	-0.245
Mof_H 	H 	0.4505	0.8555	0.2926	0.03
Mof_H 	H 	0.404	0.8176	0.2293	0.103
Mof_C 	C 	0.5185	0.7117	0.3235	-0.05
Mof_H 	H 	0.546	0.7274	0.369	0.078
Mof_H 	H 	0.501	0.6696	0.3365	0.031
Mof_C 	C 	0.4293	0.7432	0.2302	0.005
Mof_H 	H 	0.3903	0.771	0.2193	-0.014
Mof_H 	H 	0.4131	0.6991	0.2306	-0.116
Mof_C 	C 	0.496	0.8215	0.2997	0.141
Mof_H 	H 	0.5157	0.8331	0.3517	-0.04
Mof_H 	H 	0.4638	0.8549	0.2827	0.027
Mof_Co	Co	0.89346	0.74296	0.8941	1.172
Mof_O 	O 	0.83341	0.67809	0.85077	-0.466
Mof_O 	O 	0.7398	0.68345	0.91434	-0.408
Mof_O 	O 	0.85393	0.73407	0.0143	-0.493
Mof_O 	O 	0.95765	0.72359	0.98623	-0.367
Mof_O 	O 	0.73828	0.32068	0.57899	-0.432
Mof_O 	O 	0.63617	0.33084	0.62237	-0.459
Mof_N 	N 	0.95894	0.74193	0.80488	-0.187
Mof_C 	C 	0.77558	0.65982	0.86624	0.386
Mof_C 	C 	0.7486	0.60411	0.82046	-0.087
Mof_C 	C 	0.78782	0.57303	0.77145	-0.027
Mof_H 	H 	0.8315	0.5881	0.7649	0.049
Mof_C 	C 	0.7647	0.51883	0.73015	0.023
Mof_C 	C 	0.8049	0.4855	0.6801	-0.083
Mof_H 	H 	0.8484	0.5005	0.6722	0.058
Mof_C 	C 	0.78231	0.4319	0.6429	0.015
Mof_H 	H 	0.8103	0.4096	0.6102	0.04
Mof_C 	C 	0.71722	0.40989	0.65306	-0.089
Mof_C 	C 	0.67656	0.44145	0.70008	-0.029
Mof_H 	H 	0.6328	0.4263	0.7059	0.051
Mof_C 	C 	0.69919	0.49677	0.74047	0.024
Mof_C 	C 	0.65875	0.53064	0.7902	-0.082
Mof_H 	H 	0.6145	0.5169	0.7965	0.062
Mof_C 	C 	0.68266	0.58291	0.8293	0.018
Mof_H 	H 	0.655	0.6051	0.8625	0.046
Mof_C 	C 	0.91398	0.72495	0.03621	0.276
Mof_C 	C 	0.69544	0.34935	0.6143	0.373
Mof_C 	C 	0.93496	0.71777	0.12029	-0.069
Mof_C 	C 	0.88748	0.7172	0.17589	-0.003
Mof_H 	H 	0.8414	0.7192	0.1601	0.046
Mof_C 	C 	0.90758	0.7138	0.2535	-0.075
Mof_H 	H 	0.8751	0.7123	0.2909	0.057
Mof_C 	C 	0.00151	0.71391	0.14239	-0.047
Mof_H 	H 	0.033	0.7122	0.1039	0.047
Mof_C 	C 	0.97607	0.71241	0.27825	0.017
Mof_C 	C 	0.024	0.7496	0.8349	-0.09
Mof_H 	H 	0.0271	0.7874	0.8684	-0.011
Mof_H 	H 	0.0375	0.7125	0.867	0.045
Mof_C 	C 	0.9384	0.7942	0.7459	0.089
Mof_H 	H 	0.9448	0.8362	0.7703	0.009
Mof_H 	H 	0.8908	0.7895	0.7285	0.082
Mof_C 	C 	0.9482	0.6817	0.7579	-0.246
Mof_H 	H 	0.9505	0.6445	0.7926	0.031
Mof_H 	H 	0.904	0.6824	0.7293	0.106
Mof_C 	C 	0.0185	0.7883	0.8235	-0.055
Mof_H 	H 	0.046	0.7726	0.869	0.083
Mof_H 	H 	0.001	0.8304	0.8365	0.037
Mof_C 	C 	0.9293	0.7568	0.7302	0.008
Mof_H 	H 	0.8903	0.729	0.7193	-0.013
Mof_H 	H 	0.9131	0.8009	0.7306	-0.116
Mof_C 	C 	0.996	0.6785	0.7997	0.138
Mof_H 	H 	0.0157	0.6669	0.8517	-0.035
Mof_H 	H 	0.9638	0.6451	0.7827	0.029
Mof_Co	Co	0.39346	0.24296	0.8941	1.172
Mof_O 	O 	0.33341	0.17809	0.85077	-0.466
Mof_O 	O 	0.2398	0.18345	0.91434	-0.409
Mof_O 	O 	0.35393	0.23407	0.0143	-0.493
Mof_O 	O 	0.45765	0.22359	0.98623	-0.366
Mof_O 	O 	0.23828	0.82068	0.57899	-0.432
Mof_O 	O 	0.13617	0.83084	0.62237	-0.459
Mof_N 	N 	0.45894	0.24193	0.80488	-0.187
Mof_C 	C 	0.27558	0.15982	0.86624	0.386
Mof_C 	C 	0.2486	0.10411	0.82046	-0.088
Mof_C 	C 	0.28782	0.07303	0.77145	-0.026
Mof_H 	H 	0.3315	0.0881	0.7649	0.049
Mof_C 	C 	0.2647	0.01883	0.73015	0.021
Mof_C 	C 	0.3049	0.9855	0.6801	-0.082
Mof_H 	H 	0.3484	0.0005	0.6722	0.058
Mof_C 	C 	0.28231	0.9319	0.6429	0.014
Mof_H 	H 	0.3103	0.9096	0.6102	0.041
Mof_C 	C 	0.21722	0.90989	0.65306	-0.088
Mof_C 	C 	0.17656	0.94145	0.70008	-0.03
Mof_H 	H 	0.1328	0.9263	0.7059	0.051
Mof_C 	C 	0.19919	0.99677	0.74047	0.025
Mof_C 	C 	0.15875	0.03064	0.7902	-0.083
Mof_H 	H 	0.1145	0.0169	0.7965	0.063
Mof_C 	C 	0.18266	0.08291	0.8293	0.018
Mof_H 	H 	0.155	0.1051	0.8625	0.046
Mof_C 	C 	0.41398	0.22495	0.03621	0.276
Mof_C 	C 	0.19544	0.84935	0.6143	0.373
Mof_C 	C 	0.43496	0.21777	0.12029	-0.067
Mof_C 	C 	0.38748	0.2172	0.17589	-0.004
Mof_H 	H 	0.3414	0.2192	0.1601	0.047
Mof_C 	C 	0.40758	0.2138	0.2535	-0.074
Mof_H 	H 	0.3751	0.2123	0.2909	0.056
Mof_C 	C 	0.50151	0.21391	0.14239	-0.049
Mof_H 	H 	0.533	0.2122	0.1039	0.047
Mof_C 	C 	0.47607	0.21241	0.27825	0.017
Mof_C 	C 	0.524	0.2496	0.8349	-0.09
Mof_H 	H 	0.5271	0.2874	0.8684	-0.01
Mof_H 	H 	0.5375	0.2125	0.867	0.045
Mof_C 	C 	0.4384	0.2942	0.7459	0.089
Mof_H 	H 	0.4448	0.3362	0.7703	0.009
Mof_H 	H 	0.3908	0.2895	0.7285	0.082
Mof_C 	C 	0.4482	0.1817	0.7579	-0.247
Mof_H 	H 	0.4505	0.1445	0.7926	0.031
Mof_H 	H 	0.404	0.1824	0.7293	0.106
Mof_C 	C 	0.5185	0.2883	0.8235	-0.056
Mof_H 	H 	0.546	0.2726	0.869	0.082
Mof_H 	H 	0.501	0.3304	0.8365	0.037
Mof_C 	C 	0.4293	0.2568	0.7302	0.008
Mof_H 	H 	0.3903	0.229	0.7193	-0.013
Mof_H 	H 	0.4131	0.3009	0.7306	-0.116
Mof_C 	C 	0.496	0.1785	0.7997	0.141
Mof_H 	H 	0.5157	0.1669	0.8517	-0.036
Mof_H 	H 	0.4638	0.1451	0.7827	0.029
Mof_Co	Co	0.10654	0.74296	0.6059	1.166
Mof_O 	O 	0.16659	0.67809	0.64923	-0.473
Mof_O 	O 	0.2602	0.68345	0.58566	-0.429
Mof_O 	O 	0.14607	0.73407	0.4857	-0.485
Mof_O 	O 	0.04235	0.72359	0.51377	-0.425
Mof_O 	O 	0.26172	0.32068	0.92101	-0.413
Mof_O 	O 	0.36383	0.33084	0.87763	-0.45
Mof_N 	N 	0.04106	0.74193	0.69512	-0.187
Mof_C 	C 	0.22442	0.65982	0.63376	0.388
Mof_C 	C 	0.2514	0.60411	0.67954	-0.093
Mof_C 	C 	0.21218	0.57303	0.72855	-0.025
Mof_H 	H 	0.1685	0.5881	0.7351	0.048
Mof_C 	C 	0.2353	0.51883	0.76985	0.021
Mof_C 	C 	0.1951	0.4855	0.8199	-0.079
Mof_H 	H 	0.1516	0.5005	0.8278	0.061
Mof_C 	C 	0.21769	0.4319	0.8571	0.014
Mof_H 	H 	0.1897	0.4096	0.8898	0.048
Mof_C 	C 	0.28278	0.40989	0.84694	-0.082
Mof_C 	C 	0.32344	0.44145	0.79992	-0.031
Mof_H 	H 	0.3672	0.4263	0.7941	0.053
Mof_C 	C 	0.30081	0.49677	0.75953	0.026
Mof_C 	C 	0.34125	0.53064	0.7098	-0.086
Mof_H 	H 	0.3855	0.5169	0.7035	0.061
Mof_C 	C 	0.31734	0.58291	0.6707	0.02
Mof_H 	H 	0.345	0.6051	0.6375	0.039
Mof_C 	C 	0.08602	0.72495	0.46379	0.343
Mof_C 	C 	0.30456	0.34935	0.8857	0.372
Mof_C 	C 	0.06504	0.71777	0.37971	-0.084
Mof_C 	C 	0.11252	0.7172	0.32411	0.01
Mof_H 	H 	0.1586	0.7192	0.3399	0.041
Mof_C 	C 	0.09242	0.7138	0.2465	-0.084
Mof_H 	H 	0.1249	0.7123	0.2091	0.055
Mof_C 	C 	0.99849	0.71391	0.35761	-0.034
Mof_H 	H 	0.967	0.7122	0.3961	0.055
Mof_C 	C 	0.02393	0.71241	0.22175	0.026
Mof_C 	C 	0.976	0.7496	0.6651	-0.089
Mof_H 	H 	0.9729	0.7874	0.6316	-0.012
Mof_H 	H 	0.9625	0.7125	0.633	0.041
Mof_C 	C 	0.0616	0.7942	0.7541	0.088
Mof_H 	H 	0.0552	0.8362	0.7297	0.01
Mof_H 	H 	0.1092	0.7895	0.7715	0.085
Mof_C 	C 	0.0518	0.6817	0.7421	-0.248
Mof_H 	H 	0.0495	0.6445	0.7074	0.03
Mof_H 	H 	0.096	0.6824	0.7707	0.108
Mof_C 	C 	0.9815	0.7883	0.6765	-0.053
Mof_H 	H 	0.954	0.7726	0.631	0.076
Mof_H 	H 	0.999	0.8304	0.6635	0.031
Mof_C 	C 	0.0707	0.7568	0.7698	0.011
Mof_H 	H 	0.1097	0.729	0.7807	-0.011
Mof_H 	H 	0.0869	0.8009	0.7694	-0.116
Mof_C 	C 	0.004	0.6785	0.7003	0.146
Mof_H 	H 	0.9843	0.6669	0.6483	-0.042
Mof_H 	H 	0.0362	0.6451	0.7173	0.027
Mof_Co	Co	0.60654	0.24296	0.6059	1.166
Mof_O 	O 	0.66659	0.17809	0.64923	-0.473
Mof_O 	O 	0.7602	0.18345	0.58566	-0.429
Mof_O 	O 	0.64607	0.23407	0.4857	-0.485
Mof_O 	O 	0.54235	0.22359	0.51377	-0.425
Mof_O 	O 	0.76172	0.82068	0.92101	-0.413
Mof_O 	O 	0.86383	0.83084	0.87763	-0.45
Mof_N 	N 	0.54106	0.24193	0.69512	-0.188
Mof_C 	C 	0.72442	0.15982	0.63376	0.388
Mof_C 	C 	0.7514	0.10411	0.67954	-0.094
Mof_C 	C 	0.71218	0.07303	0.72855	-0.024
Mof_H 	H 	0.6685	0.0881	0.7351	0.048
Mof_C 	C 	0.7353	0.01883	0.76985	0.019
Mof_C 	C 	0.6951	0.9855	0.8199	-0.077
Mof_H 	H 	0.6516	0.0005	0.8278	0.061
Mof_C 	C 	0.71769	0.9319	0.8571	0.013
Mof_H 	H 	0.6897	0.9096	0.8898	0.048
Mof_C 	C 	0.78278	0.90989	0.84694	-0.082
Mof_C 	C 	0.82344	0.94145	0.79992	-0.032
Mof_H 	H 	0.8672	0.9263	0.7941	0.053
Mof_C 	C 	0.80081	0.99677	0.75953	0.027
Mof_C 	C 	0.84125	0.03064	0.7098	-0.087
Mof_H 	H 	0.8855	0.0169	0.7035	0.061
Mof_C 	C 	0.81734	0.08291	0.6707	0.02
Mof_H 	H 	0.845	0.1051	0.6375	0.039
Mof_C 	C 	0.58602	0.22495	0.46379	0.343
Mof_C 	C 	0.80456	0.84935	0.8857	0.372
Mof_C 	C 	0.56504	0.21777	0.37971	-0.086
Mof_C 	C 	0.61252	0.2172	0.32411	0.011
Mof_H 	H 	0.6586	0.2192	0.3399	0.04
Mof_C 	C 	0.59242	0.2138	0.2465	-0.085
Mof_H 	H 	0.6249	0.2123	0.2091	0.055
Mof_C 	C 	0.49849	0.21391	0.35761	-0.032
Mof_H 	H 	0.467	0.2122	0.3961	0.055
Mof_C 	C 	0.52393	0.21241	0.22175	0.026
Mof_C 	C 	0.476	0.2496	0.6651	-0.089
Mof_H 	H 	0.4729	0.2874	0.6316	-0.012
Mof_H 	H 	0.4625	0.2125	0.633	0.041
Mof_C 	C 	0.5616	0.2942	0.7541	0.088
Mof_H 	H 	0.5552	0.3362	0.7297	0.01
Mof_H 	H 	0.6092	0.2895	0.7715	0.085
Mof_C 	C 	0.5518	0.1817	0.7421	-0.248
Mof_H 	H 	0.5495	0.1445	0.7074	0.031
Mof_H 	H 	0.596	0.1824	0.7707	0.108
Mof_C 	C 	0.4815	0.2883	0.6765	-0.051
Mof_H 	H 	0.454	0.2726	0.631	0.077
Mof_H 	H 	0.499	0.3304	0.6635	0.031
Mof_C 	C 	0.5707	0.2568	0.7698	0.011
Mof_H 	H 	0.6097	0.229	0.7807	-0.011
Mof_H 	H 	0.5869	0.3009	0.7694	-0.116
Mof_C 	C 	0.504	0.1785	0.7003	0.144
Mof_H 	H 	0.4843	0.1669	0.6483	-0.041
Mof_H 	H 	0.5362	0.1451	0.7173	0.027
Mof_Co	Co	0.25	0.25	-0	1.184
Mof_Co	Co	0.75	0.25	0.5	1.209
Mof_Co	Co	0.75	0.75	-0	1.184
Mof_Co	Co	0.25	0.75	0.5	1.209
_end
