data_functionalizedCrystal
_audit_creation_method	'EQeq! by Chris Wilmer'
_symmetry_space_group_name_H-M	'P1'
_symmetry_Int_Tables_number	1
_symmetry_cell_setting	triclinic
loop_
_symmetry_equiv_pos_as_xyz
  x,y,z
_cell_length_a	13.5293
_cell_length_b	13.5293
_cell_length_c	8.0707
_cell_angle_alpha	90
_cell_angle_beta	90
_cell_angle_gamma	120
loop_
_atom_site_label
_atom_site_type_symbol
_atom_site_fract_x
_atom_site_fract_y
_atom_site_fract_z
_atom_site_charge
Mof_Mn	Mn	0.30199	0.33804	0.54555	0.786
Mof_O 	O 	0.2305	0.18151	0.4074	-0.342
Mof_C 	C 	0.5351	0.3227	0.5488	-0.145
Mof_C 	C 	0.3539	0.56	0.776	-0.139
Mof_O 	O 	0.2462	0.0581	0.2474	-0.345
Mof_C 	C 	0.2678	0.1574	0.2811	0.349
Mof_N 	N 	0.3462	0.208	0.0006	-0.269
Mof_H 	H 	0.4102	0.256	0.9452	0.098
Mof_H 	H 	0.2855	0.1978	0.9411	0.138
Mof_C 	C 	0.3457	0.2541	0.1641	-0.109
Mof_H 	H 	0.4233	0.2865	0.208	0.049
Mof_N 	N 	0.3662	0.4274	0.3023	-0.293
Mof_H 	H 	0.3488	0.4833	0.2944	0.101
Mof_H 	H 	0.4428	0.4604	0.3005	0.105
Mof_C 	C 	0.3193	0.3521	0.1572	-0.017
Mof_H 	H 	0.3518	0.3962	0.057	0.027
Mof_H 	H 	0.2374	0.3208	0.1533	0.041
Mof_N 	N 	0.4563	0.3213	0.6047	-0.148
Mof_N 	N 	0.3682	0.5006	0.6901	-0.154
Mof_Mn	Mn	0.66196	0.96395	0.54555	0.787
Mof_O 	O 	0.81849	0.04899	0.4074	-0.341
Mof_C 	C 	0.6773	0.2124	0.5488	-0.144
Mof_C 	C 	0.44	0.7939	0.776	-0.138
Mof_O 	O 	0.9419	0.1881	0.2474	-0.345
Mof_C 	C 	0.8426	0.1104	0.2811	0.349
Mof_N 	N 	0.792	0.1382	0.0006	-0.27
Mof_H 	H 	0.744	0.1542	0.9452	0.099
Mof_H 	H 	0.8022	0.0877	0.9411	0.139
Mof_C 	C 	0.7459	0.0916	0.1641	-0.109
Mof_H 	H 	0.7135	0.1368	0.208	0.049
Mof_N 	N 	0.5726	0.9388	0.3023	-0.293
Mof_H 	H 	0.5167	0.8655	0.2944	0.101
Mof_H 	H 	0.5396	0.9824	0.3005	0.105
Mof_C 	C 	0.6479	0.9672	0.1572	-0.017
Mof_H 	H 	0.6038	0.9556	0.057	0.027
Mof_H 	H 	0.6792	0.9166	0.1533	0.041
Mof_N 	N 	0.6787	0.135	0.6047	-0.148
Mof_N 	N 	0.4994	0.8676	0.6901	-0.154
Mof_Mn	Mn	0.03605	0.69801	0.54555	0.787
Mof_O 	O 	0.95101	0.7695	0.4074	-0.341
Mof_C 	C 	0.7876	0.4649	0.5488	-0.144
Mof_C 	C 	0.2061	0.6461	0.776	-0.138
Mof_O 	O 	0.8119	0.7538	0.2474	-0.345
Mof_C 	C 	0.8896	0.7322	0.2811	0.349
Mof_N 	N 	0.8618	0.6538	0.0006	-0.27
Mof_H 	H 	0.8458	0.5898	0.9452	0.099
Mof_H 	H 	0.9123	0.7145	0.9411	0.139
Mof_C 	C 	0.9084	0.6543	0.1641	-0.109
Mof_H 	H 	0.8632	0.5767	0.208	0.049
Mof_N 	N 	0.0612	0.6338	0.3023	-0.293
Mof_H 	H 	0.1345	0.6512	0.2944	0.101
Mof_H 	H 	0.0176	0.5572	0.3005	0.105
Mof_C 	C 	0.0328	0.6807	0.1572	-0.018
Mof_H 	H 	0.0444	0.6482	0.057	0.028
Mof_H 	H 	0.0834	0.7626	0.1533	0.041
Mof_N 	N 	0.865	0.5437	0.6047	-0.148
Mof_N 	N 	0.1324	0.6318	0.6901	-0.154
Mof_Mn	Mn	0.69801	0.66196	0.04555	0.792
Mof_O 	O 	0.7695	0.81849	0.9074	-0.343
Mof_C 	C 	0.4649	0.6773	0.0488	-0.14
Mof_C 	C 	0.6461	0.44	0.276	-0.137
Mof_O 	O 	0.7538	0.9419	0.7474	-0.346
Mof_C 	C 	0.7322	0.8426	0.7811	0.349
Mof_N 	N 	0.6538	0.792	0.5006	-0.274
Mof_H 	H 	0.5898	0.744	0.4452	0.102
Mof_H 	H 	0.7145	0.8022	0.4411	0.142
Mof_C 	C 	0.6543	0.7459	0.6641	-0.109
Mof_H 	H 	0.5767	0.7135	0.708	0.049
Mof_N 	N 	0.6338	0.5726	0.8023	-0.293
Mof_H 	H 	0.6512	0.5167	0.7944	0.1
Mof_H 	H 	0.5572	0.5396	0.8005	0.104
Mof_C 	C 	0.6807	0.6479	0.6572	-0.017
Mof_H 	H 	0.6482	0.6038	0.557	0.026
Mof_H 	H 	0.7626	0.6792	0.6533	0.04
Mof_N 	N 	0.5437	0.6787	0.1047	-0.148
Mof_N 	N 	0.6318	0.4994	0.1901	-0.154
Mof_Mn	Mn	0.33804	0.03605	0.04555	0.792
Mof_O 	O 	0.18151	0.95101	0.9074	-0.344
Mof_C 	C 	0.3227	0.7876	0.0488	-0.14
Mof_C 	C 	0.56	0.2061	0.276	-0.137
Mof_O 	O 	0.0581	0.8119	0.7474	-0.346
Mof_C 	C 	0.1574	0.8896	0.7811	0.349
Mof_N 	N 	0.208	0.8618	0.5006	-0.274
Mof_H 	H 	0.256	0.8458	0.4452	0.102
Mof_H 	H 	0.1978	0.9123	0.4411	0.141
Mof_C 	C 	0.2541	0.9084	0.6641	-0.11
Mof_H 	H 	0.2865	0.8632	0.708	0.049
Mof_N 	N 	0.4274	0.0612	0.8023	-0.294
Mof_H 	H 	0.4833	0.1345	0.7944	0.1
Mof_H 	H 	0.4604	0.0176	0.8005	0.104
Mof_C 	C 	0.3521	0.0328	0.6572	-0.016
Mof_H 	H 	0.3962	0.0444	0.557	0.026
Mof_H 	H 	0.3208	0.0834	0.6533	0.04
Mof_N 	N 	0.3213	0.865	0.1047	-0.148
Mof_N 	N 	0.5006	0.1324	0.1901	-0.154
Mof_Mn	Mn	0.96395	0.30199	0.04555	0.791
Mof_O 	O 	0.04899	0.2305	0.9074	-0.343
Mof_C 	C 	0.2124	0.5351	0.0488	-0.14
Mof_C 	C 	0.7939	0.3539	0.276	-0.138
Mof_O 	O 	0.1881	0.2462	0.7474	-0.346
Mof_C 	C 	0.1104	0.2678	0.7811	0.349
Mof_N 	N 	0.1382	0.3462	0.5006	-0.274
Mof_H 	H 	0.1542	0.4102	0.4452	0.102
Mof_H 	H 	0.0877	0.2855	0.4411	0.142
Mof_C 	C 	0.0916	0.3457	0.6641	-0.11
Mof_H 	H 	0.1368	0.4233	0.708	0.049
Mof_N 	N 	0.9388	0.3662	0.8023	-0.293
Mof_H 	H 	0.8655	0.3488	0.7944	0.101
Mof_H 	H 	0.9824	0.4428	0.8005	0.104
Mof_C 	C 	0.9672	0.3193	0.6572	-0.016
Mof_H 	H 	0.9556	0.3518	0.557	0.026
Mof_H 	H 	0.9166	0.2374	0.6533	0.04
Mof_N 	N 	0.135	0.4563	0.1047	-0.148
Mof_N 	N 	0.8676	0.3682	0.1901	-0.154
Mof_Mn	Mn	0.33333	0.66667	0.92128	0.779
Mof_Mn	Mn	0.66667	0.33333	0.42128	0.787
_end
