data_functionalizedCrystal
_audit_creation_method	'EQeq! by Chris Wilmer'
_symmetry_space_group_name_H-M	'P1'
_symmetry_Int_Tables_number	1
_symmetry_cell_setting	triclinic
loop_
_symmetry_equiv_pos_as_xyz
  x,y,z
_cell_length_a	12.2234
_cell_length_b	18.184
_cell_length_c	18.256
_cell_angle_alpha	103.438
_cell_angle_beta	90
_cell_angle_gamma	90
loop_
_atom_site_label
_atom_site_type_symbol
_atom_site_fract_x
_atom_site_fract_y
_atom_site_fract_z
_atom_site_charge
Mof_K 	K 	0.46728	0.70217	0.86013	3.032
Mof_K 	K 	0.94643	0.89868	0.47635	2.157
Mof_K 	K 	0.96728	0.29783	0.63987	3.042
Mof_K 	K 	0.44643	0.10132	0.02365	2.126
Mof_K 	K 	0.53272	0.29783	0.13987	3.033
Mof_K 	K 	0.05357	0.10132	0.52365	2.158
Mof_K 	K 	0.03272	0.70217	0.36013	3.043
Mof_K 	K 	0.55357	0.89868	0.97635	2.127
Mof_Fe	Fe	0.91637	0.73345	0.56467	0.864
Mof_Fe	Fe	0.41637	0.26655	0.93533	0.869
Mof_Fe	Fe	0.08363	0.26655	0.43533	0.864
Mof_Fe	Fe	0.58363	0.73345	0.06467	0.869
Mof_H 	H 	0.8215	0.7644	0.7636	0.159
Mof_H 	H 	0.0833	0.7016	0.7253	0.164
Mof_H 	H 	0.8647	0.5874	0.6723	0.154
Mof_H 	H 	0.9603	0.7645	0.8692	0.049
Mof_H 	H 	0.9189	0.7118	0.9223	0.053
Mof_H 	H 	0.7394	0.7163	0.8775	-0.112
Mof_H 	H 	0.7836	0.8	0.9125	-0.091
Mof_H 	H 	0.5253	0.8879	0.7385	-0.061
Mof_H 	H 	0.5083	0.9256	0.627	0.015
Mof_H 	H 	0.639	0.8892	0.5301	0.003
Mof_H 	H 	0.058	0.582	0.7864	0.042
Mof_H 	H 	0.0437	0.614	0.8751	0.04
Mof_H 	H 	0.1247	0.7293	0.8666	-0.04
Mof_H 	H 	0.2062	0.6603	0.8352	-0.079
Mof_H 	H 	0.3962	0.7747	0.6526	-0.025
Mof_H 	H 	0.3959	0.8121	0.5399	0.02
Mof_H 	H 	0.234	0.8138	0.4722	-0.076
Mof_H 	H 	0.7781	0.6186	0.8073	-0.001
Mof_H 	H 	0.8527	0.5842	0.8631	0.03
Mof_H 	H 	0.9379	0.5029	0.7598	-0.06
Mof_H 	H 	0.8084	0.4893	0.7573	-0.034
Mof_H 	H 	0.8455	0.3914	0.4829	0.019
Mof_H 	H 	0.8567	0.4156	0.3623	-0.009
Mof_H 	H 	0.8814	0.5367	0.3478	0.02
Mof_H 	H 	0.3215	0.2356	0.7364	0.16
Mof_H 	H 	0.5833	0.2984	0.7747	0.163
Mof_H 	H 	0.3647	0.4126	0.8277	0.154
Mof_H 	H 	0.4603	0.2355	0.6308	0.052
Mof_H 	H 	0.4189	0.2882	0.5777	0.056
Mof_H 	H 	0.2394	0.2837	0.6225	-0.112
Mof_H 	H 	0.2836	0.2	0.5875	-0.09
Mof_H 	H 	0.0253	0.1121	0.7615	-0.061
Mof_H 	H 	0.0083	0.0744	0.873	0.017
Mof_H 	H 	0.139	0.1108	0.9699	0.006
Mof_H 	H 	0.558	0.418	0.7136	0.042
Mof_H 	H 	0.5437	0.386	0.6249	0.04
Mof_H 	H 	0.6247	0.2707	0.6334	-0.041
Mof_H 	H 	0.7062	0.3397	0.6648	-0.079
Mof_H 	H 	0.8962	0.2253	0.8474	-0.026
Mof_H 	H 	0.8959	0.1879	0.9601	0.025
Mof_H 	H 	0.734	0.1862	0.0278	-0.085
Mof_H 	H 	0.2781	0.3814	0.6927	-0.001
Mof_H 	H 	0.3527	0.4158	0.6369	0.031
Mof_H 	H 	0.4379	0.4971	0.7402	-0.06
Mof_H 	H 	0.3084	0.5107	0.7427	-0.034
Mof_H 	H 	0.3455	0.6086	0.0171	0.019
Mof_H 	H 	0.3567	0.5844	0.1377	-0.009
Mof_H 	H 	0.3814	0.4633	0.1522	0.02
Mof_H 	H 	0.1785	0.2356	0.2364	0.159
Mof_H 	H 	0.9167	0.2984	0.2747	0.164
Mof_H 	H 	0.1353	0.4126	0.3277	0.154
Mof_H 	H 	0.0397	0.2355	0.1308	0.049
Mof_H 	H 	0.0811	0.2882	0.0777	0.053
Mof_H 	H 	0.2606	0.2837	0.1225	-0.112
Mof_H 	H 	0.2164	0.2	0.0875	-0.091
Mof_H 	H 	0.4747	0.1121	0.2615	-0.061
Mof_H 	H 	0.4917	0.0744	0.373	0.015
Mof_H 	H 	0.361	0.1108	0.4699	0.003
Mof_H 	H 	0.942	0.418	0.2136	0.042
Mof_H 	H 	0.9563	0.386	0.1249	0.04
Mof_H 	H 	0.8753	0.2707	0.1334	-0.04
Mof_H 	H 	0.7938	0.3397	0.1648	-0.079
Mof_H 	H 	0.6038	0.2253	0.3474	-0.025
Mof_H 	H 	0.6041	0.1879	0.4601	0.02
Mof_H 	H 	0.766	0.1862	0.5278	-0.076
Mof_H 	H 	0.2219	0.3814	0.1927	-0.001
Mof_H 	H 	0.1473	0.4158	0.1369	0.03
Mof_H 	H 	0.0621	0.4971	0.2402	-0.06
Mof_H 	H 	0.1916	0.5107	0.2427	-0.034
Mof_H 	H 	0.1545	0.6086	0.5171	0.019
Mof_H 	H 	0.1433	0.5844	0.6377	-0.009
Mof_H 	H 	0.1186	0.4633	0.6522	0.02
Mof_H 	H 	0.6785	0.7644	0.2636	0.16
Mof_H 	H 	0.4167	0.7016	0.2253	0.163
Mof_H 	H 	0.6353	0.5874	0.1723	0.154
Mof_H 	H 	0.5397	0.7645	0.3692	0.052
Mof_H 	H 	0.5811	0.7118	0.4223	0.056
Mof_H 	H 	0.7606	0.7163	0.3775	-0.112
Mof_H 	H 	0.7164	0.8	0.4125	-0.09
Mof_H 	H 	0.9747	0.8879	0.2385	-0.061
Mof_H 	H 	0.9917	0.9256	0.127	0.017
Mof_H 	H 	0.861	0.8892	0.0301	0.006
Mof_H 	H 	0.442	0.582	0.2864	0.042
Mof_H 	H 	0.4563	0.614	0.3751	0.04
Mof_H 	H 	0.3753	0.7293	0.3666	-0.041
Mof_H 	H 	0.2938	0.6603	0.3352	-0.079
Mof_H 	H 	0.1038	0.7747	0.1526	-0.026
Mof_H 	H 	0.1041	0.8121	0.0399	0.025
Mof_H 	H 	0.266	0.8138	0.9722	-0.085
Mof_H 	H 	0.7219	0.6186	0.3073	-0.001
Mof_H 	H 	0.6473	0.5842	0.3631	0.031
Mof_H 	H 	0.5621	0.5029	0.2598	-0.06
Mof_H 	H 	0.6916	0.4893	0.2573	-0.034
Mof_H 	H 	0.6545	0.3914	0.9829	0.019
Mof_H 	H 	0.6433	0.4156	0.8623	-0.009
Mof_H 	H 	0.6186	0.5367	0.8478	0.02
Mof_C 	C 	0.9078	0.7241	0.8727	-0.134
Mof_C 	C 	0.7931	0.7549	0.8706	0.134
Mof_C 	C 	0.6792	0.8103	0.7872	0.347
Mof_C 	C 	0.67	0.8312	0.7145	-0.233
Mof_C 	C 	0.58	0.8739	0.7009	0.05
Mof_C 	C 	0.5693	0.8957	0.6343	-0.093
Mof_C 	C 	0.6476	0.8744	0.5764	-0.136
Mof_C 	C 	0.7359	0.8323	0.5878	0.092
Mof_C 	C 	0.7487	0.8112	0.6572	0.118
Mof_C 	C 	0.0436	0.6283	0.826	-0.104
Mof_C 	C 	0.1362	0.6837	0.8256	0.089
Mof_C 	C 	0.2353	0.7313	0.7289	0.374
Mof_C 	C 	0.2327	0.7517	0.6548	-0.206
Mof_C 	C 	0.3296	0.7746	0.6258	0.026
Mof_C 	C 	0.3293	0.797	0.5588	-0.068
Mof_C 	C 	0.2328	0.7978	0.5182	-0.147
Mof_C 	C 	0.1358	0.7756	0.5449	0.089
Mof_C 	C 	0.1359	0.7503	0.6132	0.125
Mof_C 	C 	0.8513	0.5974	0.8134	-0.073
Mof_C 	C 	0.8665	0.5259	0.7527	0.056
Mof_C 	C 	0.8565	0.5007	0.5402	-0.032
Mof_C 	C 	0.8531	0.4419	0.4775	-0.08
Mof_C 	C 	0.8609	0.4563	0.4055	0.072
Mof_C 	C 	0.8743	0.5279	0.3968	-0.26
Mof_C 	C 	0.8549	0.4837	0.6174	0.315
Mof_C 	C 	0.8776	0.589	0.4603	0.29
Mof_C 	C 	0.4078	0.2759	0.6273	-0.136
Mof_C 	C 	0.2931	0.2451	0.6294	0.136
Mof_C 	C 	0.1792	0.1897	0.7128	0.349
Mof_C 	C 	0.17	0.1688	0.7855	-0.233
Mof_C 	C 	0.08	0.1261	0.7991	0.052
Mof_C 	C 	0.0693	0.1043	0.8657	-0.093
Mof_C 	C 	0.1476	0.1256	0.9236	-0.134
Mof_C 	C 	0.2359	0.1677	0.9122	0.093
Mof_C 	C 	0.2487	0.1888	0.8428	0.12
Mof_C 	C 	0.5436	0.3717	0.674	-0.107
Mof_C 	C 	0.6362	0.3163	0.6744	0.09
Mof_C 	C 	0.7353	0.2687	0.7711	0.376
Mof_C 	C 	0.7327	0.2483	0.8452	-0.21
Mof_C 	C 	0.8296	0.2254	0.8742	0.033
Mof_C 	C 	0.8293	0.203	0.9412	-0.078
Mof_C 	C 	0.7328	0.2022	0.9818	-0.129
Mof_C 	C 	0.6358	0.2244	0.9551	0.083
Mof_C 	C 	0.6359	0.2497	0.8868	0.129
Mof_C 	C 	0.3513	0.4026	0.6866	-0.073
Mof_C 	C 	0.3665	0.4741	0.7473	0.056
Mof_C 	C 	0.3565	0.4993	0.9598	-0.032
Mof_C 	C 	0.3531	0.5581	0.0225	-0.081
Mof_C 	C 	0.3609	0.5437	0.0945	0.071
Mof_C 	C 	0.3743	0.4721	0.1032	-0.259
Mof_C 	C 	0.3549	0.5163	0.8826	0.315
Mof_C 	C 	0.3776	0.411	0.0397	0.288
Mof_C 	C 	0.0922	0.2759	0.1273	-0.134
Mof_C 	C 	0.2069	0.2451	0.1294	0.134
Mof_C 	C 	0.3208	0.1897	0.2128	0.347
Mof_C 	C 	0.33	0.1688	0.2855	-0.233
Mof_C 	C 	0.42	0.1261	0.2991	0.05
Mof_C 	C 	0.4307	0.1043	0.3657	-0.093
Mof_C 	C 	0.3524	0.1256	0.4236	-0.136
Mof_C 	C 	0.2641	0.1677	0.4122	0.092
Mof_C 	C 	0.2513	0.1888	0.3428	0.118
Mof_C 	C 	0.9564	0.3717	0.174	-0.104
Mof_C 	C 	0.8638	0.3163	0.1744	0.089
Mof_C 	C 	0.7647	0.2687	0.2711	0.374
Mof_C 	C 	0.7673	0.2483	0.3452	-0.206
Mof_C 	C 	0.6704	0.2254	0.3742	0.026
Mof_C 	C 	0.6707	0.203	0.4412	-0.068
Mof_C 	C 	0.7672	0.2022	0.4818	-0.147
Mof_C 	C 	0.8642	0.2244	0.4551	0.089
Mof_C 	C 	0.8641	0.2497	0.3868	0.125
Mof_C 	C 	0.1487	0.4026	0.1866	-0.073
Mof_C 	C 	0.1335	0.4741	0.2473	0.056
Mof_C 	C 	0.1435	0.4993	0.4598	-0.032
Mof_C 	C 	0.1469	0.5581	0.5225	-0.08
Mof_C 	C 	0.1391	0.5437	0.5945	0.072
Mof_C 	C 	0.1257	0.4721	0.6032	-0.26
Mof_C 	C 	0.1451	0.5163	0.3826	0.315
Mof_C 	C 	0.1224	0.411	0.5397	0.29
Mof_C 	C 	0.5922	0.7241	0.3727	-0.136
Mof_C 	C 	0.7069	0.7549	0.3706	0.136
Mof_C 	C 	0.8208	0.8103	0.2872	0.349
Mof_C 	C 	0.83	0.8312	0.2145	-0.233
Mof_C 	C 	0.92	0.8739	0.2009	0.052
Mof_C 	C 	0.9307	0.8957	0.1343	-0.093
Mof_C 	C 	0.8524	0.8744	0.0764	-0.134
Mof_C 	C 	0.7641	0.8323	0.0878	0.093
Mof_C 	C 	0.7513	0.8112	0.1572	0.12
Mof_C 	C 	0.4564	0.6283	0.326	-0.107
Mof_C 	C 	0.3638	0.6837	0.3256	0.09
Mof_C 	C 	0.2647	0.7313	0.2289	0.376
Mof_C 	C 	0.2673	0.7517	0.1548	-0.21
Mof_C 	C 	0.1704	0.7746	0.1258	0.033
Mof_C 	C 	0.1707	0.797	0.0588	-0.078
Mof_C 	C 	0.2672	0.7978	0.0182	-0.129
Mof_C 	C 	0.3642	0.7756	0.0449	0.083
Mof_C 	C 	0.3641	0.7503	0.1132	0.129
Mof_C 	C 	0.6487	0.5974	0.3134	-0.073
Mof_C 	C 	0.6335	0.5259	0.2527	0.056
Mof_C 	C 	0.6435	0.5007	0.0402	-0.032
Mof_C 	C 	0.6469	0.4419	0.9775	-0.081
Mof_C 	C 	0.6391	0.4563	0.9055	0.071
Mof_C 	C 	0.6257	0.5279	0.8968	-0.259
Mof_C 	C 	0.6451	0.4837	0.1174	0.315
Mof_C 	C 	0.6224	0.589	0.9603	0.288
Mof_N 	N 	0.9343	0.6565	0.8134	-0.084
Mof_N 	N 	0.7721	0.7752	0.7996	-0.321
Mof_N 	N 	0.1423	0.7055	0.7536	-0.293
Mof_N 	N 	0.8623	0.5406	0.6776	-0.277
Mof_N 	N 	0.865	0.5723	0.5298	-0.113
Mof_N 	N 	0.4343	0.3435	0.6866	-0.082
Mof_N 	N 	0.2721	0.2248	0.7004	-0.322
Mof_N 	N 	0.6423	0.2945	0.7464	-0.294
Mof_N 	N 	0.3623	0.4594	0.8224	-0.277
Mof_N 	N 	0.365	0.4277	0.9702	-0.112
Mof_N 	N 	0.0657	0.3435	0.1866	-0.084
Mof_N 	N 	0.2279	0.2248	0.2004	-0.321
Mof_N 	N 	0.8577	0.2945	0.2464	-0.293
Mof_N 	N 	0.1377	0.4594	0.3224	-0.277
Mof_N 	N 	0.135	0.4277	0.4702	-0.113
Mof_N 	N 	0.5657	0.6565	0.3134	-0.082
Mof_N 	N 	0.7279	0.7752	0.2996	-0.322
Mof_N 	N 	0.3577	0.7055	0.2536	-0.294
Mof_N 	N 	0.6377	0.5406	0.1776	-0.277
Mof_N 	N 	0.635	0.5723	0.0298	-0.112
Mof_O 	O 	0.8383	0.7719	0.6628	-0.336
Mof_O 	O 	0.8145	0.8071	0.5366	-0.563
Mof_O 	O 	0.6067	0.8241	0.8367	-0.814
Mof_O 	O 	0.0404	0.7253	0.6327	-0.329
Mof_O 	O 	0.0375	0.7753	0.5119	-0.803
Mof_O 	O 	0.3204	0.7373	0.7674	-0.701
Mof_O 	O 	0.8632	0.6335	0.5878	-0.235
Mof_O 	O 	0.8922	0.6586	0.4603	-0.639
Mof_O 	O 	0.849	0.4172	0.621	-0.616
Mof_O 	O 	0.0834	0.9769	0.5798	-0.733
Mof_O 	O 	0.3383	0.2281	0.8372	-0.335
Mof_O 	O 	0.3145	0.1929	0.9634	-0.557
Mof_O 	O 	0.1067	0.1759	0.6633	-0.818
Mof_O 	O 	0.5404	0.2747	0.8673	-0.332
Mof_O 	O 	0.5375	0.2247	0.9881	-0.797
Mof_O 	O 	0.8204	0.2627	0.7326	-0.702
Mof_O 	O 	0.3632	0.3665	0.9122	-0.235
Mof_O 	O 	0.3922	0.3414	0.0397	-0.64
Mof_O 	O 	0.349	0.5828	0.879	-0.615
Mof_O 	O 	0.5834	0.0231	0.9202	-0.721
Mof_O 	O 	0.1617	0.2281	0.3372	-0.336
Mof_O 	O 	0.1855	0.1929	0.4634	-0.563
Mof_O 	O 	0.3933	0.1759	0.1633	-0.814
Mof_O 	O 	0.9596	0.2747	0.3673	-0.329
Mof_O 	O 	0.9625	0.2247	0.4881	-0.803
Mof_O 	O 	0.6796	0.2627	0.2326	-0.701
Mof_O 	O 	0.1368	0.3665	0.4122	-0.235
Mof_O 	O 	0.1078	0.3414	0.5397	-0.639
Mof_O 	O 	0.151	0.5828	0.379	-0.616
Mof_O 	O 	0.9166	0.0231	0.4202	-0.733
Mof_O 	O 	0.6617	0.7719	0.1628	-0.335
Mof_O 	O 	0.6855	0.8071	0.0366	-0.557
Mof_O 	O 	0.8933	0.8241	0.3367	-0.818
Mof_O 	O 	0.4596	0.7253	0.1327	-0.332
Mof_O 	O 	0.4625	0.7753	0.0119	-0.797
Mof_O 	O 	0.1796	0.7373	0.2674	-0.702
Mof_O 	O 	0.6368	0.6335	0.0878	-0.235
Mof_O 	O 	0.6078	0.6586	0.9603	-0.64
Mof_O 	O 	0.651	0.4172	0.121	-0.615
Mof_O 	O 	0.4166	0.9769	0.0798	-0.721
_end
