# CIF file generated by openbabel 3.1.0, see https://openbabel.org
data_I
_chemical_name_common 'image0'
_cell_length_a 6.901
_cell_length_b 14.7
_cell_length_c 15.012
_cell_angle_alpha 90
_cell_angle_beta 90
_cell_angle_gamma 90
_space_group_name_H-M_alt 'P 1'
_space_group_name_Hall 'P 1'
loop_
    _symmetry_equiv_pos_as_xyz
    x,y,z
loop_
    _atom_site_label
    _atom_site_type_symbol
    _atom_site_fract_x
    _atom_site_fract_y
    _atom_site_fract_z
    _atom_site_occupancy
    Sr1      Sr       0.85560    0.19228    0.54638    1.000
    O1       O        0.99500    0.34777    0.47821    1.000
    O2       O        0.71910    0.29960    0.41966    1.000
    O3       O        0.01490    0.60210    0.07900    1.000
    O4       O        0.81390    0.70030    0.14550    1.000
    C1       C        0.85870    0.35430    0.42340    1.000
    C2       C        0.90920    0.62720    0.14180    1.000
    C3       C        0.86370    0.42970    0.35480    1.000
    C4       C        0.86070    0.40580    0.26710    1.000
    H1       H        0.84290    0.34510    0.25160    1.000
    C5       C        0.88410    0.47110    0.19970    1.000
    H2       H        0.89390    0.45240    0.14070    1.000
    C6       C        0.89280    0.56090    0.21940    1.000
    C7       C        0.88400    0.58960    0.31150    1.000
    C8       C        0.87800    0.52230    0.37780    1.000
    C9       C        0.87940    0.55100    0.46910    1.000
    H3       H        0.87600    0.50760    0.51410    1.000
    C10      C        0.88570    0.64070    0.49100    1.000
    H4       H        0.88860    0.65780    0.55060    1.000
    C11      C        0.88780    0.70700    0.42510    1.000
    H5       H        0.89050    0.76810    0.44120    1.000
    C12      C        0.88600    0.68400    0.33760    1.000
    H6       H        0.88620    0.72920    0.29430    1.000
    Sr2      Sr       0.64440    0.80772    0.04638    1.000
    O5       O        0.50500    0.65223    0.97821    1.000
    O6       O        0.78090    0.70040    0.91966    1.000
    O7       O        0.48510    0.39790    0.57900    1.000
    O8       O        0.68610    0.29970    0.64550    1.000
    C13      C        0.64130    0.64570    0.92340    1.000
    C14      C        0.59080    0.37280    0.64180    1.000
    C15      C        0.63630    0.57030    0.85480    1.000
    C16      C        0.63930    0.59420    0.76710    1.000
    H7       H        0.65710    0.65490    0.75160    1.000
    C17      C        0.61590    0.52890    0.69970    1.000
    H8       H        0.60610    0.54760    0.64070    1.000
    C18      C        0.60720    0.43910    0.71940    1.000
    C19      C        0.61600    0.41040    0.81150    1.000
    C20      C        0.62200    0.47770    0.87780    1.000
    C21      C        0.62060    0.44900    0.96910    1.000
    H9       H        0.62400    0.49240    0.01410    1.000
    C22      C        0.61430    0.35930    0.99100    1.000
    H10      H        0.61140    0.34220    0.05060    1.000
    C23      C        0.61220    0.29300    0.92510    1.000
    H11      H        0.60950    0.23190    0.94120    1.000
    C24      C        0.61400    0.31600    0.83760    1.000
    H12      H        0.61380    0.27080    0.79430    1.000
    Sr3      Sr       0.14440    0.69228    0.95362    1.000
    O9       O        0.00500    0.84777    0.02179    1.000
    O10      O        0.28090    0.79960    0.08034    1.000
    O11      O        0.98510    0.10210    0.42100    1.000
    O12      O        0.18610    0.20030    0.35450    1.000
    C25      C        0.14130    0.85430    0.07660    1.000
    C26      C        0.09080    0.12720    0.35820    1.000
    C27      C        0.13630    0.92970    0.14520    1.000
    C28      C        0.13930    0.90580    0.23290    1.000
    H13      H        0.15710    0.84510    0.24840    1.000
    C29      C        0.11590    0.97110    0.30030    1.000
    H14      H        0.10610    0.95240    0.35930    1.000
    C30      C        0.10720    0.06090    0.28060    1.000
    C31      C        0.11600    0.08960    0.18850    1.000
    C32      C        0.12200    0.02230    0.12220    1.000
    C33      C        0.12060    0.05100    0.03090    1.000
    H15      H        0.12400    0.00760    0.98590    1.000
    C34      C        0.11430    0.14070    0.00900    1.000
    H16      H        0.11140    0.15780    0.94940    1.000
    C35      C        0.11220    0.20700    0.07490    1.000
    H17      H        0.10950    0.26810    0.05880    1.000
    C36      C        0.11400    0.18400    0.16240    1.000
    H18      H        0.11380    0.22920    0.20570    1.000
    Sr4      Sr       0.35560    0.30772    0.45362    1.000
    O13      O        0.49500    0.15223    0.52179    1.000
    O14      O        0.21910    0.20040    0.58034    1.000
    O15      O        0.51490    0.89790    0.92100    1.000
    O16      O        0.31390    0.79970    0.85450    1.000
    C37      C        0.35870    0.14570    0.57660    1.000
    C38      C        0.40920    0.87280    0.85820    1.000
    C39      C        0.36370    0.07030    0.64520    1.000
    C40      C        0.36070    0.09420    0.73290    1.000
    H19      H        0.34290    0.15490    0.74840    1.000
    C41      C        0.38410    0.02890    0.80030    1.000
    H20      H        0.39390    0.04760    0.85930    1.000
    C42      C        0.39280    0.93910    0.78060    1.000
    C43      C        0.38400    0.91040    0.68850    1.000
    C44      C        0.37800    0.97770    0.62220    1.000
    C45      C        0.37940    0.94900    0.53090    1.000
    H21      H        0.37600    0.99240    0.48590    1.000
    C46      C        0.38570    0.85930    0.50900    1.000
    H22      H        0.38860    0.84220    0.44940    1.000
    C47      C        0.38780    0.79300    0.57490    1.000
    H23      H        0.39050    0.73190    0.55880    1.000
    C48      C        0.38600    0.81600    0.66240    1.000
    H24      H        0.38620    0.77080    0.70570    1.000
