data_functionalizedCrystal
_audit_creation_method	'EQeq! by Chris Wilmer'
_symmetry_space_group_name_H-M	'P1'
_symmetry_Int_Tables_number	1
_symmetry_cell_setting	triclinic
loop_
_symmetry_equiv_pos_as_xyz
  x,y,z
_cell_length_a	18.7002
_cell_length_b	18.7002
_cell_length_c	18.7002
_cell_angle_alpha	60
_cell_angle_beta	60
_cell_angle_gamma	60
loop_
_atom_site_label
_atom_site_type_symbol
_atom_site_fract_x
_atom_site_fract_y
_atom_site_fract_z
_atom_site_charge
Mof_Zn	Zn	0.5	0.5	0.0796	1.202
Mof_Zn	Zn	0.5	0.5	0.9204	1.202
Mof_Zn	Zn	0.5	0.0796	0.9204	1.202
Mof_Zn	Zn	0.9204	0.5	0.0796	1.202
Mof_Zn	Zn	0.5	0.9204	0.0796	1.202
Mof_Zn	Zn	0.9204	0.0796	0.5	1.202
Mof_Zn	Zn	0.9204	0.5	0.5	1.202
Mof_Zn	Zn	0.5	0.9204	0.5	1.202
Mof_Zn	Zn	0.0796	0.5	0.9204	1.202
Mof_Zn	Zn	0.0796	0.9204	0.5	1.202
Mof_Zn	Zn	0.0796	0.5	0.5	1.202
Mof_Zn	Zn	0.5	0.0796	0.5	1.202
Mof_H 	H 	0.9887	0.7711	0.4691	0.011
Mof_H 	H 	0.0113	0.2289	0.2289	0.012
Mof_H 	H 	0.9887	0.7711	0.7711	0.012
Mof_H 	H 	0.0113	0.2289	0.5309	0.011
Mof_H 	H 	0.7711	0.9887	0.4691	0.011
Mof_H 	H 	0.4691	0.9887	0.7711	0.011
Mof_H 	H 	0.2289	0.0113	0.2289	0.012
Mof_H 	H 	0.7711	0.9887	0.7711	0.012
Mof_H 	H 	0.7711	0.4691	0.9887	0.011
Mof_H 	H 	0.2289	0.2289	0.5309	0.012
Mof_H 	H 	0.7711	0.4691	0.7711	0.012
Mof_H 	H 	0.5309	0.2289	0.0113	0.011
Mof_H 	H 	0.7711	0.7711	0.4691	0.012
Mof_H 	H 	0.9887	0.4691	0.7711	0.011
Mof_H 	H 	0.2289	0.5309	0.0113	0.011
Mof_H 	H 	0.7711	0.7711	0.9887	0.012
Mof_H 	H 	0.0113	0.5309	0.2289	0.011
Mof_H 	H 	0.4691	0.7711	0.7711	0.012
Mof_H 	H 	0.5309	0.2289	0.2289	0.012
Mof_H 	H 	0.4691	0.7711	0.9887	0.011
Mof_H 	H 	0.2289	0.0113	0.5309	0.011
Mof_H 	H 	0.2289	0.5309	0.2289	0.012
Mof_H 	H 	0.5309	0.0113	0.2289	0.011
Mof_H 	H 	0.2289	0.2289	0.0113	0.012
Mof_C 	C 	0.0692	0.3362	0.0692	0.424
Mof_C 	C 	0.47	0.8864	0.7572	-0.184
Mof_C 	C 	0.47	0.8864	0.8864	-0.181
Mof_C 	C 	0.5254	0.0692	0.3362	0.449
Mof_C 	C 	0.1136	0.53	0.2428	-0.184
Mof_C 	C 	0.0692	0.5254	0.3362	0.449
Mof_C 	C 	0.9297	0.8003	0.8003	0.108
Mof_C 	C 	0.1997	0.1997	0.0703	0.108
Mof_C 	C 	0.9308	0.9308	0.6638	0.424
Mof_C 	C 	0.5303	0.1997	0.1997	0.119
Mof_C 	C 	0.8003	0.4697	0.9297	0.117
Mof_C 	C 	0.6638	0.9308	0.4746	0.449
Mof_C 	C 	0.8003	0.8003	0.4697	0.119
Mof_C 	C 	0.4697	0.8003	0.8003	0.119
Mof_C 	C 	0.7572	0.8864	0.47	-0.184
Mof_C 	C 	0.0692	0.0692	0.3362	0.424
Mof_C 	C 	0.1997	0.0703	0.1997	0.108
Mof_C 	C 	0.8864	0.47	0.7572	-0.184
Mof_C 	C 	0.0692	0.5254	0.0692	0.434
Mof_C 	C 	0.4697	0.8003	0.9297	0.117
Mof_C 	C 	0.8864	0.8864	0.47	-0.181
Mof_C 	C 	0.1136	0.2428	0.53	-0.184
Mof_C 	C 	0.7572	0.8864	0.8864	-0.176
Mof_C 	C 	0.3362	0.0692	0.0692	0.424
Mof_C 	C 	0.7572	0.47	0.8864	-0.184
Mof_C 	C 	0.2428	0.1136	0.1136	-0.176
Mof_C 	C 	0.5254	0.3362	0.0692	0.449
Mof_C 	C 	0.8864	0.7572	0.47	-0.184
Mof_C 	C 	0.1997	0.5303	0.0703	0.117
Mof_C 	C 	0.47	0.7572	0.8864	-0.184
Mof_C 	C 	0.1136	0.1136	0.2428	-0.176
Mof_C 	C 	0.0703	0.1997	0.5303	0.117
Mof_C 	C 	0.6638	0.4746	0.9308	0.449
Mof_C 	C 	0.8864	0.8864	0.7572	-0.176
Mof_C 	C 	0.8003	0.4697	0.8003	0.119
Mof_C 	C 	0.0692	0.3362	0.5254	0.449
Mof_C 	C 	0.8003	0.8003	0.9297	0.108
Mof_C 	C 	0.1136	0.2428	0.1136	-0.176
Mof_C 	C 	0.5303	0.1997	0.0703	0.117
Mof_C 	C 	0.1997	0.5303	0.1997	0.119
Mof_C 	C 	0.8003	0.9297	0.8003	0.108
Mof_C 	C 	0.3362	0.5254	0.0692	0.449
Mof_C 	C 	0.2428	0.1136	0.53	-0.184
Mof_C 	C 	0.9297	0.4697	0.8003	0.117
Mof_C 	C 	0.9297	0.8003	0.4697	0.117
Mof_C 	C 	0.9308	0.4746	0.6638	0.449
Mof_C 	C 	0.0703	0.1997	0.1997	0.108
Mof_C 	C 	0.4746	0.6638	0.9308	0.449
Mof_C 	C 	0.5303	0.0703	0.1997	0.117
Mof_C 	C 	0.53	0.1136	0.2428	-0.184
Mof_C 	C 	0.1997	0.1997	0.5303	0.119
Mof_C 	C 	0.8003	0.9297	0.4697	0.117
Mof_C 	C 	0.1997	0.0703	0.5303	0.117
Mof_C 	C 	0.1136	0.53	0.1136	-0.181
Mof_C 	C 	0.9308	0.6638	0.4746	0.449
Mof_C 	C 	0.9308	0.6638	0.9308	0.424
Mof_C 	C 	0.4697	0.9297	0.8003	0.117
Mof_C 	C 	0.0692	0.0692	0.5254	0.434
Mof_C 	C 	0.9308	0.4746	0.9308	0.434
Mof_C 	C 	0.3362	0.0692	0.5254	0.449
Mof_C 	C 	0.1136	0.1136	0.53	-0.181
Mof_C 	C 	0.8864	0.7572	0.8864	-0.176
Mof_C 	C 	0.9308	0.9308	0.4746	0.434
Mof_C 	C 	0.0703	0.5303	0.1997	0.117
Mof_C 	C 	0.5254	0.0692	0.0692	0.434
Mof_C 	C 	0.8864	0.47	0.8864	-0.181
Mof_C 	C 	0.4746	0.9308	0.6638	0.449
Mof_C 	C 	0.4746	0.9308	0.9308	0.434
Mof_C 	C 	0.53	0.1136	0.1136	-0.181
Mof_C 	C 	0.6638	0.9308	0.9308	0.424
Mof_C 	C 	0.53	0.2428	0.1136	-0.184
Mof_C 	C 	0.2428	0.53	0.1136	-0.184
Mof_O 	O 	0.4775	0.8883	0.6277	-0.499
Mof_O 	O 	0.4775	0.6277	0.0065	-0.497
Mof_O 	O 	0.9935	0.1117	0.3723	-0.485
Mof_O 	O 	0.6277	0.0065	0.4775	-0.497
Mof_O 	O 	0.9935	0.3723	0.5225	-0.497
Mof_O 	O 	0.3723	0.9935	0.1117	-0.485
Mof_O 	O 	0.4775	0.8883	0.0065	-0.49
Mof_O 	O 	0.8883	0.0065	0.6277	-0.485
Mof_O 	O 	0.0065	0.6277	0.8883	-0.485
Mof_O 	O 	0.3723	0.1117	0.9935	-0.485
Mof_O 	O 	0.6277	0.8883	0.0065	-0.485
Mof_O 	O 	0.1117	0.9935	0.3723	-0.485
Mof_O 	O 	0.5225	0.9935	0.1117	-0.49
Mof_O 	O 	0.8883	0.4775	0.0065	-0.49
Mof_O 	O 	0.1117	0.9935	0.5225	-0.49
Mof_O 	O 	0.3723	0.1117	0.5225	-0.499
Mof_O 	O 	0.5225	0.3723	0.1117	-0.499
Mof_O 	O 	0.5225	0.3723	0.9935	-0.497
Mof_O 	O 	0.8883	0.4775	0.6277	-0.499
Mof_O 	O 	0.6277	0.4775	0.0065	-0.497
Mof_O 	O 	0.9935	0.5225	0.1117	-0.49
Mof_O 	O 	0.9935	0.3723	0.1117	-0.485
Mof_O 	O 	0.4775	0.0065	0.8883	-0.49
Mof_O 	O 	0.4775	0.0065	0.6277	-0.497
Mof_O 	O 	0.9935	0.1117	0.5225	-0.49
Mof_O 	O 	0.0065	0.8883	0.6277	-0.485
Mof_O 	O 	0.0065	0.6277	0.4775	-0.497
Mof_O 	O 	0.9935	0.5225	0.3723	-0.497
Mof_O 	O 	0.1117	0.5225	0.3723	-0.499
Mof_O 	O 	0.6277	0.0065	0.8883	-0.485
Mof_O 	O 	0.0065	0.4775	0.8883	-0.49
Mof_O 	O 	0.0065	0.8883	0.4775	-0.49
Mof_O 	O 	0.0065	0.4775	0.6277	-0.497
Mof_O 	O 	0.3723	0.9935	0.5225	-0.497
Mof_O 	O 	0.8883	0.6277	0.0065	-0.485
Mof_O 	O 	0.1117	0.5225	0.9935	-0.49
Mof_O 	O 	0.1117	0.3723	0.5225	-0.499
Mof_O 	O 	0.5225	0.1117	0.9935	-0.49
Mof_O 	O 	0.1117	0.3723	0.9935	-0.485
Mof_O 	O 	0.8883	0.0065	0.4775	-0.49
Mof_O 	O 	0.5225	0.1117	0.3723	-0.499
Mof_O 	O 	0.6277	0.4775	0.8883	-0.499
Mof_O 	O 	0.8883	0.6277	0.4775	-0.499
Mof_O 	O 	0.4775	0.6277	0.8883	-0.499
Mof_O 	O 	0.5225	0.9935	0.3723	-0.497
Mof_O 	O 	0.3723	0.5225	0.9935	-0.497
Mof_O 	O 	0.6277	0.8883	0.4775	-0.499
Mof_O 	O 	0.3723	0.5225	0.1117	-0.499
_end
