data_functionalizedCrystal
_audit_creation_method	'EQeq! by Chris Wilmer'
_symmetry_space_group_name_H-M	'P1'
_symmetry_Int_Tables_number	1
_symmetry_cell_setting	triclinic
loop_
_symmetry_equiv_pos_as_xyz
  x,y,z
_cell_length_a	12.085
_cell_length_b	19.169
_cell_length_c	24.119
_cell_angle_alpha	90
_cell_angle_beta	90.341
_cell_angle_gamma	90
loop_
_atom_site_label
_atom_site_type_symbol
_atom_site_fract_x
_atom_site_fract_y
_atom_site_fract_z
_atom_site_charge
Mof_Cd	Cd	0.00259	0.56754	0.73739	0.508
Mof_Cd	Cd	0.00493	0.8642	0.39959	0.314
Mof_Ru	Ru	0.49764	0.83061	0.64318	1.001
Mof_O 	O 	0.1513	0.6386	0.6938	-0.248
Mof_O 	O 	0.0982	0.6608	0.7803	-0.252
Mof_O 	O 	0.892	0.9741	0.8026	-0.244
Mof_O 	O 	0.8476	0.0036	0.7176	-0.248
Mof_O 	O 	0.1338	0.8718	0.4965	-0.257
Mof_O 	O 	0.1514	0.7996	0.4292	-0.276
Mof_O 	O 	0.8412	0.6627	0.7289	-0.243
Mof_O 	O 	0.892	0.589	0.6627	-0.249
Mof_O 	O 	0.1457	0.9867	0.7389	-0.264
Mof_O 	O 	0.0984	0.0662	0.6771	-0.264
Mof_O 	O 	0.855	0.8112	0.4945	-0.251
Mof_O 	O 	0.8815	0.9134	0.458	-0.271
Mof_O 	O 	0.0974	0.9694	0.3953	-0.134
Mof_N 	N 	0.4048	0.7876	0.7063	-0.225
Mof_N 	N 	0.5832	0.8653	0.7131	-0.226
Mof_N 	N 	0.409	0.7872	0.5785	-0.228
Mof_N 	N 	0.5823	0.7384	0.6313	-0.229
Mof_N 	N 	0.4136	0.9247	0.6423	-0.227
Mof_N 	N 	0.5904	0.8855	0.5869	-0.23
Mof_C 	C 	0.3163	0.7439	0.7011	0.078
Mof_C 	C 	0.2541	0.7229	0.7462	-0.09
Mof_C 	C 	0.2784	0.7484	0.7987	0.031
Mof_C 	C 	0.3694	0.7915	0.8047	-0.094
Mof_C 	C 	0.4328	0.8086	0.7586	0.057
Mof_C 	C 	0.5351	0.8492	0.7624	0.062
Mof_C 	C 	0.5826	0.87	0.8127	-0.103
Mof_C 	C 	0.6801	0.9067	0.8133	0.042
Mof_C 	C 	0.7293	0.9245	0.7627	-0.102
Mof_C 	C 	0.6771	0.9024	0.7141	0.089
Mof_C 	C 	0.1597	0.6702	0.7384	0.304
Mof_C 	C 	0.8312	0.97	0.7604	0.316
Mof_C 	C 	0.3211	0.8156	0.5517	0.089
Mof_C 	C 	0.2713	0.7851	0.5058	-0.115
Mof_C 	C 	0.3104	0.7213	0.4865	0.044
Mof_C 	C 	0.3996	0.6905	0.5149	-0.104
Mof_C 	C 	0.4477	0.7239	0.5596	0.058
Mof_C 	C 	0.5448	0.6979	0.5895	0.063
Mof_C 	C 	0.5959	0.6351	0.576	-0.103
Mof_C 	C 	0.6901	0.6141	0.6054	0.04
Mof_C 	C 	0.7288	0.656	0.6479	-0.097
Mof_C 	C 	0.6721	0.7176	0.6601	0.085
Mof_C 	C 	0.1767	0.8226	0.476	0.348
Mof_C 	C 	0.829	0.6353	0.6826	0.307
Mof_C 	C 	0.3195	0.94	0.6691	0.089
Mof_C 	C 	0.2662	0.0044	0.6637	-0.105
Mof_C 	C 	0.3128	0.0552	0.6298	0.048
Mof_C 	C 	0.4112	0.0403	0.6029	-0.107
Mof_C 	C 	0.4597	0.9754	0.6095	0.061
Mof_C 	C 	0.5601	0.9541	0.5795	0.058
Mof_C 	C 	0.6203	0.999	0.5452	-0.102
Mof_C 	C 	0.7099	0.9737	0.517	0.05
Mof_C 	C 	0.7393	0.9035	0.5226	-0.114
Mof_C 	C 	0.6783	0.8624	0.5577	0.094
Mof_C 	C 	0.1613	0.0185	0.6963	0.329
Mof_C 	C 	0.8344	0.8732	0.4901	0.348
Mof_H 	H 	0.2966	0.7273	0.6652	0.017
Mof_H 	H 	0.2338	0.7366	0.8297	0.053
Mof_H 	H 	0.3887	0.8095	0.8401	0.066
Mof_H 	H 	0.5472	0.8588	0.8467	0.067
Mof_H 	H 	0.7138	0.9198	0.8474	0.04
Mof_H 	H 	0.7101	0.9143	0.6797	0.017
Mof_H 	H 	0.2921	0.8585	0.5651	0.01
Mof_H 	H 	0.2777	0.6993	0.4551	0.035
Mof_H 	H 	0.4271	0.6464	0.5032	0.067
Mof_H 	H 	0.567	0.6069	0.547	0.068
Mof_H 	H 	0.7268	0.5718	0.5964	0.041
Mof_H 	H 	0.698	0.7459	0.6898	0.013
Mof_H 	H 	0.2879	0.9058	0.6927	0.013
Mof_H 	H 	0.2779	0.0993	0.6252	0.037
Mof_H 	H 	0.4452	0.0745	0.5801	0.07
Mof_H 	H 	0.5992	0.0465	0.5415	0.07
Mof_H 	H 	0.7518	0.0037	0.4938	0.051
Mof_H 	H 	0.6992	0.8149	0.5618	0.012
Mof_Cd	Cd	0.0113	0.8876	0.40963	0.142
Mof_Cd	Cd	0.99507	0.3642	0.10041	0.315
Mof_Ru	Ru	0.50236	0.33061	0.85682	1.001
Mof_O 	O 	0.8487	0.1386	0.8062	-0.248
Mof_O 	O 	0.9018	0.1608	0.7197	-0.252
Mof_O 	O 	0.108	0.4741	0.6974	-0.244
Mof_O 	O 	0.1524	0.5036	0.7824	-0.247
Mof_O 	O 	0.8662	0.3718	0.0035	-0.257
Mof_O 	O 	0.8486	0.2996	0.0708	-0.276
Mof_O 	O 	0.1588	0.1627	0.7711	-0.243
Mof_O 	O 	0.108	0.089	0.8373	-0.249
Mof_O 	O 	0.8543	0.4867	0.7611	-0.263
Mof_O 	O 	0.9016	0.5662	0.8229	-0.264
Mof_O 	O 	0.145	0.3112	0.0055	-0.251
Mof_O 	O 	0.1185	0.4134	0.042	-0.271
Mof_O 	O 	0.9026	0.4694	0.1047	-0.134
Mof_N 	N 	0.5952	0.2876	0.7937	-0.225
Mof_N 	N 	0.4168	0.3653	0.7869	-0.226
Mof_N 	N 	0.591	0.2872	0.9215	-0.228
Mof_N 	N 	0.4177	0.2384	0.8687	-0.229
Mof_N 	N 	0.5864	0.4247	0.8577	-0.227
Mof_N 	N 	0.4096	0.3855	0.9131	-0.23
Mof_C 	C 	0.6837	0.2439	0.7989	0.078
Mof_C 	C 	0.7459	0.2229	0.7538	-0.09
Mof_C 	C 	0.7216	0.2484	0.7013	0.031
Mof_C 	C 	0.6306	0.2915	0.6953	-0.094
Mof_C 	C 	0.5672	0.3086	0.7414	0.057
Mof_C 	C 	0.4649	0.3492	0.7376	0.062
Mof_C 	C 	0.4174	0.37	0.6873	-0.103
Mof_C 	C 	0.3199	0.4067	0.6867	0.042
Mof_C 	C 	0.2707	0.4245	0.7373	-0.101
Mof_C 	C 	0.3229	0.4024	0.7859	0.089
Mof_C 	C 	0.8403	0.1702	0.7616	0.304
Mof_C 	C 	0.1688	0.47	0.7396	0.315
Mof_C 	C 	0.6789	0.3156	0.9483	0.089
Mof_C 	C 	0.7287	0.2851	0.9942	-0.115
Mof_C 	C 	0.6896	0.2213	0.0135	0.043
Mof_C 	C 	0.6004	0.1905	0.9851	-0.103
Mof_C 	C 	0.5523	0.2239	0.9404	0.057
Mof_C 	C 	0.4552	0.1979	0.9105	0.064
Mof_C 	C 	0.4041	0.1351	0.924	-0.103
Mof_C 	C 	0.3099	0.1141	0.8946	0.04
Mof_C 	C 	0.2712	0.156	0.8521	-0.097
Mof_C 	C 	0.3279	0.2176	0.8399	0.085
Mof_C 	C 	0.8233	0.3226	0.024	0.348
Mof_C 	C 	0.171	0.1353	0.8174	0.307
Mof_C 	C 	0.6805	0.44	0.8309	0.09
Mof_C 	C 	0.7338	0.5044	0.8363	-0.105
Mof_C 	C 	0.6872	0.5552	0.8702	0.049
Mof_C 	C 	0.5888	0.5403	0.8971	-0.108
Mof_C 	C 	0.5403	0.4754	0.8905	0.061
Mof_C 	C 	0.4399	0.4541	0.9205	0.057
Mof_C 	C 	0.3797	0.499	0.9548	-0.102
Mof_C 	C 	0.2901	0.4737	0.983	0.048
Mof_C 	C 	0.2607	0.4035	0.9774	-0.114
Mof_C 	C 	0.3217	0.3624	0.9423	0.094
Mof_C 	C 	0.8387	0.5185	0.8037	0.328
Mof_C 	C 	0.1656	0.3732	0.0099	0.348
Mof_H 	H 	0.7034	0.2273	0.8348	0.017
Mof_H 	H 	0.7662	0.2366	0.6703	0.053
Mof_H 	H 	0.6113	0.3095	0.6599	0.067
Mof_H 	H 	0.4528	0.3588	0.6533	0.067
Mof_H 	H 	0.2862	0.4198	0.6526	0.04
Mof_H 	H 	0.2899	0.4143	0.8203	0.017
Mof_H 	H 	0.7079	0.3585	0.9349	0.01
Mof_H 	H 	0.7223	0.1993	0.0449	0.035
Mof_H 	H 	0.5729	0.1464	0.9968	0.066
Mof_H 	H 	0.433	0.1069	0.953	0.068
Mof_H 	H 	0.2732	0.0718	0.9036	0.041
Mof_H 	H 	0.302	0.2459	0.8102	0.013
Mof_H 	H 	0.7121	0.4058	0.8073	0.013
Mof_H 	H 	0.7221	0.5993	0.8748	0.037
Mof_H 	H 	0.5548	0.5745	0.9199	0.07
Mof_H 	H 	0.4008	0.5465	0.9585	0.07
Mof_H 	H 	0.2482	0.5037	0.0062	0.052
Mof_H 	H 	0.3008	0.3149	0.9382	0.012
Mof_Cd	Cd	0.9887	0.3876	0.09037	0.142
Mof_Cd	Cd	0.99741	0.06754	0.76261	0.507
Mof_Cd	Cd	0.99741	0.43246	0.26261	0.508
Mof_Cd	Cd	0.99507	0.1358	0.60041	0.314
Mof_Ru	Ru	0.50236	0.16939	0.35682	1.001
Mof_O 	O 	0.8487	0.3614	0.3062	-0.248
Mof_O 	O 	0.9018	0.3392	0.2197	-0.252
Mof_O 	O 	0.108	0.0259	0.1974	-0.244
Mof_O 	O 	0.1524	0.9964	0.2824	-0.248
Mof_O 	O 	0.8662	0.1282	0.5035	-0.257
Mof_O 	O 	0.8486	0.2004	0.5708	-0.276
Mof_O 	O 	0.1588	0.3373	0.2711	-0.243
Mof_O 	O 	0.108	0.411	0.3373	-0.249
Mof_O 	O 	0.8543	0.0133	0.2611	-0.264
Mof_O 	O 	0.9016	0.9338	0.3229	-0.264
Mof_O 	O 	0.145	0.1888	0.5055	-0.251
Mof_O 	O 	0.1185	0.0866	0.542	-0.271
Mof_O 	O 	0.9026	0.0306	0.6047	-0.134
Mof_N 	N 	0.5952	0.2124	0.2937	-0.225
Mof_N 	N 	0.4168	0.1347	0.2869	-0.226
Mof_N 	N 	0.591	0.2128	0.4215	-0.228
Mof_N 	N 	0.4177	0.2616	0.3687	-0.229
Mof_N 	N 	0.5864	0.0753	0.3577	-0.227
Mof_N 	N 	0.4096	0.1145	0.4131	-0.23
Mof_C 	C 	0.6837	0.2561	0.2989	0.078
Mof_C 	C 	0.7459	0.2771	0.2538	-0.09
Mof_C 	C 	0.7216	0.2516	0.2013	0.031
Mof_C 	C 	0.6306	0.2085	0.1953	-0.094
Mof_C 	C 	0.5672	0.1914	0.2414	0.057
Mof_C 	C 	0.4649	0.1508	0.2376	0.062
Mof_C 	C 	0.4174	0.13	0.1873	-0.103
Mof_C 	C 	0.3199	0.0933	0.1867	0.042
Mof_C 	C 	0.2707	0.0755	0.2373	-0.102
Mof_C 	C 	0.3229	0.0976	0.2859	0.089
Mof_C 	C 	0.8403	0.3298	0.2616	0.304
Mof_C 	C 	0.1688	0.03	0.2396	0.316
Mof_C 	C 	0.6789	0.1844	0.4483	0.089
Mof_C 	C 	0.7287	0.2149	0.4942	-0.115
Mof_C 	C 	0.6896	0.2787	0.5135	0.044
Mof_C 	C 	0.6004	0.3095	0.4851	-0.104
Mof_C 	C 	0.5523	0.2761	0.4404	0.058
Mof_C 	C 	0.4552	0.3021	0.4105	0.063
Mof_C 	C 	0.4041	0.3649	0.424	-0.103
Mof_C 	C 	0.3099	0.3859	0.3946	0.04
Mof_C 	C 	0.2712	0.344	0.3521	-0.097
Mof_C 	C 	0.3279	0.2824	0.3399	0.085
Mof_C 	C 	0.8233	0.1774	0.524	0.348
Mof_C 	C 	0.171	0.3647	0.3174	0.307
Mof_C 	C 	0.6805	0.06	0.3309	0.089
Mof_C 	C 	0.7338	0.9956	0.3363	-0.105
Mof_C 	C 	0.6872	0.9448	0.3702	0.048
Mof_C 	C 	0.5888	0.9597	0.3971	-0.107
Mof_C 	C 	0.5403	0.0246	0.3905	0.061
Mof_C 	C 	0.4399	0.0459	0.4205	0.058
Mof_C 	C 	0.3797	0.001	0.4548	-0.102
Mof_C 	C 	0.2901	0.0263	0.483	0.05
Mof_C 	C 	0.2607	0.0965	0.4774	-0.114
Mof_C 	C 	0.3217	0.1376	0.4423	0.094
Mof_C 	C 	0.8387	0.9815	0.3037	0.329
Mof_C 	C 	0.1656	0.1268	0.5099	0.348
Mof_H 	H 	0.7034	0.2727	0.3348	0.017
Mof_H 	H 	0.7662	0.2634	0.1703	0.053
Mof_H 	H 	0.6113	0.1905	0.1599	0.066
Mof_H 	H 	0.4528	0.1412	0.1533	0.067
Mof_H 	H 	0.2862	0.0802	0.1526	0.04
Mof_H 	H 	0.2899	0.0857	0.3203	0.017
Mof_H 	H 	0.7079	0.1415	0.4349	0.01
Mof_H 	H 	0.7223	0.3007	0.5449	0.035
Mof_H 	H 	0.5729	0.3536	0.4968	0.067
Mof_H 	H 	0.433	0.3931	0.453	0.068
Mof_H 	H 	0.2732	0.4282	0.4036	0.041
Mof_H 	H 	0.302	0.2541	0.3102	0.013
Mof_H 	H 	0.7121	0.0942	0.3073	0.013
Mof_H 	H 	0.7221	0.9007	0.3748	0.037
Mof_H 	H 	0.5548	0.9255	0.4199	0.07
Mof_H 	H 	0.4008	0.9535	0.4585	0.07
Mof_H 	H 	0.2482	0.9963	0.5062	0.051
Mof_H 	H 	0.3008	0.1851	0.4382	0.012
Mof_Cd	Cd	0.9887	0.1124	0.59037	0.142
Mof_Cd	Cd	0.00493	0.6358	0.89959	0.315
Mof_Ru	Ru	0.49764	0.66939	0.14318	1.001
Mof_O 	O 	0.1513	0.8614	0.1938	-0.248
Mof_O 	O 	0.0982	0.8392	0.2803	-0.252
Mof_O 	O 	0.892	0.5259	0.3026	-0.244
Mof_O 	O 	0.8476	0.4964	0.2176	-0.247
Mof_O 	O 	0.1338	0.6282	0.9965	-0.257
Mof_O 	O 	0.1514	0.7004	0.9292	-0.276
Mof_O 	O 	0.8412	0.8373	0.2289	-0.243
Mof_O 	O 	0.892	0.911	0.1627	-0.249
Mof_O 	O 	0.1457	0.5133	0.2389	-0.263
Mof_O 	O 	0.0984	0.4338	0.1771	-0.264
Mof_O 	O 	0.855	0.6888	0.9945	-0.251
Mof_O 	O 	0.8815	0.5866	0.958	-0.271
Mof_O 	O 	0.0974	0.5306	0.8953	-0.134
Mof_N 	N 	0.4048	0.7124	0.2063	-0.225
Mof_N 	N 	0.5832	0.6347	0.2131	-0.226
Mof_N 	N 	0.409	0.7128	0.0785	-0.228
Mof_N 	N 	0.5823	0.7616	0.1313	-0.229
Mof_N 	N 	0.4136	0.5753	0.1423	-0.227
Mof_N 	N 	0.5904	0.6145	0.0869	-0.23
Mof_C 	C 	0.3163	0.7561	0.2011	0.078
Mof_C 	C 	0.2541	0.7771	0.2462	-0.09
Mof_C 	C 	0.2784	0.7516	0.2987	0.031
Mof_C 	C 	0.3694	0.7085	0.3047	-0.094
Mof_C 	C 	0.4328	0.6914	0.2586	0.057
Mof_C 	C 	0.5351	0.6508	0.2624	0.062
Mof_C 	C 	0.5826	0.63	0.3127	-0.103
Mof_C 	C 	0.6801	0.5933	0.3133	0.042
Mof_C 	C 	0.7293	0.5755	0.2627	-0.101
Mof_C 	C 	0.6771	0.5976	0.2141	0.089
Mof_C 	C 	0.1597	0.8298	0.2384	0.304
Mof_C 	C 	0.8312	0.53	0.2604	0.315
Mof_C 	C 	0.3211	0.6844	0.0517	0.089
Mof_C 	C 	0.2713	0.7149	0.0058	-0.115
Mof_C 	C 	0.3104	0.7787	0.9865	0.043
Mof_C 	C 	0.3996	0.8095	0.0149	-0.103
Mof_C 	C 	0.4477	0.7761	0.0596	0.057
Mof_C 	C 	0.5448	0.8021	0.0895	0.064
Mof_C 	C 	0.5959	0.8649	0.076	-0.103
Mof_C 	C 	0.6901	0.8859	0.1054	0.04
Mof_C 	C 	0.7288	0.844	0.1479	-0.097
Mof_C 	C 	0.6721	0.7824	0.1601	0.085
Mof_C 	C 	0.1767	0.6774	0.976	0.348
Mof_C 	C 	0.829	0.8647	0.1826	0.307
Mof_C 	C 	0.3195	0.56	0.1691	0.09
Mof_C 	C 	0.2662	0.4956	0.1637	-0.105
Mof_C 	C 	0.3128	0.4448	0.1298	0.049
Mof_C 	C 	0.4112	0.4597	0.1029	-0.108
Mof_C 	C 	0.4597	0.5246	0.1095	0.061
Mof_C 	C 	0.5601	0.5459	0.0795	0.057
Mof_C 	C 	0.6203	0.501	0.0452	-0.102
Mof_C 	C 	0.7099	0.5263	0.017	0.048
Mof_C 	C 	0.7393	0.5965	0.0226	-0.114
Mof_C 	C 	0.6783	0.6376	0.0577	0.094
Mof_C 	C 	0.1613	0.4815	0.1963	0.328
Mof_C 	C 	0.8344	0.6268	0.9901	0.348
Mof_H 	H 	0.2966	0.7727	0.1652	0.017
Mof_H 	H 	0.2338	0.7634	0.3297	0.053
Mof_H 	H 	0.3887	0.6905	0.3401	0.067
Mof_H 	H 	0.5472	0.6412	0.3467	0.067
Mof_H 	H 	0.7138	0.5802	0.3474	0.04
Mof_H 	H 	0.7101	0.5857	0.1797	0.017
Mof_H 	H 	0.2921	0.6415	0.0651	0.01
Mof_H 	H 	0.2777	0.8007	0.9551	0.035
Mof_H 	H 	0.4271	0.8536	0.0032	0.066
Mof_H 	H 	0.567	0.8931	0.047	0.068
Mof_H 	H 	0.7268	0.9282	0.0964	0.041
Mof_H 	H 	0.698	0.7541	0.1898	0.013
Mof_H 	H 	0.2879	0.5942	0.1927	0.013
Mof_H 	H 	0.2779	0.4007	0.1252	0.037
Mof_H 	H 	0.4452	0.4255	0.0801	0.07
Mof_H 	H 	0.5992	0.4535	0.0415	0.07
Mof_H 	H 	0.7518	0.4963	0.9938	0.052
Mof_H 	H 	0.6992	0.6851	0.0618	0.012
Mof_Cd	Cd	0.0113	0.6124	0.90963	0.142
Mof_Cd	Cd	0.00259	0.93246	0.23739	0.507
_end
