data_functionalizedCrystal
_audit_creation_method	'EQeq! by Chris Wilmer'
_symmetry_space_group_name_H-M	'P1'
_symmetry_Int_Tables_number	1
_symmetry_cell_setting	triclinic
loop_
_symmetry_equiv_pos_as_xyz
  x,y,z
_cell_length_a	9.6814
_cell_length_b	9.6568
_cell_length_c	9.7618
_cell_angle_alpha	90
_cell_angle_beta	102.9
_cell_angle_gamma	90
loop_
_atom_site_label
_atom_site_type_symbol
_atom_site_fract_x
_atom_site_fract_y
_atom_site_fract_z
_atom_site_charge
Mof_P 	P 	0.20723	0.18548	0.86704	0.967
Mof_P 	P 	0.2973	0.5333	0.1496	0.903
Mof_Ga	Ga	0.39815	0.23219	0.18442	3.446
Mof_Ga	Ga	0.38674	0.45786	0.87063	3.563
Mof_O 	O 	0.5002	0.3588	0.0578	-1.603
Mof_O 	O 	0.2873	0.3895	0.2164	-0.884
Mof_O 	O 	0.2617	0.5169	0.9872	-0.954
Mof_O 	O 	0.1876	0.629	0.1861	-0.857
Mof_O 	O 	0.2609	0.1696	0.0248	-0.975
Mof_O 	O 	0.2952	0.2885	0.8036	-0.999
Mof_O 	O 	0.0517	0.2289	0.8406	-0.923
Mof_O 	O 	0.4488	0.5905	0.2006	-0.937
Mof_O 	O 	0.2202	0.0424	0.7982	-0.896
Mof_H 	H 	0.5685	0.2929	0.0288	0.239
Mof_P 	P 	0.29277	0.68548	0.63296	0.959
Mof_P 	P 	0.2027	0.0333	0.3504	0.907
Mof_Ga	Ga	0.10185	0.73219	0.31558	3.366
Mof_Ga	Ga	0.11326	0.95786	0.62937	3.338
Mof_O 	O 	0.9998	0.8588	0.4422	-1.514
Mof_O 	O 	0.2127	0.8895	0.2836	-0.89
Mof_O 	O 	0.2383	0.0169	0.5128	-0.902
Mof_O 	O 	0.3124	0.129	0.3139	-0.865
Mof_O 	O 	0.2391	0.6696	0.4752	-0.956
Mof_O 	O 	0.2048	0.7885	0.6964	-0.978
Mof_O 	O 	0.4483	0.7289	0.6594	-0.954
Mof_O 	O 	0.0512	0.0905	0.2994	-0.886
Mof_O 	O 	0.2798	0.5424	0.7018	-0.948
Mof_H 	H 	0.9315	0.7929	0.4712	0.235
Mof_P 	P 	0.79277	0.81452	0.13296	0.966
Mof_P 	P 	0.7027	0.4667	0.8504	0.902
Mof_Ga	Ga	0.60185	0.76781	0.81558	3.445
Mof_Ga	Ga	0.61326	0.54214	0.12937	3.562
Mof_O 	O 	0.4998	0.6412	0.9422	-1.603
Mof_O 	O 	0.7127	0.6105	0.7836	-0.884
Mof_O 	O 	0.7383	0.4831	0.0128	-0.954
Mof_O 	O 	0.8124	0.371	0.8139	-0.857
Mof_O 	O 	0.7391	0.8304	0.9752	-0.975
Mof_O 	O 	0.7048	0.7115	0.1964	-0.999
Mof_O 	O 	0.9483	0.7711	0.1594	-0.923
Mof_O 	O 	0.5512	0.4095	0.7994	-0.937
Mof_O 	O 	0.7798	0.9576	0.2018	-0.896
Mof_H 	H 	0.4315	0.7071	0.9712	0.239
Mof_P 	P 	0.70723	0.31452	0.36704	0.959
Mof_P 	P 	0.7973	0.9667	0.6496	0.907
Mof_Ga	Ga	0.89815	0.26781	0.68442	3.366
Mof_Ga	Ga	0.88674	0.04214	0.37063	3.338
Mof_O 	O 	0.0002	0.1412	0.5578	-1.514
Mof_O 	O 	0.7873	0.1105	0.7164	-0.89
Mof_O 	O 	0.7617	0.9831	0.4872	-0.902
Mof_O 	O 	0.6876	0.871	0.6861	-0.865
Mof_O 	O 	0.7609	0.3304	0.5248	-0.956
Mof_O 	O 	0.7952	0.2115	0.3036	-0.978
Mof_O 	O 	0.5517	0.2711	0.3406	-0.954
Mof_O 	O 	0.9488	0.9095	0.7006	-0.886
Mof_O 	O 	0.7202	0.4576	0.2982	-0.948
Mof_H 	H 	0.0685	0.2071	0.5288	0.235
_end
