data_functionalizedCrystal
_audit_creation_method	'EQeq! by Chris Wilmer'
_symmetry_space_group_name_H-M	'P1'
_symmetry_Int_Tables_number	1
_symmetry_cell_setting	triclinic
loop_
_symmetry_equiv_pos_as_xyz
  x,y,z
_cell_length_a	14.6978
_cell_length_b	19.3933
_cell_length_c	10.356
_cell_angle_alpha	90
_cell_angle_beta	90
_cell_angle_gamma	90
loop_
_atom_site_label
_atom_site_type_symbol
_atom_site_fract_x
_atom_site_fract_y
_atom_site_fract_z
_atom_site_charge
Mof_Cu	Cu	0.34552	0.38215	0.75452	0.811
Mof_N 	N 	0.0947	0.33589	0.3296	-0.242
Mof_N 	N 	0.3276	0.52242	0.4449	-0.196
Mof_N 	N 	0.3442	0.45002	0.6134	-0.231
Mof_N 	N 	0.4065	0.50304	0.6251	-0.241
Mof_N 	N 	0.5097	0.62976	0.5822	-0.164
Mof_N 	N 	0.4423	0.64023	0.3883	-0.24
Mof_N 	N 	0.5033	0.69355	0.4	-0.231
Mof_N 	N 	0.7421	0.8177	0.6824	-0.236
Mof_C 	C 	0.1271	0.3929	0.2719	0.044
Mof_H 	H 	0.1037	0.4045	0.1913	-0.022
Mof_C 	C 	0.193	0.4353	0.3247	-0.106
Mof_H 	H 	0.2145	0.473	0.2783	0.045
Mof_C 	C 	0.2266	0.4216	0.4465	-0.004
Mof_C 	C 	0.1894	0.3653	0.5104	-0.099
Mof_H 	H 	0.207	0.3553	0.5946	0.02
Mof_C 	C 	0.126	0.3243	0.4481	0.037
Mof_H 	H 	0.1038	0.286	0.4921	-0.022
Mof_C 	C 	0.2992	0.4642	0.5036	0.088
Mof_C 	C 	0.3934	0.5431	0.5229	0.036
Mof_C 	C 	0.4486	0.6049	0.4978	0.023
Mof_C 	C 	0.5408	0.6851	0.5178	0.075
Mof_C 	C 	0.6086	0.7319	0.5737	0.003
Mof_C 	C 	0.6349	0.7923	0.5148	-0.096
Mof_H 	H 	0.6089	0.8053	0.4367	0.014
Mof_C 	C 	0.7005	0.8339	0.5722	0.046
Mof_H 	H 	0.7161	0.875	0.5317	-0.006
Mof_C 	C 	0.716	0.7587	0.7386	0.056
Mof_H 	H 	0.744	0.7464	0.8158	-0.016
Mof_C 	C 	0.6505	0.715	0.6896	-0.102
Mof_H 	H 	0.6346	0.6749	0.7335	0.062
Mof_Cu	Cu	0.15448	0.11785	0.25452	0.806
Mof_N 	N 	0.4053	0.16411	0.8296	-0.23
Mof_N 	N 	0.1724	0.97758	0.9449	-0.194
Mof_N 	N 	0.1558	0.04998	0.1134	-0.235
Mof_N 	N 	0.0935	0.99696	0.1251	-0.259
Mof_N 	N 	0.9903	0.87024	0.0822	-0.096
Mof_N 	N 	0.0577	0.85977	0.8883	-0.269
Mof_N 	N 	0.9967	0.80645	0.9	-0.168
Mof_N 	N 	0.7579	0.6823	0.1824	-0.239
Mof_C 	C 	0.3729	0.1071	0.7719	0.055
Mof_H 	H 	0.3963	0.0955	0.6913	-0.006
Mof_C 	C 	0.307	0.0647	0.8247	-0.107
Mof_H 	H 	0.2855	0.027	0.7783	0.051
Mof_C 	C 	0.2734	0.0784	0.9465	0.011
Mof_C 	C 	0.3106	0.1347	0.0104	-0.106
Mof_H 	H 	0.293	0.1447	0.0946	0.027
Mof_C 	C 	0.374	0.1757	0.9481	0.053
Mof_H 	H 	0.3962	0.214	0.9921	-0.003
Mof_C 	C 	0.2008	0.0358	0.0036	0.079
Mof_C 	C 	0.1066	0.9569	0.0229	0.037
Mof_C 	C 	0.0514	0.8951	0.9978	-0.063
Mof_C 	C 	0.9592	0.8149	0.0178	0.09
Mof_C 	C 	0.8914	0.7681	0.0737	0.026
Mof_C 	C 	0.8651	0.7077	0.0148	-0.109
Mof_H 	H 	0.8911	0.6947	0.9367	0.037
Mof_C 	C 	0.7995	0.6661	0.0722	0.06
Mof_H 	H 	0.7839	0.625	0.0317	-0.008
Mof_C 	C 	0.784	0.7413	0.2386	0.066
Mof_H 	H 	0.756	0.7536	0.3158	-0.019
Mof_C 	C 	0.8495	0.785	0.1896	-0.107
Mof_H 	H 	0.8654	0.8251	0.2335	0.077
Mof_Cu	Cu	0.65448	0.38215	0.74548	0.812
Mof_N 	N 	0.9053	0.33589	0.1704	-0.197
Mof_N 	N 	0.6724	0.52242	0.0551	-0.199
Mof_N 	N 	0.6558	0.45002	0.8866	-0.232
Mof_N 	N 	0.5935	0.50304	0.8749	-0.243
Mof_N 	N 	0.4903	0.62976	0.9178	-0.162
Mof_N 	N 	0.5577	0.64023	0.1117	-0.239
Mof_N 	N 	0.4967	0.69355	0.1	-0.233
Mof_N 	N 	0.2579	0.8177	0.8176	-0.236
Mof_C 	C 	0.8729	0.3929	0.2281	0.05
Mof_H 	H 	0.8963	0.4045	0.3087	0.018
Mof_C 	C 	0.807	0.4353	0.1753	-0.082
Mof_H 	H 	0.7855	0.473	0.2217	0.048
Mof_C 	C 	0.7734	0.4216	0.0535	-0.014
Mof_C 	C 	0.8106	0.3653	0.9896	-0.067
Mof_H 	H 	0.793	0.3553	0.9054	0.02
Mof_C 	C 	0.874	0.3243	0.0519	0.038
Mof_H 	H 	0.8962	0.286	0.0079	0.026
Mof_C 	C 	0.7008	0.4642	0.9964	0.101
Mof_C 	C 	0.6066	0.5431	0.9771	0.042
Mof_C 	C 	0.5514	0.6049	0.0022	0.017
Mof_C 	C 	0.4592	0.6851	0.9822	0.08
Mof_C 	C 	0.3914	0.7319	0.9263	-0.003
Mof_C 	C 	0.3651	0.7923	0.9852	-0.084
Mof_H 	H 	0.3911	0.8053	0.0633	0.007
Mof_C 	C 	0.2995	0.8339	0.9278	0.038
Mof_H 	H 	0.2839	0.875	0.9683	-0.003
Mof_C 	C 	0.284	0.7587	0.7614	0.052
Mof_H 	H 	0.256	0.7464	0.6842	-0.016
Mof_C 	C 	0.3495	0.715	0.8104	-0.097
Mof_H 	H 	0.3654	0.6749	0.7665	0.061
Mof_Cu	Cu	0.84552	0.11785	0.24548	0.819
Mof_N 	N 	0.5947	0.16411	0.6704	-0.227
Mof_N 	N 	0.8276	0.97758	0.5551	-0.191
Mof_N 	N 	0.8442	0.04998	0.3866	-0.226
Mof_N 	N 	0.9065	0.99696	0.3749	-0.21
Mof_N 	N 	0.0097	0.87024	0.4178	-0.229
Mof_N 	N 	0.9423	0.85977	0.6117	-0.208
Mof_N 	N 	0.0033	0.80645	0.6	-0.28
Mof_N 	N 	0.2421	0.6823	0.3176	-0.238
Mof_C 	C 	0.6271	0.1071	0.7281	0.049
Mof_H 	H 	0.6037	0.0955	0.8087	-0.004
Mof_C 	C 	0.693	0.0647	0.6753	-0.097
Mof_H 	H 	0.7145	0.027	0.7217	0.048
Mof_C 	C 	0.7266	0.0784	0.5535	-0.003
Mof_C 	C 	0.6894	0.1347	0.4896	-0.089
Mof_H 	H 	0.707	0.1447	0.4054	0.022
Mof_C 	C 	0.626	0.1757	0.5519	0.042
Mof_H 	H 	0.6038	0.214	0.5079	-0.001
Mof_C 	C 	0.7992	0.0358	0.4964	0.096
Mof_C 	C 	0.8934	0.9569	0.4771	0.031
Mof_C 	C 	0.9486	0.8951	0.5022	0.124
Mof_C 	C 	0.0408	0.8149	0.4822	0.053
Mof_C 	C 	0.1086	0.7681	0.4263	-0.009
Mof_C 	C 	0.1349	0.7077	0.4852	-0.1
Mof_H 	H 	0.1089	0.6947	0.5633	0.003
Mof_C 	C 	0.2005	0.6661	0.4278	0.037
Mof_H 	H 	0.2161	0.625	0.4683	-0.008
Mof_C 	C 	0.216	0.7413	0.2614	0.047
Mof_H 	H 	0.244	0.7536	0.1842	-0.018
Mof_C 	C 	0.1505	0.785	0.3104	-0.103
Mof_H 	H 	0.1346	0.8251	0.2665	0.051
Mof_Cu	Cu	0.65448	0.61785	0.24548	0.812
Mof_N 	N 	0.9053	0.66411	0.6704	-0.199
Mof_N 	N 	0.6724	0.47758	0.5551	-0.195
Mof_N 	N 	0.6558	0.54998	0.3866	-0.232
Mof_N 	N 	0.5935	0.49696	0.3749	-0.242
Mof_N 	N 	0.4903	0.37024	0.4178	-0.164
Mof_N 	N 	0.5577	0.35977	0.6117	-0.24
Mof_N 	N 	0.4967	0.30645	0.6	-0.231
Mof_N 	N 	0.2579	0.1823	0.3176	-0.238
Mof_C 	C 	0.8729	0.6071	0.7281	0.054
Mof_H 	H 	0.8963	0.5955	0.8087	0.016
Mof_C 	C 	0.807	0.5647	0.6753	-0.088
Mof_H 	H 	0.7855	0.527	0.7217	0.05
Mof_C 	C 	0.7734	0.5784	0.5535	-0.003
Mof_C 	C 	0.8106	0.6347	0.4896	-0.079
Mof_H 	H 	0.793	0.6447	0.4054	0.024
Mof_C 	C 	0.874	0.6757	0.5519	0.046
Mof_H 	H 	0.8962	0.714	0.5079	0.024
Mof_C 	C 	0.7008	0.5358	0.4964	0.094
Mof_C 	C 	0.6066	0.4569	0.4771	0.036
Mof_C 	C 	0.5514	0.3951	0.5022	0.023
Mof_C 	C 	0.4592	0.3149	0.4822	0.075
Mof_C 	C 	0.3914	0.2681	0.4263	0.002
Mof_C 	C 	0.3651	0.2077	0.4852	-0.096
Mof_H 	H 	0.3911	0.1947	0.5633	0.014
Mof_C 	C 	0.2995	0.1661	0.4278	0.043
Mof_H 	H 	0.2839	0.125	0.4683	-0.006
Mof_C 	C 	0.284	0.2413	0.2614	0.053
Mof_H 	H 	0.256	0.2536	0.1842	-0.018
Mof_C 	C 	0.3495	0.285	0.3104	-0.101
Mof_H 	H 	0.3654	0.3251	0.2665	0.062
Mof_Cu	Cu	0.84552	0.88215	0.74548	0.82
Mof_N 	N 	0.5947	0.83589	0.1704	-0.225
Mof_N 	N 	0.8276	0.02242	0.0551	-0.194
Mof_N 	N 	0.8442	0.95002	0.8866	-0.227
Mof_N 	N 	0.9065	0.00304	0.8749	-0.211
Mof_N 	N 	0.0097	0.12976	0.9178	-0.227
Mof_N 	N 	0.9423	0.14023	0.1117	-0.207
Mof_N 	N 	0.0033	0.19355	0.1	-0.282
Mof_N 	N 	0.2421	0.3177	0.8176	-0.236
Mof_C 	C 	0.6271	0.8929	0.2281	0.044
Mof_H 	H 	0.6037	0.9045	0.3087	-0.003
Mof_C 	C 	0.693	0.9353	0.1753	-0.089
Mof_H 	H 	0.7145	0.973	0.2217	0.045
Mof_C 	C 	0.7266	0.9216	0.0535	-0.017
Mof_C 	C 	0.6894	0.8653	0.9896	-0.073
Mof_H 	H 	0.707	0.8553	0.9054	0.017
Mof_C 	C 	0.626	0.8243	0.0519	0.031
Mof_H 	H 	0.6038	0.786	0.0079	0.001
Mof_C 	C 	0.7992	0.9642	0.9964	0.103
Mof_C 	C 	0.8934	0.0431	0.9771	0.035
Mof_C 	C 	0.9486	0.1049	0.0022	0.118
Mof_C 	C 	0.0408	0.1851	0.9822	0.059
Mof_C 	C 	0.1086	0.2319	0.9263	-0.014
Mof_C 	C 	0.1349	0.2923	0.9852	-0.088
Mof_H 	H 	0.1089	0.3053	0.0633	-0.003
Mof_C 	C 	0.2005	0.3339	0.9278	0.032
Mof_H 	H 	0.2161	0.375	0.9683	-0.005
Mof_C 	C 	0.216	0.2587	0.7614	0.045
Mof_H 	H 	0.244	0.2464	0.6842	-0.016
Mof_C 	C 	0.1505	0.215	0.8104	-0.1
Mof_H 	H 	0.1346	0.1749	0.7665	0.05
Mof_Cu	Cu	0.34552	0.61785	0.25452	0.81
Mof_N 	N 	0.0947	0.66411	0.8296	-0.246
Mof_N 	N 	0.3276	0.47758	0.9449	-0.192
Mof_N 	N 	0.3442	0.54998	0.1134	-0.231
Mof_N 	N 	0.4065	0.49696	0.1251	-0.242
Mof_N 	N 	0.5097	0.37024	0.0822	-0.165
Mof_N 	N 	0.4423	0.35977	0.8883	-0.241
Mof_N 	N 	0.5033	0.30645	0.9	-0.229
Mof_N 	N 	0.7421	0.1823	0.1824	-0.237
Mof_C 	C 	0.1271	0.6071	0.7719	0.05
Mof_H 	H 	0.1037	0.5955	0.6913	-0.024
Mof_C 	C 	0.193	0.5647	0.8247	-0.115
Mof_H 	H 	0.2145	0.527	0.7783	0.048
Mof_C 	C 	0.2266	0.5784	0.9465	0.012
Mof_C 	C 	0.1894	0.6347	0.0104	-0.118
Mof_H 	H 	0.207	0.6447	0.0946	0.026
Mof_C 	C 	0.126	0.6757	0.9481	0.05
Mof_H 	H 	0.1038	0.714	0.9921	-0.025
Mof_C 	C 	0.2992	0.5358	0.0036	0.078
Mof_C 	C 	0.3934	0.4569	0.0229	0.03
Mof_C 	C 	0.4486	0.3951	0.9978	0.029
Mof_C 	C 	0.5408	0.3149	0.0178	0.07
Mof_C 	C 	0.6086	0.2681	0.0737	0.007
Mof_C 	C 	0.6349	0.2077	0.0148	-0.106
Mof_H 	H 	0.6089	0.1947	0.9367	0.019
Mof_C 	C 	0.7005	0.1661	0.0722	0.05
Mof_H 	H 	0.7161	0.125	0.0317	-0.009
Mof_C 	C 	0.716	0.2413	0.2386	0.058
Mof_H 	H 	0.744	0.2536	0.3158	-0.017
Mof_C 	C 	0.6505	0.285	0.1896	-0.105
Mof_H 	H 	0.6346	0.3251	0.2335	0.063
Mof_Cu	Cu	0.15448	0.88215	0.75452	0.806
Mof_N 	N 	0.4053	0.83589	0.3296	-0.227
Mof_N 	N 	0.1724	0.02242	0.4449	-0.199
Mof_N 	N 	0.1558	0.95002	0.6134	-0.236
Mof_N 	N 	0.0935	0.00304	0.6251	-0.259
Mof_N 	N 	0.9903	0.12976	0.5822	-0.093
Mof_N 	N 	0.0577	0.14023	0.3883	-0.269
Mof_N 	N 	0.9967	0.19355	0.4	-0.169
Mof_N 	N 	0.7579	0.3177	0.6824	-0.238
Mof_C 	C 	0.3729	0.8929	0.2719	0.05
Mof_H 	H 	0.3963	0.9045	0.1913	-0.005
Mof_C 	C 	0.307	0.9353	0.3247	-0.099
Mof_H 	H 	0.2855	0.973	0.2783	0.047
Mof_C 	C 	0.2734	0.9216	0.4465	-0.002
Mof_C 	C 	0.3106	0.8653	0.5104	-0.09
Mof_H 	H 	0.293	0.8553	0.5946	0.022
Mof_C 	C 	0.374	0.8243	0.4481	0.042
Mof_H 	H 	0.3962	0.786	0.4921	-0.001
Mof_C 	C 	0.2008	0.9642	0.5036	0.087
Mof_C 	C 	0.1066	0.0431	0.5229	0.046
Mof_C 	C 	0.0514	0.1049	0.4978	-0.072
Mof_C 	C 	0.9592	0.1851	0.5178	0.096
Mof_C 	C 	0.8914	0.2319	0.5737	0.021
Mof_C 	C 	0.8651	0.2923	0.5148	-0.098
Mof_H 	H 	0.8911	0.3053	0.4367	0.032
Mof_C 	C 	0.7995	0.3339	0.5722	0.056
Mof_H 	H 	0.7839	0.375	0.5317	-0.005
Mof_C 	C 	0.784	0.2587	0.7386	0.065
Mof_H 	H 	0.756	0.2464	0.8158	-0.018
Mof_C 	C 	0.8495	0.215	0.6896	-0.104
Mof_H 	H 	0.8654	0.1749	0.7335	0.076
Mof_Cu	Cu	2.79839e-33	0.26499	0.25	0.776
Mof_Cu	Cu	0.5	0.23501	0.75	0.821
Mof_Cu	Cu	-1.08462e-32	0.73501	0.75	0.777
Mof_Cu	Cu	0.5	0.76499	0.25	0.821
Mof_Cu	Cu	0.5	0.50941	0.75	0.802
Mof_Cu	Cu	-5.75335e-33	0.99059	0.25	0.758
Mof_Cu	Cu	0.5	0.49059	0.25	0.801
Mof_Cu	Cu	1.98136e-33	0.00941	0.75	0.758
_end
