data_functionalizedCrystal
_audit_creation_method	'EQeq! by Chris Wilmer'
_symmetry_space_group_name_H-M	'P1'
_symmetry_Int_Tables_number	1
_symmetry_cell_setting	triclinic
loop_
_symmetry_equiv_pos_as_xyz
  x,y,z
_cell_length_a	13.709
_cell_length_b	13.709
_cell_length_c	15.436
_cell_angle_alpha	90
_cell_angle_beta	90
_cell_angle_gamma	120
loop_
_atom_site_label
_atom_site_type_symbol
_atom_site_fract_x
_atom_site_fract_y
_atom_site_fract_z
_atom_site_charge
Mof_Al	Al	0.4295	0.1034	0.2387	4.721
Mof_P 	P 	0.6583	0.0961	0.2273	1.42
Mof_O 	O 	0.548	0.0899	0.2077	-1.521
Mof_O 	O 	0.7526	0.2162	0.2203	-1.612
Mof_O 	O 	0.6563	0.05	0.3177	-1.535
Mof_O 	O 	0.6724	0.0225	0.1619	-1.456
Mof_Al	Al	0.09617	0.43673	0.57203	4.722
Mof_P 	P 	0.32497	0.42943	0.56063	1.425
Mof_O 	O 	0.21467	0.42323	0.54103	-1.52
Mof_O 	O 	0.41927	0.54953	0.55363	-1.615
Mof_O 	O 	0.32297	0.38333	0.65103	-1.535
Mof_O 	O 	0.33907	0.35583	0.49523	-1.474
Mof_Al	Al	0.76283	0.77007	0.90537	4.725
Mof_P 	P 	0.99163	0.76277	0.89397	1.438
Mof_O 	O 	0.88133	0.75657	0.87437	-1.519
Mof_O 	O 	0.08593	0.88287	0.88697	-1.608
Mof_O 	O 	0.98963	0.71667	0.98437	-1.517
Mof_O 	O 	0.00573	0.68917	0.82857	-1.484
Mof_Al	Al	0.8966	0.3261	0.2387	4.717
Mof_P 	P 	0.9039	0.5622	0.2273	1.422
Mof_O 	O 	0.9101	0.4581	0.2077	-1.522
Mof_O 	O 	0.7838	0.5364	0.2203	-1.614
Mof_O 	O 	0.95	0.6063	0.3177	-1.536
Mof_O 	O 	0.9775	0.6499	0.1619	-1.465
Mof_Al	Al	0.56327	0.65943	0.57203	4.725
Mof_P 	P 	0.57057	0.89553	0.56063	1.425
Mof_O 	O 	0.57677	0.79143	0.54103	-1.521
Mof_O 	O 	0.45047	0.86973	0.55363	-1.614
Mof_O 	O 	0.61667	0.93963	0.65103	-1.536
Mof_O 	O 	0.64417	0.98323	0.49523	-1.472
Mof_Al	Al	0.22993	0.99277	0.90537	4.61
Mof_P 	P 	0.23723	0.22887	0.89397	1.416
Mof_O 	O 	0.24343	0.12477	0.87437	-1.49
Mof_O 	O 	0.11713	0.20307	0.88697	-1.601
Mof_O 	O 	0.28333	0.27297	0.98437	-1.534
Mof_O 	O 	0.31083	0.31657	0.82857	-1.471
Mof_Al	Al	0.6739	0.5705	0.2387	4.719
Mof_P 	P 	0.4378	0.3417	0.2273	1.425
Mof_O 	O 	0.5419	0.452	0.2077	-1.521
Mof_O 	O 	0.4636	0.2474	0.2203	-1.615
Mof_O 	O 	0.3937	0.3437	0.3177	-1.536
Mof_O 	O 	0.3501	0.3276	0.1619	-1.474
Mof_Al	Al	0.34057	0.90383	0.57203	4.721
Mof_P 	P 	0.10447	0.67503	0.56063	1.425
Mof_O 	O 	0.20857	0.78533	0.54103	-1.52
Mof_O 	O 	0.13027	0.58073	0.55363	-1.614
Mof_O 	O 	0.06037	0.67703	0.65103	-1.535
Mof_O 	O 	0.01677	0.66093	0.49523	-1.471
Mof_Al	Al	0.00723	0.23717	0.90537	4.664
Mof_P 	P 	0.77113	0.00837	0.89397	1.439
Mof_O 	O 	0.87523	0.11867	0.87437	-1.496
Mof_O 	O 	0.79693	0.91407	0.88697	-1.622
Mof_O 	O 	0.72703	0.01037	0.98437	-1.496
Mof_O 	O 	0.68343	0.99427	0.82857	-1.485
Mof_Al	Al	0.5705	0.8966	0.7613	4.72
Mof_P 	P 	0.3417	0.9039	0.7727	1.419
Mof_O 	O 	0.452	0.9101	0.7923	-1.522
Mof_O 	O 	0.2474	0.7838	0.7797	-1.613
Mof_O 	O 	0.3437	0.95	0.6823	-1.535
Mof_O 	O 	0.3276	0.9775	0.8381	-1.456
Mof_Al	Al	0.23717	0.22993	0.09463	4.725
Mof_P 	P 	0.00837	0.23723	0.10603	1.438
Mof_O 	O 	0.11867	0.24343	0.12563	-1.519
Mof_O 	O 	0.91407	0.11713	0.11303	-1.608
Mof_O 	O 	0.01037	0.28333	0.01563	-1.517
Mof_O 	O 	0.99427	0.31083	0.17143	-1.484
Mof_Al	Al	0.90383	0.56327	0.42797	4.722
Mof_P 	P 	0.67503	0.57057	0.43937	1.425
Mof_O 	O 	0.78533	0.57677	0.45897	-1.52
Mof_O 	O 	0.58073	0.45047	0.44637	-1.615
Mof_O 	O 	0.67703	0.61667	0.34897	-1.535
Mof_O 	O 	0.66093	0.64417	0.50477	-1.474
Mof_Al	Al	0.1034	0.6739	0.7613	4.717
Mof_P 	P 	0.0961	0.4378	0.7727	1.422
Mof_O 	O 	0.0899	0.5419	0.7923	-1.522
Mof_O 	O 	0.2162	0.4636	0.7797	-1.614
Mof_O 	O 	0.05	0.3937	0.6823	-1.536
Mof_O 	O 	0.0225	0.3501	0.8381	-1.465
Mof_Al	Al	0.77007	0.00723	0.09463	4.61
Mof_P 	P 	0.76277	0.77113	0.10603	1.416
Mof_O 	O 	0.75657	0.87523	0.12563	-1.49
Mof_O 	O 	0.88287	0.79693	0.11303	-1.601
Mof_O 	O 	0.71667	0.72703	0.01563	-1.534
Mof_O 	O 	0.68917	0.68343	0.17143	-1.471
Mof_Al	Al	0.43673	0.34057	0.42797	4.725
Mof_P 	P 	0.42943	0.10447	0.43937	1.425
Mof_O 	O 	0.42323	0.20857	0.45897	-1.521
Mof_O 	O 	0.54953	0.13027	0.44637	-1.614
Mof_O 	O 	0.38333	0.06037	0.34897	-1.536
Mof_O 	O 	0.35583	0.01677	0.50477	-1.472
Mof_Al	Al	0.3261	0.4295	0.7613	4.719
Mof_P 	P 	0.5622	0.6583	0.7727	1.425
Mof_O 	O 	0.4581	0.548	0.7923	-1.521
Mof_O 	O 	0.5364	0.7526	0.7797	-1.615
Mof_O 	O 	0.6063	0.6563	0.6823	-1.536
Mof_O 	O 	0.6499	0.6724	0.8381	-1.474
Mof_Al	Al	0.99277	0.76283	0.09463	4.664
Mof_P 	P 	0.22887	0.99163	0.10603	1.439
Mof_O 	O 	0.12477	0.88133	0.12563	-1.496
Mof_O 	O 	0.20307	0.08593	0.11303	-1.622
Mof_O 	O 	0.27297	0.98963	0.01563	-1.496
Mof_O 	O 	0.31657	0.00573	0.17143	-1.485
Mof_Al	Al	0.65943	0.09617	0.42797	4.721
Mof_P 	P 	0.89553	0.32497	0.43937	1.425
Mof_O 	O 	0.79143	0.21467	0.45897	-1.52
Mof_O 	O 	0.86973	0.41927	0.44637	-1.614
Mof_O 	O 	0.93963	0.32297	0.34897	-1.535
Mof_O 	O 	0.98323	0.33907	0.50477	-1.471
_end
