# CIF file generated by openbabel 3.1.0, see https://openbabel.org
data_I
_chemical_name_common 'NUBPIL_clean'
_cell_length_a 14.6116
_cell_length_b 15.5623
_cell_length_c 15.5623
_cell_angle_alpha 112.887
_cell_angle_beta 95.8753
_cell_angle_gamma 95.8753
_space_group_name_H-M_alt 'P 1'
_space_group_name_Hall 'P 1'
loop_
    _symmetry_equiv_pos_as_xyz
    x,y,z
loop_
    _atom_site_label
    _atom_site_type_symbol
    _atom_site_fract_x
    _atom_site_fract_y
    _atom_site_fract_z
    _atom_site_occupancy
    Cu1      Cu       0.48711    0.92203    0.92203    1.000
    Cu2      Cu       0.00000    0.00000    0.50000    1.000
    Cu3      Cu       0.51289    0.07797    0.07797    1.000
    Cu4      Cu       0.00000    0.50000    0.00000    1.000
    H1       H        0.68910    0.00480    0.77440    1.000
    H2       H        0.31090    0.99520    0.22560    1.000
    H3       H        0.21140    0.51540    0.09660    1.000
    H4       H        0.73070    0.01270    0.24070    1.000
    H5       H        0.87600    0.80410    0.22410    1.000
    H6       H        0.12400    0.19590    0.77590    1.000
    H7       H        0.78860    0.48460    0.90340    1.000
    H8       H        0.31090    0.22560    0.99520    1.000
    H9       H        0.26930    0.98730    0.75930    1.000
    H10      H        0.21140    0.09660    0.51540    1.000
    H11      H        0.05580    0.30330    0.89130    1.000
    H12      H        0.26930    0.75930    0.98730    1.000
    H13      H        0.05580    0.89130    0.30330    1.000
    H14      H        0.30600    0.04240    0.39380    1.000
    H15      H        0.30600    0.39380    0.04240    1.000
    H16      H        0.87600    0.22410    0.80410    1.000
    H17      H        0.94420    0.69670    0.10870    1.000
    H18      H        0.94420    0.10870    0.69670    1.000
    H19      H        0.12400    0.77590    0.19590    1.000
    H20      H        0.78860    0.90340    0.48460    1.000
    H21      H        0.68910    0.77440    0.00480    1.000
    H22      H        0.69400    0.95760    0.60620    1.000
    H23      H        0.69400    0.60620    0.95760    1.000
    H24      H        0.73070    0.24070    0.01270    1.000
    C1       C        0.89340    0.65840    0.06460    1.000
    C2       C        0.83230    0.82940    0.19700    1.000
    C3       C        0.10660    0.34160    0.93540    1.000
    C4       C        0.78810    0.10580    0.77740    1.000
    C5       C        0.25530    0.79280    0.04720    1.000
    C6       C        0.74470    0.95280    0.20720    1.000
    C7       C        0.21190    0.22260    0.89420    1.000
    C8       C        0.83230    0.19700    0.82940    1.000
    C9       C        0.16770    0.80300    0.17060    1.000
    C10      C        0.86630    0.97870    0.34550    1.000
    C11      C        0.18720    0.75130    0.08190    1.000
    C12      C        0.72000    0.81090    0.06570    1.000
    C13      C        0.62360    0.93700    0.07460    1.000
    C14      C        0.86630    0.34550    0.97870    1.000
    C15      C        0.13370    0.65450    0.02130    1.000
    C16      C        0.80780    0.95310    0.54330    1.000
    C17      C        0.19220    0.45670    0.04690    1.000
    C18      C        0.10660    0.93540    0.34160    1.000
    C19      C        0.78810    0.77740    0.10580    1.000
    C20      C        0.81280    0.91810    0.24870    1.000
    C21      C        0.18720    0.08190    0.75130    1.000
    C22      C        0.16770    0.17060    0.80300    1.000
    C23      C        0.89340    0.06460    0.65840    1.000
    C24      C        0.37640    0.92540    0.06300    1.000
    C25      C        0.69750    0.89880    0.11600    1.000
    C26      C        0.19220    0.04690    0.45670    1.000
    C27      C        0.74470    0.20720    0.95280    1.000
    C28      C        0.72000    0.06570    0.81090    1.000
    C29      C        0.75600    0.98130    0.60950    1.000
    C30      C        0.69750    0.11600    0.89880    1.000
    C31      C        0.13370    0.02130    0.65450    1.000
    C32      C        0.80780    0.54330    0.95310    1.000
    C33      C        0.81280    0.24870    0.91810    1.000
    C34      C        0.30250    0.10120    0.88400    1.000
    C35      C        0.37640    0.06300    0.92540    1.000
    C36      C        0.30250    0.88400    0.10120    1.000
    C37      C        0.25530    0.04720    0.79280    1.000
    C38      C        0.28000    0.18910    0.93430    1.000
    C39      C        0.21190    0.89420    0.22260    1.000
    C40      C        0.62360    0.07460    0.93700    1.000
    C41      C        0.24400    0.39050    0.01870    1.000
    C42      C        0.75600    0.60950    0.98130    1.000
    C43      C        0.24400    0.01870    0.39050    1.000
    C44      C        0.28000    0.93430    0.18910    1.000
    N1       N        0.89510    0.57247    0.00733    1.000
    N2       N        0.81280    0.05442    0.68638    1.000
    N3       N        0.18720    0.31362    0.94558    1.000
    N4       N        0.18720    0.94558    0.31362    1.000
    N5       N        0.81280    0.68638    0.05442    1.000
    N6       N        0.10490    0.42753    0.99267    1.000
    N7       N        0.10490    0.99267    0.42753    1.000
    N8       N        0.89510    0.00733    0.57247    1.000
    O1       O        0.08460    0.61810    0.06430    1.000
    O2       O        0.85950    0.38330    0.06050    1.000
    O3       O        0.91540    0.93570    0.38190    1.000
    O4       O        0.39350    0.98238    0.87642    1.000
    O5       O        0.08460    0.06430    0.61810    1.000
    O6       O        0.39350    0.87642    0.98238    1.000
    O7       O        0.58460    0.88618    0.99202    1.000
    O8       O        0.41540    0.11382    0.00798    1.000
    O9       O        0.91540    0.38190    0.93570    1.000
    O10      O        0.41540    0.00798    0.11382    1.000
    O11      O        0.58460    0.99202    0.88618    1.000
    O12      O        0.60650    0.01762    0.12358    1.000
    O13      O        0.14050    0.93950    0.61670    1.000
    O14      O        0.60650    0.12358    0.01762    1.000
    O15      O        0.85950    0.06050    0.38330    1.000
    O16      O        0.14050    0.61670    0.93950    1.000
