data_functionalizedCrystal
_audit_creation_method	'EQeq! by Chris Wilmer'
_symmetry_space_group_name_H-M	'P1'
_symmetry_Int_Tables_number	1
_symmetry_cell_setting	triclinic
loop_
_symmetry_equiv_pos_as_xyz
  x,y,z
_cell_length_a	9.7918
_cell_length_b	9.9454
_cell_length_c	12.7361
_cell_angle_alpha	84.216
_cell_angle_beta	76.642
_cell_angle_gamma	64.07
loop_
_atom_site_label
_atom_site_type_symbol
_atom_site_fract_x
_atom_site_fract_y
_atom_site_fract_z
_atom_site_charge
Mof_U 	U 	0.55948	0.99167	0.27489	0.043
Mof_Cl	Cl	0.8163	0.925	0.35229	-0.173
Mof_O 	O 	0.643	0.1858	0.188	-0.163
Mof_O 	O 	0.4603	0.1672	0.1283	-0.181
Mof_O 	O 	0.4772	0.1786	0.4053	-0.148
Mof_O 	O 	0.7335	0.7221	0.2363	-0.175
Mof_O 	O 	0.7496	0.8801	0.1068	-0.171
Mof_O 	O 	0.5029	0.136	0.576	-0.144
Mof_C 	C 	0.4955	0.3635	0.4968	-0.01
Mof_C 	C 	0.4922	0.2153	0.4923	0.282
Mof_C 	C 	0.5187	0.44	0.4019	-0.018
Mof_H 	H 	0.5317	0.3989	0.3358	0.079
Mof_C 	C 	0.4774	0.424	0.5951	-0.021
Mof_H 	H 	0.4626	0.3728	0.6588	0.085
Mof_C 	C 	0.7885	0.7519	0.1403	0.283
Mof_C 	C 	0.9012	0.6221	0.0676	-0.029
Mof_C 	C 	0.9428	0.6443	0.9593	-0.027
Mof_H 	H 	0.9054	0.7405	0.931	0.084
Mof_C 	C 	0.9591	0.4771	0.1087	-0.025
Mof_H 	H 	0.9319	0.4612	0.1822	0.077
Mof_C 	C 	0.5219	0.371	0.0617	-0.025
Mof_C 	C 	0.5404	0.2327	0.1299	0.28
Mof_C 	C 	0.4161	0.4202	0.9949	-0.02
Mof_H 	H 	0.3598	0.3666	0.9911	0.07
Mof_C 	C 	0.6068	0.4503	0.0669	-0.022
Mof_H 	H 	0.6786	0.4175	0.1112	0.067
Mof_U 	U 	0.44052	0.00833	0.72511	0.044
Mof_Cl	Cl	0.1837	0.075	0.64771	-0.172
Mof_O 	O 	0.357	0.8142	0.812	-0.162
Mof_O 	O 	0.5397	0.8328	0.8717	-0.18
Mof_O 	O 	0.5228	0.8214	0.5947	-0.148
Mof_O 	O 	0.2665	0.2779	0.7637	-0.175
Mof_O 	O 	0.2504	0.1199	0.8932	-0.171
Mof_O 	O 	0.4971	0.864	0.424	-0.144
Mof_C 	C 	0.5045	0.6365	0.5032	-0.01
Mof_C 	C 	0.5078	0.7847	0.5077	0.282
Mof_C 	C 	0.4813	0.56	0.5981	-0.018
Mof_H 	H 	0.4683	0.6011	0.6642	0.079
Mof_C 	C 	0.5226	0.576	0.4049	-0.021
Mof_H 	H 	0.5374	0.6272	0.3412	0.085
Mof_C 	C 	0.2115	0.2481	0.8597	0.283
Mof_C 	C 	0.0988	0.3779	0.9324	-0.029
Mof_C 	C 	0.0572	0.3557	0.0407	-0.027
Mof_H 	H 	0.0946	0.2595	0.069	0.084
Mof_C 	C 	0.0409	0.5229	0.8913	-0.025
Mof_H 	H 	0.0681	0.5388	0.8178	0.077
Mof_C 	C 	0.4781	0.629	0.9383	-0.025
Mof_C 	C 	0.4596	0.7673	0.8701	0.28
Mof_C 	C 	0.5839	0.5798	0.0051	-0.02
Mof_H 	H 	0.6402	0.6334	0.0089	0.07
Mof_C 	C 	0.3932	0.5497	0.9331	-0.022
Mof_H 	H 	0.3214	0.5825	0.8888	0.067
_end
