data_functionalizedCrystal
_audit_creation_method	'EQeq! by Chris Wilmer'
_symmetry_space_group_name_H-M	'P1'
_symmetry_Int_Tables_number	1
_symmetry_cell_setting	triclinic
loop_
_symmetry_equiv_pos_as_xyz
  x,y,z
_cell_length_a	13.859
_cell_length_b	13.859
_cell_length_c	18.9449
_cell_angle_alpha	90
_cell_angle_beta	90
_cell_angle_gamma	120
loop_
_atom_site_label
_atom_site_type_symbol
_atom_site_fract_x
_atom_site_fract_y
_atom_site_fract_z
_atom_site_charge
Mof_In	In	0.29368	0.43901	0.45394	2.793
Mof_O 	O 	0.0653	0.1458	0.31469	-0.623
Mof_O 	O 	0.1074	0.1368	0.4378	-0.769
Mof_O 	O 	0.1895	0.3164	0.37876	-0.719
Mof_O 	O 	0.2518	0.1819	0.34775	-0.461
Mof_H 	H 	0.3162	0.2547	0.3435	0.18
Mof_O 	O 	0.1458	0.4367	0.49086	-0.801
Mof_O 	O 	0.0078	0.4335	0.5764	-0.884
Mof_O 	O 	0.2007	0.4971	0.61745	-0.449
Mof_H 	H 	0.278	0.5364	0.6044	0.179
Mof_O 	O 	0.1682	0.6157	0.53405	-0.755
Mof_O 	O 	0.3353	0.5633	0.37752	-0.797
Mof_H 	H 	0.3917	0.6677	0.2589	0.693
Mof_P 	P 	0.14986	0.19318	0.3716	0.75
Mof_P 	P 	0.12734	0.4958	0.55179	0.738
Mof_In	In	0.56099	0.85467	0.45394	3.123
Mof_O 	O 	0.8542	0.9195	0.31469	-0.393
Mof_O 	O 	0.8632	0.9706	0.4378	-0.539
Mof_O 	O 	0.6836	0.8731	0.37876	-0.707
Mof_O 	O 	0.8181	0.0699	0.34775	-0.487
Mof_H 	H 	0.7453	0.0615	0.3435	0.144
Mof_O 	O 	0.5633	0.7091	0.49086	-0.791
Mof_O 	O 	0.5665	0.5743	0.5764	-0.725
Mof_O 	O 	0.5029	0.7036	0.61745	-0.428
Mof_H 	H 	0.4636	0.7416	0.6044	0.179
Mof_O 	O 	0.3843	0.5525	0.53405	-0.762
Mof_O 	O 	0.4367	0.772	0.37752	-0.8
Mof_H 	H 	0.3323	0.724	0.2589	0.7
Mof_P 	P 	0.80682	0.95668	0.3716	0.868
Mof_P 	P 	0.5042	0.63154	0.55179	0.748
Mof_In	In	0.14533	0.70632	0.45394	2.543
Mof_O 	O 	0.0805	0.9347	0.31469	-0.421
Mof_O 	O 	0.0294	0.8926	0.4378	-0.644
Mof_O 	O 	0.1269	0.8105	0.37876	-0.646
Mof_O 	O 	0.9301	0.7482	0.34775	-0.298
Mof_H 	H 	0.9385	0.6838	0.3435	0.197
Mof_O 	O 	0.2909	0.8542	0.49086	-0.676
Mof_O 	O 	0.4257	0.9922	0.5764	-0.565
Mof_O 	O 	0.2964	0.7993	0.61745	-0.422
Mof_H 	H 	0.2584	0.722	0.6044	0.168
Mof_O 	O 	0.4475	0.8318	0.53405	-0.771
Mof_O 	O 	0.228	0.6647	0.37752	-0.779
Mof_H 	H 	0.276	0.6083	0.2589	0.675
Mof_P 	P 	0.04332	0.85014	0.3716	0.602
Mof_P 	P 	0.36846	0.87266	0.55179	0.737
Mof_In	In	0.43901	0.29368	0.04606	2.7
Mof_O 	O 	0.1458	0.0653	0.18531	-0.62
Mof_O 	O 	0.1368	0.1074	0.0622	-0.755
Mof_O 	O 	0.3164	0.1895	0.12124	-0.708
Mof_O 	O 	0.1819	0.2518	0.15225	-0.463
Mof_H 	H 	0.2547	0.3162	0.1565	0.179
Mof_O 	O 	0.4367	0.1458	0.00914	-0.832
Mof_O 	O 	0.4335	0.0078	0.9236	-0.873
Mof_O 	O 	0.4971	0.2007	0.88255	-0.448
Mof_H 	H 	0.5364	0.278	0.8956	0.183
Mof_O 	O 	0.6157	0.1682	0.96595	-0.715
Mof_O 	O 	0.5633	0.3353	0.12248	-0.787
Mof_H 	H 	0.6677	0.3917	0.2411	0.692
Mof_P 	P 	0.19318	0.14986	0.1284	0.741
Mof_P 	P 	0.4958	0.12734	0.94821	0.775
Mof_In	In	0.85467	0.56099	0.04606	3.031
Mof_O 	O 	0.9195	0.8542	0.18531	-0.391
Mof_O 	O 	0.9706	0.8632	0.0622	-0.524
Mof_O 	O 	0.8731	0.6836	0.12124	-0.696
Mof_O 	O 	0.0699	0.8181	0.15225	-0.487
Mof_H 	H 	0.0615	0.7453	0.1565	0.144
Mof_O 	O 	0.7091	0.5633	0.00914	-0.82
Mof_O 	O 	0.5743	0.5665	0.9236	-0.729
Mof_O 	O 	0.7036	0.5029	0.88255	-0.428
Mof_H 	H 	0.7416	0.4636	0.8956	0.184
Mof_O 	O 	0.5525	0.3843	0.96595	-0.727
Mof_O 	O 	0.772	0.4367	0.12248	-0.79
Mof_H 	H 	0.724	0.3323	0.2411	0.699
Mof_P 	P 	0.95668	0.80682	0.1284	0.858
Mof_P 	P 	0.63154	0.5042	0.94821	0.782
Mof_In	In	0.70632	0.14533	0.04606	2.443
Mof_O 	O 	0.9347	0.0805	0.18531	-0.419
Mof_O 	O 	0.8926	0.0294	0.0622	-0.631
Mof_O 	O 	0.8105	0.1269	0.12124	-0.635
Mof_O 	O 	0.7482	0.9301	0.15225	-0.299
Mof_H 	H 	0.6838	0.9385	0.1565	0.196
Mof_O 	O 	0.8542	0.2909	0.00914	-0.707
Mof_O 	O 	0.9922	0.4257	0.9236	-0.561
Mof_O 	O 	0.7993	0.2964	0.88255	-0.421
Mof_H 	H 	0.722	0.2584	0.8956	0.173
Mof_O 	O 	0.8318	0.4475	0.96595	-0.736
Mof_O 	O 	0.6647	0.228	0.12248	-0.768
Mof_H 	H 	0.6083	0.276	0.2411	0.674
Mof_P 	P 	0.85014	0.04332	0.1284	0.593
Mof_P 	P 	0.87266	0.36846	0.94821	0.775
Mof_In	In	0.70632	0.56099	0.54606	2.852
Mof_O 	O 	0.9347	0.8542	0.68531	-0.348
Mof_O 	O 	0.8926	0.8632	0.5622	-0.538
Mof_O 	O 	0.8105	0.6836	0.62124	-0.664
Mof_O 	O 	0.7482	0.8181	0.65225	-0.377
Mof_H 	H 	0.6838	0.7453	0.6565	0.168
Mof_O 	O 	0.8542	0.5633	0.50914	-0.713
Mof_O 	O 	0.9922	0.5665	0.4236	-0.566
Mof_O 	O 	0.7993	0.5029	0.38255	-0.416
Mof_H 	H 	0.722	0.4636	0.3956	0.172
Mof_O 	O 	0.8318	0.3843	0.46595	-0.772
Mof_O 	O 	0.6647	0.4367	0.62248	-0.788
Mof_H 	H 	0.6083	0.3323	0.7411	0.686
Mof_P 	P 	0.85014	0.80682	0.6284	0.733
Mof_P 	P 	0.87266	0.5042	0.44821	0.745
Mof_In	In	0.43901	0.14533	0.54606	2.516
Mof_O 	O 	0.1458	0.0805	0.68531	-0.573
Mof_O 	O 	0.1368	0.0294	0.5622	-0.767
Mof_O 	O 	0.3164	0.1269	0.62124	-0.674
Mof_O 	O 	0.1819	0.9301	0.65225	-0.334
Mof_H 	H 	0.2547	0.9385	0.6565	0.202
Mof_O 	O 	0.4367	0.2909	0.50914	-0.72
Mof_O 	O 	0.4335	0.4257	0.4236	-0.718
Mof_O 	O 	0.4971	0.2964	0.38255	-0.437
Mof_H 	H 	0.5364	0.2584	0.3956	0.171
Mof_O 	O 	0.6157	0.4475	0.46595	-0.763
Mof_O 	O 	0.5633	0.228	0.62248	-0.784
Mof_H 	H 	0.6677	0.276	0.7411	0.681
Mof_P 	P 	0.19318	0.04332	0.6284	0.608
Mof_P 	P 	0.4958	0.36846	0.44821	0.734
Mof_In	In	0.85467	0.29368	0.54606	3.119
Mof_O 	O 	0.9195	0.0653	0.68531	-0.522
Mof_O 	O 	0.9706	0.1074	0.5622	-0.64
Mof_O 	O 	0.8731	0.1895	0.62124	-0.734
Mof_O 	O 	0.0699	0.2518	0.65225	-0.548
Mof_H 	H 	0.0615	0.3162	0.6565	0.149
Mof_O 	O 	0.7091	0.1458	0.50914	-0.836
Mof_O 	O 	0.5743	0.0078	0.4236	-0.878
Mof_O 	O 	0.7036	0.2007	0.38255	-0.442
Mof_H 	H 	0.7416	0.278	0.3956	0.183
Mof_O 	O 	0.5525	0.1682	0.46595	-0.754
Mof_O 	O 	0.772	0.3353	0.62248	-0.807
Mof_H 	H 	0.724	0.3917	0.7411	0.705
Mof_P 	P 	0.95668	0.14986	0.6284	0.893
Mof_P 	P 	0.63154	0.12734	0.44821	0.745
Mof_In	In	0.56099	0.70632	0.95394	2.937
Mof_O 	O 	0.8542	0.9347	0.81469	-0.348
Mof_O 	O 	0.8632	0.8926	0.9378	-0.493
Mof_O 	O 	0.6836	0.8105	0.87876	-0.671
Mof_O 	O 	0.8181	0.7482	0.84775	-0.368
Mof_H 	H 	0.7453	0.6838	0.8435	0.168
Mof_O 	O 	0.5633	0.8542	0.99086	-0.688
Mof_O 	O 	0.5665	0.9922	0.0764	-0.559
Mof_O 	O 	0.5029	0.7993	0.11745	-0.415
Mof_H 	H 	0.4636	0.722	0.1044	0.168
Mof_O 	O 	0.3843	0.8318	0.03405	-0.796
Mof_O 	O 	0.4367	0.6647	0.87752	-0.797
Mof_H 	H 	0.3323	0.6083	0.7589	0.686
Mof_P 	P 	0.80682	0.85014	0.8716	0.727
Mof_P 	P 	0.5042	0.87266	0.05179	0.714
Mof_In	In	0.14533	0.43901	0.95394	2.59
Mof_O 	O 	0.0805	0.1458	0.81469	-0.568
Mof_O 	O 	0.0294	0.1368	0.9378	-0.715
Mof_O 	O 	0.1269	0.3164	0.87876	-0.679
Mof_O 	O 	0.9301	0.1819	0.84775	-0.315
Mof_H 	H 	0.9385	0.2547	0.8435	0.203
Mof_O 	O 	0.2909	0.4367	0.99086	-0.686
Mof_O 	O 	0.4257	0.4335	0.0764	-0.712
Mof_O 	O 	0.2964	0.4971	0.11745	-0.436
Mof_H 	H 	0.2584	0.5364	0.1044	0.167
Mof_O 	O 	0.4475	0.6157	0.03405	-0.792
Mof_O 	O 	0.228	0.5633	0.87752	-0.793
Mof_H 	H 	0.276	0.6677	0.7589	0.679
Mof_P 	P 	0.04332	0.19318	0.8716	0.592
Mof_P 	P 	0.36846	0.4958	0.05179	0.7
Mof_In	In	0.29368	0.85467	0.95394	3.169
Mof_O 	O 	0.0653	0.9195	0.81469	-0.527
Mof_O 	O 	0.1074	0.9706	0.9378	-0.602
Mof_O 	O 	0.1895	0.8731	0.87876	-0.739
Mof_O 	O 	0.2518	0.0699	0.84775	-0.531
Mof_H 	H 	0.3162	0.0615	0.8435	0.151
Mof_O 	O 	0.1458	0.7091	0.99086	-0.806
Mof_O 	O 	0.0078	0.5743	0.0764	-0.872
Mof_O 	O 	0.2007	0.7036	0.11745	-0.44
Mof_H 	H 	0.278	0.7416	0.1044	0.179
Mof_O 	O 	0.1682	0.5525	0.03405	-0.783
Mof_O 	O 	0.3353	0.772	0.87752	-0.815
Mof_H 	H 	0.3917	0.724	0.7589	0.703
Mof_P 	P 	0.14986	0.95668	0.8716	0.875
Mof_P 	P 	0.12734	0.63154	0.05179	0.715
Mof_In	In	-4.00529e-33	0	0.25	1.723
Mof_In	In	-1.60211e-32	1.60211e-32	0.75	1.746
Mof_In	In	-8.01057e-33	0	0.5	2.11
Mof_In	In	-0	0	-0	1.935
Mof_O 	O 	0.33333	0.66667	0.2739	-1.907
Mof_P 	P 	0.33333	0.66667	0.35707	1.058
Mof_O 	O 	0.66667	0.33333	0.2261	-1.902
Mof_P 	P 	0.66667	0.33333	0.14293	1.046
Mof_O 	O 	0.66667	0.33333	0.7261	-1.909
Mof_P 	P 	0.66667	0.33333	0.64293	1.059
Mof_O 	O 	0.33333	0.66667	0.7739	-1.909
Mof_P 	P 	0.33333	0.66667	0.85707	1.067
_end
