data_functionalizedCrystal
_audit_creation_method	'EQeq! by Chris Wilmer'
_symmetry_space_group_name_H-M	'P1'
_symmetry_Int_Tables_number	1
_symmetry_cell_setting	triclinic
loop_
_symmetry_equiv_pos_as_xyz
  x,y,z
_cell_length_a	10.4488
_cell_length_b	10.5041
_cell_length_c	6.3065
_cell_angle_alpha	90
_cell_angle_beta	115.272
_cell_angle_gamma	90
loop_
_atom_site_label
_atom_site_type_symbol
_atom_site_fract_x
_atom_site_fract_y
_atom_site_fract_z
_atom_site_charge
Mof_C 	C 	0.3159	0.2099	0.5463	-0.064
Mof_H 	H 	0.3972	0.2645	0.5808	0.016
Mof_H 	H 	0.3267	0.1702	0.6919	-0.003
Mof_N 	N 	0.3138	0.1108	0.3816	-0.271
Mof_H 	H 	0.3002	0.1478	0.2449	0.06
Mof_H 	H 	0.2397	0.0589	0.3536	0.052
Mof_C 	C 	0.8159	0.7099	0.5463	-0.067
Mof_H 	H 	0.8972	0.7645	0.5808	0.043
Mof_H 	H 	0.8267	0.6702	0.6919	0.022
Mof_N 	N 	0.8138	0.6108	0.3816	-0.265
Mof_H 	H 	0.8002	0.6478	0.2449	0.084
Mof_H 	H 	0.7397	0.5589	0.3536	0.082
Mof_C 	C 	0.6841	0.2099	0.9537	0.032
Mof_H 	H 	0.6028	0.2645	0.9192	-0.008
Mof_H 	H 	0.6733	0.1702	0.8081	-0.028
Mof_N 	N 	0.6862	0.1108	0.1184	-0.295
Mof_H 	H 	0.6998	0.1478	0.2551	0.076
Mof_H 	H 	0.7603	0.0589	0.1464	0.071
Mof_C 	C 	0.1841	0.7099	0.9537	0.036
Mof_H 	H 	0.1028	0.7645	0.9192	-0.02
Mof_H 	H 	0.1733	0.6702	0.8081	-0.03
Mof_N 	N 	0.1862	0.6108	0.1184	-0.298
Mof_H 	H 	0.1998	0.6478	0.2551	0.077
Mof_H 	H 	0.2603	0.5589	0.1464	0.081
Mof_C 	C 	0.6841	0.7901	0.4537	-0.024
Mof_H 	H 	0.6028	0.7355	0.4192	0.006
Mof_H 	H 	0.6733	0.8298	0.3081	0.005
Mof_N 	N 	0.6862	0.8892	0.6184	-0.28
Mof_H 	H 	0.6998	0.8522	0.7551	0.1
Mof_H 	H 	0.7603	0.9411	0.6464	0.116
Mof_C 	C 	0.1841	0.2901	0.4537	-0.02
Mof_H 	H 	0.1028	0.2355	0.4192	-0.022
Mof_H 	H 	0.1733	0.3298	0.3081	-0.021
Mof_N 	N 	0.1862	0.3892	0.6184	-0.288
Mof_H 	H 	0.1998	0.3522	0.7551	0.077
Mof_H 	H 	0.2603	0.4411	0.6464	0.086
Mof_C 	C 	0.3159	0.7901	0.0463	-0.119
Mof_H 	H 	0.3972	0.7355	0.0808	0.031
Mof_H 	H 	0.3267	0.8298	0.1919	0.027
Mof_N 	N 	0.3138	0.8892	0.8816	-0.247
Mof_H 	H 	0.3002	0.8522	0.7449	0.084
Mof_H 	H 	0.2397	0.9411	0.8536	0.097
Mof_C 	C 	0.8159	0.2901	0.0463	-0.122
Mof_H 	H 	0.8972	0.2355	0.0808	0.042
Mof_H 	H 	0.8267	0.3298	0.1919	0.028
Mof_N 	N 	0.8138	0.3892	0.8816	-0.245
Mof_H 	H 	0.8002	0.3522	0.7449	0.082
Mof_H 	H 	0.7397	0.4411	0.8536	0.086
Mof_Ag	Ag	0.5	-5.04125e-33	0.5	0.307
Mof_Ag	Ag	1.61455e-33	0.5	0.5	0.309
Mof_Ag	Ag	0.5	0	-0	0.26
Mof_Ag	Ag	-0	0.5	-0	0.262
_end
