data_functionalizedCrystal
_audit_creation_method	'EQeq! by Chris Wilmer'
_symmetry_space_group_name_H-M	'P1'
_symmetry_Int_Tables_number	1
_symmetry_cell_setting	triclinic
loop_
_symmetry_equiv_pos_as_xyz
  x,y,z
_cell_length_a	8.7442
_cell_length_b	16.7659
_cell_length_c	16.7659
_cell_angle_alpha	62.9566
_cell_angle_beta	79.9884
_cell_angle_gamma	100.012
loop_
_atom_site_label
_atom_site_type_symbol
_atom_site_fract_x
_atom_site_fract_y
_atom_site_fract_z
_atom_site_charge
Mof_Mn	Mn	0.71491	0.42352	0.42792	0.881
Mof_Mn	Mn	0.14283	0.42792	0.14856	0.886
Mof_Mn	Mn	0.29139	0.14856	0.42352	0.881
Mof_Mn	Mn	0.64283	0.85144	0.57208	0.88
Mof_Mn	Mn	0.79139	0.57648	0.85144	0.88
Mof_Mn	Mn	0.21491	0.57208	0.57648	0.881
Mof_H 	H 	0.5898	0.3743	0.7675	0.136
Mof_H 	H 	0.3337	0.2725	0.8109	0.041
Mof_H 	H 	0.146	0.1267	0.8784	0.046
Mof_H 	H 	0.1442	0.0408	0.8084	0.039
Mof_H 	H 	0.3656	0.0744	0.6881	0.07
Mof_H 	H 	0.555	0.2139	0.6176	0.029
Mof_H 	H 	0.3573	0.7675	0.8582	0.136
Mof_H 	H 	0.1446	0.8109	0.9166	0.04
Mof_H 	H 	0.0244	0.8784	0.9949	0.049
Mof_H 	H 	0.9526	0.8084	0.1508	0.032
Mof_H 	H 	0.0537	0.6881	0.2375	0.074
Mof_H 	H 	0.1726	0.6176	0.1685	0.027
Mof_H 	H 	0.2155	0.8582	0.3743	0.136
Mof_H 	H 	0.0612	0.9166	0.2725	0.045
Mof_H 	H 	0.0193	0.9949	0.1267	0.042
Mof_H 	H 	0.1034	0.1508	0.0408	0.043
Mof_H 	H 	0.2912	0.2375	0.0744	0.067
Mof_H 	H 	0.3411	0.1685	0.2139	0.032
Mof_H 	H 	0.8573	0.1418	0.2325	0.135
Mof_H 	H 	0.6446	0.0834	0.1891	0.043
Mof_H 	H 	0.5244	0.0051	0.1216	0.043
Mof_H 	H 	0.4526	0.8492	0.1916	0.041
Mof_H 	H 	0.5537	0.7625	0.3119	0.068
Mof_H 	H 	0.6726	0.8315	0.3824	0.031
Mof_H 	H 	0.7155	0.6257	0.1418	0.136
Mof_H 	H 	0.5612	0.7275	0.0834	0.04
Mof_H 	H 	0.5193	0.8733	0.0051	0.047
Mof_H 	H 	0.6034	0.9592	0.8492	0.038
Mof_H 	H 	0.7912	0.9256	0.7625	0.07
Mof_H 	H 	0.8411	0.7861	0.8315	0.028
Mof_H 	H 	0.0898	0.2325	0.6257	0.137
Mof_H 	H 	0.8337	0.1891	0.7275	0.042
Mof_H 	H 	0.646	0.1216	0.8733	0.043
Mof_H 	H 	0.6442	0.1916	0.9592	0.041
Mof_H 	H 	0.8656	0.3119	0.9256	0.065
Mof_H 	H 	0.055	0.3824	0.7861	0.036
Mof_C 	C 	0.8202	0.4592	0.5764	-0.052
Mof_C 	C 	0.7844	0.4627	0.6582	-0.016
Mof_C 	C 	0.6034	0.3451	0.6657	0.128
Mof_C 	C 	0.9444	0.5199	0.4877	0.343
Mof_C 	C 	0.8449	0.5123	0.7033	0.332
Mof_C 	C 	0.467	0.2563	0.7056	-0.035
Mof_C 	C 	0.3396	0.2331	0.7862	-0.033
Mof_C 	C 	0.2276	0.148	0.8235	-0.047
Mof_C 	C 	0.2305	0.0944	0.7846	-0.02
Mof_C 	C 	0.3589	0.1161	0.71	-0.06
Mof_C 	C 	0.4716	0.1969	0.6702	-0.014
Mof_C 	C 	0.3966	0.5764	0.9644	-0.052
Mof_C 	C 	0.4426	0.6582	0.8791	-0.016
Mof_C 	C 	0.2691	0.6657	0.9892	0.129
Mof_C 	C 	0.4321	0.4877	0.9924	0.346
Mof_C 	C 	0.5482	0.7033	0.7844	0.335
Mof_C 	C 	0.1726	0.7056	0.0381	-0.039
Mof_C 	C 	0.1258	0.7862	0.9807	-0.028
Mof_C 	C 	0.0511	0.8235	0.0285	-0.055
Mof_C 	C 	0.0151	0.7846	0.121	-0.006
Mof_C 	C 	0.0689	0.71	0.1739	-0.07
Mof_C 	C 	0.1418	0.6702	0.1329	-0.007
Mof_C 	C 	0.361	0.9644	0.4592	-0.052
Mof_C 	C 	0.3217	0.8791	0.4627	-0.016
Mof_C 	C 	0.2583	0.9892	0.3451	0.127
Mof_C 	C 	0.4245	0.9924	0.5199	0.347
Mof_C 	C 	0.3326	0.7844	0.5123	0.335
Mof_C 	C 	0.2107	0.0381	0.2563	-0.029
Mof_C 	C 	0.1065	0.9807	0.2331	-0.041
Mof_C 	C 	0.0796	0.0285	0.148	-0.035
Mof_C 	C 	0.1361	0.121	0.0944	-0.03
Mof_C 	C 	0.2428	0.1739	0.1161	-0.051
Mof_C 	C 	0.2747	0.1329	0.1969	-0.022
Mof_C 	C 	0.8966	0.0356	0.4236	-0.05
Mof_C 	C 	0.9426	0.1209	0.3418	-0.022
Mof_C 	C 	0.7691	0.0108	0.3343	0.125
Mof_C 	C 	0.9321	0.0076	0.5123	0.339
Mof_C 	C 	0.0482	0.2156	0.2967	0.34
Mof_C 	C 	0.6726	0.9619	0.2944	-0.031
Mof_C 	C 	0.6258	0.0193	0.2138	-0.039
Mof_C 	C 	0.5511	0.9715	0.1765	-0.041
Mof_C 	C 	0.5151	0.879	0.2154	-0.027
Mof_C 	C 	0.5689	0.8261	0.29	-0.054
Mof_C 	C 	0.6418	0.8671	0.3298	-0.02
Mof_C 	C 	0.861	0.5408	0.0356	-0.053
Mof_C 	C 	0.8217	0.5373	0.1209	-0.017
Mof_C 	C 	0.7583	0.6549	0.0108	0.129
Mof_C 	C 	0.9245	0.4801	0.0076	0.347
Mof_C 	C 	0.8326	0.4877	0.2156	0.335
Mof_C 	C 	0.7107	0.7437	0.9619	-0.037
Mof_C 	C 	0.6065	0.7669	0.0193	-0.031
Mof_C 	C 	0.5796	0.852	0.9715	-0.05
Mof_C 	C 	0.6361	0.9056	0.879	-0.018
Mof_C 	C 	0.7428	0.8839	0.8261	-0.062
Mof_C 	C 	0.7747	0.8031	0.8671	-0.012
Mof_C 	C 	0.3202	0.4236	0.5408	-0.052
Mof_C 	C 	0.2844	0.3418	0.5373	-0.016
Mof_C 	C 	0.1034	0.3343	0.6549	0.13
Mof_C 	C 	0.4444	0.5123	0.4801	0.347
Mof_C 	C 	0.3449	0.2967	0.4877	0.335
Mof_C 	C 	0.967	0.2944	0.7437	-0.033
Mof_C 	C 	0.8396	0.2138	0.7669	-0.038
Mof_C 	C 	0.7276	0.1765	0.852	-0.041
Mof_C 	C 	0.7305	0.2154	0.9056	-0.029
Mof_C 	C 	0.8589	0.29	0.8839	-0.05
Mof_C 	C 	0.9716	0.3298	0.8031	-0.027
Mof_N 	N 	0.7081	0.3883	0.5796	-0.175
Mof_N 	N 	0.6437	0.3894	0.7121	-0.198
Mof_N 	N 	0.2877	0.5796	0.0321	-0.175
Mof_N 	N 	0.3558	0.7121	0.8985	-0.198
Mof_N 	N 	0.3198	0.0321	0.3883	-0.175
Mof_N 	N 	0.2543	0.8985	0.3894	-0.197
Mof_N 	N 	0.7877	0.9679	0.4204	-0.174
Mof_N 	N 	0.8558	0.1015	0.2879	-0.196
Mof_N 	N 	0.8198	0.6117	0.9679	-0.175
Mof_N 	N 	0.7543	0.6106	0.1015	-0.198
Mof_N 	N 	0.2081	0.4204	0.6117	-0.175
Mof_N 	N 	0.1437	0.2879	0.6106	-0.198
Mof_O 	O 	0.92976	0.51902	0.41794	-0.358
Mof_O 	O 	0.07142	0.57594	0.48278	-0.326
Mof_O 	O 	0.00063	0.5606	0.66751	-0.361
Mof_O 	O 	0.75961	0.50765	0.77092	-0.35
Mof_O 	O 	0.3477	0.41794	0.06304	-0.357
Mof_O 	O 	0.5542	0.48278	0.94128	-0.328
Mof_O 	O 	0.66814	0.66751	0.77189	-0.363
Mof_O 	O 	0.53053	0.77092	0.72143	-0.351
Mof_O 	O 	0.41074	0.06304	0.51902	-0.358
Mof_O 	O 	0.49548	0.94128	0.57594	-0.328
Mof_O 	O 	0.44003	0.77189	0.5606	-0.363
Mof_O 	O 	0.25196	0.72143	0.50765	-0.351
Mof_O 	O 	0.8477	0.93696	0.58206	-0.356
Mof_O 	O 	0.0542	0.05872	0.51722	-0.324
Mof_O 	O 	0.16814	0.22811	0.33249	-0.364
Mof_O 	O 	0.03053	0.27857	0.22908	-0.351
Mof_O 	O 	0.91074	0.48098	0.93696	-0.359
Mof_O 	O 	0.99548	0.42406	0.05872	-0.331
Mof_O 	O 	0.94003	0.4394	0.22811	-0.366
Mof_O 	O 	0.75196	0.49235	0.27857	-0.351
Mof_O 	O 	0.42976	0.58206	0.48098	-0.358
Mof_O 	O 	0.57142	0.51722	0.42406	-0.328
Mof_O 	O 	0.50063	0.33249	0.4394	-0.363
Mof_O 	O 	0.25961	0.22908	0.49235	-0.351
_end
