# CIF file generated by openbabel 3.1.0, see https://openbabel.org
data_I
_chemical_name_common 'image0'
_cell_length_a 26.888
_cell_length_b 26.888
_cell_length_c 7.2385
_cell_angle_alpha 90
_cell_angle_beta 90
_cell_angle_gamma 120
_space_group_name_H-M_alt 'P 1'
_space_group_name_Hall 'P 1'
loop_
    _symmetry_equiv_pos_as_xyz
    x,y,z
loop_
    _atom_site_label
    _atom_site_type_symbol
    _atom_site_fract_x
    _atom_site_fract_y
    _atom_site_fract_z
    _atom_site_occupancy
    Cd1      Cd       0.72428    0.70456    0.80232    1.000
    C1       C        0.75540    0.68130    0.41380    1.000
    C2       C        0.79310    0.67180    0.27920    1.000
    C3       C        0.84530    0.67960    0.34850    1.000
    H1       H        0.85297    0.68827    0.47328    1.000
    C4       C        0.88600    0.67520    0.24450    1.000
    O1       O        0.70842    0.67570    0.35920    1.000
    O2       O        0.77440    0.69760    0.57190    1.000
    O3       O        0.93478    0.68550    0.32860    1.000
    Cd2      Cd       0.39095    0.03789    0.13565    1.000
    C5       C        0.42207    0.01463    0.74713    1.000
    C6       C        0.45977    0.00513    0.61253    1.000
    C7       C        0.51197    0.01293    0.68183    1.000
    H2       H        0.51964    0.02160    0.80661    1.000
    C8       C        0.55267    0.00853    0.57783    1.000
    O4       O        0.37509    0.00903    0.69253    1.000
    O5       O        0.44107    0.03093    0.90523    1.000
    O6       O        0.60145    0.01883    0.66193    1.000
    Cd3      Cd       0.05761    0.37123    0.46899    1.000
    C9       C        0.08873    0.34797    0.08047    1.000
    C10      C        0.12643    0.33847    0.94587    1.000
    C11      C        0.17863    0.34627    0.01517    1.000
    H3       H        0.18630    0.35494    0.13995    1.000
    C12      C        0.21933    0.34187    0.91117    1.000
    O7       O        0.04175    0.34237    0.02587    1.000
    O8       O        0.10773    0.36427    0.23857    1.000
    O9       O        0.26811    0.35217    0.99527    1.000
    Cd4      Cd       0.29544    0.01972    0.80232    1.000
    C13      C        0.31870    0.07410    0.41380    1.000
    C14      C        0.32820    0.12130    0.27920    1.000
    C15      C        0.32040    0.16570    0.34850    1.000
    H4       H        0.31173    0.16470    0.47328    1.000
    C16      C        0.32480    0.21080    0.24450    1.000
    O10      O        0.32430    0.03272    0.35920    1.000
    O11      O        0.30240    0.07680    0.57190    1.000
    O12      O        0.31450    0.24928    0.32860    1.000
    Cd5      Cd       0.96211    0.35305    0.13565    1.000
    C17      C        0.98537    0.40743    0.74713    1.000
    C18      C        0.99487    0.45463    0.61253    1.000
    C19      C        0.98707    0.49903    0.68183    1.000
    H5       H        0.97840    0.49803    0.80661    1.000
    C20      C        0.99147    0.54413    0.57783    1.000
    O13      O        0.99097    0.36605    0.69253    1.000
    O14      O        0.96907    0.41013    0.90523    1.000
    O15      O        0.98117    0.58261    0.66193    1.000
    Cd6      Cd       0.62877    0.68639    0.46899    1.000
    C21      C        0.65203    0.74077    0.08047    1.000
    C22      C        0.66153    0.78797    0.94587    1.000
    C23      C        0.65373    0.83237    0.01517    1.000
    H6       H        0.64506    0.83137    0.13995    1.000
    C24      C        0.65813    0.87747    0.91117    1.000
    O16      O        0.65763    0.69939    0.02587    1.000
    O17      O        0.63573    0.74347    0.23857    1.000
    O18      O        0.64783    0.91595    0.99527    1.000
    Cd7      Cd       0.98028    0.27572    0.80232    1.000
    C25      C        0.92590    0.24460    0.41380    1.000
    C26      C        0.87870    0.20690    0.27920    1.000
    C27      C        0.83430    0.15470    0.34850    1.000
    H7       H        0.83530    0.14703    0.47328    1.000
    C28      C        0.78920    0.11400    0.24450    1.000
    O19      O        0.96728    0.29158    0.35920    1.000
    O20      O        0.92320    0.22560    0.57190    1.000
    O21      O        0.75072    0.06522    0.32860    1.000
    Cd8      Cd       0.64695    0.60905    0.13565    1.000
    C29      C        0.59257    0.57793    0.74713    1.000
    C30      C        0.54537    0.54023    0.61253    1.000
    C31      C        0.50097    0.48803    0.68183    1.000
    H8       H        0.50197    0.48036    0.80661    1.000
    C32      C        0.45587    0.44733    0.57783    1.000
    O22      O        0.63395    0.62491    0.69253    1.000
    O23      O        0.58987    0.55893    0.90523    1.000
    O24      O        0.41739    0.39855    0.66193    1.000
    Cd9      Cd       0.31361    0.94239    0.46899    1.000
    C33      C        0.25923    0.91127    0.08047    1.000
    C34      C        0.21203    0.87357    0.94587    1.000
    C35      C        0.16763    0.82137    0.01517    1.000
    H9       H        0.16863    0.81370    0.13995    1.000
    C36      C        0.12253    0.78067    0.91117    1.000
    O25      O        0.30061    0.95825    0.02587    1.000
    O26      O        0.25653    0.89227    0.23857    1.000
    O27      O        0.08405    0.73189    0.99527    1.000
    Cd10     Cd       0.27572    0.29544    0.19768    1.000
    C37      C        0.24460    0.31870    0.58620    1.000
    C38      C        0.20690    0.32820    0.72080    1.000
    C39      C        0.15470    0.32040    0.65150    1.000
    H10      H        0.14703    0.31173    0.52672    1.000
    C40      C        0.11400    0.32480    0.75550    1.000
    O28      O        0.29158    0.32430    0.64080    1.000
    O29      O        0.22560    0.30240    0.42810    1.000
    O30      O        0.06522    0.31450    0.67140    1.000
    Cd11     Cd       0.94239    0.62877    0.53101    1.000
    C41      C        0.91127    0.65203    0.91953    1.000
    C42      C        0.87357    0.66153    0.05413    1.000
    C43      C        0.82137    0.65373    0.98483    1.000
    H11      H        0.81370    0.64506    0.86005    1.000
    C44      C        0.78067    0.65813    0.08883    1.000
    O31      O        0.95825    0.65763    0.97413    1.000
    O32      O        0.89227    0.63573    0.76143    1.000
    O33      O        0.73189    0.64783    0.00473    1.000
    Cd12     Cd       0.60905    0.96211    0.86435    1.000
    C45      C        0.57793    0.98537    0.25287    1.000
    C46      C        0.54023    0.99487    0.38747    1.000
    C47      C        0.48803    0.98707    0.31817    1.000
    H12      H        0.48036    0.97840    0.19339    1.000
    C48      C        0.44733    0.99147    0.42217    1.000
    O34      O        0.62491    0.99097    0.30747    1.000
    O35      O        0.55893    0.96907    0.09477    1.000
    O36      O        0.39855    0.98117    0.33807    1.000
    Cd13     Cd       0.70456    0.98028    0.19768    1.000
    C49      C        0.68130    0.92590    0.58620    1.000
    C50      C        0.67180    0.87870    0.72080    1.000
    C51      C        0.67960    0.83430    0.65150    1.000
    H13      H        0.68827    0.83530    0.52672    1.000
    C52      C        0.67520    0.78920    0.75550    1.000
    O37      O        0.67570    0.96728    0.64080    1.000
    O38      O        0.69760    0.92320    0.42810    1.000
    O39      O        0.68550    0.75072    0.67140    1.000
    Cd14     Cd       0.37123    0.31361    0.53101    1.000
    C53      C        0.34797    0.25923    0.91953    1.000
    C54      C        0.33847    0.21203    0.05413    1.000
    C55      C        0.34627    0.16763    0.98483    1.000
    H14      H        0.35494    0.16863    0.86005    1.000
    C56      C        0.34187    0.12253    0.08883    1.000
    O40      O        0.34237    0.30061    0.97413    1.000
    O41      O        0.36427    0.25653    0.76143    1.000
    O42      O        0.35217    0.08405    0.00473    1.000
    Cd15     Cd       0.03789    0.64695    0.86435    1.000
    C57      C        0.01463    0.59257    0.25287    1.000
    C58      C        0.00513    0.54537    0.38747    1.000
    C59      C        0.01293    0.50097    0.31817    1.000
    H15      H        0.02160    0.50197    0.19339    1.000
    C60      C        0.00853    0.45587    0.42217    1.000
    O43      O        0.00903    0.63395    0.30747    1.000
    O44      O        0.03093    0.58987    0.09477    1.000
    O45      O        0.01883    0.41739    0.33807    1.000
    Cd16     Cd       0.01972    0.72428    0.19768    1.000
    C61      C        0.07410    0.75540    0.58620    1.000
    C62      C        0.12130    0.79310    0.72080    1.000
    C63      C        0.16570    0.84530    0.65150    1.000
    H16      H        0.16470    0.85297    0.52672    1.000
    C64      C        0.21080    0.88600    0.75550    1.000
    O46      O        0.03272    0.70842    0.64080    1.000
    O47      O        0.07680    0.77440    0.42810    1.000
    O48      O        0.24928    0.93478    0.67140    1.000
    Cd17     Cd       0.68639    0.05761    0.53101    1.000
    C65      C        0.74077    0.08873    0.91953    1.000
    C66      C        0.78797    0.12643    0.05413    1.000
    C67      C        0.83237    0.17863    0.98483    1.000
    H17      H        0.83137    0.18630    0.86005    1.000
    C68      C        0.87747    0.21933    0.08883    1.000
    O49      O        0.69939    0.04175    0.97413    1.000
    O50      O        0.74347    0.10773    0.76143    1.000
    O51      O        0.91595    0.26811    0.00473    1.000
    Cd18     Cd       0.35305    0.39095    0.86435    1.000
    C69      C        0.40743    0.42207    0.25287    1.000
    C70      C        0.45463    0.45977    0.38747    1.000
    C71      C        0.49903    0.51197    0.31817    1.000
    H18      H        0.49803    0.51964    0.19339    1.000
    C72      C        0.54413    0.55267    0.42217    1.000
    O52      O        0.36605    0.37509    0.30747    1.000
    O53      O        0.41013    0.44107    0.09477    1.000
    O54      O        0.58261    0.60145    0.33807    1.000
