# CIF file generated by openbabel 3.1.0, see https://openbabel.org
data_I
_chemical_name_common 'BIWSEG_ion_b'
_cell_length_a 29.03
_cell_length_b 29.03
_cell_length_c 29.03
_cell_angle_alpha 90
_cell_angle_beta 90
_cell_angle_gamma 90
_space_group_name_H-M_alt 'P m 3 m'
_space_group_name_Hall '-P 4 2 3'
loop_
    _symmetry_equiv_pos_as_xyz
    x,y,z
    -x,-y,z
    -x,y,-z
    x,-y,-z
    z,x,y
    z,-x,-y
    -z,-x,y
    -z,x,-y
    y,z,x
    -y,z,-x
    y,-z,-x
    -y,-z,x
    y,x,-z
    -y,-x,-z
    y,-x,z
    -y,x,z
    x,z,-y
    -x,z,y
    -x,-z,-y
    x,-z,y
    z,y,-x
    z,-y,x
    -z,y,x
    -z,-y,-x
    -x,-y,-z
    x,y,-z
    x,-y,z
    -x,y,z
    -z,-x,-y
    -z,x,y
    z,x,-y
    z,-x,y
    -y,-z,-x
    y,-z,x
    -y,z,x
    y,z,-x
    -y,-x,z
    y,x,z
    -y,x,-z
    y,-x,-z
    -x,-z,y
    x,-z,-y
    x,z,y
    -x,z,-y
    -z,-y,x
    -z,y,-x
    z,-y,-x
    z,y,x
loop_
    _atom_site_label
    _atom_site_type_symbol
    _atom_site_fract_x
    _atom_site_fract_y
    _atom_site_fract_z
    _atom_site_occupancy
    N1       N        0.41998    0.04672    0.54607    1.000
    N2       N        0.39669    0.08853    0.55031    1.000
    C3       C        0.36407    0.17904    0.57732    1.000
    C4       C        0.34837    0.22177    0.59283    1.000
    H5       H        0.34678    0.16303    0.54838    1.000
    H6       H        0.31959    0.23558    0.57408    1.000
    Cu7      Cu       0.40181    0.00000    0.50000    1.000
    Cl8      Cl       0.32443    0.00000    0.50000    1.000
    Cl9      Cl       0.50000    0.00000    0.50000    1.000
    Cu10     Cu       0.21573    0.13460    0.50000    1.000
    C11      C        0.41606    0.11077    0.58394    1.000
    C12      C        0.40088    0.15694    0.59912    1.000
    C13      C        0.36889    0.24429    0.63111    1.000
    C14      C        0.34955    0.28918    0.65045    1.000
    C15      C        0.36890    0.31025    0.68975    1.000
    H16      H        0.39919    0.29584    0.70416    1.000
