data_functionalizedCrystal
_audit_creation_method	'EQeq! by Chris Wilmer'
_symmetry_space_group_name_H-M	'P1'
_symmetry_Int_Tables_number	1
_symmetry_cell_setting	triclinic
loop_
_symmetry_equiv_pos_as_xyz
  x,y,z
_cell_length_a	8.8105
_cell_length_b	12.0084
_cell_length_c	12.3493
_cell_angle_alpha	63.518
_cell_angle_beta	89.233
_cell_angle_gamma	89.59
loop_
_atom_site_label
_atom_site_type_symbol
_atom_site_fract_x
_atom_site_fract_y
_atom_site_fract_z
_atom_site_charge
Mof_U 	U 	0.97951	0.55022	0.72784	0.012
Mof_P 	P 	0.824	0.86529	0.57694	0.427
Mof_O 	O 	0.8045	0.7284	0.6545	-0.205
Mof_O 	O 	0.9096	0.8997	0.4597	-0.269
Mof_O 	O 	0.9031	0.9226	0.6531	-0.438
Mof_H 	H 	0.9604	0.9785	0.6093	0.305
Mof_C 	C 	0.6406	0.9394	0.5366	-0.034
Mof_C 	C 	0.6324	0.0692	0.4758	-0.021
Mof_H 	H 	0.7207	0.1163	0.4594	0.066
Mof_C 	C 	0.5051	0.8727	0.5596	-0.014
Mof_H 	H 	0.5084	0.7863	0.6002	0.053
Mof_P 	P 	0.8264	0.62712	0.41964	0.423
Mof_O 	O 	0.9231	0.5984	0.5279	-0.183
Mof_O 	O 	0.7962	0.7723	0.3551	-0.397
Mof_H 	H 	0.8356	0.8045	0.394	0.297
Mof_O 	O 	0.8884	0.5922	0.3253	-0.162
Mof_C 	C 	0.6424	0.5582	0.4637	-0.017
Mof_C 	C 	0.5713	0.5076	0.3956	-0.02
Mof_H 	H 	0.6188	0.511	0.3265	0.07
Mof_C 	C 	0.5709	0.5481	0.5691	-0.027
Mof_H 	H 	0.6188	0.5791	0.6166	0.071
Mof_P 	P 	0.8263	0.627	0.97023	0.425
Mof_O 	O 	0.9282	0.5943	0.891	-0.182
Mof_O 	O 	0.8849	0.5983	0.0945	-0.159
Mof_O 	O 	0.7967	0.7712	0.9004	-0.398
Mof_H 	H 	0.8344	0.7984	0.8324	0.304
Mof_C 	C 	0.6426	0.5561	0.9884	-0.016
Mof_C 	C 	0.5479	0.5876	0.8871	-0.02
Mof_H 	H 	0.5803	0.6463	0.8111	0.066
Mof_C 	C 	0.5908	0.4676	0.0998	-0.023
Mof_H 	H 	0.6518	0.4452	0.1672	0.068
Mof_U 	U 	0.02049	0.44978	0.27216	0.011
Mof_P 	P 	0.176	0.13471	0.42306	0.426
Mof_O 	O 	0.1955	0.2716	0.3455	-0.206
Mof_O 	O 	0.0904	0.1003	0.5403	-0.27
Mof_O 	O 	0.0969	0.0774	0.3469	-0.438
Mof_H 	H 	0.0396	0.0215	0.3907	0.305
Mof_C 	C 	0.3594	0.0606	0.4634	-0.034
Mof_C 	C 	0.3676	0.9308	0.5242	-0.021
Mof_H 	H 	0.2793	0.8837	0.5406	0.066
Mof_C 	C 	0.4949	0.1273	0.4404	-0.014
Mof_H 	H 	0.4916	0.2137	0.3998	0.053
Mof_P 	P 	0.1736	0.37288	0.58036	0.423
Mof_O 	O 	0.0769	0.4016	0.4721	-0.183
Mof_O 	O 	0.2038	0.2277	0.6449	-0.397
Mof_H 	H 	0.1644	0.1955	0.606	0.297
Mof_O 	O 	0.1116	0.4078	0.6747	-0.162
Mof_C 	C 	0.3576	0.4418	0.5363	-0.017
Mof_C 	C 	0.4287	0.4924	0.6044	-0.02
Mof_H 	H 	0.3812	0.489	0.6735	0.07
Mof_C 	C 	0.4291	0.4519	0.4309	-0.027
Mof_H 	H 	0.3812	0.4209	0.3834	0.071
Mof_P 	P 	0.1737	0.373	0.02977	0.425
Mof_O 	O 	0.0718	0.4057	0.109	-0.182
Mof_O 	O 	0.1151	0.4017	0.9055	-0.159
Mof_O 	O 	0.2033	0.2288	0.0996	-0.398
Mof_H 	H 	0.1656	0.2016	0.1676	0.304
Mof_C 	C 	0.3574	0.4439	0.0116	-0.016
Mof_C 	C 	0.4521	0.4124	0.1129	-0.02
Mof_H 	H 	0.4197	0.3537	0.1889	0.066
Mof_C 	C 	0.4092	0.5324	0.9002	-0.023
Mof_H 	H 	0.3482	0.5548	0.8328	0.068
_end
