data_functionalizedCrystal
_audit_creation_method	'EQeq! by Chris Wilmer'
_symmetry_space_group_name_H-M	'P1'
_symmetry_Int_Tables_number	1
_symmetry_cell_setting	triclinic
loop_
_symmetry_equiv_pos_as_xyz
  x,y,z
_cell_length_a	9.0389
_cell_length_b	24.498
_cell_length_c	45.853
_cell_angle_alpha	90
_cell_angle_beta	90
_cell_angle_gamma	90
loop_
_atom_site_label
_atom_site_type_symbol
_atom_site_fract_x
_atom_site_fract_y
_atom_site_fract_z
_atom_site_charge
Mof_Cd	Cd	0.91412	0.53713	0.85085	0.489
Mof_Cd	Cd	0.41412	0.96287	0.64915	0.507
Mof_Cd	Cd	0.58588	0.46287	0.85085	0.489
Mof_Cd	Cd	0.08588	0.03713	0.64915	0.472
Mof_Cd	Cd	0.08588	0.46287	0.14915	0.489
Mof_Cd	Cd	0.58588	0.03713	0.35085	0.472
Mof_Cd	Cd	0.41412	0.53713	0.14915	0.489
Mof_Cd	Cd	0.91412	0.96287	0.35085	0.506
Mof_Cd	Cd	0.25	0.5	0.81325	0.474
Mof_Cd	Cd	0.75	0	0.68675	0.454
Mof_Cd	Cd	0.75	0.5	0.18675	0.474
Mof_Cd	Cd	0.25	-4.9724e-33	0.31325	0.454
Mof_H 	H 	0.9805	0.4454	0.7546	0.028
Mof_H 	H 	0.9699	0.3748	0.7216	0.072
Mof_H 	H 	0.7707	0.2834	0.7819	0.07
Mof_H 	H 	0.7895	0.3521	0.8153	0.038
Mof_H 	H 	0.0421	0.2909	0.7034	0.066
Mof_H 	H 	0.0451	0.2131	0.6767	0.031
Mof_H 	H 	0.6799	0.1611	0.7174	0.036
Mof_H 	H 	0.6722	0.2397	0.7435	0.07
Mof_H 	H 	0.4486	0.5342	0.9132	0.033
Mof_H 	H 	0.4411	0.5409	0.9633	0.08
Mof_H 	H 	0.1684	0.4251	0.0069	0.061
Mof_H 	H 	0.1813	0.4281	0.0587	0.06
Mof_H 	H 	0.4805	0.0546	0.7454	0.024
Mof_H 	H 	0.4699	0.1252	0.7784	0.07
Mof_H 	H 	0.2707	0.2166	0.7181	0.071
Mof_H 	H 	0.2895	0.1479	0.6847	0.038
Mof_H 	H 	0.5421	0.2091	0.7966	0.065
Mof_H 	H 	0.5451	0.2869	0.8233	0.031
Mof_H 	H 	0.1799	0.3389	0.7826	0.037
Mof_H 	H 	0.1722	0.2603	0.7565	0.069
Mof_H 	H 	0.9486	0.9658	0.5868	0.031
Mof_H 	H 	0.9411	0.9591	0.5367	0.078
Mof_H 	H 	0.6684	0.0749	0.4931	0.06
Mof_H 	H 	0.6813	0.0719	0.4413	0.061
Mof_H 	H 	0.5195	0.5546	0.7546	0.028
Mof_H 	H 	0.5301	0.6252	0.7216	0.072
Mof_H 	H 	0.7293	0.7166	0.7819	0.071
Mof_H 	H 	0.7105	0.6479	0.8153	0.039
Mof_H 	H 	0.4579	0.7091	0.7034	0.066
Mof_H 	H 	0.4549	0.7869	0.6767	0.032
Mof_H 	H 	0.8201	0.8389	0.7174	0.037
Mof_H 	H 	0.8278	0.7603	0.7435	0.069
Mof_H 	H 	0.0514	0.4658	0.9132	0.032
Mof_H 	H 	0.0589	0.4591	0.9633	0.079
Mof_H 	H 	0.3316	0.5749	0.0069	0.062
Mof_H 	H 	0.3187	0.5719	0.0587	0.061
Mof_H 	H 	0.0195	0.9454	0.7454	0.034
Mof_H 	H 	0.0301	0.8748	0.7784	0.073
Mof_H 	H 	0.2293	0.7834	0.7181	0.07
Mof_H 	H 	0.2105	0.8521	0.6847	0.04
Mof_H 	H 	0.9579	0.7909	0.7966	0.067
Mof_H 	H 	0.9549	0.7131	0.8233	0.031
Mof_H 	H 	0.3201	0.6611	0.7826	0.036
Mof_H 	H 	0.3278	0.7397	0.7565	0.07
Mof_H 	H 	0.5514	0.0342	0.5868	0.03
Mof_H 	H 	0.5589	0.0409	0.5367	0.078
Mof_H 	H 	0.8316	0.9251	0.4931	0.057
Mof_H 	H 	0.8187	0.9281	0.4413	0.055
Mof_H 	H 	0.0195	0.5546	0.2454	0.028
Mof_H 	H 	0.0301	0.6252	0.2784	0.072
Mof_H 	H 	0.2293	0.7166	0.2181	0.071
Mof_H 	H 	0.2105	0.6479	0.1847	0.039
Mof_H 	H 	0.9579	0.7091	0.2966	0.065
Mof_H 	H 	0.9549	0.7869	0.3233	0.03
Mof_H 	H 	0.3201	0.8389	0.2826	0.037
Mof_H 	H 	0.3278	0.7603	0.2565	0.07
Mof_H 	H 	0.5514	0.4658	0.0868	0.032
Mof_H 	H 	0.5589	0.4591	0.0367	0.079
Mof_H 	H 	0.8316	0.5749	0.9931	0.062
Mof_H 	H 	0.8187	0.5719	0.9413	0.061
Mof_H 	H 	0.5195	0.9454	0.2546	0.034
Mof_H 	H 	0.5301	0.8748	0.2216	0.073
Mof_H 	H 	0.7293	0.7834	0.2819	0.07
Mof_H 	H 	0.7105	0.8521	0.3153	0.039
Mof_H 	H 	0.4579	0.7909	0.2034	0.068
Mof_H 	H 	0.4549	0.7131	0.1767	0.032
Mof_H 	H 	0.8201	0.6611	0.2174	0.036
Mof_H 	H 	0.8278	0.7397	0.2435	0.07
Mof_H 	H 	0.0514	0.0342	0.4132	0.03
Mof_H 	H 	0.0589	0.0409	0.4633	0.078
Mof_H 	H 	0.3316	0.9251	0.5069	0.057
Mof_H 	H 	0.3187	0.9281	0.5587	0.055
Mof_H 	H 	0.4805	0.4454	0.2454	0.028
Mof_H 	H 	0.4699	0.3748	0.2784	0.071
Mof_H 	H 	0.2707	0.2834	0.2181	0.07
Mof_H 	H 	0.2895	0.3521	0.1847	0.038
Mof_H 	H 	0.5421	0.2909	0.2966	0.066
Mof_H 	H 	0.5451	0.2131	0.3233	0.031
Mof_H 	H 	0.1799	0.1611	0.2826	0.036
Mof_H 	H 	0.1722	0.2397	0.2565	0.069
Mof_H 	H 	0.9486	0.5342	0.0868	0.033
Mof_H 	H 	0.9411	0.5409	0.0367	0.08
Mof_H 	H 	0.6684	0.4251	0.9931	0.061
Mof_H 	H 	0.6813	0.4281	0.9413	0.06
Mof_H 	H 	0.9805	0.0546	0.2546	0.024
Mof_H 	H 	0.9699	0.1252	0.2216	0.07
Mof_H 	H 	0.7707	0.2166	0.2819	0.071
Mof_H 	H 	0.7895	0.1479	0.3153	0.038
Mof_H 	H 	0.0421	0.2091	0.2034	0.064
Mof_H 	H 	0.0451	0.2869	0.1767	0.03
Mof_H 	H 	0.6799	0.3389	0.2174	0.036
Mof_H 	H 	0.6722	0.2603	0.2435	0.069
Mof_H 	H 	0.4486	0.9658	0.4132	0.031
Mof_H 	H 	0.4411	0.9591	0.4633	0.078
Mof_H 	H 	0.1684	0.0749	0.5069	0.06
Mof_H 	H 	0.1813	0.0719	0.5587	0.061
Mof_C 	C 	0.9008	0.45103	0.81012	0.315
Mof_C 	C 	0.8864	0.40775	0.78856	-0.107
Mof_C 	C 	0.9387	0.4124	0.76036	0.043
Mof_C 	C 	0.9319	0.37033	0.74028	-0.114
Mof_C 	C 	0.8672	0.32138	0.74857	0.048
Mof_C 	C 	0.8146	0.31617	0.77642	-0.11
Mof_C 	C 	0.8243	0.35741	0.79639	0.04
Mof_C 	C 	0.8629	0.27385	0.72792	0.037
Mof_C 	C 	0.9701	0.2645	0.70671	-0.108
Mof_C 	C 	0.9721	0.21785	0.69077	0.039
Mof_C 	C 	0.8682	0.17735	0.69501	-0.104
Mof_C 	C 	0.754	0.18705	0.71493	0.034
Mof_C 	C 	0.7501	0.23372	0.73066	-0.103
Mof_C 	C 	0.8818	0.12185	0.68089	0.352
Mof_C 	C 	0.3667	0.52118	0.92326	0.053
Mof_C 	C 	0.3649	0.5235	0.9533	-0.12
Mof_C 	C 	0.2033	0.4562	0.01628	-0.08
Mof_C 	C 	0.2104	0.46	0.04935	-0.014
Mof_C 	C 	0.4008	0.04897	0.68988	0.315
Mof_C 	C 	0.3864	0.09225	0.71144	-0.11
Mof_C 	C 	0.4387	0.0876	0.73964	0.043
Mof_C 	C 	0.4319	0.12967	0.75972	-0.117
Mof_C 	C 	0.3672	0.17862	0.75143	0.049
Mof_C 	C 	0.3146	0.18383	0.72358	-0.111
Mof_C 	C 	0.3243	0.14259	0.70361	0.041
Mof_C 	C 	0.3629	0.22615	0.77208	0.036
Mof_C 	C 	0.4701	0.2355	0.79329	-0.108
Mof_C 	C 	0.4721	0.28215	0.80923	0.037
Mof_C 	C 	0.3682	0.32265	0.80499	-0.104
Mof_C 	C 	0.254	0.31295	0.78507	0.034
Mof_C 	C 	0.2501	0.26628	0.76934	-0.103
Mof_C 	C 	0.3818	0.37815	0.81911	0.354
Mof_C 	C 	0.8667	0.97882	0.57674	0.075
Mof_C 	C 	0.8649	0.9765	0.5467	-0.1
Mof_C 	C 	0.7033	0.0438	0.48372	-0.076
Mof_C 	C 	0.7104	0.04	0.45065	-0.018
Mof_C 	C 	0.5992	0.54897	0.81012	0.315
Mof_C 	C 	0.6136	0.59225	0.78856	-0.106
Mof_C 	C 	0.5613	0.5876	0.76036	0.043
Mof_C 	C 	0.5681	0.62967	0.74028	-0.114
Mof_C 	C 	0.6328	0.67862	0.74857	0.049
Mof_C 	C 	0.6854	0.68383	0.77642	-0.11
Mof_C 	C 	0.6757	0.64259	0.79639	0.04
Mof_C 	C 	0.6371	0.72615	0.72792	0.037
Mof_C 	C 	0.5299	0.7355	0.70671	-0.108
Mof_C 	C 	0.5279	0.78215	0.69077	0.038
Mof_C 	C 	0.6318	0.82265	0.69501	-0.102
Mof_C 	C 	0.746	0.81295	0.71493	0.034
Mof_C 	C 	0.7499	0.76628	0.73066	-0.102
Mof_C 	C 	0.6182	0.87815	0.68089	0.354
Mof_C 	C 	0.1333	0.47882	0.92326	0.052
Mof_C 	C 	0.1351	0.4765	0.9533	-0.12
Mof_C 	C 	0.2967	0.5438	0.01628	-0.08
Mof_C 	C 	0.2896	0.54	0.04935	-0.014
Mof_C 	C 	0.0992	0.95103	0.68988	0.313
Mof_C 	C 	0.1136	0.90775	0.71144	-0.101
Mof_C 	C 	0.0613	0.9124	0.73964	0.041
Mof_C 	C 	0.0681	0.87033	0.75972	-0.111
Mof_C 	C 	0.1328	0.82138	0.75143	0.047
Mof_C 	C 	0.1854	0.81617	0.72358	-0.107
Mof_C 	C 	0.1757	0.85741	0.70361	0.038
Mof_C 	C 	0.1371	0.77385	0.77208	0.039
Mof_C 	C 	0.0299	0.7645	0.79329	-0.108
Mof_C 	C 	0.0279	0.71785	0.80923	0.041
Mof_C 	C 	0.1318	0.67735	0.80499	-0.104
Mof_C 	C 	0.246	0.68705	0.78507	0.036
Mof_C 	C 	0.2499	0.73372	0.76934	-0.104
Mof_C 	C 	0.1182	0.62185	0.81911	0.354
Mof_C 	C 	0.6333	0.02118	0.57674	0.054
Mof_C 	C 	0.6351	0.0235	0.5467	-0.121
Mof_C 	C 	0.7967	0.9562	0.48372	-0.056
Mof_C 	C 	0.7896	0.96	0.45065	0.009
Mof_C 	C 	0.0992	0.54897	0.18988	0.315
Mof_C 	C 	0.1136	0.59225	0.21144	-0.107
Mof_C 	C 	0.0613	0.5876	0.23964	0.043
Mof_C 	C 	0.0681	0.62967	0.25972	-0.115
Mof_C 	C 	0.1328	0.67862	0.25143	0.049
Mof_C 	C 	0.1854	0.68383	0.22358	-0.11
Mof_C 	C 	0.1757	0.64259	0.20361	0.041
Mof_C 	C 	0.1371	0.72615	0.27208	0.037
Mof_C 	C 	0.0299	0.7355	0.29329	-0.107
Mof_C 	C 	0.0279	0.78215	0.30923	0.04
Mof_C 	C 	0.1318	0.82265	0.30499	-0.103
Mof_C 	C 	0.246	0.81295	0.28507	0.035
Mof_C 	C 	0.2499	0.76628	0.26934	-0.102
Mof_C 	C 	0.1182	0.87815	0.31911	0.354
Mof_C 	C 	0.6333	0.47882	0.07674	0.052
Mof_C 	C 	0.6351	0.4765	0.0467	-0.12
Mof_C 	C 	0.7967	0.5438	0.98372	-0.08
Mof_C 	C 	0.7896	0.54	0.95065	-0.014
Mof_C 	C 	0.5992	0.95103	0.31012	0.313
Mof_C 	C 	0.6136	0.90775	0.28856	-0.101
Mof_C 	C 	0.5613	0.9124	0.26036	0.04
Mof_C 	C 	0.5681	0.87033	0.24028	-0.111
Mof_C 	C 	0.6328	0.82138	0.24857	0.047
Mof_C 	C 	0.6854	0.81617	0.27642	-0.107
Mof_C 	C 	0.6757	0.85741	0.29639	0.038
Mof_C 	C 	0.6371	0.77385	0.22792	0.039
Mof_C 	C 	0.5299	0.7645	0.20671	-0.109
Mof_C 	C 	0.5279	0.71785	0.19077	0.039
Mof_C 	C 	0.6318	0.67735	0.19501	-0.104
Mof_C 	C 	0.746	0.68705	0.21493	0.036
Mof_C 	C 	0.7499	0.73372	0.23066	-0.104
Mof_C 	C 	0.6182	0.62185	0.18089	0.354
Mof_C 	C 	0.1333	0.02118	0.42326	0.054
Mof_C 	C 	0.1351	0.0235	0.4533	-0.121
Mof_C 	C 	0.2967	0.9562	0.51628	-0.055
Mof_C 	C 	0.2896	0.96	0.54935	0.01
Mof_C 	C 	0.4008	0.45103	0.18988	0.315
Mof_C 	C 	0.3864	0.40775	0.21144	-0.107
Mof_C 	C 	0.4387	0.4124	0.23964	0.042
Mof_C 	C 	0.4319	0.37033	0.25972	-0.114
Mof_C 	C 	0.3672	0.32138	0.25143	0.048
Mof_C 	C 	0.3146	0.31617	0.22358	-0.11
Mof_C 	C 	0.3243	0.35741	0.20361	0.04
Mof_C 	C 	0.3629	0.27385	0.27208	0.037
Mof_C 	C 	0.4701	0.2645	0.29329	-0.108
Mof_C 	C 	0.4721	0.21785	0.30923	0.038
Mof_C 	C 	0.3682	0.17735	0.30499	-0.104
Mof_C 	C 	0.254	0.18705	0.28507	0.034
Mof_C 	C 	0.2501	0.23372	0.26934	-0.103
Mof_C 	C 	0.3818	0.12185	0.31911	0.352
Mof_C 	C 	0.8667	0.52118	0.07674	0.053
Mof_C 	C 	0.8649	0.5235	0.0467	-0.12
Mof_C 	C 	0.7033	0.4562	0.98372	-0.08
Mof_C 	C 	0.7104	0.46	0.95065	-0.014
Mof_C 	C 	0.9008	0.04897	0.31012	0.315
Mof_C 	C 	0.8864	0.09225	0.28856	-0.11
Mof_C 	C 	0.9387	0.0876	0.26036	0.044
Mof_C 	C 	0.9319	0.12967	0.24028	-0.117
Mof_C 	C 	0.8672	0.17862	0.24857	0.049
Mof_C 	C 	0.8146	0.18383	0.27642	-0.111
Mof_C 	C 	0.8243	0.14259	0.29639	0.042
Mof_C 	C 	0.8629	0.22615	0.22792	0.036
Mof_C 	C 	0.9701	0.2355	0.20671	-0.108
Mof_C 	C 	0.9721	0.28215	0.19077	0.038
Mof_C 	C 	0.8682	0.32265	0.19501	-0.104
Mof_C 	C 	0.754	0.31295	0.21493	0.034
Mof_C 	C 	0.7501	0.26628	0.23066	-0.103
Mof_C 	C 	0.8818	0.37815	0.18089	0.354
Mof_C 	C 	0.3667	0.97882	0.42326	0.075
Mof_C 	C 	0.3649	0.9765	0.4533	-0.099
Mof_C 	C 	0.2033	0.0438	0.51628	-0.076
Mof_C 	C 	0.2104	0.04	0.54935	-0.018
Mof_C 	C 	0.25	0.5	0.87511	0.33
Mof_C 	C 	0.25	0.5	0.90806	-0.112
Mof_C 	C 	0.25	0.5	0.96857	0.061
Mof_C 	C 	0.25	0.5	0.00122	0.023
Mof_C 	C 	0.25	0.5	0.06799	-0.039
Mof_C 	C 	0.25	0.5	0.10201	0.36
Mof_C 	C 	0.75	0	0.62489	0.309
Mof_C 	C 	0.75	0	0.59194	-0.131
Mof_C 	C 	0.75	0	0.53143	0.044
Mof_C 	C 	0.75	9.94481e-33	0.49878	-0
Mof_C 	C 	0.75	-9.94481e-33	0.43201	-0.059
Mof_C 	C 	0.75	0	0.39799	0.333
Mof_C 	C 	0.75	0.5	0.12489	0.33
Mof_C 	C 	0.75	0.5	0.09194	-0.112
Mof_C 	C 	0.75	0.5	0.03143	0.061
Mof_C 	C 	0.75	0.5	0.99878	0.023
Mof_C 	C 	0.75	0.5	0.93201	-0.039
Mof_C 	C 	0.75	0.5	0.89799	0.36
Mof_C 	C 	0.25	0	0.37511	0.308
Mof_C 	C 	0.25	0	0.40806	-0.132
Mof_C 	C 	0.25	0	0.46857	0.044
Mof_C 	C 	0.25	-9.94481e-33	0.50122	-0.001
Mof_C 	C 	0.25	0	0.56799	-0.059
Mof_C 	C 	0.25	9.94481e-33	0.60201	0.332
Mof_O 	O 	0.9828	0.49269	0.80454	-0.282
Mof_O 	O 	0.8296	0.44856	0.83393	-0.288
Mof_O 	O 	0.9961	0.11371	0.66604	-0.296
Mof_O 	O 	0.7815	0.08948	0.68509	-0.304
Mof_O 	O 	0.1314	0.49131	0.86162	-0.292
Mof_O 	O 	0.1761	0.46	0.1052	-0.324
Mof_O 	O 	0.4828	0.00731	0.69546	-0.291
Mof_O 	O 	0.3296	0.05144	0.66607	-0.294
Mof_O 	O 	0.4961	0.38629	0.83396	-0.297
Mof_O 	O 	0.2815	0.41052	0.81491	-0.303
Mof_O 	O 	0.6314	0.00869	0.63838	-0.294
Mof_O 	O 	0.6761	0.04	0.3948	-0.318
Mof_O 	O 	0.5172	0.50731	0.80454	-0.282
Mof_O 	O 	0.6704	0.55144	0.83393	-0.288
Mof_O 	O 	0.5039	0.88629	0.66604	-0.294
Mof_O 	O 	0.7185	0.91052	0.68509	-0.295
Mof_O 	O 	0.3686	0.50869	0.86162	-0.292
Mof_O 	O 	0.3239	0.54	0.1052	-0.324
Mof_O 	O 	0.0172	0.99269	0.69546	-0.268
Mof_O 	O 	0.1704	0.94856	0.66607	-0.281
Mof_O 	O 	0.0039	0.61371	0.83396	-0.296
Mof_O 	O 	0.2185	0.58948	0.81491	-0.303
Mof_O 	O 	0.8686	0.99131	0.63838	-0.266
Mof_O 	O 	0.8239	0.96	0.3948	-0.301
Mof_O 	O 	0.0172	0.50731	0.19546	-0.282
Mof_O 	O 	0.1704	0.55144	0.16607	-0.288
Mof_O 	O 	0.0039	0.88629	0.33396	-0.294
Mof_O 	O 	0.2185	0.91052	0.31491	-0.295
Mof_O 	O 	0.8686	0.50869	0.13838	-0.292
Mof_O 	O 	0.8239	0.54	0.8948	-0.324
Mof_O 	O 	0.5172	0.99269	0.30454	-0.268
Mof_O 	O 	0.6704	0.94856	0.33393	-0.281
Mof_O 	O 	0.5039	0.61371	0.16604	-0.296
Mof_O 	O 	0.7185	0.58948	0.18509	-0.303
Mof_O 	O 	0.3686	0.99131	0.36162	-0.265
Mof_O 	O 	0.3239	0.96	0.6052	-0.3
Mof_O 	O 	0.4828	0.49269	0.19546	-0.282
Mof_O 	O 	0.3296	0.44856	0.16607	-0.288
Mof_O 	O 	0.4961	0.11371	0.33396	-0.297
Mof_O 	O 	0.2815	0.08948	0.31491	-0.304
Mof_O 	O 	0.6314	0.49131	0.13838	-0.292
Mof_O 	O 	0.6761	0.46	0.8948	-0.324
Mof_O 	O 	0.9828	0.00731	0.30454	-0.291
Mof_O 	O 	0.8296	0.05144	0.33393	-0.294
Mof_O 	O 	0.9961	0.38629	0.16604	-0.297
Mof_O 	O 	0.7815	0.41052	0.18509	-0.303
Mof_O 	O 	0.1314	0.00869	0.36162	-0.294
Mof_O 	O 	0.1761	0.04	0.6052	-0.318
_end
