data_functionalizedCrystal
_audit_creation_method	'EQeq! by Chris Wilmer'
_symmetry_space_group_name_H-M	'P1'
_symmetry_Int_Tables_number	1
_symmetry_cell_setting	triclinic
loop_
_symmetry_equiv_pos_as_xyz
  x,y,z
_cell_length_a	14.718
_cell_length_b	13.063
_cell_length_c	15.229
_cell_angle_alpha	90
_cell_angle_beta	110.92
_cell_angle_gamma	90
loop_
_atom_site_label
_atom_site_type_symbol
_atom_site_fract_x
_atom_site_fract_y
_atom_site_fract_z
_atom_site_charge
Mof_Al	Al	0.37526	0.19088	0.12366	5.157
Mof_Al	Al	0.58341	0.89416	0.16313	5.503
Mof_Co	Co	0.08341	0.39416	0.16313	1.243
Mof_Al	Al	0.2508	0.87215	0.91873	3.849
Mof_Co	Co	0.2492	0.62785	0.08127	1.251
Mof_P 	P 	0.2536	0.11202	0.92122	1.369
Mof_P 	P 	0.5913	0.13319	0.17051	1.265
Mof_P 	P 	0.37618	0.81418	0.12816	1.232
Mof_O 	O 	0.5629	0.0255	0.1368	-1.69
Mof_O 	O 	0.2212	0.0062	0.8887	-1.263
Mof_O 	O 	0.5011	0.2009	0.1404	-1.575
Mof_O 	O 	0.2925	0.8571	0.0466	-1.177
Mof_O 	O 	0.66	0.176	0.127	-0.601
Mof_O 	O 	0.3268	0.1516	0.8798	-1.869
Mof_O 	O 	0.3004	0.1139	0.0276	-1.504
Mof_O 	O 	0.4736	0.8273	0.1138	-1.677
Mof_O 	O 	0.3621	0.6994	0.1366	-0.61
Mof_O 	O 	0.6407	0.131	0.277	-1.547
Mof_O 	O 	0.3765	0.8708	0.2148	-1.692
Mof_O 	O 	0.165	0.1794	0.8908	-1.488
Mof_Al	Al	0.87526	0.69088	0.12366	4.804
Mof_Al	Al	0.7508	0.37215	0.91873	3.925
Mof_Co	Co	0.7492	0.12785	0.08127	1.266
Mof_P 	P 	0.7536	0.61202	0.92122	1.122
Mof_P 	P 	0.0913	0.63319	0.17051	0.981
Mof_P 	P 	0.87618	0.31418	0.12816	0.745
Mof_O 	O 	0.0629	0.5255	0.1368	-0.646
Mof_O 	O 	0.7212	0.5062	0.8887	-1.223
Mof_O 	O 	0.0011	0.7009	0.1404	-1.42
Mof_O 	O 	0.7925	0.3571	0.0466	-1.06
Mof_O 	O 	0.16	0.676	0.127	-0.555
Mof_O 	O 	0.8268	0.6516	0.8798	-0.737
Mof_O 	O 	0.8004	0.6139	0.0276	-1.371
Mof_O 	O 	0.9736	0.3273	0.1138	-0.549
Mof_O 	O 	0.8621	0.1994	0.1366	-0.476
Mof_O 	O 	0.1407	0.631	0.277	-1.378
Mof_O 	O 	0.8765	0.3708	0.2148	-0.54
Mof_O 	O 	0.665	0.6794	0.8908	-1.526
Mof_Al	Al	0.62474	0.19088	0.37634	5.111
Mof_Al	Al	0.41659	0.89416	0.33687	5.459
Mof_Co	Co	0.91659	0.39416	0.33687	1.238
Mof_Al	Al	0.7492	0.87215	0.58127	4.161
Mof_Co	Co	0.7508	0.62785	0.41873	1.216
Mof_P 	P 	0.7464	0.11202	0.57878	1.486
Mof_P 	P 	0.4087	0.13319	0.32949	1.261
Mof_P 	P 	0.62382	0.81418	0.37184	1.247
Mof_O 	O 	0.4371	0.0255	0.3632	-1.705
Mof_O 	O 	0.7788	0.0062	0.6113	-1.315
Mof_O 	O 	0.4989	0.2009	0.3596	-1.591
Mof_O 	O 	0.7075	0.8571	0.4534	-1.306
Mof_O 	O 	0.34	0.176	0.373	-0.629
Mof_O 	O 	0.6732	0.1516	0.6202	-1.879
Mof_O 	O 	0.6996	0.1139	0.4724	-1.606
Mof_O 	O 	0.5264	0.8273	0.3862	-1.705
Mof_O 	O 	0.6379	0.6994	0.3634	-0.633
Mof_O 	O 	0.3593	0.131	0.223	-1.549
Mof_O 	O 	0.6235	0.8708	0.2852	-1.706
Mof_O 	O 	0.835	0.1794	0.6092	-1.496
Mof_Al	Al	0.12474	0.69088	0.37634	4.746
Mof_Al	Al	0.2492	0.37215	0.58127	4.26
Mof_Co	Co	0.2508	0.12785	0.41873	1.231
Mof_P 	P 	0.2464	0.61202	0.57878	1.226
Mof_P 	P 	0.9087	0.63319	0.32949	0.981
Mof_P 	P 	0.12382	0.31418	0.37184	0.761
Mof_O 	O 	0.9371	0.5255	0.3632	-0.665
Mof_O 	O 	0.2788	0.5062	0.6113	-1.282
Mof_O 	O 	0.9989	0.7009	0.3596	-1.428
Mof_O 	O 	0.2075	0.3571	0.4534	-1.196
Mof_O 	O 	0.84	0.676	0.373	-0.581
Mof_O 	O 	0.1732	0.6516	0.6202	-0.732
Mof_O 	O 	0.1996	0.6139	0.4724	-1.462
Mof_O 	O 	0.0264	0.3273	0.3862	-0.59
Mof_O 	O 	0.1379	0.1994	0.3634	-0.501
Mof_O 	O 	0.8593	0.631	0.223	-1.382
Mof_O 	O 	0.1235	0.3708	0.2852	-0.548
Mof_O 	O 	0.335	0.6794	0.6092	-1.527
Mof_Al	Al	0.62474	0.80912	0.87634	5.089
Mof_Al	Al	0.41659	0.10584	0.83687	6.071
Mof_Co	Co	0.91659	0.60584	0.83687	1.226
Mof_P 	P 	0.7464	0.88798	0.07878	1.366
Mof_P 	P 	0.4087	0.86681	0.82949	1.438
Mof_P 	P 	0.62382	0.18582	0.87184	1.265
Mof_O 	O 	0.4371	0.9745	0.8632	-2.027
Mof_O 	O 	0.7788	0.9938	0.1113	-0.712
Mof_O 	O 	0.4989	0.7991	0.8596	-1.637
Mof_O 	O 	0.7075	0.1429	0.9534	-0.739
Mof_O 	O 	0.34	0.824	0.873	-1.313
Mof_O 	O 	0.6732	0.8484	0.1202	-1.69
Mof_O 	O 	0.6996	0.8861	0.9724	-1.668
Mof_O 	O 	0.5264	0.1727	0.8862	-1.817
Mof_O 	O 	0.6379	0.3006	0.8634	-1.249
Mof_O 	O 	0.3593	0.869	0.723	-1.648
Mof_O 	O 	0.6235	0.1292	0.7852	-1.833
Mof_O 	O 	0.835	0.8206	0.1092	-1.445
Mof_Al	Al	0.12474	0.30912	0.87634	4.782
Mof_P 	P 	0.2464	0.38798	0.07878	1.149
Mof_P 	P 	0.9087	0.36681	0.82949	1.134
Mof_P 	P 	0.12382	0.68582	0.87184	0.713
Mof_O 	O 	0.9371	0.4745	0.8632	-0.74
Mof_O 	O 	0.2788	0.4938	0.1113	-0.556
Mof_O 	O 	0.9989	0.2991	0.8596	-1.465
Mof_O 	O 	0.2075	0.6429	0.9534	-0.648
Mof_O 	O 	0.84	0.324	0.873	-1.246
Mof_O 	O 	0.1732	0.3484	0.1202	-0.656
Mof_O 	O 	0.1996	0.3861	0.9724	-1.51
Mof_O 	O 	0.0264	0.6727	0.8862	-0.59
Mof_O 	O 	0.1379	0.8006	0.8634	-1.124
Mof_O 	O 	0.8593	0.369	0.723	-1.447
Mof_O 	O 	0.1235	0.6292	0.7852	-0.567
Mof_O 	O 	0.335	0.3206	0.1092	-1.48
Mof_Al	Al	0.37526	0.80912	0.62366	5.14
Mof_Al	Al	0.58341	0.10584	0.66313	6.153
Mof_Co	Co	0.08341	0.60584	0.66313	1.227
Mof_P 	P 	0.2536	0.88798	0.42122	1.278
Mof_P 	P 	0.5913	0.86681	0.67051	1.457
Mof_P 	P 	0.37618	0.18582	0.62816	1.273
Mof_O 	O 	0.5629	0.9745	0.6368	-2.035
Mof_O 	O 	0.2212	0.9938	0.3887	-0.718
Mof_O 	O 	0.5011	0.7991	0.6404	-1.629
Mof_O 	O 	0.2925	0.1429	0.5466	-0.68
Mof_O 	O 	0.66	0.824	0.627	-1.355
Mof_O 	O 	0.3268	0.8484	0.3798	-1.693
Mof_O 	O 	0.3004	0.8861	0.5276	-1.59
Mof_O 	O 	0.4736	0.1727	0.6138	-1.803
Mof_O 	O 	0.3621	0.3006	0.6366	-1.296
Mof_O 	O 	0.6407	0.869	0.777	-1.648
Mof_O 	O 	0.3765	0.1292	0.7148	-1.816
Mof_O 	O 	0.165	0.8206	0.3908	-1.446
Mof_Al	Al	0.87526	0.30912	0.62366	4.885
Mof_P 	P 	0.7536	0.38798	0.42122	1.056
Mof_P 	P 	0.0913	0.36681	0.67051	1.149
Mof_P 	P 	0.87618	0.68582	0.62816	0.721
Mof_O 	O 	0.0629	0.4745	0.6368	-0.733
Mof_O 	O 	0.7212	0.4938	0.3887	-0.566
Mof_O 	O 	0.0011	0.2991	0.6404	-1.475
Mof_O 	O 	0.7925	0.6429	0.5466	-0.59
Mof_O 	O 	0.16	0.324	0.627	-1.292
Mof_O 	O 	0.8268	0.3484	0.3798	-0.668
Mof_O 	O 	0.8004	0.3861	0.5276	-1.43
Mof_O 	O 	0.9736	0.6727	0.6138	-0.555
Mof_O 	O 	0.8621	0.8006	0.6366	-1.167
Mof_O 	O 	0.1407	0.369	0.777	-1.439
Mof_O 	O 	0.8765	0.6292	0.7148	-0.564
Mof_O 	O 	0.665	0.3206	0.3908	-1.485
_end
