data_functionalizedCrystal
_audit_creation_method	'EQeq! by Chris Wilmer'
_symmetry_space_group_name_H-M	'P1'
_symmetry_Int_Tables_number	1
_symmetry_cell_setting	triclinic
loop_
_symmetry_equiv_pos_as_xyz
  x,y,z
_cell_length_a	10.5385
_cell_length_b	10.7768
_cell_length_c	14.7694
_cell_angle_alpha	90
_cell_angle_beta	108.72
_cell_angle_gamma	90
loop_
_atom_site_label
_atom_site_type_symbol
_atom_site_fract_x
_atom_site_fract_y
_atom_site_fract_z
_atom_site_charge
Mof_Cu	Cu	0.09349	0.08595	0.01114	0.912
Mof_Cu	Cu	0.90651	0.58595	0.48886	0.915
Mof_Cu	Cu	0.90651	0.91405	0.98886	0.912
Mof_Cu	Cu	0.09349	0.41405	0.51114	0.915
Mof_H 	H 	0.0533	0.7253	0.774	0.059
Mof_H 	H 	0.5756	0.4699	0.9329	0.04
Mof_H 	H 	0.3923	0.551	0.7789	0.065
Mof_H 	H 	0.3975	0.801	0.9815	0.062
Mof_H 	H 	0.9305	0.6361	0.0388	0.019
Mof_H 	H 	0.6097	0.839	0.9396	0.033
Mof_H 	H 	0.8058	0.4581	0.0059	0.08
Mof_H 	H 	0.9467	0.2253	0.726	0.057
Mof_H 	H 	0.4244	0.9699	0.5671	0.043
Mof_H 	H 	0.6077	0.051	0.7211	0.064
Mof_H 	H 	0.6025	0.301	0.5185	0.061
Mof_H 	H 	0.0695	0.1361	0.4612	0.019
Mof_H 	H 	0.3903	0.339	0.5604	0.034
Mof_H 	H 	0.1942	0.9581	0.4941	0.079
Mof_H 	H 	0.9467	0.2747	0.226	0.059
Mof_H 	H 	0.4244	0.5301	0.0671	0.04
Mof_H 	H 	0.6077	0.449	0.2211	0.065
Mof_H 	H 	0.6025	0.199	0.0185	0.062
Mof_H 	H 	0.0695	0.3639	0.9612	0.019
Mof_H 	H 	0.3903	0.161	0.0604	0.033
Mof_H 	H 	0.1942	0.5419	0.9941	0.08
Mof_H 	H 	0.0533	0.7747	0.274	0.057
Mof_H 	H 	0.5756	0.0301	0.4329	0.043
Mof_H 	H 	0.3923	0.949	0.2789	0.064
Mof_H 	H 	0.3975	0.699	0.4815	0.061
Mof_H 	H 	0.9305	0.8639	0.5388	0.019
Mof_H 	H 	0.6097	0.661	0.4396	0.034
Mof_H 	H 	0.8058	0.0419	0.5059	0.079
Mof_C 	C 	0.1382	0.8598	0.93008	0.336
Mof_C 	C 	0.5664	0.6581	0.93041	-0.021
Mof_C 	C 	0.138	0.57277	0.66616	0.339
Mof_C 	C 	0.4182	0.6741	0.88591	0.024
Mof_C 	C 	0.1448	0.7124	0.80217	0.007
Mof_C 	C 	0.2129	0.77424	0.88555	-0.063
Mof_C 	C 	0.6269	0.5418	0.94872	-0.007
Mof_C 	C 	0.3481	0.60935	0.80428	-0.041
Mof_C 	C 	0.3507	0.75707	0.92674	-0.043
Mof_C 	C 	0.2117	0.6309	0.75961	-0.064
Mof_C 	C 	0.8382	0.6419	0.01011	0.071
Mof_C 	C 	0.6491	0.7609	0.95184	0.026
Mof_C 	C 	0.764	0.5349	0.9908	-0.101
Mof_C 	C 	0.8618	0.3598	0.56992	0.337
Mof_C 	C 	0.4336	0.1581	0.56959	-0.018
Mof_C 	C 	0.862	0.07277	0.83384	0.344
Mof_C 	C 	0.5818	0.1741	0.61409	0.022
Mof_C 	C 	0.8552	0.2124	0.69783	0.009
Mof_C 	C 	0.7871	0.27424	0.61445	-0.065
Mof_C 	C 	0.3731	0.0418	0.55128	-0.012
Mof_C 	C 	0.6519	0.10935	0.69572	-0.038
Mof_C 	C 	0.6493	0.25707	0.57326	-0.041
Mof_C 	C 	0.7883	0.1309	0.74039	-0.067
Mof_C 	C 	0.1618	0.1419	0.48989	0.063
Mof_C 	C 	0.3509	0.2609	0.54816	0.024
Mof_C 	C 	0.236	0.0349	0.5092	-0.096
Mof_C 	C 	0.8618	0.1402	0.06992	0.336
Mof_C 	C 	0.4336	0.3419	0.06959	-0.021
Mof_C 	C 	0.862	0.42723	0.33384	0.339
Mof_C 	C 	0.5818	0.3259	0.11409	0.024
Mof_C 	C 	0.8552	0.2876	0.19783	0.007
Mof_C 	C 	0.7871	0.22576	0.11445	-0.063
Mof_C 	C 	0.3731	0.4582	0.05128	-0.007
Mof_C 	C 	0.6519	0.39065	0.19572	-0.041
Mof_C 	C 	0.6493	0.24293	0.07326	-0.043
Mof_C 	C 	0.7883	0.3691	0.24039	-0.064
Mof_C 	C 	0.1618	0.3581	0.98989	0.071
Mof_C 	C 	0.3509	0.2391	0.04816	0.026
Mof_C 	C 	0.236	0.4651	0.0092	-0.101
Mof_C 	C 	0.1382	0.6402	0.43008	0.337
Mof_C 	C 	0.5664	0.8419	0.43041	-0.018
Mof_C 	C 	0.138	0.92723	0.16616	0.344
Mof_C 	C 	0.4182	0.8259	0.38591	0.022
Mof_C 	C 	0.1448	0.7876	0.30217	0.009
Mof_C 	C 	0.2129	0.72576	0.38555	-0.065
Mof_C 	C 	0.6269	0.9582	0.44872	-0.012
Mof_C 	C 	0.3481	0.89065	0.30428	-0.038
Mof_C 	C 	0.3507	0.74293	0.42674	-0.041
Mof_C 	C 	0.2117	0.8691	0.25961	-0.067
Mof_C 	C 	0.8382	0.8581	0.51011	0.063
Mof_C 	C 	0.6491	0.7391	0.45184	0.024
Mof_C 	C 	0.764	0.9651	0.4908	-0.096
Mof_N 	N 	0.78272	0.75448	0.98922	-0.179
Mof_N 	N 	0.21728	0.25448	0.51078	-0.176
Mof_N 	N 	0.21728	0.24552	0.01078	-0.179
Mof_N 	N 	0.78272	0.74552	0.48922	-0.176
Mof_O 	O 	0.19149	0.96243	0.96089	-0.383
Mof_O 	O 	0.02568	0.82202	0.93227	-0.387
Mof_O 	O 	0.1901	0.47991	0.63911	-0.381
Mof_O 	O 	0.02801	0.62181	0.61923	-0.398
Mof_O 	O 	0.80851	0.46243	0.53911	-0.387
Mof_O 	O 	0.97432	0.32202	0.56773	-0.39
Mof_O 	O 	0.8099	0.97991	0.86089	-0.386
Mof_O 	O 	0.97199	0.12181	0.88077	-0.4
Mof_O 	O 	0.80851	0.03757	0.03911	-0.383
Mof_O 	O 	0.97432	0.17798	0.06773	-0.387
Mof_O 	O 	0.8099	0.52009	0.36089	-0.381
Mof_O 	O 	0.97199	0.37819	0.38077	-0.398
Mof_O 	O 	0.19149	0.53757	0.46089	-0.387
Mof_O 	O 	0.02568	0.67798	0.43227	-0.39
Mof_O 	O 	0.1901	0.02009	0.13911	-0.386
Mof_O 	O 	0.02801	0.87819	0.11923	-0.4
_end
