data_functionalizedCrystal
_audit_creation_method	'EQeq! by Chris Wilmer'
_symmetry_space_group_name_H-M	'P1'
_symmetry_Int_Tables_number	1
_symmetry_cell_setting	triclinic
loop_
_symmetry_equiv_pos_as_xyz
  x,y,z
_cell_length_a	10.476
_cell_length_b	20.205
_cell_length_c	8.109
_cell_angle_alpha	90
_cell_angle_beta	102.265
_cell_angle_gamma	90
loop_
_atom_site_label
_atom_site_type_symbol
_atom_site_fract_x
_atom_site_fract_y
_atom_site_fract_z
_atom_site_charge
Mof_C 	C 	0.7919	0.40012	0.0505	0.04
Mof_H 	H 	0.7108	0.3966	0.0793	-0.019
Mof_C 	C 	0.8465	0.45715	0.0531	-0.087
Mof_H 	H 	0.8061	0.4948	0.0838	0.045
Mof_C 	C 	0.9678	0.46665	0.003	-0.075
Mof_C 	C 	0.0242	0.40642	0.9554	-0.094
Mof_H 	H 	0.1044	0.4099	0.9241	0.066
Mof_C 	C 	0.9685	0.34955	0.9599	0.167
Mof_H 	H 	0.009	0.3116	0.9313	-0.055
Mof_N 	N 	0.8511	0.34447	0.0061	-0.277
Mof_O 	O 	0.9115	0.20153	0.1501	-0.536
Mof_C 	C 	0.2919	0.90012	0.0505	0.004
Mof_H 	H 	0.2108	0.8966	0.0793	-0.006
Mof_C 	C 	0.3465	0.95715	0.0531	-0.033
Mof_H 	H 	0.3061	0.9948	0.0838	0.029
Mof_C 	C 	0.4678	0.96665	0.003	-0.149
Mof_C 	C 	0.5242	0.90642	0.9554	0.011
Mof_H 	H 	0.6044	0.9099	0.9241	0.033
Mof_C 	C 	0.4685	0.84955	0.9599	0.076
Mof_H 	H 	0.509	0.8116	0.9313	-0.014
Mof_N 	N 	0.3511	0.84447	0.0061	-0.259
Mof_O 	O 	0.4115	0.70153	0.1501	-0.555
Mof_C 	C 	0.2081	0.40012	0.4495	0.04
Mof_H 	H 	0.2892	0.3966	0.4207	-0.01
Mof_C 	C 	0.1535	0.45715	0.4469	-0.08
Mof_H 	H 	0.1939	0.4948	0.4162	0.047
Mof_C 	C 	0.0322	0.46665	0.497	-0.042
Mof_C 	C 	0.9758	0.40642	0.5446	-0.028
Mof_H 	H 	0.8956	0.4099	0.5759	0.036
Mof_C 	C 	0.0315	0.34955	0.5401	-0.016
Mof_H 	H 	0.991	0.3116	0.5687	0.01
Mof_N 	N 	0.1489	0.34447	0.4939	-0.222
Mof_O 	O 	0.0885	0.20153	0.3499	-0.533
Mof_C 	C 	0.7081	0.90012	0.4495	0.096
Mof_H 	H 	0.7892	0.8966	0.4207	-0.025
Mof_C 	C 	0.6535	0.95715	0.4469	-0.159
Mof_H 	H 	0.6939	0.9948	0.4162	0.083
Mof_C 	C 	0.5322	0.96665	0.497	0.076
Mof_C 	C 	0.4758	0.90642	0.5446	-0.165
Mof_H 	H 	0.3956	0.9099	0.5759	0.085
Mof_C 	C 	0.5315	0.84955	0.5401	0.101
Mof_H 	H 	0.491	0.8116	0.5687	-0.04
Mof_N 	N 	0.6489	0.84447	0.4939	-0.249
Mof_O 	O 	0.5885	0.70153	0.3499	-0.536
Mof_C 	C 	0.2081	0.59988	0.9495	0.136
Mof_H 	H 	0.2892	0.6034	0.9207	-0.02
Mof_C 	C 	0.1535	0.54285	0.9469	-0.202
Mof_H 	H 	0.1939	0.5052	0.9162	0.109
Mof_C 	C 	0.0322	0.53335	0.997	0.181
Mof_C 	C 	0.9758	0.59358	0.0446	-0.194
Mof_H 	H 	0.8956	0.5901	0.0759	0.081
Mof_C 	C 	0.0315	0.65045	0.0401	-0.002
Mof_H 	H 	0.991	0.6884	0.0687	-0.014
Mof_N 	N 	0.1489	0.65553	0.9939	-0.202
Mof_O 	O 	0.0885	0.79847	0.8499	-0.487
Mof_C 	C 	0.7081	0.09988	0.9495	0.175
Mof_H 	H 	0.7892	0.1034	0.9207	-0.034
Mof_C 	C 	0.6535	0.04285	0.9469	-0.258
Mof_H 	H 	0.6939	0.0052	0.9162	0.127
Mof_C 	C 	0.5322	0.03335	0.997	0.259
Mof_C 	C 	0.4758	0.09358	0.0446	-0.315
Mof_H 	H 	0.3956	0.0901	0.0759	0.118
Mof_C 	C 	0.5315	0.15045	0.0401	0.11
Mof_H 	H 	0.491	0.1884	0.0687	-0.065
Mof_N 	N 	0.6489	0.15553	0.9939	-0.227
Mof_O 	O 	0.5885	0.29847	0.8499	-0.492
Mof_C 	C 	0.7919	0.59988	0.5505	0.139
Mof_H 	H 	0.7108	0.6034	0.5793	-0.032
Mof_C 	C 	0.8465	0.54285	0.5531	-0.212
Mof_H 	H 	0.8061	0.5052	0.5838	0.108
Mof_C 	C 	0.9678	0.53335	0.503	0.152
Mof_C 	C 	0.0242	0.59358	0.4554	-0.277
Mof_H 	H 	0.1044	0.5901	0.4241	0.115
Mof_C 	C 	0.9685	0.65045	0.4599	0.203
Mof_H 	H 	0.009	0.6884	0.4313	-0.09
Mof_N 	N 	0.8511	0.65553	0.5061	-0.27
Mof_O 	O 	0.9115	0.79847	0.6501	-0.501
Mof_C 	C 	0.2919	0.09988	0.5505	0.083
Mof_H 	H 	0.2108	0.1034	0.5793	-0.016
Mof_C 	C 	0.3465	0.04285	0.5531	-0.133
Mof_H 	H 	0.3061	0.0052	0.5838	0.073
Mof_C 	C 	0.4678	0.03335	0.503	0.034
Mof_C 	C 	0.5242	0.09358	0.4554	-0.139
Mof_H 	H 	0.6044	0.0901	0.4241	0.067
Mof_C 	C 	0.4685	0.15045	0.4599	0.084
Mof_H 	H 	0.509	0.1884	0.4313	-0.04
Mof_N 	N 	0.3511	0.15553	0.5061	-0.243
Mof_O 	O 	0.4115	0.29847	0.6501	-0.519
Mof_C 	C 	8.79694e-34	0.2272	0.25	0.578
Mof_H 	H 	8.79694e-34	0.2732	0.25	-0.223
Mof_C 	C 	0.5	0.7272	0.25	0.608
Mof_H 	H 	0.5	0.7732	0.25	-0.227
Mof_C 	C 	2.63908e-33	0.7728	0.75	0.561
Mof_H 	H 	2.63908e-33	0.7268	0.75	-0.198
Mof_C 	C 	0.5	0.2728	0.75	0.588
Mof_H 	H 	0.5	0.2268	0.75	-0.203
Mof_Co	Co	0.75	0.25	-0	1.079
Mof_Co	Co	0.25	0.25	0.5	1.104
Mof_Co	Co	0.25	0.75	-0	1.076
Mof_Co	Co	0.75	0.75	0.5	1.106
_end
