data_functionalizedCrystal
_audit_creation_method	'EQeq! by Chris Wilmer'
_symmetry_space_group_name_H-M	'P1'
_symmetry_Int_Tables_number	1
_symmetry_cell_setting	triclinic
loop_
_symmetry_equiv_pos_as_xyz
  x,y,z
_cell_length_a	22.2549
_cell_length_b	9.4868
_cell_length_c	15.7184
_cell_angle_alpha	90
_cell_angle_beta	91.476
_cell_angle_gamma	90
loop_
_atom_site_label
_atom_site_type_symbol
_atom_site_fract_x
_atom_site_fract_y
_atom_site_fract_z
_atom_site_charge
Mof_Ag	Ag	0.32965	0.18669	0.60842	0.537
Mof_S 	S 	0.28822	0.14533	0.41815	-0.15
Mof_N 	N 	0.38349	0.2378	0.49531	-0.19
Mof_N 	N 	0.44131	0.3456	0.35557	-0.164
Mof_N 	N 	0.21553	0.16399	0.28465	-0.17
Mof_N 	N 	0.28255	0.9912	0.18023	-0.163
Mof_C 	C 	0.35895	0.227	0.41622	0.06
Mof_C 	C 	0.38768	0.283	0.34679	-0.036
Mof_H 	H 	0.3693	0.2769	0.2931	0.024
Mof_C 	C 	0.46518	0.3544	0.43402	-0.019
Mof_H 	H 	0.5023	0.3979	0.4421	0.003
Mof_C 	C 	0.43648	0.301	0.50346	0.008
Mof_H 	H 	0.4546	0.3093	0.5572	-0.016
Mof_C 	C 	0.26849	0.1107	0.31029	0.061
Mof_C 	C 	0.30153	0.0232	0.25929	-0.028
Mof_H 	H 	0.3376	0.9858	0.2802	0.015
Mof_C 	C 	0.23048	0.0458	0.15353	-0.002
Mof_H 	H 	0.2165	0.0272	0.0984	0.011
Mof_C 	C 	0.19676	0.1295	0.20592	0.005
Mof_H 	H 	0.1598	0.1629	0.1858	0.001
Mof_Ag	Ag	0.82965	0.68669	0.60842	0.542
Mof_S 	S 	0.78822	0.64533	0.41815	-0.15
Mof_N 	N 	0.88349	0.7378	0.49531	-0.185
Mof_N 	N 	0.94131	0.8456	0.35557	-0.165
Mof_N 	N 	0.71553	0.66399	0.28465	-0.17
Mof_N 	N 	0.78255	0.4912	0.18023	-0.162
Mof_C 	C 	0.85895	0.727	0.41622	0.059
Mof_C 	C 	0.88768	0.783	0.34679	-0.032
Mof_H 	H 	0.8693	0.7769	0.2931	0.026
Mof_C 	C 	0.96518	0.8544	0.43402	0.033
Mof_H 	H 	0.0023	0.8979	0.4421	-0.028
Mof_C 	C 	0.93648	0.801	0.50346	-0.014
Mof_H 	H 	0.9546	0.8093	0.5572	-0.001
Mof_C 	C 	0.76849	0.6107	0.31029	0.062
Mof_C 	C 	0.80153	0.5232	0.25929	-0.029
Mof_H 	H 	0.8376	0.4858	0.2802	0.018
Mof_C 	C 	0.73048	0.5458	0.15353	-0.002
Mof_H 	H 	0.7165	0.5272	0.0984	0.011
Mof_C 	C 	0.69676	0.6295	0.20592	0.005
Mof_H 	H 	0.6598	0.6629	0.1858	0.001
Mof_Ag	Ag	0.67035	0.18669	0.89158	0.534
Mof_S 	S 	0.71178	0.14533	0.08185	-0.15
Mof_N 	N 	0.61651	0.2378	0.00469	-0.188
Mof_N 	N 	0.55869	0.3456	0.14443	-0.165
Mof_N 	N 	0.78447	0.16399	0.21535	-0.17
Mof_N 	N 	0.71745	0.9912	0.31977	-0.163
Mof_C 	C 	0.64105	0.227	0.08378	0.059
Mof_C 	C 	0.61232	0.283	0.15321	-0.035
Mof_H 	H 	0.6307	0.2769	0.2069	0.024
Mof_C 	C 	0.53482	0.3544	0.06598	-0.015
Mof_H 	H 	0.4977	0.3979	0.0579	0.002
Mof_C 	C 	0.56352	0.301	0.99654	0.004
Mof_H 	H 	0.5454	0.3093	0.9428	-0.014
Mof_C 	C 	0.73151	0.1107	0.18971	0.061
Mof_C 	C 	0.69847	0.0232	0.24071	-0.028
Mof_H 	H 	0.6624	0.9858	0.2198	0.015
Mof_C 	C 	0.76952	0.0458	0.34647	-0.002
Mof_H 	H 	0.7835	0.0272	0.4016	0.011
Mof_C 	C 	0.80324	0.1295	0.29408	0.005
Mof_H 	H 	0.8402	0.1629	0.3142	0.004
Mof_Ag	Ag	0.17035	0.68669	0.89158	0.532
Mof_S 	S 	0.21178	0.64533	0.08185	-0.151
Mof_N 	N 	0.11651	0.7378	0.00469	-0.193
Mof_N 	N 	0.05869	0.8456	0.14443	-0.156
Mof_N 	N 	0.28447	0.66399	0.21535	-0.17
Mof_N 	N 	0.21745	0.4912	0.31977	-0.163
Mof_C 	C 	0.14105	0.727	0.08378	0.061
Mof_C 	C 	0.11232	0.783	0.15321	-0.039
Mof_H 	H 	0.1307	0.7769	0.2069	0.025
Mof_C 	C 	0.03482	0.8544	0.06598	-0.064
Mof_H 	H 	0.9977	0.8979	0.0579	0.036
Mof_C 	C 	0.06352	0.801	0.99654	0.026
Mof_H 	H 	0.0454	0.8093	0.9428	-0.026
Mof_C 	C 	0.23151	0.6107	0.18971	0.061
Mof_C 	C 	0.19847	0.5232	0.24071	-0.029
Mof_H 	H 	0.1624	0.4858	0.2198	0.014
Mof_C 	C 	0.26952	0.5458	0.34647	-0.003
Mof_H 	H 	0.2835	0.5272	0.4016	0.011
Mof_C 	C 	0.30324	0.6295	0.29408	0.005
Mof_H 	H 	0.3402	0.6629	0.3142	0.001
Mof_Ag	Ag	0.67035	0.81331	0.39158	0.536
Mof_S 	S 	0.71178	0.85467	0.58185	-0.151
Mof_N 	N 	0.61651	0.7622	0.50469	-0.19
Mof_N 	N 	0.55869	0.6544	0.64443	-0.164
Mof_N 	N 	0.78447	0.83601	0.71535	-0.17
Mof_N 	N 	0.71745	0.0088	0.81977	-0.163
Mof_C 	C 	0.64105	0.773	0.58378	0.06
Mof_C 	C 	0.61232	0.717	0.65321	-0.036
Mof_H 	H 	0.6307	0.7231	0.7069	0.024
Mof_C 	C 	0.53482	0.6456	0.56598	-0.019
Mof_H 	H 	0.4977	0.6021	0.5579	0.003
Mof_C 	C 	0.56352	0.699	0.49654	0.008
Mof_H 	H 	0.5454	0.6907	0.4428	-0.016
Mof_C 	C 	0.73151	0.8893	0.68971	0.061
Mof_C 	C 	0.69847	0.9768	0.74071	-0.028
Mof_H 	H 	0.6624	0.0142	0.7198	0.015
Mof_C 	C 	0.76952	0.9542	0.84647	-0.002
Mof_H 	H 	0.7835	0.9728	0.9016	0.011
Mof_C 	C 	0.80324	0.8705	0.79408	0.005
Mof_H 	H 	0.8402	0.8371	0.8142	0.004
Mof_Ag	Ag	0.17035	0.31331	0.39158	0.533
Mof_S 	S 	0.21178	0.35467	0.58185	-0.152
Mof_N 	N 	0.11651	0.2622	0.50469	-0.195
Mof_N 	N 	0.05869	0.1544	0.64443	-0.155
Mof_N 	N 	0.28447	0.33601	0.71535	-0.17
Mof_N 	N 	0.21745	0.5088	0.81977	-0.163
Mof_C 	C 	0.14105	0.273	0.58378	0.062
Mof_C 	C 	0.11232	0.217	0.65321	-0.04
Mof_H 	H 	0.1307	0.2231	0.7069	0.025
Mof_C 	C 	0.03482	0.1456	0.56598	-0.07
Mof_H 	H 	0.9977	0.1021	0.5579	0.038
Mof_C 	C 	0.06352	0.199	0.49654	0.032
Mof_H 	H 	0.0454	0.1907	0.4428	-0.028
Mof_C 	C 	0.23151	0.3893	0.68971	0.061
Mof_C 	C 	0.19847	0.4768	0.74071	-0.029
Mof_H 	H 	0.1624	0.5142	0.7198	0.014
Mof_C 	C 	0.26952	0.4542	0.84647	-0.003
Mof_H 	H 	0.2835	0.4728	0.9016	0.01
Mof_C 	C 	0.30324	0.3705	0.79408	0.005
Mof_H 	H 	0.3402	0.3371	0.8142	0.001
Mof_Ag	Ag	0.32965	0.81331	0.10842	0.537
Mof_S 	S 	0.28822	0.85467	0.91815	-0.152
Mof_N 	N 	0.38349	0.7622	0.99531	-0.191
Mof_N 	N 	0.44131	0.6544	0.85557	-0.163
Mof_N 	N 	0.21553	0.83601	0.78465	-0.17
Mof_N 	N 	0.28255	0.0088	0.68023	-0.163
Mof_C 	C 	0.35895	0.773	0.91622	0.06
Mof_C 	C 	0.38768	0.717	0.84679	-0.037
Mof_H 	H 	0.3693	0.7231	0.7931	0.024
Mof_C 	C 	0.46518	0.6456	0.93402	-0.022
Mof_H 	H 	0.5023	0.6021	0.9421	0.003
Mof_C 	C 	0.43648	0.699	0.00346	0.012
Mof_H 	H 	0.4546	0.6907	0.0572	-0.017
Mof_C 	C 	0.26849	0.8893	0.81029	0.061
Mof_C 	C 	0.30153	0.9768	0.75929	-0.028
Mof_H 	H 	0.3376	0.0142	0.7802	0.015
Mof_C 	C 	0.23048	0.9542	0.65353	-0.003
Mof_H 	H 	0.2165	0.9728	0.5984	0.011
Mof_C 	C 	0.19676	0.8705	0.70592	0.005
Mof_H 	H 	0.1598	0.8371	0.6858	0
Mof_Ag	Ag	0.82965	0.31331	0.10842	0.543
Mof_S 	S 	0.78822	0.35467	0.91815	-0.151
Mof_N 	N 	0.88349	0.2622	0.99531	-0.186
Mof_N 	N 	0.94131	0.1544	0.85557	-0.164
Mof_N 	N 	0.71553	0.33601	0.78465	-0.17
Mof_N 	N 	0.78255	0.5088	0.68023	-0.162
Mof_C 	C 	0.85895	0.273	0.91622	0.059
Mof_C 	C 	0.88768	0.217	0.84679	-0.033
Mof_H 	H 	0.8693	0.2231	0.7931	0.026
Mof_C 	C 	0.96518	0.1456	0.93402	0.031
Mof_H 	H 	0.0023	0.1021	0.9421	-0.029
Mof_C 	C 	0.93648	0.199	0.00346	-0.012
Mof_H 	H 	0.9546	0.1907	0.0572	-0.001
Mof_C 	C 	0.76849	0.3893	0.81029	0.062
Mof_C 	C 	0.80153	0.4768	0.75929	-0.029
Mof_H 	H 	0.8376	0.5142	0.7802	0.018
Mof_C 	C 	0.73048	0.4542	0.65353	-0.002
Mof_H 	H 	0.7165	0.4728	0.5984	0.011
Mof_C 	C 	0.69676	0.3705	0.70592	0.005
Mof_H 	H 	0.6598	0.3371	0.6858	0.001
Mof_Ag	Ag	0.5	0.42475	0.25	0.431
Mof_Ag	Ag	6.79093e-34	0.92475	0.25	0.402
Mof_Ag	Ag	0.5	0.57525	0.75	0.431
Mof_Ag	Ag	2.14181e-18	0.07525	0.75	0.4
_end
