data_functionalizedCrystal
_audit_creation_method	'EQeq! by Chris Wilmer'
_symmetry_space_group_name_H-M	'P1'
_symmetry_Int_Tables_number	1
_symmetry_cell_setting	triclinic
loop_
_symmetry_equiv_pos_as_xyz
  x,y,z
_cell_length_a	15.51
_cell_length_b	19.707
_cell_length_c	19.707
_cell_angle_alpha	90
_cell_angle_beta	90
_cell_angle_gamma	90
loop_
_atom_site_label
_atom_site_type_symbol
_atom_site_fract_x
_atom_site_fract_y
_atom_site_fract_z
_atom_site_charge
Mof_Zn	Zn	-7.19062e-33	0.75	0.25	1.165
Mof_Zn	Zn	-1.31902e-32	0.25	0.75	1.165
Mof_Zn	Zn	0.5	0.25	0.75	1.183
Mof_Zn	Zn	0.5	0.75	0.25	1.183
Mof_Zn	Zn	0.31563	0.75	0.75	1.197
Mof_Zn	Zn	0.18437	0.25	0.25	1.197
Mof_Zn	Zn	0.68437	0.25	0.25	1.198
Mof_Zn	Zn	0.81563	0.75	0.75	1.198
Mof_H 	H 	0.2424	0.7373	0.4145	0.121
Mof_H 	H 	0.1551	0.7855	0.3323	-0.02
Mof_H 	H 	0.0098	0.6208	0.3248	-0.021
Mof_H 	H 	0.0916	0.5686	0.4079	0.103
Mof_H 	H 	0.3585	0.5861	0.5534	0.109
Mof_H 	H 	0.3928	0.6424	0.6527	0.009
Mof_H 	H 	0.2138	0.7792	0.6205	-0.008
Mof_H 	H 	0.1706	0.7266	0.5217	0.108
Mof_H 	H 	0.3001	0.5301	0.484	0.034
Mof_H 	H 	0.2424	0.7627	0.0855	0.122
Mof_H 	H 	0.1551	0.7145	0.1677	-0.019
Mof_H 	H 	0.0098	0.8792	0.1752	-0.02
Mof_H 	H 	0.0916	0.9314	0.0921	0.104
Mof_H 	H 	0.3585	0.9139	0.9466	0.11
Mof_H 	H 	0.3928	0.8576	0.8473	0.009
Mof_H 	H 	0.2138	0.7208	0.8795	-0.008
Mof_H 	H 	0.1706	0.7734	0.9783	0.108
Mof_H 	H 	0.3001	0.9699	0.016	0.035
Mof_H 	H 	0.2424	0.0855	0.7373	0.122
Mof_H 	H 	0.1551	0.1677	0.7855	-0.019
Mof_H 	H 	0.0098	0.1752	0.6208	-0.02
Mof_H 	H 	0.0916	0.0921	0.5686	0.104
Mof_H 	H 	0.3585	0.9466	0.5861	0.11
Mof_H 	H 	0.3928	0.8473	0.6424	0.009
Mof_H 	H 	0.2138	0.8795	0.7792	-0.008
Mof_H 	H 	0.1706	0.9783	0.7266	0.108
Mof_H 	H 	0.3001	0.016	0.5301	0.035
Mof_H 	H 	0.2424	0.4145	0.7627	0.122
Mof_H 	H 	0.1551	0.3323	0.7145	-0.019
Mof_H 	H 	0.0098	0.3248	0.8792	-0.02
Mof_H 	H 	0.0916	0.4079	0.9314	0.104
Mof_H 	H 	0.3585	0.5534	0.9139	0.11
Mof_H 	H 	0.3928	0.6527	0.8576	0.009
Mof_H 	H 	0.2138	0.6205	0.7208	-0.008
Mof_H 	H 	0.1706	0.5217	0.7734	0.108
Mof_H 	H 	0.3001	0.484	0.9699	0.034
Mof_H 	H 	0.2576	0.2627	0.9145	0.123
Mof_H 	H 	0.3449	0.2145	0.8323	-0.016
Mof_H 	H 	0.4902	0.3792	0.8248	-0.005
Mof_H 	H 	0.4084	0.4314	0.9079	0.111
Mof_H 	H 	0.1415	0.4139	0.0534	0.107
Mof_H 	H 	0.1072	0.3576	0.1527	0.004
Mof_H 	H 	0.2862	0.2208	0.1205	-0.003
Mof_H 	H 	0.3294	0.2734	0.0217	0.119
Mof_H 	H 	0.1999	0.4699	0.984	0.031
Mof_H 	H 	0.2576	0.2373	0.5855	0.123
Mof_H 	H 	0.3449	0.2855	0.6677	-0.016
Mof_H 	H 	0.4902	0.1208	0.6752	-0.005
Mof_H 	H 	0.4084	0.0686	0.5921	0.111
Mof_H 	H 	0.1415	0.0861	0.4466	0.107
Mof_H 	H 	0.1072	0.1424	0.3473	0.004
Mof_H 	H 	0.2862	0.2792	0.3795	-0.003
Mof_H 	H 	0.3294	0.2266	0.4783	0.119
Mof_H 	H 	0.1999	0.0301	0.516	0.031
Mof_H 	H 	0.2576	0.9145	0.2373	0.123
Mof_H 	H 	0.3449	0.8323	0.2855	-0.016
Mof_H 	H 	0.4902	0.8248	0.1208	-0.005
Mof_H 	H 	0.4084	0.9079	0.0686	0.112
Mof_H 	H 	0.1415	0.0534	0.0861	0.107
Mof_H 	H 	0.1072	0.1527	0.1424	0.004
Mof_H 	H 	0.2862	0.1205	0.2792	-0.003
Mof_H 	H 	0.3294	0.0217	0.2266	0.119
Mof_H 	H 	0.1999	0.984	0.0301	0.032
Mof_H 	H 	0.2576	0.5855	0.2627	0.123
Mof_H 	H 	0.3449	0.6677	0.2145	-0.016
Mof_H 	H 	0.4902	0.6752	0.3792	-0.005
Mof_H 	H 	0.4084	0.5921	0.4314	0.111
Mof_H 	H 	0.1415	0.4466	0.4139	0.107
Mof_H 	H 	0.1072	0.3473	0.3576	0.004
Mof_H 	H 	0.2862	0.3795	0.2208	-0.003
Mof_H 	H 	0.3294	0.4783	0.2734	0.119
Mof_H 	H 	0.1999	0.516	0.4699	0.031
Mof_H 	H 	0.7576	0.2627	0.5855	0.124
Mof_H 	H 	0.8449	0.2145	0.6677	-0.011
Mof_H 	H 	0.9902	0.3792	0.6752	0.012
Mof_H 	H 	0.9084	0.4314	0.5921	0.119
Mof_H 	H 	0.6415	0.4139	0.4466	0.112
Mof_H 	H 	0.6072	0.3576	0.3473	0.008
Mof_H 	H 	0.7862	0.2208	0.3795	0.002
Mof_H 	H 	0.8294	0.2734	0.4783	0.13
Mof_H 	H 	0.6999	0.4699	0.516	0.037
Mof_H 	H 	0.7576	0.2373	0.9145	0.124
Mof_H 	H 	0.8449	0.2855	0.8323	-0.011
Mof_H 	H 	0.9902	0.1208	0.8248	0.012
Mof_H 	H 	0.9084	0.0686	0.9079	0.119
Mof_H 	H 	0.6415	0.0861	0.0534	0.112
Mof_H 	H 	0.6072	0.1424	0.1527	0.008
Mof_H 	H 	0.7862	0.2792	0.1205	0.002
Mof_H 	H 	0.8294	0.2266	0.0217	0.13
Mof_H 	H 	0.6999	0.0301	0.984	0.037
Mof_H 	H 	0.7576	0.9145	0.2627	0.124
Mof_H 	H 	0.8449	0.8323	0.2145	-0.011
Mof_H 	H 	0.9902	0.8248	0.3792	0.012
Mof_H 	H 	0.9084	0.9079	0.4314	0.119
Mof_H 	H 	0.6415	0.0534	0.4139	0.112
Mof_H 	H 	0.6072	0.1527	0.3576	0.008
Mof_H 	H 	0.7862	0.1205	0.2208	0.002
Mof_H 	H 	0.8294	0.0217	0.2734	0.13
Mof_H 	H 	0.6999	0.984	0.4699	0.037
Mof_H 	H 	0.7576	0.5855	0.2373	0.124
Mof_H 	H 	0.8449	0.6677	0.2855	-0.011
Mof_H 	H 	0.9902	0.6752	0.1208	0.012
Mof_H 	H 	0.9084	0.5921	0.0686	0.119
Mof_H 	H 	0.6415	0.4466	0.0861	0.112
Mof_H 	H 	0.6072	0.3473	0.1424	0.008
Mof_H 	H 	0.7862	0.3795	0.2792	0.002
Mof_H 	H 	0.8294	0.4783	0.2266	0.13
Mof_H 	H 	0.6999	0.516	0.0301	0.037
Mof_H 	H 	0.7424	0.7373	0.0855	0.123
Mof_H 	H 	0.6551	0.7855	0.1677	-0.015
Mof_H 	H 	0.5098	0.6208	0.1752	-0.005
Mof_H 	H 	0.5916	0.5686	0.0921	0.111
Mof_H 	H 	0.8585	0.5861	0.9466	0.116
Mof_H 	H 	0.8928	0.6424	0.8473	0.014
Mof_H 	H 	0.7138	0.7792	0.8795	-0.003
Mof_H 	H 	0.6706	0.7266	0.9783	0.119
Mof_H 	H 	0.8001	0.5301	0.016	0.04
Mof_H 	H 	0.7424	0.7627	0.4145	0.123
Mof_H 	H 	0.6551	0.7145	0.3323	-0.015
Mof_H 	H 	0.5098	0.8792	0.3248	-0.005
Mof_H 	H 	0.5916	0.9314	0.4079	0.111
Mof_H 	H 	0.8585	0.9139	0.5534	0.116
Mof_H 	H 	0.8928	0.8576	0.6527	0.014
Mof_H 	H 	0.7138	0.7208	0.6205	-0.003
Mof_H 	H 	0.6706	0.7734	0.5217	0.119
Mof_H 	H 	0.8001	0.9699	0.484	0.04
Mof_H 	H 	0.7424	0.0855	0.7627	0.123
Mof_H 	H 	0.6551	0.1677	0.7145	-0.015
Mof_H 	H 	0.5098	0.1752	0.8792	-0.005
Mof_H 	H 	0.5916	0.0921	0.9314	0.111
Mof_H 	H 	0.8585	0.9466	0.9139	0.115
Mof_H 	H 	0.8928	0.8473	0.8576	0.014
Mof_H 	H 	0.7138	0.8795	0.7208	-0.003
Mof_H 	H 	0.6706	0.9783	0.7734	0.119
Mof_H 	H 	0.8001	0.016	0.9699	0.04
Mof_H 	H 	0.7424	0.4145	0.7373	0.123
Mof_H 	H 	0.6551	0.3323	0.7855	-0.015
Mof_H 	H 	0.5098	0.3248	0.6208	-0.005
Mof_H 	H 	0.5916	0.4079	0.5686	0.111
Mof_H 	H 	0.8585	0.5534	0.5861	0.116
Mof_H 	H 	0.8928	0.6527	0.6424	0.014
Mof_H 	H 	0.7138	0.6205	0.7792	-0.003
Mof_H 	H 	0.6706	0.5217	0.7266	0.119
Mof_H 	H 	0.8001	0.484	0.5301	0.04
Mof_C 	C 	0.19463	0.7127	0.39699	-0.196
Mof_C 	C 	0.14261	0.74094	0.3479	0.107
Mof_C 	C 	0.05734	0.64459	0.34367	0.114
Mof_C 	C 	0.10586	0.61306	0.393	-0.18
Mof_C 	C 	0.17626	0.64729	0.42084	0.179
Mof_C 	C 	0.25872	0.64885	0.52605	0.173
Mof_C 	C 	0.32668	0.62519	0.56649	-0.177
Mof_C 	C 	0.34687	0.65939	0.62567	0.111
Mof_C 	C 	0.24242	0.73874	0.60711	0.116
Mof_C 	C 	0.21648	0.70801	0.54767	-0.185
Mof_C 	C 	0.19463	0.7873	0.10301	-0.196
Mof_C 	C 	0.14261	0.75906	0.1521	0.107
Mof_C 	C 	0.05734	0.85541	0.15633	0.114
Mof_C 	C 	0.10586	0.88694	0.107	-0.18
Mof_C 	C 	0.17626	0.85271	0.07916	0.18
Mof_C 	C 	0.25872	0.85115	0.97395	0.172
Mof_C 	C 	0.32668	0.87481	0.93351	-0.176
Mof_C 	C 	0.34687	0.84061	0.87433	0.11
Mof_C 	C 	0.24242	0.76126	0.89289	0.116
Mof_C 	C 	0.21648	0.79199	0.95233	-0.185
Mof_C 	C 	0.19463	0.10301	0.7127	-0.196
Mof_C 	C 	0.14261	0.1521	0.74094	0.107
Mof_C 	C 	0.05734	0.15633	0.64459	0.114
Mof_C 	C 	0.10586	0.107	0.61306	-0.18
Mof_C 	C 	0.17626	0.07916	0.64729	0.18
Mof_C 	C 	0.25872	0.97395	0.64885	0.172
Mof_C 	C 	0.32668	0.93351	0.62519	-0.176
Mof_C 	C 	0.34687	0.87433	0.65939	0.111
Mof_C 	C 	0.24242	0.89289	0.73874	0.116
Mof_C 	C 	0.21648	0.95233	0.70801	-0.185
Mof_C 	C 	0.19463	0.39699	0.7873	-0.196
Mof_C 	C 	0.14261	0.3479	0.75906	0.107
Mof_C 	C 	0.05734	0.34367	0.85541	0.114
Mof_C 	C 	0.10586	0.393	0.88694	-0.18
Mof_C 	C 	0.17626	0.42084	0.85271	0.179
Mof_C 	C 	0.25872	0.52605	0.85115	0.173
Mof_C 	C 	0.32668	0.56649	0.87481	-0.177
Mof_C 	C 	0.34687	0.62567	0.84061	0.111
Mof_C 	C 	0.24242	0.60711	0.76126	0.116
Mof_C 	C 	0.21648	0.54767	0.79199	-0.185
Mof_C 	C 	0.30537	0.2873	0.89699	-0.195
Mof_C 	C 	0.35739	0.25906	0.8479	0.115
Mof_C 	C 	0.44266	0.35541	0.84367	0.122
Mof_C 	C 	0.39414	0.38694	0.893	-0.175
Mof_C 	C 	0.32374	0.35271	0.92084	0.185
Mof_C 	C 	0.24128	0.35115	0.02605	0.177
Mof_C 	C 	0.17332	0.37481	0.06649	-0.178
Mof_C 	C 	0.15313	0.34061	0.12567	0.111
Mof_C 	C 	0.25758	0.26126	0.10711	0.12
Mof_C 	C 	0.28352	0.29199	0.04767	-0.185
Mof_C 	C 	0.30537	0.2127	0.60301	-0.195
Mof_C 	C 	0.35739	0.24094	0.6521	0.115
Mof_C 	C 	0.44266	0.14459	0.65633	0.122
Mof_C 	C 	0.39414	0.11306	0.607	-0.175
Mof_C 	C 	0.32374	0.14729	0.57916	0.185
Mof_C 	C 	0.24128	0.14885	0.47395	0.177
Mof_C 	C 	0.17332	0.12519	0.43351	-0.178
Mof_C 	C 	0.15313	0.15939	0.37433	0.111
Mof_C 	C 	0.25758	0.23874	0.39289	0.12
Mof_C 	C 	0.28352	0.20801	0.45233	-0.185
Mof_C 	C 	0.30537	0.89699	0.2127	-0.195
Mof_C 	C 	0.35739	0.8479	0.24094	0.115
Mof_C 	C 	0.44266	0.84367	0.14459	0.122
Mof_C 	C 	0.39414	0.893	0.11306	-0.175
Mof_C 	C 	0.32374	0.92084	0.14729	0.185
Mof_C 	C 	0.24128	0.02605	0.14885	0.177
Mof_C 	C 	0.17332	0.06649	0.12519	-0.178
Mof_C 	C 	0.15313	0.12567	0.15939	0.111
Mof_C 	C 	0.25758	0.10711	0.23874	0.12
Mof_C 	C 	0.28352	0.04767	0.20801	-0.185
Mof_C 	C 	0.30537	0.60301	0.2873	-0.195
Mof_C 	C 	0.35739	0.6521	0.25906	0.115
Mof_C 	C 	0.44266	0.65633	0.35541	0.122
Mof_C 	C 	0.39414	0.607	0.38694	-0.175
Mof_C 	C 	0.32374	0.57916	0.35271	0.185
Mof_C 	C 	0.24128	0.47395	0.35115	0.177
Mof_C 	C 	0.17332	0.43351	0.37481	-0.178
Mof_C 	C 	0.15313	0.37433	0.34061	0.111
Mof_C 	C 	0.25758	0.39289	0.26126	0.12
Mof_C 	C 	0.28352	0.45233	0.29199	-0.185
Mof_C 	C 	0.80537	0.2873	0.60301	-0.193
Mof_C 	C 	0.85739	0.25906	0.6521	0.123
Mof_C 	C 	0.94266	0.35541	0.65633	0.129
Mof_C 	C 	0.89414	0.38694	0.607	-0.17
Mof_C 	C 	0.82374	0.35271	0.57916	0.189
Mof_C 	C 	0.74128	0.35115	0.47395	0.182
Mof_C 	C 	0.67332	0.37481	0.43351	-0.178
Mof_C 	C 	0.65313	0.34061	0.37433	0.115
Mof_C 	C 	0.75758	0.26126	0.39289	0.125
Mof_C 	C 	0.78352	0.29199	0.45233	-0.185
Mof_C 	C 	0.80537	0.2127	0.89699	-0.193
Mof_C 	C 	0.85739	0.24094	0.8479	0.123
Mof_C 	C 	0.94266	0.14459	0.84367	0.129
Mof_C 	C 	0.89414	0.11306	0.893	-0.17
Mof_C 	C 	0.82374	0.14729	0.92084	0.189
Mof_C 	C 	0.74128	0.14885	0.02605	0.181
Mof_C 	C 	0.67332	0.12519	0.06649	-0.178
Mof_C 	C 	0.65313	0.15939	0.12567	0.114
Mof_C 	C 	0.75758	0.23874	0.10711	0.124
Mof_C 	C 	0.78352	0.20801	0.04767	-0.185
Mof_C 	C 	0.80537	0.89699	0.2873	-0.193
Mof_C 	C 	0.85739	0.8479	0.25906	0.123
Mof_C 	C 	0.94266	0.84367	0.35541	0.129
Mof_C 	C 	0.89414	0.893	0.38694	-0.17
Mof_C 	C 	0.82374	0.92084	0.35271	0.189
Mof_C 	C 	0.74128	0.02605	0.35115	0.182
Mof_C 	C 	0.67332	0.06649	0.37481	-0.178
Mof_C 	C 	0.65313	0.12567	0.34061	0.115
Mof_C 	C 	0.75758	0.10711	0.26126	0.125
Mof_C 	C 	0.78352	0.04767	0.29199	-0.185
Mof_C 	C 	0.80537	0.60301	0.2127	-0.193
Mof_C 	C 	0.85739	0.6521	0.24094	0.123
Mof_C 	C 	0.94266	0.65633	0.14459	0.129
Mof_C 	C 	0.89414	0.607	0.11306	-0.17
Mof_C 	C 	0.82374	0.57916	0.14729	0.189
Mof_C 	C 	0.74128	0.47395	0.14885	0.182
Mof_C 	C 	0.67332	0.43351	0.12519	-0.178
Mof_C 	C 	0.65313	0.37433	0.15939	0.115
Mof_C 	C 	0.75758	0.39289	0.23874	0.125
Mof_C 	C 	0.78352	0.45233	0.20801	-0.185
Mof_C 	C 	0.69463	0.7127	0.10301	-0.195
Mof_C 	C 	0.64261	0.74094	0.1521	0.115
Mof_C 	C 	0.55734	0.64459	0.15633	0.122
Mof_C 	C 	0.60586	0.61306	0.107	-0.175
Mof_C 	C 	0.67626	0.64729	0.07916	0.184
Mof_C 	C 	0.75872	0.64885	0.97395	0.178
Mof_C 	C 	0.82668	0.62519	0.93351	-0.177
Mof_C 	C 	0.84687	0.65939	0.87433	0.114
Mof_C 	C 	0.74242	0.73874	0.89289	0.121
Mof_C 	C 	0.71648	0.70801	0.95233	-0.185
Mof_C 	C 	0.69463	0.7873	0.39699	-0.195
Mof_C 	C 	0.64261	0.75906	0.3479	0.115
Mof_C 	C 	0.55734	0.85541	0.34367	0.122
Mof_C 	C 	0.60586	0.88694	0.393	-0.175
Mof_C 	C 	0.67626	0.85271	0.42084	0.184
Mof_C 	C 	0.75872	0.85115	0.52605	0.178
Mof_C 	C 	0.82668	0.87481	0.56649	-0.177
Mof_C 	C 	0.84687	0.84061	0.62567	0.114
Mof_C 	C 	0.74242	0.76126	0.60711	0.121
Mof_C 	C 	0.71648	0.79199	0.54767	-0.185
Mof_C 	C 	0.69463	0.10301	0.7873	-0.195
Mof_C 	C 	0.64261	0.1521	0.75906	0.115
Mof_C 	C 	0.55734	0.15633	0.85541	0.122
Mof_C 	C 	0.60586	0.107	0.88694	-0.175
Mof_C 	C 	0.67626	0.07916	0.85271	0.184
Mof_C 	C 	0.75872	0.97395	0.85115	0.177
Mof_C 	C 	0.82668	0.93351	0.87481	-0.177
Mof_C 	C 	0.84687	0.87433	0.84061	0.114
Mof_C 	C 	0.74242	0.89289	0.76126	0.121
Mof_C 	C 	0.71648	0.95233	0.79199	-0.185
Mof_C 	C 	0.69463	0.39699	0.7127	-0.195
Mof_C 	C 	0.64261	0.3479	0.74094	0.115
Mof_C 	C 	0.55734	0.34367	0.64459	0.122
Mof_C 	C 	0.60586	0.393	0.61306	-0.175
Mof_C 	C 	0.67626	0.42084	0.64729	0.184
Mof_C 	C 	0.75872	0.52605	0.64885	0.178
Mof_C 	C 	0.82668	0.56649	0.62519	-0.177
Mof_C 	C 	0.84687	0.62567	0.65939	0.114
Mof_C 	C 	0.74242	0.60711	0.73874	0.121
Mof_C 	C 	0.71648	0.54767	0.70801	-0.185
Mof_C 	C 	0.25	0.5439	0.4561	0.027
Mof_C 	C 	0.25	0.9561	0.0439	0.026
Mof_C 	C 	0.25	0.0439	0.5439	0.027
Mof_C 	C 	0.25	0.4561	0.9561	0.027
Mof_C 	C 	0.75	0.4561	0.5439	0.024
Mof_C 	C 	0.75	0.0439	0.9561	0.024
Mof_C 	C 	0.75	0.9561	0.4561	0.024
Mof_C 	C 	0.75	0.5439	0.0439	0.024
Mof_N 	N 	0.07442	0.70762	0.32101	-0.298
Mof_N 	N 	0.23102	0.61521	0.46786	-0.166
Mof_N 	N 	0.30531	0.71525	0.64711	-0.252
Mof_N 	N 	0.07442	0.79238	0.17899	-0.298
Mof_N 	N 	0.23102	0.88479	0.03214	-0.165
Mof_N 	N 	0.30531	0.78475	0.85289	-0.252
Mof_N 	N 	0.07442	0.17899	0.70762	-0.298
Mof_N 	N 	0.23102	0.03214	0.61521	-0.165
Mof_N 	N 	0.30531	0.85289	0.71525	-0.252
Mof_N 	N 	0.07442	0.32101	0.79238	-0.298
Mof_N 	N 	0.23102	0.46786	0.88479	-0.166
Mof_N 	N 	0.30531	0.64711	0.78475	-0.252
Mof_N 	N 	0.42558	0.29238	0.82101	-0.289
Mof_N 	N 	0.26898	0.38479	0.96786	-0.165
Mof_N 	N 	0.19469	0.28475	0.14711	-0.253
Mof_N 	N 	0.42558	0.20762	0.67899	-0.289
Mof_N 	N 	0.26898	0.11521	0.53214	-0.165
Mof_N 	N 	0.19469	0.21525	0.35289	-0.253
Mof_N 	N 	0.42558	0.82101	0.20762	-0.289
Mof_N 	N 	0.26898	0.96786	0.11521	-0.165
Mof_N 	N 	0.19469	0.14711	0.21525	-0.253
Mof_N 	N 	0.42558	0.67899	0.29238	-0.289
Mof_N 	N 	0.26898	0.53214	0.38479	-0.165
Mof_N 	N 	0.19469	0.35289	0.28475	-0.253
Mof_N 	N 	0.92558	0.29238	0.67899	-0.274
Mof_N 	N 	0.76898	0.38479	0.53214	-0.164
Mof_N 	N 	0.69469	0.28475	0.35289	-0.253
Mof_N 	N 	0.92558	0.20762	0.82101	-0.274
Mof_N 	N 	0.76898	0.11521	0.96786	-0.164
Mof_N 	N 	0.69469	0.21525	0.14711	-0.252
Mof_N 	N 	0.92558	0.82101	0.29238	-0.274
Mof_N 	N 	0.76898	0.96786	0.38479	-0.164
Mof_N 	N 	0.69469	0.14711	0.28475	-0.253
Mof_N 	N 	0.92558	0.67899	0.20762	-0.274
Mof_N 	N 	0.76898	0.53214	0.11521	-0.164
Mof_N 	N 	0.69469	0.35289	0.21525	-0.253
Mof_N 	N 	0.57442	0.70762	0.17899	-0.289
Mof_N 	N 	0.73102	0.61521	0.03214	-0.165
Mof_N 	N 	0.80531	0.71525	0.85289	-0.252
Mof_N 	N 	0.57442	0.79238	0.32101	-0.289
Mof_N 	N 	0.73102	0.88479	0.46786	-0.165
Mof_N 	N 	0.80531	0.78475	0.64711	-0.252
Mof_N 	N 	0.57442	0.17899	0.79238	-0.289
Mof_N 	N 	0.73102	0.03214	0.88479	-0.165
Mof_N 	N 	0.80531	0.85289	0.78475	-0.252
Mof_N 	N 	0.57442	0.32101	0.70762	-0.289
Mof_N 	N 	0.73102	0.46786	0.61521	-0.165
Mof_N 	N 	0.80531	0.64711	0.71525	-0.252
Mof_O 	O 	0.4492	0.75	0.75	-0.297
Mof_O 	O 	0.169	0.75	0.75	-0.279
Mof_O 	O 	0.0508	0.25	0.25	-0.314
Mof_O 	O 	0.331	0.25	0.25	-0.262
Mof_O 	O 	0.5508	0.25	0.25	-0.297
Mof_O 	O 	0.831	0.25	0.25	-0.245
Mof_O 	O 	0.9492	0.75	0.75	-0.279
Mof_O 	O 	0.669	0.75	0.75	-0.262
Mof_N 	N 	0.5659	0.29096	0.9793	0.028
Mof_O 	O 	0.621	0.29746	0.911	-0.14
Mof_O 	O 	0.5073	0.25116	0.9843	-0.12
Mof_O 	O 	0.5687	0.35126	0.0135	-0.114
Mof_N 	N 	0.5659	0.20904	0.5207	0.028
Mof_O 	O 	0.621	0.20254	0.589	-0.14
Mof_O 	O 	0.5073	0.24884	0.5157	-0.12
Mof_O 	O 	0.5687	0.14874	0.4865	-0.113
Mof_N 	N 	0.5659	0.5207	0.29096	0.028
Mof_O 	O 	0.621	0.589	0.29746	-0.14
Mof_O 	O 	0.5073	0.5157	0.25116	-0.12
Mof_O 	O 	0.5687	0.4865	0.35126	-0.113
Mof_N 	N 	0.5659	0.9793	0.20904	0.028
Mof_O 	O 	0.621	0.911	0.20254	-0.14
Mof_O 	O 	0.5073	0.9843	0.24884	-0.12
Mof_O 	O 	0.5687	0.0135	0.14874	-0.114
Mof_N 	N 	0.9341	0.70904	0.4793	0.028
Mof_O 	O 	0.879	0.70254	0.411	-0.13
Mof_O 	O 	0.9927	0.74884	0.4843	-0.095
Mof_O 	O 	0.9313	0.64874	0.5135	-0.098
Mof_N 	N 	0.9341	0.79096	0.0207	0.028
Mof_O 	O 	0.879	0.79746	0.089	-0.13
Mof_O 	O 	0.9927	0.75116	0.0157	-0.095
Mof_O 	O 	0.9313	0.85126	0.9865	-0.098
Mof_N 	N 	0.9341	0.4793	0.79096	0.028
Mof_O 	O 	0.879	0.411	0.79746	-0.13
Mof_O 	O 	0.9927	0.4843	0.75116	-0.095
Mof_O 	O 	0.9313	0.5135	0.85126	-0.098
Mof_N 	N 	0.9341	0.0207	0.70904	0.028
Mof_O 	O 	0.879	0.089	0.70254	-0.13
Mof_O 	O 	0.9927	0.0157	0.74884	-0.095
Mof_O 	O 	0.9313	0.9865	0.64874	-0.098
Mof_N 	N 	0.4341	0.70904	0.0207	0.028
Mof_O 	O 	0.379	0.70254	0.089	-0.141
Mof_O 	O 	0.4927	0.74884	0.0157	-0.12
Mof_O 	O 	0.4313	0.64874	0.9865	-0.115
Mof_N 	N 	0.4341	0.79096	0.4793	0.028
Mof_O 	O 	0.379	0.79746	0.411	-0.141
Mof_O 	O 	0.4927	0.75116	0.4843	-0.12
Mof_O 	O 	0.4313	0.85126	0.5135	-0.115
Mof_N 	N 	0.4341	0.4793	0.70904	0.028
Mof_O 	O 	0.379	0.411	0.70254	-0.141
Mof_O 	O 	0.4927	0.4843	0.74884	-0.12
Mof_O 	O 	0.4313	0.5135	0.64874	-0.115
Mof_N 	N 	0.4341	0.0207	0.79096	0.028
Mof_O 	O 	0.379	0.089	0.79746	-0.141
Mof_O 	O 	0.4927	0.0157	0.75116	-0.12
Mof_O 	O 	0.4313	0.9865	0.85126	-0.115
Mof_N 	N 	0.0659	0.29096	0.5207	0.028
Mof_O 	O 	0.121	0.29746	0.589	-0.15
Mof_O 	O 	0.0073	0.25116	0.5157	-0.145
Mof_O 	O 	0.0687	0.35126	0.4865	-0.13
Mof_N 	N 	0.0659	0.20904	0.9793	0.028
Mof_O 	O 	0.121	0.20254	0.911	-0.15
Mof_O 	O 	0.0073	0.24884	0.9843	-0.144
Mof_O 	O 	0.0687	0.14874	0.0135	-0.13
Mof_N 	N 	0.0659	0.5207	0.20904	0.028
Mof_O 	O 	0.121	0.589	0.20254	-0.15
Mof_O 	O 	0.0073	0.5157	0.24884	-0.145
Mof_O 	O 	0.0687	0.4865	0.14874	-0.13
Mof_N 	N 	0.0659	0.9793	0.29096	0.028
Mof_O 	O 	0.121	0.911	0.29746	-0.15
Mof_O 	O 	0.0073	0.9843	0.25116	-0.144
Mof_O 	O 	0.0687	0.0135	0.35126	-0.13
_end
