# CIF file generated by openbabel 3.1.0, see https://openbabel.org
data_I
_chemical_name_common 'image0'
_cell_length_a 22.0466
_cell_length_b 16.425
_cell_length_c 25.5931
_cell_angle_alpha 90
_cell_angle_beta 115.293
_cell_angle_gamma 90
_space_group_name_H-M_alt 'P 1'
_space_group_name_Hall 'P 1'
loop_
    _symmetry_equiv_pos_as_xyz
    x,y,z
loop_
    _atom_site_label
    _atom_site_type_symbol
    _atom_site_fract_x
    _atom_site_fract_y
    _atom_site_fract_z
    _atom_site_occupancy
    Ag1      Ag       0.84424    0.45767    0.36785    1.000
    Ag2      Ag       0.32285    0.25273    0.86721    1.000
    C1       C        0.77790    0.63760    0.00910    1.000
    H1       H        0.79880    0.63380    0.04920    1.000
    C2       C        0.12370    0.25690    0.50210    1.000
    C3       C        0.59770    0.47040    0.00060    1.000
    C4       C        0.06000    0.30220    0.46990    1.000
    C5       C        0.29770    0.08420    0.50460    1.000
    H2       H        0.32000    0.08860    0.54460    1.000
    C6       C        0.23510    0.06480    0.38820    1.000
    H3       H        0.21320    0.05780    0.34840    1.000
    C7       C        0.44390    0.34320    0.96440    1.000
    H4       H        0.42410    0.31480    0.98440    1.000
    C8       C        0.03310    0.31170    0.41090    1.000
    H5       H        0.05440    0.29000    0.38960    1.000
    C9       C        0.53310    0.42650    0.96670    1.000
    C10      C        0.50350    0.38400    0.99600    1.000
    H6       H        0.52300    0.38270    0.03620    1.000
    C11      C        0.68260    0.55200    0.00660    1.000
    C12      C        0.71990    0.65190    0.89200    1.000
    H7       H        0.69990    0.65600    0.85190    1.000
    C13      C        0.21000    0.22690    0.58780    1.000
    C14      C        0.67930    0.45610    0.18100    1.000
    H8       H        0.63540    0.43820    0.16090    1.000
    C15      C        0.68010    0.50210    0.08790    1.000
    C16      C        0.71540    0.60140    0.97740    1.000
    C17      C        0.02600    0.33560    0.49960    1.000
    H9       H        0.04310    0.33080    0.53960    1.000
    C18      C        0.24340    0.23740    0.65120    1.000
    C19      C        0.68600    0.60990    0.91840    1.000
    H10      H        0.64390    0.58770    0.89640    1.000
    C20      C        0.20540    0.17230    0.50480    1.000
    C21      C        0.23590    0.12090    0.47440    1.000
    C22      C        0.97330    0.35450    0.38370    1.000
    H11      H        0.95610    0.36260    0.34400    1.000
    C23      C        0.96700    0.37560    0.46910    1.000
    H12      H        0.94470    0.39780    0.48950    1.000
    C24      C        0.32570    0.04100    0.47410    1.000
    H13      H        0.36790    0.01800    0.49440    1.000
    C25      C        0.80800    0.67940    0.97900    1.000
    H14      H        0.84970    0.70330    0.00010    1.000
    C26      C        0.20380    0.11010    0.41510    1.000
    H15      H        0.16180    0.13300    0.39360    1.000
    C27      C        0.71230    0.49240    0.15170    1.000
    C28      C        0.80750    0.50470    0.24250    1.000
    H16      H        0.85180    0.52100    0.26340    1.000
    C29      C        0.50210    0.42720    0.90690    1.000
    H17      H        0.52020    0.45650    0.88590    1.000
    C30      C        0.44390    0.38340    0.87950    1.000
    H18      H        0.42420    0.38220    0.83930    1.000
    C31      C        0.77820    0.51690    0.18320    1.000
    H19      H        0.80230    0.54090    0.16490    1.000
    C32      C        0.32840    0.20750    0.74410    1.000
    H20      H        0.36790    0.18020    0.76680    1.000
    C33      C        0.21570    0.28930    0.67800    1.000
    H21      H        0.17740    0.31950    0.65630    1.000
    C34      C        0.30230    0.19730    0.68500    1.000
    H22      H        0.32370    0.16450    0.66840    1.000
    C35      C        0.24590    0.29500    0.73700    1.000
    H23      H        0.22690    0.32990    0.75460    1.000
    C36      C        0.71180    0.44650    0.24020    1.000
    H24      H        0.68880    0.42230    0.25930    1.000
    N1       N        0.93940    0.38480    0.41199    1.000
    N2       N        0.29540    0.03050    0.41671    1.000
    N3       N        0.30060    0.25390    0.77070    1.000
    N4       N        0.15320    0.26790    0.55916    1.000
    N5       N        0.14790    0.21030    0.47215    1.000
    N6       N        0.23820    0.17770    0.56275    1.000
    N7       N        0.41360    0.34230    0.90708    1.000
    N8       N        0.78010    0.68710    0.92142    1.000
    N9       N        0.77590    0.47110    0.27150    1.000
    N10      N        0.62280    0.46270    0.05860    1.000
    N11      N        0.62620    0.51160    0.97294    1.000
    N12      N        0.71140    0.54960    0.06446    1.000
    Ag3      Ag       0.34424    0.95767    0.36784    1.000
    Ag4      Ag       0.82285    0.75273    0.86721    1.000
    C37      C        0.27790    0.13760    0.00910    1.000
    H25      H        0.29880    0.13380    0.04920    1.000
    C38      C        0.62370    0.75690    0.50210    1.000
    C39      C        0.09770    0.97040    0.00060    1.000
    C40      C        0.56000    0.80220    0.46990    1.000
    C41      C        0.79770    0.58420    0.50460    1.000
    H26      H        0.82000    0.58860    0.54460    1.000
    C42      C        0.73510    0.56480    0.38820    1.000
    H27      H        0.71320    0.55780    0.34840    1.000
    C43      C        0.94390    0.84320    0.96440    1.000
    H28      H        0.92410    0.81480    0.98440    1.000
    C44      C        0.53310    0.81170    0.41090    1.000
    H29      H        0.55440    0.79000    0.38960    1.000
    C45      C        0.03310    0.92650    0.96670    1.000
    C46      C        0.00350    0.88400    0.99600    1.000
    H30      H        0.02300    0.88270    0.03620    1.000
    C47      C        0.18260    0.05200    0.00660    1.000
    C48      C        0.21990    0.15190    0.89200    1.000
    H31      H        0.19990    0.15600    0.85190    1.000
    C49      C        0.71000    0.72690    0.58780    1.000
    C50      C        0.17930    0.95610    0.18100    1.000
    H32      H        0.13540    0.93820    0.16090    1.000
    C51      C        0.18010    0.00210    0.08790    1.000
    C52      C        0.21540    0.10140    0.97740    1.000
    C53      C        0.52600    0.83560    0.49960    1.000
    H33      H        0.54310    0.83080    0.53960    1.000
    C54      C        0.74340    0.73740    0.65120    1.000
    C55      C        0.18600    0.10990    0.91840    1.000
    H34      H        0.14390    0.08770    0.89640    1.000
    C56      C        0.70540    0.67230    0.50480    1.000
    C57      C        0.73590    0.62090    0.47440    1.000
    C58      C        0.47330    0.85450    0.38370    1.000
    H35      H        0.45610    0.86260    0.34400    1.000
    C59      C        0.46700    0.87560    0.46910    1.000
    H36      H        0.44470    0.89780    0.48950    1.000
    C60      C        0.82570    0.54100    0.47410    1.000
    H37      H        0.86790    0.51800    0.49440    1.000
    C61      C        0.30800    0.17940    0.97900    1.000
    H38      H        0.34970    0.20330    0.00010    1.000
    C62      C        0.70380    0.61010    0.41510    1.000
    H39      H        0.66180    0.63300    0.39360    1.000
    C63      C        0.21230    0.99240    0.15170    1.000
    C64      C        0.30750    0.00470    0.24250    1.000
    H40      H        0.35180    0.02100    0.26340    1.000
    C65      C        0.00210    0.92720    0.90690    1.000
    H41      H        0.02020    0.95650    0.88590    1.000
    C66      C        0.94390    0.88340    0.87950    1.000
    H42      H        0.92420    0.88220    0.83930    1.000
    C67      C        0.27820    0.01690    0.18320    1.000
    H43      H        0.30230    0.04090    0.16490    1.000
    C68      C        0.82840    0.70750    0.74410    1.000
    H44      H        0.86790    0.68020    0.76680    1.000
    C69      C        0.71570    0.78930    0.67800    1.000
    H45      H        0.67740    0.81950    0.65630    1.000
    C70      C        0.80230    0.69730    0.68500    1.000
    H46      H        0.82370    0.66450    0.66840    1.000
    C71      C        0.74590    0.79500    0.73700    1.000
    H47      H        0.72690    0.82990    0.75460    1.000
    C72      C        0.21180    0.94650    0.24020    1.000
    H48      H        0.18880    0.92230    0.25930    1.000
    N13      N        0.43940    0.88480    0.41199    1.000
    N14      N        0.79540    0.53050    0.41671    1.000
    N15      N        0.80060    0.75390    0.77070    1.000
    N16      N        0.65320    0.76790    0.55916    1.000
    N17      N        0.64790    0.71030    0.47215    1.000
    N18      N        0.73820    0.67770    0.56275    1.000
    N19      N        0.91360    0.84230    0.90708    1.000
    N20      N        0.28010    0.18710    0.92142    1.000
    N21      N        0.27590    0.97110    0.27150    1.000
    N22      N        0.12280    0.96270    0.05860    1.000
    N23      N        0.12620    0.01160    0.97294    1.000
    N24      N        0.21140    0.04960    0.06446    1.000
    Ag5      Ag       0.15576    0.45767    0.13216    1.000
    Ag6      Ag       0.67715    0.25273    0.63279    1.000
    C73      C        0.22210    0.63760    0.49090    1.000
    H49      H        0.20120    0.63380    0.45080    1.000
    C74      C        0.87630    0.25690    0.99790    1.000
    C75      C        0.40230    0.47040    0.49940    1.000
    C76      C        0.94000    0.30220    0.03010    1.000
    C77      C        0.70230    0.08420    0.99540    1.000
    H50      H        0.68000    0.08860    0.95540    1.000
    C78      C        0.76490    0.06480    0.11180    1.000
    H51      H        0.78680    0.05780    0.15160    1.000
    C79      C        0.55610    0.34320    0.53560    1.000
    H52      H        0.57590    0.31480    0.51560    1.000
    C80      C        0.96690    0.31170    0.08910    1.000
    H53      H        0.94560    0.29000    0.11040    1.000
    C81      C        0.46690    0.42650    0.53330    1.000
    C82      C        0.49650    0.38400    0.50400    1.000
    H54      H        0.47700    0.38270    0.46380    1.000
    C83      C        0.31740    0.55200    0.49340    1.000
    C84      C        0.28010    0.65190    0.60800    1.000
    H55      H        0.30010    0.65600    0.64810    1.000
    C85      C        0.79000    0.22690    0.91220    1.000
    C86      C        0.32070    0.45610    0.31900    1.000
    H56      H        0.36460    0.43820    0.33910    1.000
    C87      C        0.31990    0.50210    0.41210    1.000
    C88      C        0.28460    0.60140    0.52260    1.000
    C89      C        0.97400    0.33560    0.00040    1.000
    H57      H        0.95690    0.33080    0.96040    1.000
    C90      C        0.75660    0.23740    0.84880    1.000
    C91      C        0.31400    0.60990    0.58160    1.000
    H58      H        0.35610    0.58770    0.60360    1.000
    C92      C        0.79460    0.17230    0.99520    1.000
    C93      C        0.76410    0.12090    0.02560    1.000
    C94      C        0.02670    0.35450    0.11630    1.000
    H59      H        0.04390    0.36260    0.15600    1.000
    C95      C        0.03300    0.37560    0.03090    1.000
    H60      H        0.05530    0.39780    0.01050    1.000
    C96      C        0.67430    0.04100    0.02590    1.000
    H61      H        0.63210    0.01800    0.00560    1.000
    C97      C        0.19200    0.67940    0.52100    1.000
    H62      H        0.15030    0.70330    0.49990    1.000
    C98      C        0.79620    0.11010    0.08490    1.000
    H63      H        0.83820    0.13300    0.10640    1.000
    C99      C        0.28770    0.49240    0.34830    1.000
    C100     C        0.19250    0.50470    0.25750    1.000
    H64      H        0.14820    0.52100    0.23660    1.000
    C101     C        0.49790    0.42720    0.59310    1.000
    H65      H        0.47980    0.45650    0.61410    1.000
    C102     C        0.55610    0.38340    0.62050    1.000
    H66      H        0.57580    0.38220    0.66070    1.000
    C103     C        0.22180    0.51690    0.31680    1.000
    H67      H        0.19770    0.54090    0.33510    1.000
    C104     C        0.67160    0.20750    0.75590    1.000
    H68      H        0.63210    0.18020    0.73320    1.000
    C105     C        0.78430    0.28930    0.82200    1.000
    H69      H        0.82260    0.31950    0.84370    1.000
    C106     C        0.69770    0.19730    0.81500    1.000
    H70      H        0.67630    0.16450    0.83160    1.000
    C107     C        0.75410    0.29500    0.76300    1.000
    H71      H        0.77310    0.32990    0.74540    1.000
    C108     C        0.28820    0.44650    0.25980    1.000
    H72      H        0.31120    0.42230    0.24070    1.000
    N25      N        0.06060    0.38480    0.08801    1.000
    N26      N        0.70460    0.03050    0.08329    1.000
    N27      N        0.69940    0.25390    0.72930    1.000
    N28      N        0.84680    0.26790    0.94084    1.000
    N29      N        0.85210    0.21030    0.02785    1.000
    N30      N        0.76180    0.17770    0.93725    1.000
    N31      N        0.58640    0.34230    0.59292    1.000
    N32      N        0.21990    0.68710    0.57858    1.000
    N33      N        0.22410    0.47110    0.22850    1.000
    N34      N        0.37720    0.46270    0.44140    1.000
    N35      N        0.37380    0.51160    0.52706    1.000
    N36      N        0.28860    0.54960    0.43554    1.000
    Ag7      Ag       0.65576    0.95767    0.13216    1.000
    Ag8      Ag       0.17715    0.75273    0.63279    1.000
    C109     C        0.72210    0.13760    0.49090    1.000
    H73      H        0.70120    0.13380    0.45080    1.000
    C110     C        0.37630    0.75690    0.99790    1.000
    C111     C        0.90230    0.97040    0.49940    1.000
    C112     C        0.44000    0.80220    0.03010    1.000
    C113     C        0.20230    0.58420    0.99540    1.000
    H74      H        0.18000    0.58860    0.95540    1.000
    C114     C        0.26490    0.56480    0.11180    1.000
    H75      H        0.28680    0.55780    0.15160    1.000
    C115     C        0.05610    0.84320    0.53560    1.000
    H76      H        0.07590    0.81480    0.51560    1.000
    C116     C        0.46690    0.81170    0.08910    1.000
    H77      H        0.44560    0.79000    0.11040    1.000
    C117     C        0.96690    0.92650    0.53330    1.000
    C118     C        0.99650    0.88400    0.50400    1.000
    H78      H        0.97700    0.88270    0.46380    1.000
    C119     C        0.81740    0.05200    0.49340    1.000
    C120     C        0.78010    0.15190    0.60800    1.000
    H79      H        0.80010    0.15600    0.64810    1.000
    C121     C        0.29000    0.72690    0.91220    1.000
    C122     C        0.82070    0.95610    0.31900    1.000
    H80      H        0.86460    0.93820    0.33910    1.000
    C123     C        0.81990    0.00210    0.41210    1.000
    C124     C        0.78460    0.10140    0.52260    1.000
    C125     C        0.47400    0.83560    0.00040    1.000
    H81      H        0.45690    0.83080    0.96040    1.000
    C126     C        0.25660    0.73740    0.84880    1.000
    C127     C        0.81400    0.10990    0.58160    1.000
    H82      H        0.85610    0.08770    0.60360    1.000
    C128     C        0.29460    0.67230    0.99520    1.000
    C129     C        0.26410    0.62090    0.02560    1.000
    C130     C        0.52670    0.85450    0.11630    1.000
    H83      H        0.54390    0.86260    0.15600    1.000
    C131     C        0.53300    0.87560    0.03090    1.000
    H84      H        0.55530    0.89780    0.01050    1.000
    C132     C        0.17430    0.54100    0.02590    1.000
    H85      H        0.13210    0.51800    0.00560    1.000
    C133     C        0.69200    0.17940    0.52100    1.000
    H86      H        0.65030    0.20330    0.49990    1.000
    C134     C        0.29620    0.61010    0.08490    1.000
    H87      H        0.33820    0.63300    0.10640    1.000
    C135     C        0.78770    0.99240    0.34830    1.000
    C136     C        0.69250    0.00470    0.25750    1.000
    H88      H        0.64820    0.02100    0.23660    1.000
    C137     C        0.99790    0.92720    0.59310    1.000
    H89      H        0.97980    0.95650    0.61410    1.000
    C138     C        0.05610    0.88340    0.62050    1.000
    H90      H        0.07580    0.88220    0.66070    1.000
    C139     C        0.72180    0.01690    0.31680    1.000
    H91      H        0.69770    0.04090    0.33510    1.000
    C140     C        0.17160    0.70750    0.75590    1.000
    H92      H        0.13210    0.68020    0.73320    1.000
    C141     C        0.28430    0.78930    0.82200    1.000
    H93      H        0.32260    0.81950    0.84370    1.000
    C142     C        0.19770    0.69730    0.81500    1.000
    H94      H        0.17630    0.66450    0.83160    1.000
    C143     C        0.25410    0.79500    0.76300    1.000
    H95      H        0.27310    0.82990    0.74540    1.000
    C144     C        0.78820    0.94650    0.25980    1.000
    H96      H        0.81120    0.92230    0.24070    1.000
    N37      N        0.56060    0.88480    0.08801    1.000
    N38      N        0.20460    0.53050    0.08329    1.000
    N39      N        0.19940    0.75390    0.72930    1.000
    N40      N        0.34680    0.76790    0.94084    1.000
    N41      N        0.35210    0.71030    0.02785    1.000
    N42      N        0.26180    0.67770    0.93725    1.000
    N43      N        0.08640    0.84230    0.59292    1.000
    N44      N        0.71990    0.18710    0.57858    1.000
    N45      N        0.72410    0.97110    0.22850    1.000
    N46      N        0.87720    0.96270    0.44140    1.000
    N47      N        0.87380    0.01160    0.52706    1.000
    N48      N        0.78860    0.04960    0.43554    1.000
    Ag9      Ag       0.15576    0.54233    0.63216    1.000
    Ag10     Ag       0.67715    0.74727    0.13279    1.000
    C145     C        0.22210    0.36240    0.99090    1.000
    H97      H        0.20120    0.36620    0.95080    1.000
    C146     C        0.87630    0.74310    0.49790    1.000
    C147     C        0.40230    0.52960    0.99940    1.000
    C148     C        0.94000    0.69780    0.53010    1.000
    C149     C        0.70230    0.91580    0.49540    1.000
    H98      H        0.68000    0.91140    0.45540    1.000
    C150     C        0.76490    0.93520    0.61180    1.000
    H99      H        0.78680    0.94220    0.65160    1.000
    C151     C        0.55610    0.65680    0.03560    1.000
    H100     H        0.57590    0.68520    0.01560    1.000
    C152     C        0.96690    0.68830    0.58910    1.000
    H101     H        0.94560    0.71000    0.61040    1.000
    C153     C        0.46690    0.57350    0.03330    1.000
    C154     C        0.49650    0.61600    0.00400    1.000
    H102     H        0.47700    0.61730    0.96380    1.000
    C155     C        0.31740    0.44800    0.99340    1.000
    C156     C        0.28010    0.34810    0.10800    1.000
    H103     H        0.30010    0.34400    0.14810    1.000
    C157     C        0.79000    0.77310    0.41220    1.000
    C158     C        0.32070    0.54390    0.81900    1.000
    H104     H        0.36460    0.56180    0.83910    1.000
    C159     C        0.31990    0.49790    0.91210    1.000
    C160     C        0.28460    0.39860    0.02260    1.000
    C161     C        0.97400    0.66440    0.50040    1.000
    H105     H        0.95690    0.66920    0.46040    1.000
    C162     C        0.75660    0.76260    0.34880    1.000
    C163     C        0.31400    0.39010    0.08160    1.000
    H106     H        0.35610    0.41230    0.10360    1.000
    C164     C        0.79460    0.82770    0.49520    1.000
    C165     C        0.76410    0.87910    0.52560    1.000
    C166     C        0.02670    0.64550    0.61630    1.000
    H107     H        0.04390    0.63740    0.65600    1.000
    C167     C        0.03300    0.62440    0.53090    1.000
    H108     H        0.05530    0.60220    0.51050    1.000
    C168     C        0.67430    0.95900    0.52590    1.000
    H109     H        0.63210    0.98200    0.50560    1.000
    C169     C        0.19200    0.32060    0.02100    1.000
    H110     H        0.15030    0.29670    0.99990    1.000
    C170     C        0.79620    0.88990    0.58490    1.000
    H111     H        0.83820    0.86700    0.60640    1.000
    C171     C        0.28770    0.50760    0.84830    1.000
    C172     C        0.19250    0.49530    0.75750    1.000
    H112     H        0.14820    0.47900    0.73660    1.000
    C173     C        0.49790    0.57280    0.09310    1.000
    H113     H        0.47980    0.54350    0.11410    1.000
    C174     C        0.55610    0.61660    0.12050    1.000
    H114     H        0.57580    0.61780    0.16070    1.000
    C175     C        0.22180    0.48310    0.81680    1.000
    H115     H        0.19770    0.45910    0.83510    1.000
    C176     C        0.67160    0.79250    0.25590    1.000
    H116     H        0.63210    0.81980    0.23320    1.000
    C177     C        0.78430    0.71070    0.32200    1.000
    H117     H        0.82260    0.68050    0.34370    1.000
    C178     C        0.69770    0.80270    0.31500    1.000
    H118     H        0.67630    0.83550    0.33160    1.000
    C179     C        0.75410    0.70500    0.26300    1.000
    H119     H        0.77310    0.67010    0.24540    1.000
    C180     C        0.28820    0.55350    0.75980    1.000
    H120     H        0.31120    0.57770    0.74070    1.000
    N49      N        0.06060    0.61520    0.58801    1.000
    N50      N        0.70460    0.96950    0.58329    1.000
    N51      N        0.69940    0.74610    0.22930    1.000
    N52      N        0.84680    0.73210    0.44084    1.000
    N53      N        0.85210    0.78970    0.52785    1.000
    N54      N        0.76180    0.82230    0.43725    1.000
    N55      N        0.58640    0.65770    0.09292    1.000
    N56      N        0.21990    0.31290    0.07858    1.000
    N57      N        0.22410    0.52890    0.72850    1.000
    N58      N        0.37720    0.53730    0.94140    1.000
    N59      N        0.37380    0.48840    0.02706    1.000
    N60      N        0.28860    0.45040    0.93554    1.000
    Ag11     Ag       0.65576    0.04233    0.63216    1.000
    Ag12     Ag       0.17715    0.24727    0.13279    1.000
    C181     C        0.72210    0.86240    0.99090    1.000
    H121     H        0.70120    0.86620    0.95080    1.000
    C182     C        0.37630    0.24310    0.49790    1.000
    C183     C        0.90230    0.02960    0.99940    1.000
    C184     C        0.44000    0.19780    0.53010    1.000
    C185     C        0.20230    0.41580    0.49540    1.000
    H122     H        0.18000    0.41140    0.45540    1.000
    C186     C        0.26490    0.43520    0.61180    1.000
    H123     H        0.28680    0.44220    0.65160    1.000
    C187     C        0.05610    0.15680    0.03560    1.000
    H124     H        0.07590    0.18520    0.01560    1.000
    C188     C        0.46690    0.18830    0.58910    1.000
    H125     H        0.44560    0.21000    0.61040    1.000
    C189     C        0.96690    0.07350    0.03330    1.000
    C190     C        0.99650    0.11600    0.00400    1.000
    H126     H        0.97700    0.11730    0.96380    1.000
    C191     C        0.81740    0.94800    0.99340    1.000
    C192     C        0.78010    0.84810    0.10800    1.000
    H127     H        0.80010    0.84400    0.14810    1.000
    C193     C        0.29000    0.27310    0.41220    1.000
    C194     C        0.82070    0.04390    0.81900    1.000
    H128     H        0.86460    0.06180    0.83910    1.000
    C195     C        0.81990    0.99790    0.91210    1.000
    C196     C        0.78460    0.89860    0.02260    1.000
    C197     C        0.47400    0.16440    0.50040    1.000
    H129     H        0.45690    0.16920    0.46040    1.000
    C198     C        0.25660    0.26260    0.34880    1.000
    C199     C        0.81400    0.89010    0.08160    1.000
    H130     H        0.85610    0.91230    0.10360    1.000
    C200     C        0.29460    0.32770    0.49520    1.000
    C201     C        0.26410    0.37910    0.52560    1.000
    C202     C        0.52670    0.14550    0.61630    1.000
    H131     H        0.54390    0.13740    0.65600    1.000
    C203     C        0.53300    0.12440    0.53090    1.000
    H132     H        0.55530    0.10220    0.51050    1.000
    C204     C        0.17430    0.45900    0.52590    1.000
    H133     H        0.13210    0.48200    0.50560    1.000
    C205     C        0.69200    0.82060    0.02100    1.000
    H134     H        0.65030    0.79670    0.99990    1.000
    C206     C        0.29620    0.38990    0.58490    1.000
    H135     H        0.33820    0.36700    0.60640    1.000
    C207     C        0.78770    0.00760    0.84830    1.000
    C208     C        0.69250    0.99530    0.75750    1.000
    H136     H        0.64820    0.97900    0.73660    1.000
    C209     C        0.99790    0.07280    0.09310    1.000
    H137     H        0.97980    0.04350    0.11410    1.000
    C210     C        0.05610    0.11660    0.12050    1.000
    H138     H        0.07580    0.11780    0.16070    1.000
    C211     C        0.72180    0.98310    0.81680    1.000
    H139     H        0.69770    0.95910    0.83510    1.000
    C212     C        0.17160    0.29250    0.25590    1.000
    H140     H        0.13210    0.31980    0.23320    1.000
    C213     C        0.28430    0.21070    0.32200    1.000
    H141     H        0.32260    0.18050    0.34370    1.000
    C214     C        0.19770    0.30270    0.31500    1.000
    H142     H        0.17630    0.33550    0.33160    1.000
    C215     C        0.25410    0.20500    0.26300    1.000
    H143     H        0.27310    0.17010    0.24540    1.000
    C216     C        0.78820    0.05350    0.75980    1.000
    H144     H        0.81120    0.07770    0.74070    1.000
    N61      N        0.56060    0.11520    0.58801    1.000
    N62      N        0.20460    0.46950    0.58329    1.000
    N63      N        0.19940    0.24610    0.22930    1.000
    N64      N        0.34680    0.23210    0.44084    1.000
    N65      N        0.35210    0.28970    0.52785    1.000
    N66      N        0.26180    0.32230    0.43725    1.000
    N67      N        0.08640    0.15770    0.09292    1.000
    N68      N        0.71990    0.81290    0.07858    1.000
    N69      N        0.72410    0.02890    0.72850    1.000
    N70      N        0.87720    0.03730    0.94140    1.000
    N71      N        0.87380    0.98840    0.02706    1.000
    N72      N        0.78860    0.95040    0.93554    1.000
    Ag13     Ag       0.84424    0.54233    0.86785    1.000
    Ag14     Ag       0.32285    0.74727    0.36721    1.000
    C217     C        0.77790    0.36240    0.50910    1.000
    H145     H        0.79880    0.36620    0.54920    1.000
    C218     C        0.12370    0.74310    0.00210    1.000
    C219     C        0.59770    0.52960    0.50060    1.000
    C220     C        0.06000    0.69780    0.96990    1.000
    C221     C        0.29770    0.91580    0.00460    1.000
    H146     H        0.32000    0.91140    0.04460    1.000
    C222     C        0.23510    0.93520    0.88820    1.000
    H147     H        0.21320    0.94220    0.84840    1.000
    C223     C        0.44390    0.65680    0.46440    1.000
    H148     H        0.42410    0.68520    0.48440    1.000
    C224     C        0.03310    0.68830    0.91090    1.000
    H149     H        0.05440    0.71000    0.88960    1.000
    C225     C        0.53310    0.57350    0.46670    1.000
    C226     C        0.50350    0.61600    0.49600    1.000
    H150     H        0.52300    0.61730    0.53620    1.000
    C227     C        0.68260    0.44800    0.50660    1.000
    C228     C        0.71990    0.34810    0.39200    1.000
    H151     H        0.69990    0.34400    0.35190    1.000
    C229     C        0.21000    0.77310    0.08780    1.000
    C230     C        0.67930    0.54390    0.68100    1.000
    H152     H        0.63540    0.56180    0.66090    1.000
    C231     C        0.68010    0.49790    0.58790    1.000
    C232     C        0.71540    0.39860    0.47740    1.000
    C233     C        0.02600    0.66440    0.99960    1.000
    H153     H        0.04310    0.66920    0.03960    1.000
    C234     C        0.24340    0.76260    0.15120    1.000
    C235     C        0.68600    0.39010    0.41840    1.000
    H154     H        0.64390    0.41230    0.39640    1.000
    C236     C        0.20540    0.82770    0.00480    1.000
    C237     C        0.23590    0.87910    0.97440    1.000
    C238     C        0.97330    0.64550    0.88370    1.000
    H155     H        0.95610    0.63740    0.84400    1.000
    C239     C        0.96700    0.62440    0.96910    1.000
    H156     H        0.94470    0.60220    0.98950    1.000
    C240     C        0.32570    0.95900    0.97410    1.000
    H157     H        0.36790    0.98200    0.99440    1.000
    C241     C        0.80800    0.32060    0.47900    1.000
    H158     H        0.84970    0.29670    0.50010    1.000
    C242     C        0.20380    0.88990    0.91510    1.000
    H159     H        0.16180    0.86700    0.89360    1.000
    C243     C        0.71230    0.50760    0.65170    1.000
    C244     C        0.80750    0.49530    0.74250    1.000
    H160     H        0.85180    0.47900    0.76340    1.000
    C245     C        0.50210    0.57280    0.40690    1.000
    H161     H        0.52020    0.54350    0.38590    1.000
    C246     C        0.44390    0.61660    0.37950    1.000
    H162     H        0.42420    0.61780    0.33930    1.000
    C247     C        0.77820    0.48310    0.68320    1.000
    H163     H        0.80230    0.45910    0.66490    1.000
    C248     C        0.32840    0.79250    0.24410    1.000
    H164     H        0.36790    0.81980    0.26680    1.000
    C249     C        0.21570    0.71070    0.17800    1.000
    H165     H        0.17740    0.68050    0.15630    1.000
    C250     C        0.30230    0.80270    0.18500    1.000
    H166     H        0.32370    0.83550    0.16840    1.000
    C251     C        0.24590    0.70500    0.23700    1.000
    H167     H        0.22690    0.67010    0.25460    1.000
    C252     C        0.71180    0.55350    0.74020    1.000
    H168     H        0.68880    0.57770    0.75930    1.000
    N73      N        0.93940    0.61520    0.91199    1.000
    N74      N        0.29540    0.96950    0.91671    1.000
    N75      N        0.30060    0.74610    0.27070    1.000
    N76      N        0.15320    0.73210    0.05916    1.000
    N77      N        0.14790    0.78970    0.97215    1.000
    N78      N        0.23820    0.82230    0.06275    1.000
    N79      N        0.41360    0.65770    0.40708    1.000
    N80      N        0.78010    0.31290    0.42142    1.000
    N81      N        0.77590    0.52890    0.77150    1.000
    N82      N        0.62280    0.53730    0.55860    1.000
    N83      N        0.62620    0.48840    0.47294    1.000
    N84      N        0.71140    0.45040    0.56446    1.000
    Ag15     Ag       0.34424    0.04233    0.86785    1.000
    Ag16     Ag       0.82285    0.24727    0.36721    1.000
    C253     C        0.27790    0.86240    0.50910    1.000
    H169     H        0.29880    0.86620    0.54920    1.000
    C254     C        0.62370    0.24310    0.00210    1.000
    C255     C        0.09770    0.02960    0.50060    1.000
    C256     C        0.56000    0.19780    0.96990    1.000
    C257     C        0.79770    0.41580    0.00460    1.000
    H170     H        0.82000    0.41140    0.04460    1.000
    C258     C        0.73510    0.43520    0.88820    1.000
    H171     H        0.71320    0.44220    0.84840    1.000
    C259     C        0.94390    0.15680    0.46440    1.000
    H172     H        0.92410    0.18520    0.48440    1.000
    C260     C        0.53310    0.18830    0.91090    1.000
    H173     H        0.55440    0.21000    0.88960    1.000
    C261     C        0.03310    0.07350    0.46670    1.000
    C262     C        0.00350    0.11600    0.49600    1.000
    H174     H        0.02300    0.11730    0.53620    1.000
    C263     C        0.18260    0.94800    0.50660    1.000
    C264     C        0.21990    0.84810    0.39200    1.000
    H175     H        0.19990    0.84400    0.35190    1.000
    C265     C        0.71000    0.27310    0.08780    1.000
    C266     C        0.17930    0.04390    0.68100    1.000
    H176     H        0.13540    0.06180    0.66090    1.000
    C267     C        0.18010    0.99790    0.58790    1.000
    C268     C        0.21540    0.89860    0.47740    1.000
    C269     C        0.52600    0.16440    0.99960    1.000
    H177     H        0.54310    0.16920    0.03960    1.000
    C270     C        0.74340    0.26260    0.15120    1.000
    C271     C        0.18600    0.89010    0.41840    1.000
    H178     H        0.14390    0.91230    0.39640    1.000
    C272     C        0.70540    0.32770    0.00480    1.000
    C273     C        0.73590    0.37910    0.97440    1.000
    C274     C        0.47330    0.14550    0.88370    1.000
    H179     H        0.45610    0.13740    0.84400    1.000
    C275     C        0.46700    0.12440    0.96910    1.000
    H180     H        0.44470    0.10220    0.98950    1.000
    C276     C        0.82570    0.45900    0.97410    1.000
    H181     H        0.86790    0.48200    0.99440    1.000
    C277     C        0.30800    0.82060    0.47900    1.000
    H182     H        0.34970    0.79670    0.50010    1.000
    C278     C        0.70380    0.38990    0.91510    1.000
    H183     H        0.66180    0.36700    0.89360    1.000
    C279     C        0.21230    0.00760    0.65170    1.000
    C280     C        0.30750    0.99530    0.74250    1.000
    H184     H        0.35180    0.97900    0.76340    1.000
    C281     C        0.00210    0.07280    0.40690    1.000
    H185     H        0.02020    0.04350    0.38590    1.000
    C282     C        0.94390    0.11660    0.37950    1.000
    H186     H        0.92420    0.11780    0.33930    1.000
    C283     C        0.27820    0.98310    0.68320    1.000
    H187     H        0.30230    0.95910    0.66490    1.000
    C284     C        0.82840    0.29250    0.24410    1.000
    H188     H        0.86790    0.31980    0.26680    1.000
    C285     C        0.71570    0.21070    0.17800    1.000
    H189     H        0.67740    0.18050    0.15630    1.000
    C286     C        0.80230    0.30270    0.18500    1.000
    H190     H        0.82370    0.33550    0.16840    1.000
    C287     C        0.74590    0.20500    0.23700    1.000
    H191     H        0.72690    0.17010    0.25460    1.000
    C288     C        0.21180    0.05350    0.74020    1.000
    H192     H        0.18880    0.07770    0.75930    1.000
    N85      N        0.43940    0.11520    0.91199    1.000
    N86      N        0.79540    0.46950    0.91671    1.000
    N87      N        0.80060    0.24610    0.27070    1.000
    N88      N        0.65320    0.23210    0.05916    1.000
    N89      N        0.64790    0.28970    0.97215    1.000
    N90      N        0.73820    0.32230    0.06275    1.000
    N91      N        0.91360    0.15770    0.40708    1.000
    N92      N        0.28010    0.81290    0.42142    1.000
    N93      N        0.27590    0.02890    0.77150    1.000
    N94      N        0.12280    0.03730    0.55860    1.000
    N95      N        0.12620    0.98840    0.47294    1.000
    N96      N        0.21140    0.95040    0.56446    1.000
