data_functionalizedCrystal
_audit_creation_method	'EQeq! by Chris Wilmer'
_symmetry_space_group_name_H-M	'P1'
_symmetry_Int_Tables_number	1
_symmetry_cell_setting	triclinic
loop_
_symmetry_equiv_pos_as_xyz
  x,y,z
_cell_length_a	13.9999
_cell_length_b	14.647
_cell_length_c	42.04
_cell_angle_alpha	90
_cell_angle_beta	97.948
_cell_angle_gamma	90
loop_
_atom_site_label
_atom_site_type_symbol
_atom_site_fract_x
_atom_site_fract_y
_atom_site_fract_z
_atom_site_charge
Mof_C 	C 	0.5653	0.668	0.23601	0.473
Mof_C 	C 	0.4811	0.6077	0.22279	-0.175
Mof_C 	C 	0.4424	0.5437	0.24177	0.098
Mof_H 	H 	0.4665	0.5387	0.2634	0.003
Mof_C 	C 	0.369	0.488	0.22869	-0.174
Mof_C 	C 	0.3286	0.4981	0.19644	0.035
Mof_H 	H 	0.2792	0.4593	0.1878	0.008
Mof_C 	C 	0.3611	0.5645	0.17751	-0.065
Mof_C 	C 	0.4405	0.6167	0.19067	0.039
Mof_H 	H 	0.467	0.6585	0.1777	0.027
Mof_C 	C 	0.3284	0.4175	0.24947	0.428
Mof_C 	C 	0.3163	0.5801	0.14385	0.055
Mof_C 	C 	0.2731	0.5092	0.12461	-0.088
Mof_H 	H 	0.2725	0.4502	0.1328	0.06
Mof_C 	C 	0.2312	0.5268	0.09341	-0.028
Mof_H 	H 	0.2046	0.4781	0.081	0.037
Mof_C 	C 	0.2269	0.6123	0.07975	-0.012
Mof_C 	C 	0.2702	0.6808	0.09871	-0.025
Mof_H 	H 	0.2703	0.7396	0.0903	0.035
Mof_C 	C 	0.314	0.6659	0.13007	-0.089
Mof_H 	H 	0.3423	0.7147	0.142	0.061
Mof_C 	C 	0.1793	0.6306	0.0462	0.035
Mof_C 	C 	0.1461	0.5583	0.02627	-0.077
Mof_H 	H 	0.1547	0.4985	0.0336	0.055
Mof_C 	C 	0.1001	0.5752	0.99538	-0.03
Mof_H 	H 	0.0779	0.5268	0.982	0.038
Mof_C 	C 	0.0873	0.6645	0.98441	-0.016
Mof_C 	C 	0.1204	0.7368	0.00433	-0.03
Mof_H 	H 	0.1118	0.7966	0.997	0.033
Mof_C 	C 	0.1664	0.7199	0.03523	-0.076
Mof_H 	H 	0.1886	0.7683	0.0486	0.051
Mof_C 	C 	0.0336	0.6825	0.95072	0.068
Mof_C 	C 	0.0068	0.6121	0.92864	-0.129
Mof_H 	H 	0.0237	0.5522	0.9342	0.074
Mof_C 	C 	0.9563	0.6297	0.89913	0.05
Mof_H 	H 	0.9383	0.5818	0.8851	0.022
Mof_C 	C 	0.9318	0.7181	0.89001	-0.123
Mof_C 	C 	0.9646	0.7894	0.9107	0.046
Mof_H 	H 	0.9538	0.8496	0.9042	0.016
Mof_C 	C 	0.0123	0.771	0.94043	-0.131
Mof_H 	H 	0.0313	0.8192	0.9543	0.069
Mof_C 	C 	0.8705	0.7395	0.85877	0.337
Mof_La	La	0.74569	0.78748	0.20248	1.946
Mof_O 	O 	0.5937	0.7267	0.21748	-0.491
Mof_O 	O 	0.602	0.6557	0.26415	-0.527
Mof_O 	O 	0.3406	0.4287	0.2793	-0.459
Mof_O 	O 	0.2843	0.3495	0.23645	-0.58
Mof_O 	O 	0.8259	0.6764	0.84268	-0.428
Mof_O 	O 	0.8669	0.8197	0.84844	-0.449
Mof_C 	C 	0.0653	0.168	0.73601	0.473
Mof_C 	C 	0.9811	0.1077	0.72279	-0.173
Mof_C 	C 	0.9424	0.0437	0.74177	0.099
Mof_H 	H 	0.9665	0.0387	0.7634	0.003
Mof_C 	C 	0.869	0.988	0.72869	-0.174
Mof_C 	C 	0.8286	0.9981	0.69644	0.034
Mof_H 	H 	0.7792	0.9593	0.6878	0.008
Mof_C 	C 	0.8611	0.0645	0.67751	-0.063
Mof_C 	C 	0.9405	0.1167	0.69067	0.038
Mof_H 	H 	0.967	0.1585	0.6777	0.028
Mof_C 	C 	0.8284	0.9175	0.74947	0.428
Mof_C 	C 	0.8163	0.0801	0.64385	0.054
Mof_C 	C 	0.7731	0.0092	0.62461	-0.086
Mof_H 	H 	0.7725	0.9502	0.6328	0.059
Mof_C 	C 	0.7312	0.0268	0.59341	-0.028
Mof_H 	H 	0.7046	0.9781	0.581	0.037
Mof_C 	C 	0.7269	0.1123	0.57975	-0.012
Mof_C 	C 	0.7702	0.1808	0.59871	-0.026
Mof_H 	H 	0.7703	0.2396	0.5903	0.035
Mof_C 	C 	0.814	0.1659	0.63007	-0.089
Mof_H 	H 	0.8423	0.2147	0.642	0.061
Mof_C 	C 	0.6793	0.1306	0.5462	0.035
Mof_C 	C 	0.6461	0.0583	0.52627	-0.076
Mof_H 	H 	0.6547	0.9985	0.5336	0.054
Mof_C 	C 	0.6001	0.0752	0.49538	-0.03
Mof_H 	H 	0.5779	0.0268	0.482	0.038
Mof_C 	C 	0.5873	0.1645	0.48441	-0.017
Mof_C 	C 	0.6204	0.2368	0.50433	-0.03
Mof_H 	H 	0.6118	0.2966	0.497	0.033
Mof_C 	C 	0.6664	0.2199	0.53523	-0.076
Mof_H 	H 	0.6886	0.2683	0.5486	0.051
Mof_C 	C 	0.5336	0.1825	0.45072	0.069
Mof_C 	C 	0.5068	0.1121	0.42864	-0.131
Mof_H 	H 	0.5237	0.0522	0.4342	0.074
Mof_C 	C 	0.4563	0.1297	0.39913	0.052
Mof_H 	H 	0.4383	0.0818	0.3851	0.021
Mof_C 	C 	0.4318	0.2181	0.39001	-0.124
Mof_C 	C 	0.4646	0.2894	0.4107	0.049
Mof_H 	H 	0.4538	0.3496	0.4042	0.016
Mof_C 	C 	0.5123	0.271	0.44043	-0.133
Mof_H 	H 	0.5313	0.3192	0.4543	0.069
Mof_C 	C 	0.3705	0.2395	0.35877	0.337
Mof_La	La	0.24569	0.28748	0.70248	1.946
Mof_O 	O 	0.0937	0.2267	0.71748	-0.491
Mof_O 	O 	0.102	0.1557	0.76415	-0.527
Mof_O 	O 	0.8406	0.9287	0.7793	-0.459
Mof_O 	O 	0.7843	0.8495	0.73645	-0.58
Mof_O 	O 	0.3259	0.1764	0.34268	-0.428
Mof_O 	O 	0.3669	0.3197	0.34844	-0.449
Mof_C 	C 	0.9347	0.668	0.76399	0.474
Mof_C 	C 	0.0189	0.6077	0.77721	-0.173
Mof_C 	C 	0.0576	0.5437	0.75823	0.098
Mof_H 	H 	0.0335	0.5387	0.7366	0.003
Mof_C 	C 	0.131	0.488	0.77131	-0.174
Mof_C 	C 	0.1714	0.4981	0.80356	0.035
Mof_H 	H 	0.2208	0.4593	0.8122	0.008
Mof_C 	C 	0.1389	0.5645	0.82249	-0.064
Mof_C 	C 	0.0595	0.6167	0.80933	0.039
Mof_H 	H 	0.033	0.6585	0.8223	0.028
Mof_C 	C 	0.1716	0.4175	0.75053	0.428
Mof_C 	C 	0.1837	0.5801	0.85615	0.055
Mof_C 	C 	0.2269	0.5092	0.87539	-0.088
Mof_H 	H 	0.2275	0.4502	0.8672	0.06
Mof_C 	C 	0.2688	0.5268	0.90659	-0.028
Mof_H 	H 	0.2954	0.4781	0.919	0.037
Mof_C 	C 	0.2731	0.6123	0.92025	-0.012
Mof_C 	C 	0.2298	0.6808	0.90129	-0.025
Mof_H 	H 	0.2297	0.7396	0.9097	0.035
Mof_C 	C 	0.186	0.6659	0.86993	-0.089
Mof_H 	H 	0.1577	0.7147	0.858	0.061
Mof_C 	C 	0.3207	0.6306	0.9538	0.035
Mof_C 	C 	0.3539	0.5583	0.97373	-0.077
Mof_H 	H 	0.3453	0.4985	0.9664	0.055
Mof_C 	C 	0.3999	0.5752	0.00462	-0.03
Mof_H 	H 	0.4221	0.5268	0.018	0.038
Mof_C 	C 	0.4127	0.6645	0.01559	-0.017
Mof_C 	C 	0.3796	0.7368	0.99567	-0.029
Mof_H 	H 	0.3882	0.7966	0.003	0.033
Mof_C 	C 	0.3336	0.7199	0.96477	-0.076
Mof_H 	H 	0.3114	0.7683	0.9514	0.051
Mof_C 	C 	0.4664	0.6825	0.04928	0.069
Mof_C 	C 	0.4932	0.6121	0.07136	-0.131
Mof_H 	H 	0.4763	0.5522	0.0658	0.074
Mof_C 	C 	0.5437	0.6297	0.10087	0.052
Mof_H 	H 	0.5617	0.5818	0.1149	0.021
Mof_C 	C 	0.5682	0.7181	0.10999	-0.124
Mof_C 	C 	0.5354	0.7894	0.0893	0.049
Mof_H 	H 	0.5462	0.8496	0.0958	0.016
Mof_C 	C 	0.4877	0.771	0.05957	-0.133
Mof_H 	H 	0.4687	0.8192	0.0457	0.069
Mof_C 	C 	0.6295	0.7395	0.14123	0.337
Mof_La	La	0.75431	0.78748	0.79752	1.946
Mof_O 	O 	0.9063	0.7267	0.78252	-0.491
Mof_O 	O 	0.898	0.6557	0.73585	-0.527
Mof_O 	O 	0.1594	0.4287	0.7207	-0.459
Mof_O 	O 	0.2157	0.3495	0.76355	-0.58
Mof_O 	O 	0.6741	0.6764	0.15732	-0.428
Mof_O 	O 	0.6331	0.8197	0.15156	-0.449
Mof_C 	C 	0.4347	0.168	0.26399	0.474
Mof_C 	C 	0.5189	0.1077	0.27721	-0.174
Mof_C 	C 	0.5576	0.0437	0.25823	0.099
Mof_H 	H 	0.5335	0.0387	0.2366	0.003
Mof_C 	C 	0.631	0.988	0.27131	-0.174
Mof_C 	C 	0.6714	0.9981	0.30356	0.035
Mof_H 	H 	0.7208	0.9593	0.3122	0.008
Mof_C 	C 	0.6389	0.0645	0.32249	-0.064
Mof_C 	C 	0.5595	0.1167	0.30933	0.039
Mof_H 	H 	0.533	0.1585	0.3223	0.027
Mof_C 	C 	0.6716	0.9175	0.25053	0.428
Mof_C 	C 	0.6837	0.0801	0.35615	0.054
Mof_C 	C 	0.7269	0.0092	0.37539	-0.087
Mof_H 	H 	0.7275	0.9502	0.3672	0.059
Mof_C 	C 	0.7688	0.0268	0.40659	-0.027
Mof_H 	H 	0.7954	0.9781	0.419	0.037
Mof_C 	C 	0.7731	0.1123	0.42025	-0.012
Mof_C 	C 	0.7298	0.1808	0.40129	-0.025
Mof_H 	H 	0.7297	0.2396	0.4097	0.035
Mof_C 	C 	0.686	0.1659	0.36993	-0.089
Mof_H 	H 	0.6577	0.2147	0.358	0.061
Mof_C 	C 	0.8207	0.1306	0.4538	0.034
Mof_C 	C 	0.8539	0.0583	0.47373	-0.074
Mof_H 	H 	0.8453	0.9985	0.4664	0.053
Mof_C 	C 	0.8999	0.0752	0.50462	-0.032
Mof_H 	H 	0.9221	0.0268	0.518	0.039
Mof_C 	C 	0.9127	0.1645	0.51559	-0.015
Mof_C 	C 	0.8796	0.2368	0.49567	-0.031
Mof_H 	H 	0.8882	0.2966	0.503	0.034
Mof_C 	C 	0.8336	0.2199	0.46477	-0.075
Mof_H 	H 	0.8114	0.2683	0.4514	0.05
Mof_C 	C 	0.9664	0.1825	0.54928	0.067
Mof_C 	C 	0.9932	0.1121	0.57136	-0.127
Mof_H 	H 	0.9763	0.0522	0.5658	0.073
Mof_C 	C 	0.0437	0.1297	0.60087	0.048
Mof_H 	H 	0.0617	0.0818	0.6149	0.022
Mof_C 	C 	0.0682	0.2181	0.60999	-0.122
Mof_C 	C 	0.0354	0.2894	0.5893	0.046
Mof_H 	H 	0.0462	0.3496	0.5958	0.017
Mof_C 	C 	0.9877	0.271	0.55957	-0.13
Mof_H 	H 	0.9687	0.3192	0.5457	0.068
Mof_C 	C 	0.1295	0.2395	0.64123	0.337
Mof_La	La	0.25431	0.28748	0.29752	1.946
Mof_O 	O 	0.4063	0.2267	0.28252	-0.491
Mof_O 	O 	0.398	0.1557	0.23585	-0.527
Mof_O 	O 	0.6594	0.9287	0.2207	-0.459
Mof_O 	O 	0.7157	0.8495	0.26355	-0.58
Mof_O 	O 	0.1741	0.1764	0.65732	-0.428
Mof_O 	O 	0.1331	0.3197	0.65156	-0.449
Mof_C 	C 	0.4347	0.332	0.76399	0.474
Mof_C 	C 	0.5189	0.3923	0.77721	-0.174
Mof_C 	C 	0.5576	0.4563	0.75823	0.098
Mof_H 	H 	0.5335	0.4613	0.7366	0.003
Mof_C 	C 	0.631	0.512	0.77131	-0.174
Mof_C 	C 	0.6714	0.5019	0.80356	0.035
Mof_H 	H 	0.7208	0.5407	0.8122	0.008
Mof_C 	C 	0.6389	0.4355	0.82249	-0.065
Mof_C 	C 	0.5595	0.3833	0.80933	0.039
Mof_H 	H 	0.533	0.3415	0.8223	0.027
Mof_C 	C 	0.6716	0.5825	0.75053	0.428
Mof_C 	C 	0.6837	0.4199	0.85615	0.055
Mof_C 	C 	0.7269	0.4908	0.87539	-0.088
Mof_H 	H 	0.7275	0.5498	0.8672	0.06
Mof_C 	C 	0.7688	0.4732	0.90659	-0.028
Mof_H 	H 	0.7954	0.5219	0.919	0.037
Mof_C 	C 	0.7731	0.3877	0.92025	-0.012
Mof_C 	C 	0.7298	0.3192	0.90129	-0.025
Mof_H 	H 	0.7297	0.2604	0.9097	0.035
Mof_C 	C 	0.686	0.3341	0.86993	-0.089
Mof_H 	H 	0.6577	0.2853	0.858	0.061
Mof_C 	C 	0.8207	0.3694	0.9538	0.035
Mof_C 	C 	0.8539	0.4417	0.97373	-0.077
Mof_H 	H 	0.8453	0.5015	0.9664	0.055
Mof_C 	C 	0.8999	0.4248	0.00462	-0.03
Mof_H 	H 	0.9221	0.4732	0.018	0.038
Mof_C 	C 	0.9127	0.3355	0.01559	-0.016
Mof_C 	C 	0.8796	0.2632	0.99567	-0.03
Mof_H 	H 	0.8882	0.2034	0.003	0.033
Mof_C 	C 	0.8336	0.2801	0.96477	-0.076
Mof_H 	H 	0.8114	0.2317	0.9514	0.051
Mof_C 	C 	0.9664	0.3175	0.04928	0.068
Mof_C 	C 	0.9932	0.3879	0.07136	-0.129
Mof_H 	H 	0.9763	0.4478	0.0658	0.074
Mof_C 	C 	0.0437	0.3703	0.10087	0.05
Mof_H 	H 	0.0617	0.4182	0.1149	0.022
Mof_C 	C 	0.0682	0.2819	0.10999	-0.123
Mof_C 	C 	0.0354	0.2106	0.0893	0.046
Mof_H 	H 	0.0462	0.1504	0.0958	0.016
Mof_C 	C 	0.9877	0.229	0.05957	-0.131
Mof_H 	H 	0.9687	0.1808	0.0457	0.069
Mof_C 	C 	0.1295	0.2605	0.14123	0.337
Mof_La	La	0.25431	0.21252	0.79752	1.946
Mof_O 	O 	0.4063	0.2733	0.78252	-0.491
Mof_O 	O 	0.398	0.3443	0.73585	-0.527
Mof_O 	O 	0.6594	0.5713	0.7207	-0.459
Mof_O 	O 	0.7157	0.6505	0.76355	-0.58
Mof_O 	O 	0.1741	0.3236	0.15732	-0.428
Mof_O 	O 	0.1331	0.1803	0.15156	-0.449
Mof_C 	C 	0.9347	0.832	0.26399	0.473
Mof_C 	C 	0.0189	0.8923	0.27721	-0.173
Mof_C 	C 	0.0576	0.9563	0.25823	0.099
Mof_H 	H 	0.0335	0.9613	0.2366	0.003
Mof_C 	C 	0.131	0.012	0.27131	-0.174
Mof_C 	C 	0.1714	0.0019	0.30356	0.034
Mof_H 	H 	0.2208	0.0407	0.3122	0.008
Mof_C 	C 	0.1389	0.9355	0.32249	-0.063
Mof_C 	C 	0.0595	0.8833	0.30933	0.038
Mof_H 	H 	0.033	0.8415	0.3223	0.028
Mof_C 	C 	0.1716	0.0825	0.25053	0.428
Mof_C 	C 	0.1837	0.9199	0.35615	0.054
Mof_C 	C 	0.2269	0.9908	0.37539	-0.086
Mof_H 	H 	0.2275	0.0498	0.3672	0.059
Mof_C 	C 	0.2688	0.9732	0.40659	-0.028
Mof_H 	H 	0.2954	0.0219	0.419	0.037
Mof_C 	C 	0.2731	0.8877	0.42025	-0.012
Mof_C 	C 	0.2298	0.8192	0.40129	-0.026
Mof_H 	H 	0.2297	0.7604	0.4097	0.035
Mof_C 	C 	0.186	0.8341	0.36993	-0.089
Mof_H 	H 	0.1577	0.7853	0.358	0.061
Mof_C 	C 	0.3207	0.8694	0.4538	0.035
Mof_C 	C 	0.3539	0.9417	0.47373	-0.076
Mof_H 	H 	0.3453	0.0015	0.4664	0.054
Mof_C 	C 	0.3999	0.9248	0.50462	-0.03
Mof_H 	H 	0.4221	0.9732	0.518	0.038
Mof_C 	C 	0.4127	0.8355	0.51559	-0.017
Mof_C 	C 	0.3796	0.7632	0.49567	-0.03
Mof_H 	H 	0.3882	0.7034	0.503	0.033
Mof_C 	C 	0.3336	0.7801	0.46477	-0.076
Mof_H 	H 	0.3114	0.7317	0.4514	0.051
Mof_C 	C 	0.4664	0.8175	0.54928	0.069
Mof_C 	C 	0.4932	0.8879	0.57136	-0.131
Mof_H 	H 	0.4763	0.9478	0.5658	0.074
Mof_C 	C 	0.5437	0.8703	0.60087	0.052
Mof_H 	H 	0.5617	0.9182	0.6149	0.021
Mof_C 	C 	0.5682	0.7819	0.60999	-0.124
Mof_C 	C 	0.5354	0.7106	0.5893	0.049
Mof_H 	H 	0.5462	0.6504	0.5958	0.016
Mof_C 	C 	0.4877	0.729	0.55957	-0.133
Mof_H 	H 	0.4687	0.6808	0.5457	0.069
Mof_C 	C 	0.6295	0.7605	0.64123	0.337
Mof_La	La	0.75431	0.71252	0.29752	1.946
Mof_O 	O 	0.9063	0.7733	0.28252	-0.491
Mof_O 	O 	0.898	0.8443	0.23585	-0.527
Mof_O 	O 	0.1594	0.0713	0.2207	-0.459
Mof_O 	O 	0.2157	0.1505	0.26355	-0.58
Mof_O 	O 	0.6741	0.8236	0.65732	-0.428
Mof_O 	O 	0.6331	0.6803	0.65156	-0.449
Mof_C 	C 	0.0653	0.332	0.23601	0.474
Mof_C 	C 	0.9811	0.3923	0.22279	-0.173
Mof_C 	C 	0.9424	0.4563	0.24177	0.098
Mof_H 	H 	0.9665	0.4613	0.2634	0.003
Mof_C 	C 	0.869	0.512	0.22869	-0.174
Mof_C 	C 	0.8286	0.5019	0.19644	0.035
Mof_H 	H 	0.7792	0.5407	0.1878	0.008
Mof_C 	C 	0.8611	0.4355	0.17751	-0.064
Mof_C 	C 	0.9405	0.3833	0.19067	0.039
Mof_H 	H 	0.967	0.3415	0.1777	0.028
Mof_C 	C 	0.8284	0.5825	0.24947	0.428
Mof_C 	C 	0.8163	0.4199	0.14385	0.055
Mof_C 	C 	0.7731	0.4908	0.12461	-0.088
Mof_H 	H 	0.7725	0.5498	0.1328	0.06
Mof_C 	C 	0.7312	0.4732	0.09341	-0.028
Mof_H 	H 	0.7046	0.5219	0.081	0.037
Mof_C 	C 	0.7269	0.3877	0.07975	-0.012
Mof_C 	C 	0.7702	0.3192	0.09871	-0.025
Mof_H 	H 	0.7703	0.2604	0.0903	0.035
Mof_C 	C 	0.814	0.3341	0.13007	-0.089
Mof_H 	H 	0.8423	0.2853	0.142	0.061
Mof_C 	C 	0.6793	0.3694	0.0462	0.035
Mof_C 	C 	0.6461	0.4417	0.02627	-0.077
Mof_H 	H 	0.6547	0.5015	0.0336	0.055
Mof_C 	C 	0.6001	0.4248	0.99538	-0.03
Mof_H 	H 	0.5779	0.4732	0.982	0.038
Mof_C 	C 	0.5873	0.3355	0.98441	-0.017
Mof_C 	C 	0.6204	0.2632	0.00433	-0.029
Mof_H 	H 	0.6118	0.2034	0.997	0.033
Mof_C 	C 	0.6664	0.2801	0.03523	-0.076
Mof_H 	H 	0.6886	0.2317	0.0486	0.051
Mof_C 	C 	0.5336	0.3175	0.95072	0.069
Mof_C 	C 	0.5068	0.3879	0.92864	-0.131
Mof_H 	H 	0.5237	0.4478	0.9342	0.074
Mof_C 	C 	0.4563	0.3703	0.89913	0.052
Mof_H 	H 	0.4383	0.4182	0.8851	0.021
Mof_C 	C 	0.4318	0.2819	0.89001	-0.124
Mof_C 	C 	0.4646	0.2106	0.9107	0.049
Mof_H 	H 	0.4538	0.1504	0.9042	0.016
Mof_C 	C 	0.5123	0.229	0.94043	-0.133
Mof_H 	H 	0.5313	0.1808	0.9543	0.069
Mof_C 	C 	0.3705	0.2605	0.85877	0.337
Mof_La	La	0.24569	0.21252	0.20248	1.946
Mof_O 	O 	0.0937	0.2733	0.21748	-0.491
Mof_O 	O 	0.102	0.3443	0.26415	-0.527
Mof_O 	O 	0.8406	0.5713	0.2793	-0.459
Mof_O 	O 	0.7843	0.6505	0.23645	-0.58
Mof_O 	O 	0.3259	0.3236	0.84268	-0.428
Mof_O 	O 	0.3669	0.1803	0.84844	-0.449
Mof_C 	C 	0.5653	0.832	0.73601	0.474
Mof_C 	C 	0.4811	0.8923	0.72279	-0.174
Mof_C 	C 	0.4424	0.9563	0.74177	0.099
Mof_H 	H 	0.4665	0.9613	0.7634	0.003
Mof_C 	C 	0.369	0.012	0.72869	-0.174
Mof_C 	C 	0.3286	0.0019	0.69644	0.035
Mof_H 	H 	0.2792	0.0407	0.6878	0.008
Mof_C 	C 	0.3611	0.9355	0.67751	-0.064
Mof_C 	C 	0.4405	0.8833	0.69067	0.039
Mof_H 	H 	0.467	0.8415	0.6777	0.027
Mof_C 	C 	0.3284	0.0825	0.74947	0.428
Mof_C 	C 	0.3163	0.9199	0.64385	0.054
Mof_C 	C 	0.2731	0.9908	0.62461	-0.087
Mof_H 	H 	0.2725	0.0498	0.6328	0.059
Mof_C 	C 	0.2312	0.9732	0.59341	-0.027
Mof_H 	H 	0.2046	0.0219	0.581	0.037
Mof_C 	C 	0.2269	0.8877	0.57975	-0.012
Mof_C 	C 	0.2702	0.8192	0.59871	-0.025
Mof_H 	H 	0.2703	0.7604	0.5903	0.035
Mof_C 	C 	0.314	0.8341	0.63007	-0.089
Mof_H 	H 	0.3423	0.7853	0.642	0.061
Mof_C 	C 	0.1793	0.8694	0.5462	0.034
Mof_C 	C 	0.1461	0.9417	0.52627	-0.074
Mof_H 	H 	0.1547	0.0015	0.5336	0.053
Mof_C 	C 	0.1001	0.9248	0.49538	-0.032
Mof_H 	H 	0.0779	0.9732	0.482	0.039
Mof_C 	C 	0.0873	0.8355	0.48441	-0.015
Mof_C 	C 	0.1204	0.7632	0.50433	-0.031
Mof_H 	H 	0.1118	0.7034	0.497	0.034
Mof_C 	C 	0.1664	0.7801	0.53523	-0.075
Mof_H 	H 	0.1886	0.7317	0.5486	0.05
Mof_C 	C 	0.0336	0.8175	0.45072	0.067
Mof_C 	C 	0.0068	0.8879	0.42864	-0.127
Mof_H 	H 	0.0237	0.9478	0.4342	0.073
Mof_C 	C 	0.9563	0.8703	0.39913	0.048
Mof_H 	H 	0.9383	0.9182	0.3851	0.022
Mof_C 	C 	0.9318	0.7819	0.39001	-0.122
Mof_C 	C 	0.9646	0.7106	0.4107	0.046
Mof_H 	H 	0.9538	0.6504	0.4042	0.017
Mof_C 	C 	0.0123	0.729	0.44043	-0.13
Mof_H 	H 	0.0313	0.6808	0.4543	0.068
Mof_C 	C 	0.8705	0.7605	0.35877	0.337
Mof_La	La	0.74569	0.71252	0.70248	1.946
Mof_O 	O 	0.5937	0.7733	0.71748	-0.491
Mof_O 	O 	0.602	0.8443	0.76415	-0.527
Mof_O 	O 	0.3406	0.0713	0.7793	-0.459
Mof_O 	O 	0.2843	0.1505	0.73645	-0.58
Mof_O 	O 	0.8259	0.8236	0.34268	-0.428
Mof_O 	O 	0.8669	0.6803	0.34844	-0.449
_end
