# CIF file generated by openbabel 3.1.0, see https://openbabel.org
data_I
_chemical_name_common 'QETSOY_clean'
_cell_length_a 7.1243
_cell_length_b 10.6933
_cell_length_c 17.092
_cell_angle_alpha 97.109
_cell_angle_beta 90
_cell_angle_gamma 90
_space_group_name_H-M_alt 'P 1'
_space_group_name_Hall 'P 1'
loop_
    _symmetry_equiv_pos_as_xyz
    x,y,z
loop_
    _atom_site_label
    _atom_site_type_symbol
    _atom_site_fract_x
    _atom_site_fract_y
    _atom_site_fract_z
    _atom_site_occupancy
    Er1      Er       0.02014    0.67741    0.74657    1.000
    Er2      Er       0.52014    0.82259    0.75343    1.000
    Er3      Er       0.97986    0.32259    0.25343    1.000
    Er4      Er       0.47986    0.17741    0.24657    1.000
    H1       H        0.45610    0.18050    0.55950    1.000
    H2       H        0.18060    0.48850    0.52000    1.000
    H3       H        0.15170    0.83550    0.54970    1.000
    H4       H        0.95610    0.31950    0.94050    1.000
    H5       H        0.68060    0.01150    0.98000    1.000
    H6       H        0.65170    0.66450    0.95030    1.000
    H7       H        0.54390    0.81950    0.44050    1.000
    H8       H        0.81940    0.51150    0.48000    1.000
    H9       H        0.84830    0.16450    0.45030    1.000
    H10      H        0.04390    0.68050    0.05950    1.000
    H11      H        0.31940    0.98850    0.02000    1.000
    H12      H        0.34830    0.33550    0.04970    1.000
    C1       C        0.32610    0.58580    0.65000    1.000
    C2       C        0.42440    0.54200    0.57360    1.000
    C3       C        0.30930    0.49310    0.51170    1.000
    C4       C        0.61860    0.54880    0.56200    1.000
    C5       C        0.75410    0.59670    0.62600    1.000
    C6       C        0.85280    0.89030    0.63530    1.000
    C7       C        0.92750    0.95280    0.56700    1.000
    C8       C        0.09030    0.90130    0.52950    1.000
    C9       C        0.83920    0.05320    0.53700    1.000
    C10      C        0.67730    0.12160    0.57920    1.000
    C11      C        0.82610    0.91420    0.85000    1.000
    C12      C        0.92440    0.95800    0.92640    1.000
    C13      C        0.80930    0.00690    0.98830    1.000
    C14      C        0.11860    0.95120    0.93800    1.000
    C15      C        0.25410    0.90330    0.87400    1.000
    C16      C        0.35280    0.60970    0.86470    1.000
    C17      C        0.42750    0.54720    0.93300    1.000
    C18      C        0.59030    0.59870    0.97050    1.000
    C19      C        0.33920    0.44680    0.96300    1.000
    C20      C        0.17730    0.37840    0.92080    1.000
    C21      C        0.67390    0.41420    0.35000    1.000
    C22      C        0.57560    0.45800    0.42640    1.000
    C23      C        0.69070    0.50690    0.48830    1.000
    C24      C        0.38140    0.45120    0.43800    1.000
    C25      C        0.24590    0.40330    0.37400    1.000
    C26      C        0.14720    0.10970    0.36470    1.000
    C27      C        0.07250    0.04720    0.43300    1.000
    C28      C        0.90970    0.09870    0.47050    1.000
    C29      C        0.16080    0.94680    0.46300    1.000
    C30      C        0.32270    0.87840    0.42080    1.000
    C31      C        0.17390    0.08580    0.15000    1.000
    C32      C        0.07560    0.04200    0.07360    1.000
    C33      C        0.19070    0.99310    0.01170    1.000
    C34      C        0.88140    0.04880    0.06200    1.000
    C35      C        0.74590    0.09670    0.12600    1.000
    C36      C        0.64720    0.39030    0.13530    1.000
    C37      C        0.57250    0.45280    0.06700    1.000
    C38      C        0.40970    0.40130    0.02950    1.000
    C39      C        0.66080    0.55320    0.03700    1.000
    C40      C        0.82270    0.62160    0.07920    1.000
    O1       O        0.24280    0.50660    0.68556    1.000
    O2       O        0.30780    0.70380    0.67159    1.000
    O3       O        0.92420    0.58710    0.61450    1.000
    O4       O        0.69040    0.64630    0.69311    1.000
    O5       O        0.97200    0.84480    0.67690    1.000
    O6       O        0.67780    0.88580    0.64482    1.000
    O7       O        0.67790    0.15220    0.65040    1.000
    O8       O        0.54390    0.14880    0.53300    1.000
    O9       O        0.74280    0.99340    0.81444    1.000
    O10      O        0.80780    0.79620    0.82841    1.000
    O11      O        0.42420    0.91290    0.88550    1.000
    O12      O        0.19040    0.85370    0.80689    1.000
    O13      O        0.47200    0.65520    0.82310    1.000
    O14      O        0.17780    0.61420    0.85518    1.000
    O15      O        0.17790    0.34780    0.84960    1.000
    O16      O        0.04390    0.35120    0.96700    1.000
    O17      O        0.75720    0.49340    0.31444    1.000
    O18      O        0.69220    0.29620    0.32841    1.000
    O19      O        0.07580    0.41290    0.38550    1.000
    O20      O        0.30960    0.35370    0.30689    1.000
    O21      O        0.02800    0.15520    0.32310    1.000
    O22      O        0.32220    0.11420    0.35518    1.000
    O23      O        0.32210    0.84780    0.34960    1.000
    O24      O        0.45610    0.85120    0.46700    1.000
    O25      O        0.25720    0.00660    0.18556    1.000
    O26      O        0.19220    0.20380    0.17159    1.000
    O27      O        0.57580    0.08710    0.11450    1.000
    O28      O        0.80960    0.14630    0.19311    1.000
    O29      O        0.52800    0.34480    0.17690    1.000
    O30      O        0.82220    0.38580    0.14482    1.000
    O31      O        0.82210    0.65220    0.15040    1.000
    O32      O        0.95610    0.64880    0.03300    1.000
