data_functionalizedCrystal
_audit_creation_method	'EQeq! by Chris Wilmer'
_symmetry_space_group_name_H-M	'P1'
_symmetry_Int_Tables_number	1
_symmetry_cell_setting	triclinic
loop_
_symmetry_equiv_pos_as_xyz
  x,y,z
_cell_length_a	8.8181
_cell_length_b	8.7879
_cell_length_c	27.5387
_cell_angle_alpha	90
_cell_angle_beta	102.183
_cell_angle_gamma	90
loop_
_atom_site_label
_atom_site_type_symbol
_atom_site_fract_x
_atom_site_fract_y
_atom_site_fract_z
_atom_site_charge
Mof_C 	C 	0.5599	0.2529	0.66486	0.489
Mof_C 	C 	0.5838	0.2729	0.61349	-0.269
Mof_C 	C 	0.5372	0.1595	0.57871	0.066
Mof_H 	H 	0.4881	0.0732	0.5875	0.027
Mof_C 	C 	0.563	0.1732	0.53088	0.002
Mof_C 	C 	0.6322	0.3043	0.51786	0.056
Mof_H 	H 	0.6473	0.3153	0.4856	0.026
Mof_C 	C 	0.6787	0.4177	0.55177	-0.248
Mof_H 	H 	0.7258	0.5047	0.5425	0.144
Mof_C 	C 	0.6558	0.4035	0.59968	0.329
Mof_C 	C 	0.3425	0.6873	0.67507	0.418
Mof_C 	C 	0.2571	0.5649	0.64393	-0.225
Mof_C 	C 	0.2364	0.4167	0.66178	0.299
Mof_C 	C 	0.1549	0.3108	0.62769	-0.21
Mof_H 	H 	0.1436	0.2119	0.6384	0.105
Mof_C 	C 	0.0919	0.3474	0.57955	0.027
Mof_H 	H 	0.04	0.2738	0.558	0.036
Mof_C 	C 	0.1054	0.4961	0.56243	0.025
Mof_C 	C 	0.1891	0.6006	0.5945	0.027
Mof_H 	H 	0.201	0.6984	0.583	0.045
Mof_Gd	Gd	0.50385	0.43828	0.76681	1.634
Mof_H 	H 	0.67	0.5	0.6579	0.256
Mof_N 	N 	0.5242	0.0612	0.49315	-0.081
Mof_N 	N 	0.0378	0.5491	0.51422	-0.08
Mof_O 	O 	0.4994	0.1324	0.67557	-0.51
Mof_O 	O 	0.3351	0.8213	0.65927	-0.438
Mof_O 	O 	0.6013	0.362	0.69562	-0.499
Mof_O 	O 	0.2837	0.3767	0.70875	-0.449
Mof_O 	O 	0.426	0.6594	0.71798	-0.57
Mof_O 	O 	0.705	0.517	0.6321	-0.445
Mof_C 	C 	0.4401	0.7529	0.83514	0.487
Mof_C 	C 	0.4162	0.7729	0.88651	-0.264
Mof_C 	C 	0.4628	0.6595	0.92129	0.059
Mof_H 	H 	0.5119	0.5732	0.9125	0.03
Mof_C 	C 	0.437	0.6732	0.96912	0.011
Mof_C 	C 	0.3678	0.8043	0.98214	0.04
Mof_H 	H 	0.3527	0.8153	0.0144	0.035
Mof_C 	C 	0.3213	0.9177	0.94823	-0.221
Mof_H 	H 	0.2742	0.0047	0.9575	0.128
Mof_C 	C 	0.3442	0.9035	0.90032	0.325
Mof_C 	C 	0.6575	0.1873	0.82493	0.417
Mof_C 	C 	0.7429	0.0649	0.85607	-0.225
Mof_C 	C 	0.7636	0.9167	0.83822	0.3
Mof_C 	C 	0.8451	0.8108	0.87231	-0.204
Mof_H 	H 	0.8564	0.7119	0.8616	0.104
Mof_C 	C 	0.9081	0.8474	0.92045	0.018
Mof_H 	H 	0.96	0.7738	0.942	0.041
Mof_C 	C 	0.8946	0.9961	0.93757	0.044
Mof_C 	C 	0.8109	0.1006	0.9055	0.011
Mof_H 	H 	0.799	0.1984	0.917	0.049
Mof_Gd	Gd	0.49615	0.93828	0.73319	1.643
Mof_H 	H 	0.33	-2.4203e-32	0.8421	0.254
Mof_N 	N 	0.4758	0.5612	0.00685	-0.075
Mof_N 	N 	0.9622	0.0491	0.98578	-0.091
Mof_O 	O 	0.5006	0.6324	0.82443	-0.507
Mof_O 	O 	0.6649	0.3213	0.84073	-0.439
Mof_O 	O 	0.3987	0.862	0.80438	-0.497
Mof_O 	O 	0.7163	0.8767	0.79125	-0.449
Mof_O 	O 	0.574	0.1594	0.78202	-0.572
Mof_O 	O 	0.295	0.017	0.8679	-0.447
Mof_C 	C 	0.4401	0.7471	0.33514	0.485
Mof_C 	C 	0.4162	0.7271	0.38651	-0.265
Mof_C 	C 	0.4628	0.8405	0.42129	0.063
Mof_H 	H 	0.5119	0.9268	0.4125	0.034
Mof_C 	C 	0.437	0.8268	0.46912	0.007
Mof_C 	C 	0.3678	0.6957	0.48214	0.053
Mof_H 	H 	0.3527	0.6847	0.5144	0.028
Mof_C 	C 	0.3213	0.5823	0.44823	-0.244
Mof_H 	H 	0.2742	0.4953	0.4575	0.142
Mof_C 	C 	0.3442	0.5965	0.40032	0.327
Mof_C 	C 	0.6575	0.3127	0.32493	0.418
Mof_C 	C 	0.7429	0.4351	0.35607	-0.227
Mof_C 	C 	0.7636	0.5833	0.33822	0.3
Mof_C 	C 	0.8451	0.6892	0.37231	-0.211
Mof_H 	H 	0.8564	0.7881	0.3616	0.11
Mof_C 	C 	0.9081	0.6526	0.42045	0.029
Mof_H 	H 	0.96	0.7262	0.442	0.038
Mof_C 	C 	0.8946	0.5039	0.43757	0.024
Mof_C 	C 	0.8109	0.3994	0.4055	0.028
Mof_H 	H 	0.799	0.3016	0.417	0.042
Mof_Gd	Gd	0.49615	0.56171	0.23319	1.637
Mof_H 	H 	0.33	0.5	0.3421	0.255
Mof_N 	N 	0.4758	0.9388	0.50685	-0.068
Mof_N 	N 	0.9622	0.4509	0.48578	-0.081
Mof_O 	O 	0.5006	0.8676	0.32443	-0.495
Mof_O 	O 	0.6649	0.1787	0.34073	-0.442
Mof_O 	O 	0.3987	0.638	0.30438	-0.496
Mof_O 	O 	0.7163	0.6233	0.29125	-0.447
Mof_O 	O 	0.574	0.3406	0.28202	-0.568
Mof_O 	O 	0.295	0.483	0.3679	-0.445
Mof_C 	C 	0.5599	0.2471	0.16486	0.484
Mof_C 	C 	0.5838	0.2271	0.11349	-0.264
Mof_C 	C 	0.5372	0.3405	0.07871	0.064
Mof_H 	H 	0.4881	0.4268	0.0875	0.029
Mof_C 	C 	0.563	0.3268	0.03088	-0
Mof_C 	C 	0.6322	0.1957	0.01786	0.064
Mof_H 	H 	0.6473	0.1847	0.9856	0.023
Mof_C 	C 	0.6787	0.0823	0.05177	-0.27
Mof_H 	H 	0.7258	0.9953	0.0425	0.16
Mof_C 	C 	0.6558	0.0965	0.09968	0.313
Mof_C 	C 	0.3425	0.8127	0.17507	0.415
Mof_C 	C 	0.2571	0.9351	0.14393	-0.211
Mof_C 	C 	0.2364	0.0833	0.16178	0.282
Mof_C 	C 	0.1549	0.1892	0.12769	-0.212
Mof_H 	H 	0.1436	0.2881	0.1384	0.107
Mof_C 	C 	0.0919	0.1526	0.07955	0.038
Mof_H 	H 	0.04	0.2262	0.058	0.033
Mof_C 	C 	0.1054	0.0039	0.06243	-0.008
Mof_C 	C 	0.1891	0.8994	0.0945	0.052
Mof_H 	H 	0.201	0.8016	0.083	0.037
Mof_Gd	Gd	0.50385	0.06172	0.26681	1.602
Mof_H 	H 	0.67	0	0.1579	0.23
Mof_N 	N 	0.5242	0.4388	0.99315	-0.073
Mof_N 	N 	0.0378	0.9509	0.01422	-0.066
Mof_O 	O 	0.4994	0.3676	0.17557	-0.506
Mof_O 	O 	0.3351	0.6787	0.15927	-0.438
Mof_O 	O 	0.6013	0.138	0.19562	-0.497
Mof_O 	O 	0.2837	0.1233	0.20875	-0.446
Mof_O 	O 	0.426	0.8406	0.21798	-0.558
Mof_O 	O 	0.705	0.983	0.1321	-0.407
_end
