data_functionalizedCrystal
_audit_creation_method	'EQeq! by Chris Wilmer'
_symmetry_space_group_name_H-M	'P1'
_symmetry_Int_Tables_number	1
_symmetry_cell_setting	triclinic
loop_
_symmetry_equiv_pos_as_xyz
  x,y,z
_cell_length_a	16.8396
_cell_length_b	21.4863
_cell_length_c	21.4863
_cell_angle_alpha	81.1666
_cell_angle_beta	66.9292
_cell_angle_gamma	66.9291
loop_
_atom_site_label
_atom_site_type_symbol
_atom_site_fract_x
_atom_site_fract_y
_atom_site_fract_z
_atom_site_charge
Mof_Co	Co	0.35814	0.24238	0.53798	1.157
Mof_Co	Co	0.6385	0.25762	0.96202	1.157
Mof_Co	Co	0.89612	0.46202	0.74238	1.157
Mof_Co	Co	0.60051	0.03799	0.75762	1.157
Mof_H 	H 	0.3676	0.1417	0.6533	-0.012
Mof_H 	H 	0.2991	0.1288	0.7662	0.093
Mof_H 	H 	0.1249	0.3191	0.7747	0.092
Mof_H 	H 	0.1997	0.3261	0.6609	-0.003
Mof_H 	H 	0.2052	0.1327	0.9877	0.013
Mof_H 	H 	0.2765	0.1472	0.8742	0.083
Mof_H 	H 	0.0303	0.2764	0.873	0.081
Mof_H 	H 	0.9706	0.2577	0.9873	0.018
Mof_H 	H 	0.4977	0.15	0.4142	-0.013
Mof_H 	H 	0.5514	0.1503	0.2989	0.087
Mof_H 	H 	0.3933	0.3448	0.3058	0.09
Mof_H 	H 	0.3452	0.3388	0.4206	0.002
Mof_H 	H 	0.6293	0.5403	0.5563	0.137
Mof_H 	H 	0.7516	0.5093	0.5935	0.002
Mof_H 	H 	0.5795	0.5009	0.7845	-0.004
Mof_H 	H 	0.457	0.532	0.7474	0.139
Mof_H 	H 	0.3107	0.5609	0.6157	0.151
Mof_H 	H 	0.2866	0.4797	0.5731	-0.018
Mof_H 	H 	0.5271	0.3416	0.58	-0.017
Mof_H 	H 	0.5513	0.4227	0.6225	0.147
Mof_H 	H 	0.6626	0.3583	0.8467	-0.013
Mof_H 	H 	0.6941	0.3712	0.7338	0.092
Mof_H 	H 	0.7187	0.1809	0.7253	0.091
Mof_H 	H 	0.6867	0.1739	0.8391	-0.004
Mof_H 	H 	0.8256	0.3673	0.5123	0.012
Mof_H 	H 	0.7979	0.3528	0.6258	0.082
Mof_H 	H 	0.6797	0.2236	0.627	0.08
Mof_H 	H 	0.7156	0.2423	0.5127	0.017
Mof_H 	H 	0.5619	0.35	0.0858	-0.013
Mof_H 	H 	0.5006	0.3497	0.2011	0.086
Mof_H 	H 	0.5439	0.1552	0.1942	0.09
Mof_H 	H 	0.6046	0.1612	0.0794	0.002
Mof_H 	H 	0.2259	0.9597	0.9437	0.137
Mof_H 	H 	0.3544	0.9907	0.9065	0.003
Mof_H 	H 	0.3649	0.9991	0.7155	-0.003
Mof_H 	H 	0.2364	0.968	0.7526	0.139
Mof_H 	H 	0.9873	0.9391	0.8843	0.148
Mof_H 	H 	0.8394	0.0203	0.9269	-0.015
Mof_H 	H 	0.9487	0.1584	0.92	-0.014
Mof_H 	H 	0.0965	0.0773	0.8775	0.144
Mof_H 	H 	0.0209	0.3467	0.6417	-0.013
Mof_H 	H 	0.0653	0.2338	0.6288	0.092
Mof_H 	H 	0.8996	0.2253	0.8191	0.091
Mof_H 	H 	0.8606	0.3391	0.8261	-0.004
Mof_H 	H 	0.1929	0.0123	0.6327	0.012
Mof_H 	H 	0.1507	0.1258	0.6472	0.083
Mof_H 	H 	0.9033	0.127	0.7764	0.081
Mof_H 	H 	0.9579	0.0127	0.7577	0.017
Mof_H 	H 	0.9119	0.5858	0.65	-0.014
Mof_H 	H 	0.8503	0.7011	0.6503	0.086
Mof_H 	H 	0.6991	0.6942	0.8448	0.09
Mof_H 	H 	0.7658	0.5794	0.8388	0.002
Mof_H 	H 	0.1856	0.4437	0.0403	0.137
Mof_H 	H 	0.3451	0.4065	0.0093	0.003
Mof_H 	H 	0.364	0.2155	0.0009	-0.003
Mof_H 	H 	0.2044	0.2526	0.032	0.139
Mof_H 	H 	0.9264	0.3843	0.0609	0.151
Mof_H 	H 	0.8597	0.4269	0.9797	-0.017
Mof_H 	H 	0.1071	0.42	0.8416	-0.016
Mof_H 	H 	0.1738	0.3775	0.9227	0.146
Mof_H 	H 	0.5093	0.1533	0.8583	-0.014
Mof_H 	H 	0.4279	0.2662	0.8712	0.092
Mof_H 	H 	0.444	0.2747	0.6809	0.091
Mof_H 	H 	0.5258	0.1609	0.6739	-0.004
Mof_H 	H 	0.3379	0.4877	0.8673	0.012
Mof_H 	H 	0.4237	0.3742	0.8528	0.082
Mof_H 	H 	0.3067	0.373	0.7236	0.08
Mof_H 	H 	0.2283	0.4873	0.7423	0.017
Mof_H 	H 	0.6477	0.9142	0.85	-0.013
Mof_H 	H 	0.7017	0.7989	0.8497	0.086
Mof_H 	H 	0.7381	0.8058	0.6552	0.09
Mof_H 	H 	0.684	0.9206	0.6612	0.002
Mof_H 	H 	0.1696	0.0563	0.4597	0.138
Mof_H 	H 	0.2609	0.0935	0.4907	0.002
Mof_H 	H 	0.0804	0.2845	0.4991	-0.004
Mof_H 	H 	0.989	0.2474	0.468	0.139
Mof_H 	H 	0.8716	0.1157	0.4391	0.151
Mof_H 	H 	0.7663	0.0731	0.5203	-0.018
Mof_H 	H 	0.8687	0.08	0.6584	-0.017
Mof_H 	H 	0.974	0.1225	0.5773	0.147
Mof_C 	C 	0.31805	0.17834	0.67796	0.096
Mof_C 	C 	0.2773	0.17028	0.74612	-0.154
Mof_C 	C 	0.20446	0.22286	0.78502	0.077
Mof_C 	C 	0.17501	0.28185	0.75133	-0.157
Mof_C 	C 	0.22051	0.28536	0.68242	0.1
Mof_C 	C 	0.1692	0.1622	0.9642	0.077
Mof_C 	C 	0.21313	0.17038	0.89556	-0.133
Mof_C 	C 	0.16079	0.21395	0.85907	0.051
Mof_C 	C 	0.06874	0.24658	0.89454	-0.131
Mof_C 	C 	0.0334	0.2343	0.9639	0.082
Mof_C 	C 	0.47681	0.1902	0.39198	0.093
Mof_C 	C 	0.50973	0.19007	0.32247	-0.146
Mof_C 	C 	0.48098	0.24882	0.28782	0.07
Mof_C 	C 	0.41719	0.30421	0.32641	-0.15
Mof_C 	C 	0.38804	0.29997	0.39575	0.103
Mof_C 	C 	0.3797	0.3507	0.5555	0.357
Mof_C 	C 	0.7604	0.4845	0.7077	0.315
Mof_C 	C 	0.531	0.5393	0.6481	0.273
Mof_C 	C 	0.6193	0.5324	0.602	-0.269
Mof_C 	C 	0.6926	0.5138	0.6244	0.134
Mof_C 	C 	0.6777	0.5019	0.6927	-0.186
Mof_C 	C 	0.5894	0.5088	0.7388	0.13
Mof_C 	C 	0.5161	0.5275	0.7165	-0.248
Mof_C 	C 	0.4334	0.4999	0.6233	0.324
Mof_C 	C 	0.3541	0.5169	0.6085	-0.292
Mof_C 	C 	0.3396	0.4683	0.5831	0.167
Mof_C 	C 	0.4044	0.4026	0.5724	-0.216
Mof_C 	C 	0.4838	0.3855	0.5871	0.177
Mof_C 	C 	0.4982	0.4342	0.6126	-0.302
Mof_C 	C 	0.67435	0.32166	0.82204	0.096
Mof_C 	C 	0.6937	0.32972	0.75388	-0.154
Mof_C 	C 	0.71234	0.27714	0.71498	0.077
Mof_C 	C 	0.70819	0.21815	0.74867	-0.157
Mof_C 	C 	0.68829	0.21464	0.81758	0.1
Mof_C 	C 	0.7956	0.3378	0.5358	0.077
Mof_C 	C 	0.77907	0.32962	0.60444	-0.133
Mof_C 	C 	0.73381	0.28605	0.64093	0.051
Mof_C 	C 	0.70986	0.25342	0.60546	-0.131
Mof_C 	C 	0.7316	0.2657	0.5361	0.082
Mof_C 	C 	0.55899	0.3098	0.10802	0.093
Mof_C 	C 	0.52227	0.30993	0.17753	-0.146
Mof_C 	C 	0.51762	0.25118	0.21218	0.07
Mof_C 	C 	0.54781	0.19579	0.17359	-0.15
Mof_C 	C 	0.58376	0.20003	0.10425	0.103
Mof_C 	C 	0.7859	0.1493	0.9445	0.355
Mof_C 	C 	0.4526	0.0155	0.7923	0.313
Mof_C 	C 	0.2184	0.9607	0.8519	0.272
Mof_C 	C 	0.2537	0.9676	0.898	-0.267
Mof_C 	C 	0.3308	0.9862	0.8756	0.133
Mof_C 	C 	0.3723	0.9981	0.8073	-0.183
Mof_C 	C 	0.337	0.9912	0.7612	0.128
Mof_C 	C 	0.2601	0.9725	0.7835	-0.247
Mof_C 	C 	0.0566	0.0001	0.8767	0.315
Mof_C 	C 	0.9795	0.9831	0.8915	-0.279
Mof_C 	C 	0.891	0.0317	0.9169	0.157
Mof_C 	C 	0.8794	0.0974	0.9276	-0.211
Mof_C 	C 	0.9564	0.1145	0.9129	0.171
Mof_C 	C 	0.045	0.0658	0.8874	-0.295
Mof_C 	C 	0.99601	0.32204	0.67834	0.095
Mof_C 	C 	0.02342	0.25388	0.67028	-0.153
Mof_C 	C 	0.98948	0.21498	0.72286	0.075
Mof_C 	C 	0.92634	0.24867	0.78185	-0.156
Mof_C 	C 	0.90293	0.31758	0.78536	0.099
Mof_C 	C 	0.1334	0.0358	0.6622	0.077
Mof_C 	C 	0.10869	0.10444	0.67038	-0.133
Mof_C 	C 	0.01986	0.14093	0.71395	0.052
Mof_C 	C 	0.96328	0.10546	0.74658	-0.132
Mof_C 	C 	0.9973	0.0361	0.7343	0.082
Mof_C 	C 	0.86879	0.60802	0.6902	0.093
Mof_C 	C 	0.8322	0.67753	0.69007	-0.146
Mof_C 	C 	0.7688	0.71218	0.74882	0.07
Mof_C 	C 	0.7436	0.67359	0.80421	-0.15
Mof_C 	C 	0.78379	0.60425	0.79997	0.103
Mof_C 	C 	0.9352	0.4445	0.8507	0.356
Mof_C 	C 	0.4681	0.2923	0.9845	0.314
Mof_C 	C 	0.1791	0.3519	0.0393	0.272
Mof_C 	C 	0.2213	0.398	0.0324	-0.268
Mof_C 	C 	0.317	0.3756	0.0138	0.133
Mof_C 	C 	0.3704	0.3073	0.0019	-0.184
Mof_C 	C 	0.3282	0.2612	0.0088	0.129
Mof_C 	C 	0.2326	0.2835	0.0275	-0.247
Mof_C 	C 	0.0567	0.3767	0.9999	0.322
Mof_C 	C 	0.9626	0.3915	0.0169	-0.29
Mof_C 	C 	0.9227	0.4169	0.9683	0.166
Mof_C 	C 	0.9768	0.4276	0.9026	-0.215
Mof_C 	C 	0.0709	0.4129	0.8855	0.176
Mof_C 	C 	0.1108	0.3874	0.9342	-0.3
Mof_C 	C 	0.49639	0.17796	0.82166	0.096
Mof_C 	C 	0.44758	0.24612	0.82972	-0.154
Mof_C 	C 	0.42732	0.28502	0.77714	0.077
Mof_C 	C 	0.45686	0.25133	0.71815	-0.157
Mof_C 	C 	0.50587	0.18242	0.71464	0.1
Mof_C 	C 	0.3314	0.4642	0.8378	0.077
Mof_C 	C 	0.38351	0.39556	0.82962	-0.133
Mof_C 	C 	0.37474	0.35907	0.78605	0.051
Mof_C 	C 	0.31532	0.39454	0.75342	-0.131
Mof_C 	C 	0.2677	0.4639	0.7657	0.082
Mof_C 	C 	0.66701	0.89198	0.8098	0.093
Mof_C 	C 	0.6998	0.82247	0.80993	-0.145
Mof_C 	C 	0.7298	0.78782	0.75118	0.07
Mof_C 	C 	0.7214	0.82641	0.69579	-0.15
Mof_C 	C 	0.68801	0.89575	0.70003	0.103
Mof_C 	C 	0.7304	0.0555	0.6493	0.357
Mof_C 	C 	0.2449	0.2077	0.5155	0.315
Mof_C 	C 	0.0703	0.1481	0.4607	0.273
Mof_C 	C 	0.1517	0.102	0.4676	-0.269
Mof_C 	C 	0.2064	0.1244	0.4862	0.134
Mof_C 	C 	0.1796	0.1927	0.4981	-0.186
Mof_C 	C 	0.0982	0.2388	0.4912	0.129
Mof_C 	C 	0.0436	0.2165	0.4725	-0.248
Mof_C 	C 	0.9333	0.1233	0.5001	0.324
Mof_C 	C 	0.871	0.1085	0.4831	-0.292
Mof_C 	C 	0.8079	0.0831	0.5317	0.167
Mof_C 	C 	0.807	0.0724	0.5974	-0.216
Mof_C 	C 	0.8693	0.0871	0.6145	0.177
Mof_C 	C 	0.9324	0.1126	0.5658	-0.302
Mof_N 	N 	0.29108	0.2353	0.64514	-0.241
Mof_N 	N 	0.0808	0.1928	0.9986	-0.133
Mof_N 	N 	0.41658	0.24505	0.42899	-0.237
Mof_N 	N 	0.67152	0.2647	0.85486	-0.241
Mof_N 	N 	0.7722	0.3072	0.5014	-0.133
Mof_N 	N 	0.59062	0.25495	0.07101	-0.237
Mof_N 	N 	0.93622	0.35486	0.7353	-0.24
Mof_N 	N 	0.0794	0.0014	0.6928	-0.133
Mof_N 	N 	0.84557	0.57101	0.74505	-0.237
Mof_N 	N 	0.52638	0.14514	0.7647	-0.241
Mof_N 	N 	0.2736	0.4986	0.8072	-0.133
Mof_N 	N 	0.66163	0.92899	0.75495	-0.237
Mof_O 	O 	0.4348	0.2876	0.5504	-0.425
Mof_O 	O 	0.3081	0.36	0.5462	-0.359
Mof_O 	O 	0.7595	0.4733	0.7665	-0.388
Mof_O 	O 	0.8457	0.47357	0.66063	-0.369
Mof_O 	O 	0.442	0.5487	0.6497	-0.308
Mof_O 	O 	0.7728	0.2124	0.9496	-0.425
Mof_O 	O 	0.7143	0.14	0.9538	-0.359
Mof_O 	O 	0.4993	0.0267	0.7335	-0.388
Mof_O 	O 	0.4799	0.02643	0.83937	-0.37
Mof_O 	O 	0.1404	0.9513	0.8503	-0.305
Mof_O 	O 	0.9852	0.4496	0.7876	-0.425
Mof_O 	O 	0.8543	0.4538	0.86	-0.359
Mof_O 	O 	0.526	0.2335	0.9733	-0.388
Mof_O 	O 	0.50633	0.33937	0.97357	-0.369
Mof_O 	O 	0.0917	0.3503	0.0487	-0.306
Mof_O 	O 	0.7224	0.0504	0.7124	-0.425
Mof_O 	O 	0.6681	0.0462	0.64	-0.36
Mof_O 	O 	0.2328	0.2665	0.5267	-0.388
Mof_O 	O 	0.31927	0.16063	0.52643	-0.369
Mof_O 	O 	0.9907	0.1497	0.4513	-0.308
Mof_Co	Co	0.64186	0.75762	0.46202	1.156
Mof_Co	Co	0.3615	0.74238	0.03798	1.156
Mof_Co	Co	0.10387	0.53799	0.25762	1.156
Mof_Co	Co	0.39949	0.96201	0.24238	1.156
Mof_H 	H 	0.6324	0.8583	0.3467	-0.013
Mof_H 	H 	0.7009	0.8712	0.2338	0.092
Mof_H 	H 	0.8751	0.6809	0.2253	0.091
Mof_H 	H 	0.8003	0.6739	0.3391	-0.004
Mof_H 	H 	0.7948	0.8673	0.0123	0.012
Mof_H 	H 	0.7235	0.8528	0.1258	0.082
Mof_H 	H 	0.9697	0.7236	0.127	0.08
Mof_H 	H 	0.0294	0.7423	0.0127	0.017
Mof_H 	H 	0.5023	0.85	0.5858	-0.014
Mof_H 	H 	0.4486	0.8497	0.7011	0.086
Mof_H 	H 	0.6067	0.6552	0.6942	0.09
Mof_H 	H 	0.6548	0.6612	0.5794	0.002
Mof_H 	H 	0.3707	0.4597	0.4437	0.137
Mof_H 	H 	0.2484	0.4907	0.4065	0.002
Mof_H 	H 	0.4205	0.4991	0.2155	-0.004
Mof_H 	H 	0.543	0.468	0.2526	0.139
Mof_H 	H 	0.6893	0.4391	0.3843	0.151
Mof_H 	H 	0.7134	0.5203	0.4269	-0.018
Mof_H 	H 	0.4729	0.6584	0.42	-0.017
Mof_H 	H 	0.4487	0.5773	0.3775	0.147
Mof_H 	H 	0.3374	0.6417	0.1533	-0.013
Mof_H 	H 	0.3059	0.6288	0.2662	0.092
Mof_H 	H 	0.2813	0.8191	0.2747	0.091
Mof_H 	H 	0.3133	0.8261	0.1609	-0.004
Mof_H 	H 	0.1744	0.6327	0.4877	0.012
Mof_H 	H 	0.2021	0.6472	0.3742	0.082
Mof_H 	H 	0.3203	0.7764	0.373	0.08
Mof_H 	H 	0.2844	0.7577	0.4873	0.017
Mof_H 	H 	0.4381	0.65	0.9142	-0.013
Mof_H 	H 	0.4994	0.6503	0.7989	0.086
Mof_H 	H 	0.4561	0.8448	0.8058	0.09
Mof_H 	H 	0.3954	0.8388	0.9206	0.002
Mof_H 	H 	0.7741	0.0403	0.0563	0.137
Mof_H 	H 	0.6456	0.0093	0.0935	0.003
Mof_H 	H 	0.6351	0.0009	0.2845	-0.003
Mof_H 	H 	0.7636	0.032	0.2474	0.139
Mof_H 	H 	0.0127	0.0609	0.1157	0.148
Mof_H 	H 	0.1606	0.9797	0.0731	-0.015
Mof_H 	H 	0.0513	0.8416	0.08	-0.014
Mof_H 	H 	0.9035	0.9227	0.1225	0.144
Mof_H 	H 	0.9791	0.6533	0.3583	-0.013
Mof_H 	H 	0.9347	0.7662	0.3712	0.092
Mof_H 	H 	0.1004	0.7747	0.1809	0.091
Mof_H 	H 	0.1394	0.6609	0.1739	-0.004
Mof_H 	H 	0.8071	0.9877	0.3673	0.012
Mof_H 	H 	0.8493	0.8742	0.3528	0.083
Mof_H 	H 	0.0967	0.873	0.2236	0.081
Mof_H 	H 	0.0421	0.9873	0.2423	0.017
Mof_H 	H 	0.0881	0.4142	0.35	-0.014
Mof_H 	H 	0.1497	0.2989	0.3497	0.086
Mof_H 	H 	0.3009	0.3058	0.1552	0.09
Mof_H 	H 	0.2342	0.4206	0.1612	0.002
Mof_H 	H 	0.8144	0.5563	0.9597	0.137
Mof_H 	H 	0.6549	0.5935	0.9907	0.003
Mof_H 	H 	0.636	0.7845	0.9991	-0.003
Mof_H 	H 	0.7956	0.7474	0.968	0.139
Mof_H 	H 	0.0736	0.6157	0.9391	0.151
Mof_H 	H 	0.1403	0.5731	0.0203	-0.017
Mof_H 	H 	0.8929	0.58	0.1584	-0.016
Mof_H 	H 	0.8262	0.6225	0.0773	0.146
Mof_H 	H 	0.4907	0.8467	0.1417	-0.014
Mof_H 	H 	0.5721	0.7338	0.1288	0.092
Mof_H 	H 	0.556	0.7253	0.3191	0.091
Mof_H 	H 	0.4742	0.8391	0.3261	-0.004
Mof_H 	H 	0.6621	0.5123	0.1327	0.012
Mof_H 	H 	0.5763	0.6258	0.1472	0.082
Mof_H 	H 	0.6933	0.627	0.2764	0.08
Mof_H 	H 	0.7717	0.5127	0.2577	0.017
Mof_H 	H 	0.3523	0.0858	0.15	-0.013
Mof_H 	H 	0.2983	0.2011	0.1503	0.086
Mof_H 	H 	0.2619	0.1942	0.3448	0.09
Mof_H 	H 	0.316	0.0794	0.3388	0.002
Mof_H 	H 	0.8304	0.9437	0.5403	0.138
Mof_H 	H 	0.7391	0.9065	0.5093	0.002
Mof_H 	H 	0.9196	0.7155	0.5009	-0.004
Mof_H 	H 	0.011	0.7526	0.532	0.139
Mof_H 	H 	0.1284	0.8843	0.5609	0.151
Mof_H 	H 	0.2337	0.9269	0.4797	-0.018
Mof_H 	H 	0.1313	0.92	0.3416	-0.017
Mof_H 	H 	0.026	0.8775	0.4227	0.147
Mof_C 	C 	0.68195	0.82166	0.32204	0.096
Mof_C 	C 	0.7227	0.82972	0.25388	-0.154
Mof_C 	C 	0.79554	0.77714	0.21498	0.077
Mof_C 	C 	0.82499	0.71815	0.24867	-0.157
Mof_C 	C 	0.77949	0.71464	0.31758	0.1
Mof_C 	C 	0.8308	0.8378	0.0358	0.077
Mof_C 	C 	0.78687	0.82962	0.10444	-0.133
Mof_C 	C 	0.83921	0.78605	0.14093	0.051
Mof_C 	C 	0.93126	0.75342	0.10546	-0.131
Mof_C 	C 	0.9666	0.7657	0.0361	0.082
Mof_C 	C 	0.52319	0.8098	0.60802	0.093
Mof_C 	C 	0.49027	0.80993	0.67753	-0.146
Mof_C 	C 	0.51902	0.75118	0.71218	0.07
Mof_C 	C 	0.58281	0.69579	0.67359	-0.15
Mof_C 	C 	0.61196	0.70003	0.60425	0.103
Mof_C 	C 	0.6203	0.6493	0.4445	0.357
Mof_C 	C 	0.2396	0.5155	0.2923	0.315
Mof_C 	C 	0.469	0.4607	0.3519	0.273
Mof_C 	C 	0.3807	0.4676	0.398	-0.269
Mof_C 	C 	0.3074	0.4862	0.3756	0.134
Mof_C 	C 	0.3223	0.4981	0.3073	-0.186
Mof_C 	C 	0.4106	0.4912	0.2612	0.13
Mof_C 	C 	0.4839	0.4725	0.2835	-0.248
Mof_C 	C 	0.5666	0.5001	0.3767	0.324
Mof_C 	C 	0.6459	0.4831	0.3915	-0.292
Mof_C 	C 	0.6604	0.5317	0.4169	0.167
Mof_C 	C 	0.5956	0.5974	0.4276	-0.216
Mof_C 	C 	0.5162	0.6145	0.4129	0.177
Mof_C 	C 	0.5018	0.5658	0.3874	-0.302
Mof_C 	C 	0.32565	0.67834	0.17796	0.096
Mof_C 	C 	0.3063	0.67028	0.24612	-0.154
Mof_C 	C 	0.28766	0.72286	0.28502	0.077
Mof_C 	C 	0.29181	0.78185	0.25133	-0.157
Mof_C 	C 	0.31171	0.78536	0.18242	0.1
Mof_C 	C 	0.2044	0.6622	0.4642	0.077
Mof_C 	C 	0.22093	0.67038	0.39556	-0.133
Mof_C 	C 	0.26619	0.71395	0.35907	0.051
Mof_C 	C 	0.29014	0.74658	0.39454	-0.131
Mof_C 	C 	0.2684	0.7343	0.4639	0.082
Mof_C 	C 	0.44101	0.6902	0.89198	0.093
Mof_C 	C 	0.47773	0.69007	0.82247	-0.146
Mof_C 	C 	0.48238	0.74882	0.78782	0.07
Mof_C 	C 	0.45219	0.80421	0.82641	-0.15
Mof_C 	C 	0.41624	0.79997	0.89575	0.103
Mof_C 	C 	0.2141	0.8507	0.0555	0.355
Mof_C 	C 	0.5474	0.9845	0.2077	0.313
Mof_C 	C 	0.7816	0.0393	0.1481	0.272
Mof_C 	C 	0.7463	0.0324	0.102	-0.267
Mof_C 	C 	0.6692	0.0138	0.1244	0.133
Mof_C 	C 	0.6277	0.0019	0.1927	-0.183
Mof_C 	C 	0.663	0.0088	0.2388	0.128
Mof_C 	C 	0.7399	0.0275	0.2165	-0.247
Mof_C 	C 	0.9434	0.9999	0.1233	0.315
Mof_C 	C 	0.0205	0.0169	0.1085	-0.279
Mof_C 	C 	0.109	0.9683	0.0831	0.157
Mof_C 	C 	0.1206	0.9026	0.0724	-0.211
Mof_C 	C 	0.0436	0.8855	0.0871	0.171
Mof_C 	C 	0.955	0.9342	0.1126	-0.295
Mof_C 	C 	0.00399	0.67796	0.32166	0.095
Mof_C 	C 	0.97658	0.74612	0.32972	-0.153
Mof_C 	C 	0.01052	0.78502	0.27714	0.075
Mof_C 	C 	0.07366	0.75133	0.21815	-0.156
Mof_C 	C 	0.09707	0.68242	0.21464	0.099
Mof_C 	C 	0.8666	0.9642	0.3378	0.077
Mof_C 	C 	0.89131	0.89556	0.32962	-0.133
Mof_C 	C 	0.98014	0.85907	0.28605	0.052
Mof_C 	C 	0.03672	0.89454	0.25342	-0.132
Mof_C 	C 	0.0027	0.9639	0.2657	0.082
Mof_C 	C 	0.13121	0.39198	0.3098	0.093
Mof_C 	C 	0.1678	0.32247	0.30993	-0.146
Mof_C 	C 	0.2312	0.28782	0.25118	0.07
Mof_C 	C 	0.2564	0.32641	0.19579	-0.15
Mof_C 	C 	0.21621	0.39575	0.20003	0.103
Mof_C 	C 	0.0648	0.5555	0.1493	0.356
Mof_C 	C 	0.5319	0.7077	0.0155	0.314
Mof_C 	C 	0.8209	0.6481	0.9607	0.272
Mof_C 	C 	0.7787	0.602	0.9676	-0.268
Mof_C 	C 	0.683	0.6244	0.9862	0.133
Mof_C 	C 	0.6296	0.6927	0.9981	-0.184
Mof_C 	C 	0.6718	0.7388	0.9912	0.129
Mof_C 	C 	0.7674	0.7165	0.9725	-0.247
Mof_C 	C 	0.9433	0.6233	0.0001	0.322
Mof_C 	C 	0.0374	0.6085	0.9831	-0.29
Mof_C 	C 	0.0773	0.5831	0.0317	0.166
Mof_C 	C 	0.0232	0.5724	0.0974	-0.215
Mof_C 	C 	0.9291	0.5871	0.1145	0.176
Mof_C 	C 	0.8892	0.6126	0.0658	-0.3
Mof_C 	C 	0.50361	0.82204	0.17834	0.096
Mof_C 	C 	0.55242	0.75388	0.17028	-0.154
Mof_C 	C 	0.57268	0.71498	0.22286	0.077
Mof_C 	C 	0.54314	0.74867	0.28185	-0.157
Mof_C 	C 	0.49413	0.81758	0.28536	0.1
Mof_C 	C 	0.6686	0.5358	0.1622	0.077
Mof_C 	C 	0.61649	0.60444	0.17038	-0.133
Mof_C 	C 	0.62526	0.64093	0.21395	0.051
Mof_C 	C 	0.68468	0.60546	0.24658	-0.131
Mof_C 	C 	0.7323	0.5361	0.2343	0.082
Mof_C 	C 	0.33299	0.10802	0.1902	0.093
Mof_C 	C 	0.3002	0.17753	0.19007	-0.145
Mof_C 	C 	0.2702	0.21218	0.24882	0.07
Mof_C 	C 	0.2786	0.17359	0.30421	-0.15
Mof_C 	C 	0.31199	0.10425	0.29997	0.103
Mof_C 	C 	0.2696	0.9445	0.3507	0.357
Mof_C 	C 	0.7551	0.7923	0.4845	0.315
Mof_C 	C 	0.9297	0.8519	0.5393	0.273
Mof_C 	C 	0.8483	0.898	0.5324	-0.269
Mof_C 	C 	0.7936	0.8756	0.5138	0.134
Mof_C 	C 	0.8204	0.8073	0.5019	-0.186
Mof_C 	C 	0.9018	0.7612	0.5088	0.129
Mof_C 	C 	0.9564	0.7835	0.5275	-0.248
Mof_C 	C 	0.0667	0.8767	0.4999	0.324
Mof_C 	C 	0.129	0.8915	0.5169	-0.292
Mof_C 	C 	0.1921	0.9169	0.4683	0.167
Mof_C 	C 	0.193	0.9276	0.4026	-0.216
Mof_C 	C 	0.1307	0.9129	0.3855	0.177
Mof_C 	C 	0.0676	0.8874	0.4342	-0.302
Mof_N 	N 	0.70892	0.7647	0.35486	-0.241
Mof_N 	N 	0.9192	0.8072	0.0014	-0.133
Mof_N 	N 	0.58342	0.75495	0.57101	-0.237
Mof_N 	N 	0.32848	0.7353	0.14514	-0.241
Mof_N 	N 	0.2278	0.6928	0.4986	-0.133
Mof_N 	N 	0.40938	0.74505	0.92899	-0.237
Mof_N 	N 	0.06378	0.64514	0.2647	-0.24
Mof_N 	N 	0.9206	0.9986	0.3072	-0.133
Mof_N 	N 	0.15443	0.42899	0.25495	-0.237
Mof_N 	N 	0.47362	0.85486	0.2353	-0.241
Mof_N 	N 	0.7264	0.5014	0.1928	-0.133
Mof_N 	N 	0.33837	0.07101	0.24505	-0.237
Mof_O 	O 	0.5652	0.7124	0.4496	-0.425
Mof_O 	O 	0.6919	0.64	0.4538	-0.359
Mof_O 	O 	0.2405	0.5267	0.2335	-0.388
Mof_O 	O 	0.1543	0.52643	0.33937	-0.369
Mof_O 	O 	0.558	0.4513	0.3503	-0.308
Mof_O 	O 	0.2272	0.7876	0.0504	-0.425
Mof_O 	O 	0.2857	0.86	0.0462	-0.359
Mof_O 	O 	0.5007	0.9733	0.2665	-0.388
Mof_O 	O 	0.5201	0.97357	0.16063	-0.37
Mof_O 	O 	0.8596	0.0487	0.1497	-0.305
Mof_O 	O 	0.0148	0.5504	0.2124	-0.425
Mof_O 	O 	0.1457	0.5462	0.14	-0.359
Mof_O 	O 	0.474	0.7665	0.0267	-0.388
Mof_O 	O 	0.49367	0.66063	0.02643	-0.369
Mof_O 	O 	0.9083	0.6497	0.9513	-0.306
Mof_O 	O 	0.2776	0.9496	0.2876	-0.425
Mof_O 	O 	0.3319	0.9538	0.36	-0.36
Mof_O 	O 	0.7672	0.7335	0.4733	-0.388
Mof_O 	O 	0.68073	0.83937	0.47357	-0.369
Mof_O 	O 	0.0093	0.8503	0.5487	-0.308
_end
