# CIF file generated by openbabel 3.1.0, see https://openbabel.org
data_I
_chemical_name_common 'image0'
_cell_length_a 17.9702
_cell_length_b 25.078
_cell_length_c 27.0363
_cell_angle_alpha 90
_cell_angle_beta 90
_cell_angle_gamma 90
_space_group_name_H-M_alt 'P 1'
_space_group_name_Hall 'P 1'
loop_
    _symmetry_equiv_pos_as_xyz
    x,y,z
loop_
    _atom_site_label
    _atom_site_type_symbol
    _atom_site_fract_x
    _atom_site_fract_y
    _atom_site_fract_z
    _atom_site_occupancy
    C1       C        0.01150    0.24680    0.55250    1.000
    C2       C        0.04560    0.19090    0.54610    1.000
    C3       C        0.16100    0.36820    0.62120    1.000
    C4       C        0.13810    0.32910    0.66290    1.000
    C5       C        0.81690    0.20710    0.46300    1.000
    C6       C        0.76570    0.21490    0.50690    1.000
    O1       O        0.05360    0.28360    0.56301    1.000
    O2       O        0.11430    0.18610    0.55080    1.000
    O3       O        0.94150    0.24860    0.54851    1.000
    O4       O        0.00140    0.15398    0.53567    1.000
    O5       O        0.17860    0.35118    0.58077    1.000
    O6       O        0.13990    0.28180    0.65386    1.000
    O7       O        0.15930    0.41780    0.63406    1.000
    O8       O        0.11840    0.35101    0.70317    1.000
    O9       O        0.79620    0.22160    0.42183    1.000
    O10      O        0.70260    0.23160    0.49969    1.000
    O11      O        0.88010    0.18550    0.47246    1.000
    O12      O        0.79330    0.20240    0.54898    1.000
    Cr1      Cr       0.89708    0.17688    0.54415    1.000
    Mn1      Mn       0.17393    0.25831    0.57954    1.000
    C7       C        0.01150    0.74680    0.05250    1.000
    C8       C        0.04560    0.69090    0.04610    1.000
    C9       C        0.16100    0.86820    0.12120    1.000
    C10      C        0.13810    0.82910    0.16290    1.000
    C11      C        0.81690    0.70710    0.96300    1.000
    C12      C        0.76570    0.71490    0.00690    1.000
    O13      O        0.05360    0.78360    0.06301    1.000
    O14      O        0.11430    0.68610    0.05080    1.000
    O15      O        0.94150    0.74860    0.04851    1.000
    O16      O        0.00140    0.65398    0.03567    1.000
    O17      O        0.17860    0.85118    0.08077    1.000
    O18      O        0.13990    0.78180    0.15386    1.000
    O19      O        0.15930    0.91780    0.13406    1.000
    O20      O        0.11840    0.85101    0.20317    1.000
    O21      O        0.79620    0.72160    0.92183    1.000
    O22      O        0.70260    0.73160    0.99969    1.000
    O23      O        0.88010    0.68550    0.97246    1.000
    O24      O        0.79330    0.70240    0.04898    1.000
    Cr2      Cr       0.89708    0.67688    0.04415    1.000
    Mn2      Mn       0.17393    0.75831    0.07954    1.000
    C13      C        0.51150    0.24680    0.05250    1.000
    C14      C        0.54560    0.19090    0.04610    1.000
    C15      C        0.66100    0.36820    0.12120    1.000
    C16      C        0.63810    0.32910    0.16290    1.000
    C17      C        0.31690    0.20710    0.96300    1.000
    C18      C        0.26570    0.21490    0.00690    1.000
    O25      O        0.55360    0.28360    0.06301    1.000
    O26      O        0.61430    0.18610    0.05080    1.000
    O27      O        0.44150    0.24860    0.04851    1.000
    O28      O        0.50140    0.15398    0.03567    1.000
    O29      O        0.67860    0.35118    0.08077    1.000
    O30      O        0.63990    0.28180    0.15386    1.000
    O31      O        0.65930    0.41780    0.13406    1.000
    O32      O        0.61840    0.35101    0.20317    1.000
    O33      O        0.29620    0.22160    0.92183    1.000
    O34      O        0.20260    0.23160    0.99969    1.000
    O35      O        0.38010    0.18550    0.97246    1.000
    O36      O        0.29330    0.20240    0.04898    1.000
    Cr3      Cr       0.39708    0.17688    0.04415    1.000
    Mn3      Mn       0.67393    0.25831    0.07954    1.000
    C19      C        0.51150    0.74680    0.55250    1.000
    C20      C        0.54560    0.69090    0.54610    1.000
    C21      C        0.66100    0.86820    0.62120    1.000
    C22      C        0.63810    0.82910    0.66290    1.000
    C23      C        0.31690    0.70710    0.46300    1.000
    C24      C        0.26570    0.71490    0.50690    1.000
    O37      O        0.55360    0.78360    0.56301    1.000
    O38      O        0.61430    0.68610    0.55080    1.000
    O39      O        0.44150    0.74860    0.54851    1.000
    O40      O        0.50140    0.65398    0.53567    1.000
    O41      O        0.67860    0.85118    0.58077    1.000
    O42      O        0.63990    0.78180    0.65386    1.000
    O43      O        0.65930    0.91780    0.63406    1.000
    O44      O        0.61840    0.85101    0.70317    1.000
    O45      O        0.29620    0.72160    0.42183    1.000
    O46      O        0.20260    0.73160    0.49969    1.000
    O47      O        0.38010    0.68550    0.47246    1.000
    O48      O        0.29330    0.70240    0.54898    1.000
    Cr4      Cr       0.39708    0.67688    0.54415    1.000
    Mn4      Mn       0.67393    0.75831    0.57954    1.000
    C25      C        0.01150    0.75320    0.44750    1.000
    C26      C        0.04560    0.80910    0.45390    1.000
    C27      C        0.16100    0.63180    0.37880    1.000
    C28      C        0.13810    0.67090    0.33710    1.000
    C29      C        0.81690    0.79290    0.53700    1.000
    C30      C        0.76570    0.78510    0.49310    1.000
    O49      O        0.05360    0.71640    0.43699    1.000
    O50      O        0.11430    0.81390    0.44920    1.000
    O51      O        0.94150    0.75140    0.45149    1.000
    O52      O        0.00140    0.84602    0.46433    1.000
    O53      O        0.17860    0.64882    0.41923    1.000
    O54      O        0.13990    0.71820    0.34614    1.000
    O55      O        0.15930    0.58220    0.36594    1.000
    O56      O        0.11840    0.64899    0.29683    1.000
    O57      O        0.79620    0.77840    0.57817    1.000
    O58      O        0.70260    0.76840    0.50031    1.000
    O59      O        0.88010    0.81450    0.52754    1.000
    O60      O        0.79330    0.79760    0.45102    1.000
    Cr5      Cr       0.89708    0.82312    0.45585    1.000
    Mn5      Mn       0.17393    0.74169    0.42046    1.000
    C31      C        0.01150    0.25320    0.94750    1.000
    C32      C        0.04560    0.30910    0.95390    1.000
    C33      C        0.16100    0.13180    0.87880    1.000
    C34      C        0.13810    0.17090    0.83710    1.000
    C35      C        0.81690    0.29290    0.03700    1.000
    C36      C        0.76570    0.28510    0.99310    1.000
    O61      O        0.05360    0.21640    0.93699    1.000
    O62      O        0.11430    0.31390    0.94920    1.000
    O63      O        0.94150    0.25140    0.95149    1.000
    O64      O        0.00140    0.34602    0.96433    1.000
    O65      O        0.17860    0.14882    0.91923    1.000
    O66      O        0.13990    0.21820    0.84614    1.000
    O67      O        0.15930    0.08220    0.86594    1.000
    O68      O        0.11840    0.14899    0.79683    1.000
    O69      O        0.79620    0.27840    0.07817    1.000
    O70      O        0.70260    0.26840    0.00031    1.000
    O71      O        0.88010    0.31450    0.02754    1.000
    O72      O        0.79330    0.29760    0.95102    1.000
    Cr6      Cr       0.89708    0.32312    0.95585    1.000
    Mn6      Mn       0.17393    0.24169    0.92046    1.000
    C37      C        0.51150    0.75320    0.94750    1.000
    C38      C        0.54560    0.80910    0.95390    1.000
    C39      C        0.66100    0.63180    0.87880    1.000
    C40      C        0.63810    0.67090    0.83710    1.000
    C41      C        0.31690    0.79290    0.03700    1.000
    C42      C        0.26570    0.78510    0.99310    1.000
    O73      O        0.55360    0.71640    0.93699    1.000
    O74      O        0.61430    0.81390    0.94920    1.000
    O75      O        0.44150    0.75140    0.95149    1.000
    O76      O        0.50140    0.84602    0.96433    1.000
    O77      O        0.67860    0.64882    0.91923    1.000
    O78      O        0.63990    0.71820    0.84614    1.000
    O79      O        0.65930    0.58220    0.86594    1.000
    O80      O        0.61840    0.64899    0.79683    1.000
    O81      O        0.29620    0.77840    0.07817    1.000
    O82      O        0.20260    0.76840    0.00031    1.000
    O83      O        0.38010    0.81450    0.02754    1.000
    O84      O        0.29330    0.79760    0.95102    1.000
    Cr7      Cr       0.39708    0.82312    0.95585    1.000
    Mn7      Mn       0.67393    0.74169    0.92046    1.000
    C43      C        0.51150    0.25320    0.44750    1.000
    C44      C        0.54560    0.30910    0.45390    1.000
    C45      C        0.66100    0.13180    0.37880    1.000
    C46      C        0.63810    0.17090    0.33710    1.000
    C47      C        0.31690    0.29290    0.53700    1.000
    C48      C        0.26570    0.28510    0.49310    1.000
    O85      O        0.55360    0.21640    0.43699    1.000
    O86      O        0.61430    0.31390    0.44920    1.000
    O87      O        0.44150    0.25140    0.45149    1.000
    O88      O        0.50140    0.34602    0.46433    1.000
    O89      O        0.67860    0.14882    0.41923    1.000
    O90      O        0.63990    0.21820    0.34614    1.000
    O91      O        0.65930    0.08220    0.36594    1.000
    O92      O        0.61840    0.14899    0.29683    1.000
    O93      O        0.29620    0.27840    0.57817    1.000
    O94      O        0.20260    0.26840    0.50031    1.000
    O95      O        0.38010    0.31450    0.52754    1.000
    O96      O        0.29330    0.29760    0.45102    1.000
    Cr8      Cr       0.39708    0.32312    0.45585    1.000
    Mn8      Mn       0.67393    0.24169    0.42046    1.000
    C49      C        0.76150    0.99680    0.69750    1.000
    C50      C        0.79560    0.94090    0.70390    1.000
    C51      C        0.91100    0.11820    0.62880    1.000
    C52      C        0.88810    0.07910    0.58710    1.000
    C53      C        0.56690    0.95710    0.78700    1.000
    C54      C        0.51570    0.96490    0.74310    1.000
    O97      O        0.80360    0.03360    0.68699    1.000
    O98      O        0.86430    0.93610    0.69920    1.000
    O99      O        0.69150    0.99860    0.70149    1.000
    O100     O        0.75140    0.90398    0.71433    1.000
    O101     O        0.92860    0.10118    0.66923    1.000
    O102     O        0.88990    0.03180    0.59614    1.000
    O103     O        0.90930    0.16780    0.61594    1.000
    O104     O        0.86840    0.10101    0.54683    1.000
    O105     O        0.54620    0.97160    0.82817    1.000
    O106     O        0.45260    0.98160    0.75031    1.000
    O107     O        0.63010    0.93550    0.77754    1.000
    O108     O        0.54330    0.95240    0.70102    1.000
    Cr9      Cr       0.64708    0.92688    0.70585    1.000
    Mn9      Mn       0.92393    0.00831    0.67046    1.000
    C55      C        0.76150    0.49680    0.19750    1.000
    C56      C        0.79560    0.44090    0.20390    1.000
    C57      C        0.91100    0.61820    0.12880    1.000
    C58      C        0.88810    0.57910    0.08710    1.000
    C59      C        0.56690    0.45710    0.28700    1.000
    C60      C        0.51570    0.46490    0.24310    1.000
    O109     O        0.80360    0.53360    0.18699    1.000
    O110     O        0.86430    0.43610    0.19920    1.000
    O111     O        0.69150    0.49860    0.20149    1.000
    O112     O        0.75140    0.40398    0.21433    1.000
    O113     O        0.92860    0.60118    0.16923    1.000
    O114     O        0.88990    0.53180    0.09614    1.000
    O115     O        0.90930    0.66780    0.11594    1.000
    O116     O        0.86840    0.60101    0.04683    1.000
    O117     O        0.54620    0.47160    0.32817    1.000
    O118     O        0.45260    0.48160    0.25031    1.000
    O119     O        0.63010    0.43550    0.27754    1.000
    O120     O        0.54330    0.45240    0.20102    1.000
    Cr10     Cr       0.64708    0.42688    0.20585    1.000
    Mn10     Mn       0.92393    0.50831    0.17046    1.000
    C61      C        0.26150    0.99680    0.19750    1.000
    C62      C        0.29560    0.94090    0.20390    1.000
    C63      C        0.41100    0.11820    0.12880    1.000
    C64      C        0.38810    0.07910    0.08710    1.000
    C65      C        0.06690    0.95710    0.28700    1.000
    C66      C        0.01570    0.96490    0.24310    1.000
    O121     O        0.30360    0.03360    0.18699    1.000
    O122     O        0.36430    0.93610    0.19920    1.000
    O123     O        0.19150    0.99860    0.20149    1.000
    O124     O        0.25140    0.90398    0.21433    1.000
    O125     O        0.42860    0.10118    0.16923    1.000
    O126     O        0.38990    0.03180    0.09614    1.000
    O127     O        0.40930    0.16780    0.11594    1.000
    O128     O        0.36840    0.10101    0.04683    1.000
    O129     O        0.04620    0.97160    0.32817    1.000
    O130     O        0.95260    0.98160    0.25031    1.000
    O131     O        0.13010    0.93550    0.27754    1.000
    O132     O        0.04330    0.95240    0.20102    1.000
    Cr11     Cr       0.14708    0.92688    0.20585    1.000
    Mn11     Mn       0.42393    0.00831    0.17046    1.000
    C67      C        0.26150    0.49680    0.69750    1.000
    C68      C        0.29560    0.44090    0.70390    1.000
    C69      C        0.41100    0.61820    0.62880    1.000
    C70      C        0.38810    0.57910    0.58710    1.000
    C71      C        0.06690    0.45710    0.78700    1.000
    C72      C        0.01570    0.46490    0.74310    1.000
    O133     O        0.30360    0.53360    0.68699    1.000
    O134     O        0.36430    0.43610    0.69920    1.000
    O135     O        0.19150    0.49860    0.70149    1.000
    O136     O        0.25140    0.40398    0.71433    1.000
    O137     O        0.42860    0.60118    0.66923    1.000
    O138     O        0.38990    0.53180    0.59614    1.000
    O139     O        0.40930    0.66780    0.61594    1.000
    O140     O        0.36840    0.60101    0.54683    1.000
    O141     O        0.04620    0.47160    0.82817    1.000
    O142     O        0.95260    0.48160    0.75031    1.000
    O143     O        0.13010    0.43550    0.77754    1.000
    O144     O        0.04330    0.45240    0.70102    1.000
    Cr12     Cr       0.14708    0.42688    0.70585    1.000
    Mn12     Mn       0.42393    0.50831    0.67046    1.000
    C73      C        0.76150    0.50320    0.80250    1.000
    C74      C        0.79560    0.55910    0.79610    1.000
    C75      C        0.91100    0.38180    0.87120    1.000
    C76      C        0.88810    0.42090    0.91290    1.000
    C77      C        0.56690    0.54290    0.71300    1.000
    C78      C        0.51570    0.53510    0.75690    1.000
    O145     O        0.80360    0.46640    0.81301    1.000
    O146     O        0.86430    0.56390    0.80080    1.000
    O147     O        0.69150    0.50140    0.79851    1.000
    O148     O        0.75140    0.59602    0.78567    1.000
    O149     O        0.92860    0.39882    0.83077    1.000
    O150     O        0.88990    0.46820    0.90386    1.000
    O151     O        0.90930    0.33220    0.88406    1.000
    O152     O        0.86840    0.39899    0.95317    1.000
    O153     O        0.54620    0.52840    0.67183    1.000
    O154     O        0.45260    0.51840    0.74969    1.000
    O155     O        0.63010    0.56450    0.72246    1.000
    O156     O        0.54330    0.54760    0.79898    1.000
    Cr13     Cr       0.64708    0.57312    0.79415    1.000
    Mn13     Mn       0.92393    0.49169    0.82954    1.000
    C79      C        0.76150    0.00320    0.30250    1.000
    C80      C        0.79560    0.05910    0.29610    1.000
    C81      C        0.91100    0.88180    0.37120    1.000
    C82      C        0.88810    0.92090    0.41290    1.000
    C83      C        0.56690    0.04290    0.21300    1.000
    C84      C        0.51570    0.03510    0.25690    1.000
    O157     O        0.80360    0.96640    0.31301    1.000
    O158     O        0.86430    0.06390    0.30080    1.000
    O159     O        0.69150    0.00140    0.29851    1.000
    O160     O        0.75140    0.09602    0.28567    1.000
    O161     O        0.92860    0.89882    0.33077    1.000
    O162     O        0.88990    0.96820    0.40386    1.000
    O163     O        0.90930    0.83220    0.38406    1.000
    O164     O        0.86840    0.89899    0.45317    1.000
    O165     O        0.54620    0.02840    0.17183    1.000
    O166     O        0.45260    0.01840    0.24969    1.000
    O167     O        0.63010    0.06450    0.22246    1.000
    O168     O        0.54330    0.04760    0.29898    1.000
    Cr14     Cr       0.64708    0.07312    0.29415    1.000
    Mn14     Mn       0.92393    0.99169    0.32954    1.000
    C85      C        0.26150    0.50320    0.30250    1.000
    C86      C        0.29560    0.55910    0.29610    1.000
    C87      C        0.41100    0.38180    0.37120    1.000
    C88      C        0.38810    0.42090    0.41290    1.000
    C89      C        0.06690    0.54290    0.21300    1.000
    C90      C        0.01570    0.53510    0.25690    1.000
    O169     O        0.30360    0.46640    0.31301    1.000
    O170     O        0.36430    0.56390    0.30080    1.000
    O171     O        0.19150    0.50140    0.29851    1.000
    O172     O        0.25140    0.59602    0.28567    1.000
    O173     O        0.42860    0.39882    0.33077    1.000
    O174     O        0.38990    0.46820    0.40386    1.000
    O175     O        0.40930    0.33220    0.38406    1.000
    O176     O        0.36840    0.39899    0.45317    1.000
    O177     O        0.04620    0.52840    0.17183    1.000
    O178     O        0.95260    0.51840    0.24969    1.000
    O179     O        0.13010    0.56450    0.22246    1.000
    O180     O        0.04330    0.54760    0.29898    1.000
    Cr15     Cr       0.14708    0.57312    0.29415    1.000
    Mn15     Mn       0.42393    0.49169    0.32954    1.000
    C91      C        0.26150    0.00320    0.80250    1.000
    C92      C        0.29560    0.05910    0.79610    1.000
    C93      C        0.41100    0.88180    0.87120    1.000
    C94      C        0.38810    0.92090    0.91290    1.000
    C95      C        0.06690    0.04290    0.71300    1.000
    C96      C        0.01570    0.03510    0.75690    1.000
    O181     O        0.30360    0.96640    0.81301    1.000
    O182     O        0.36430    0.06390    0.80080    1.000
    O183     O        0.19150    0.00140    0.79851    1.000
    O184     O        0.25140    0.09602    0.78567    1.000
    O185     O        0.42860    0.89882    0.83077    1.000
    O186     O        0.38990    0.96820    0.90386    1.000
    O187     O        0.40930    0.83220    0.88406    1.000
    O188     O        0.36840    0.89899    0.95317    1.000
    O189     O        0.04620    0.02840    0.67183    1.000
    O190     O        0.95260    0.01840    0.74969    1.000
    O191     O        0.13010    0.06450    0.72246    1.000
    O192     O        0.04330    0.04760    0.79898    1.000
    Cr16     Cr       0.14708    0.07312    0.79415    1.000
    Mn16     Mn       0.42393    0.99169    0.82954    1.000
