data_functionalizedCrystal
_audit_creation_method	'EQeq! by Chris Wilmer'
_symmetry_space_group_name_H-M	'P1'
_symmetry_Int_Tables_number	1
_symmetry_cell_setting	triclinic
loop_
_symmetry_equiv_pos_as_xyz
  x,y,z
_cell_length_a	19.5758
_cell_length_b	19.3887
_cell_length_c	27.3461
_cell_angle_alpha	90
_cell_angle_beta	108.49
_cell_angle_gamma	90
loop_
_atom_site_label
_atom_site_type_symbol
_atom_site_fract_x
_atom_site_fract_y
_atom_site_fract_z
_atom_site_charge
Mof_Co	Co	0.84814	0.97994	0.08221	1.119
Mof_S 	S 	0.0263	0.1537	0.1333	-0.111
Mof_S 	S 	0.7107	0.7774	0.0615	-0.036
Mof_S 	S 	0.6426	0.8371	0.0663	-0.061
Mof_N 	N 	0.7741	0.068	0.07852	-0.225
Mof_N 	N 	0.422	0.3927	0.08598	-0.27
Mof_N 	N 	0.8511	0.0342	0.66321	-0.393
Mof_N 	N 	0.8425	0.0027	0.00266	-0.112
Mof_N 	N 	0.9352	0.0429	0.1054	-0.275
Mof_N 	N 	0.7626	0.9125	0.0573	-0.262
Mof_C 	C 	0.7888	0.1322	0.0705	0.041
Mof_H 	H 	0.8341	0.1402	0.0674	-0.009
Mof_C 	C 	0.7461	0.1881	0.0662	-0.067
Mof_H 	H 	0.762	0.2316	0.0604	0.024
Mof_C 	C 	0.6781	0.1791	0.0706	-0.094
Mof_C 	C 	0.6601	0.1114	0.0778	-0.055
Mof_H 	H 	0.6148	0.1015	0.0802	0.039
Mof_C 	C 	0.7085	0.0591	0.0816	0.03
Mof_H 	H 	0.6944	0.0146	0.0866	0.002
Mof_C 	C 	0.6253	0.2379	0.0627	0.336
Mof_C 	C 	0.629	0.2921	0.0254	-0.879
Mof_H 	H 	0.6006	0.3311	0.0288	0.289
Mof_H 	H 	0.6106	0.2742	0.991	0.283
Mof_H 	H 	0.6782	0.3061	0.0322	0.276
Mof_C 	C 	0.4795	0.3831	0.1272	0.158
Mof_H 	H 	0.485	0.4115	0.1556	-0.042
Mof_C 	C 	0.5315	0.3338	0.1305	-0.295
Mof_H 	H 	0.5699	0.3284	0.1607	0.129
Mof_C 	C 	0.5254	0.2923	0.0879	0.279
Mof_C 	C 	0.467	0.3044	0.045	-0.312
Mof_H 	H 	0.461	0.2778	0.0156	0.14
Mof_C 	C 	0.4187	0.3535	0.0443	0.169
Mof_H 	H 	0.3812	0.3611	0.0139	-0.038
Mof_C 	C 	0.5814	0.2395	0.0908	-0.405
Mof_H 	H 	0.5862	0.2043	0.1147	0.161
Mof_C 	C 	0.8991	0.0056	0.9873	-0.261
Mof_H 	H 	0.9442	0.999	0.0115	0.099
Mof_C 	C 	0.8949	0.018	0.9363	0.49
Mof_H 	H 	0.9369	0.0183	0.9273	-0.17
Mof_C 	C 	0.8303	0.0298	0.8993	-0.938
Mof_C 	C 	0.7728	0.0257	0.9153	0.508
Mof_H 	H 	0.7272	0.0308	0.8914	-0.185
Mof_C 	C 	0.7787	0.0141	0.9662	-0.279
Mof_H 	H 	0.7371	0.0141	0.9757	0.106
Mof_C 	C 	0.8172	0.0532	0.8454	1.778
Mof_C 	C 	0.7646	0.1167	0.819	-1.642
Mof_H 	H 	0.7786	0.1347	0.7909	0.526
Mof_H 	H 	0.7683	0.1523	0.8441	0.491
Mof_H 	H 	0.7158	0.1006	0.8063	0.504
Mof_C 	C 	0.8835	0.9897	0.6996	0.496
Mof_H 	H 	0.911	0.9546	0.6921	-0.159
Mof_C 	C 	0.8776	0.9936	0.7493	-0.935
Mof_H 	H 	0.9016	0.9606	0.7733	0.344
Mof_C 	C 	0.8405	0.0408	0.7641	1.194
Mof_C 	C 	0.8144	0.083	0.6763	0.458
Mof_H 	H 	0.7907	0.1157	0.6519	-0.145
Mof_C 	C 	0.8097	0.0874	0.7266	-0.862
Mof_H 	H 	0.7842	0.1239	0.7345	0.289
Mof_C 	C 	0.8369	0.0379	0.8178	-2.063
Mof_H 	H 	0.8707	0.0045	0.8338	0.625
Mof_C 	C 	0.973	0.0888	0.1163	0.095
Mof_C 	C 	0.719	0.8704	0.0581	0.097
Mof_Co	Co	0.34814	0.47994	0.08221	1.121
Mof_S 	S 	0.5263	0.6537	0.1333	-0.112
Mof_S 	S 	0.2107	0.2774	0.0615	-0.033
Mof_S 	S 	0.1426	0.3371	0.0663	-0.059
Mof_N 	N 	0.2741	0.568	0.07852	-0.225
Mof_N 	N 	0.922	0.8927	0.08598	-0.269
Mof_N 	N 	0.3511	0.5342	0.66321	-0.393
Mof_N 	N 	0.3425	0.5027	0.00266	-0.112
Mof_N 	N 	0.4352	0.5429	0.1054	-0.276
Mof_N 	N 	0.2626	0.4125	0.0573	-0.261
Mof_C 	C 	0.2888	0.6322	0.0705	0.04
Mof_H 	H 	0.3341	0.6402	0.0674	-0.009
Mof_C 	C 	0.2461	0.6881	0.0662	-0.066
Mof_H 	H 	0.262	0.7316	0.0604	0.023
Mof_C 	C 	0.1781	0.6791	0.0706	-0.095
Mof_C 	C 	0.1601	0.6114	0.0778	-0.054
Mof_H 	H 	0.1148	0.6015	0.0802	0.038
Mof_C 	C 	0.2085	0.5591	0.0816	0.03
Mof_H 	H 	0.1944	0.5146	0.0866	0.001
Mof_C 	C 	0.1253	0.7379	0.0627	0.339
Mof_C 	C 	0.129	0.7921	0.0254	-0.888
Mof_H 	H 	0.1006	0.8311	0.0288	0.291
Mof_H 	H 	0.1106	0.7742	0.991	0.287
Mof_H 	H 	0.1782	0.8061	0.0322	0.278
Mof_C 	C 	0.9795	0.8831	0.1272	0.158
Mof_H 	H 	0.985	0.9115	0.1556	-0.042
Mof_C 	C 	0.0315	0.8338	0.1305	-0.295
Mof_H 	H 	0.0699	0.8284	0.1607	0.129
Mof_C 	C 	0.0254	0.7923	0.0879	0.28
Mof_C 	C 	0.967	0.8044	0.045	-0.314
Mof_H 	H 	0.961	0.7778	0.0156	0.139
Mof_C 	C 	0.9187	0.8535	0.0443	0.17
Mof_H 	H 	0.8812	0.8611	0.0139	-0.039
Mof_C 	C 	0.0814	0.7395	0.0908	-0.408
Mof_H 	H 	0.0862	0.7043	0.1147	0.162
Mof_C 	C 	0.3991	0.5056	0.9873	-0.262
Mof_H 	H 	0.4442	0.499	0.0115	0.1
Mof_C 	C 	0.3949	0.518	0.9363	0.492
Mof_H 	H 	0.4369	0.5183	0.9273	-0.171
Mof_C 	C 	0.3303	0.5298	0.8993	-0.941
Mof_C 	C 	0.2728	0.5257	0.9153	0.51
Mof_H 	H 	0.2272	0.5308	0.8914	-0.186
Mof_C 	C 	0.2787	0.5141	0.9662	-0.278
Mof_H 	H 	0.2371	0.5141	0.9757	0.106
Mof_C 	C 	0.3172	0.5532	0.8454	1.784
Mof_C 	C 	0.2646	0.6167	0.819	-1.646
Mof_H 	H 	0.2786	0.6347	0.7909	0.527
Mof_H 	H 	0.2683	0.6523	0.8441	0.492
Mof_H 	H 	0.2158	0.6006	0.8063	0.505
Mof_C 	C 	0.3835	0.4897	0.6996	0.497
Mof_H 	H 	0.411	0.4546	0.6921	-0.159
Mof_C 	C 	0.3776	0.4936	0.7493	-0.94
Mof_H 	H 	0.4016	0.4606	0.7733	0.345
Mof_C 	C 	0.3405	0.5408	0.7641	1.199
Mof_C 	C 	0.3144	0.583	0.6763	0.46
Mof_H 	H 	0.2907	0.6157	0.6519	-0.146
Mof_C 	C 	0.3097	0.5874	0.7266	-0.865
Mof_H 	H 	0.2842	0.6239	0.7345	0.29
Mof_C 	C 	0.3369	0.5379	0.8178	-2.07
Mof_H 	H 	0.3707	0.5045	0.8338	0.628
Mof_C 	C 	0.473	0.5888	0.1163	0.095
Mof_C 	C 	0.219	0.3704	0.0581	0.097
Mof_Co	Co	0.84814	0.02006	0.58221	1.121
Mof_S 	S 	0.0263	0.8463	0.6333	-0.111
Mof_S 	S 	0.7107	0.2226	0.5615	-0.034
Mof_S 	S 	0.6426	0.1629	0.5663	-0.059
Mof_N 	N 	0.7741	0.932	0.57852	-0.225
Mof_N 	N 	0.422	0.6073	0.58598	-0.269
Mof_N 	N 	0.8511	0.9658	0.16321	-0.393
Mof_N 	N 	0.8425	0.9973	0.50266	-0.113
Mof_N 	N 	0.9352	0.9571	0.6054	-0.276
Mof_N 	N 	0.7626	0.0875	0.5573	-0.261
Mof_C 	C 	0.7888	0.8678	0.5705	0.04
Mof_H 	H 	0.8341	0.8598	0.5674	-0.009
Mof_C 	C 	0.7461	0.8119	0.5662	-0.066
Mof_H 	H 	0.762	0.7684	0.5604	0.024
Mof_C 	C 	0.6781	0.8209	0.5706	-0.095
Mof_C 	C 	0.6601	0.8886	0.5778	-0.055
Mof_H 	H 	0.6148	0.8985	0.5802	0.038
Mof_C 	C 	0.7085	0.9409	0.5816	0.03
Mof_H 	H 	0.6944	0.9854	0.5866	0.001
Mof_C 	C 	0.6253	0.7621	0.5627	0.338
Mof_C 	C 	0.629	0.7079	0.5254	-0.884
Mof_H 	H 	0.6006	0.6689	0.5288	0.29
Mof_H 	H 	0.6106	0.7258	0.491	0.285
Mof_H 	H 	0.6782	0.6939	0.5322	0.277
Mof_C 	C 	0.4795	0.6169	0.6272	0.158
Mof_H 	H 	0.485	0.5885	0.6556	-0.042
Mof_C 	C 	0.5315	0.6662	0.6305	-0.295
Mof_H 	H 	0.5699	0.6716	0.6607	0.13
Mof_C 	C 	0.5254	0.7077	0.5879	0.279
Mof_C 	C 	0.467	0.6956	0.545	-0.312
Mof_H 	H 	0.461	0.7222	0.5156	0.139
Mof_C 	C 	0.4187	0.6465	0.5443	0.169
Mof_H 	H 	0.3812	0.6389	0.5139	-0.039
Mof_C 	C 	0.5814	0.7605	0.5908	-0.407
Mof_H 	H 	0.5862	0.7957	0.6147	0.161
Mof_C 	C 	0.8991	0.9944	0.4873	-0.26
Mof_H 	H 	0.9442	0.001	0.5115	0.1
Mof_C 	C 	0.8949	0.982	0.4363	0.489
Mof_H 	H 	0.9369	0.9817	0.4273	-0.17
Mof_C 	C 	0.8303	0.9702	0.3993	-0.937
Mof_C 	C 	0.7728	0.9743	0.4153	0.507
Mof_H 	H 	0.7272	0.9692	0.3914	-0.184
Mof_C 	C 	0.7787	0.9859	0.4662	-0.276
Mof_H 	H 	0.7371	0.9859	0.4757	0.106
Mof_C 	C 	0.8172	0.9468	0.3454	1.776
Mof_C 	C 	0.7646	0.8833	0.319	-1.64
Mof_H 	H 	0.7786	0.8653	0.2909	0.526
Mof_H 	H 	0.7683	0.8477	0.3441	0.49
Mof_H 	H 	0.7158	0.8994	0.3063	0.503
Mof_C 	C 	0.8835	0.0103	0.1996	0.497
Mof_H 	H 	0.911	0.0454	0.1921	-0.159
Mof_C 	C 	0.8776	0.0064	0.2493	-0.934
Mof_H 	H 	0.9016	0.0394	0.2733	0.343
Mof_C 	C 	0.8405	0.9592	0.2641	1.192
Mof_C 	C 	0.8144	0.917	0.1763	0.458
Mof_H 	H 	0.7907	0.8843	0.1519	-0.145
Mof_C 	C 	0.8097	0.9126	0.2266	-0.861
Mof_H 	H 	0.7842	0.8761	0.2345	0.288
Mof_C 	C 	0.8369	0.9621	0.3178	-2.061
Mof_H 	H 	0.8707	0.9955	0.3338	0.625
Mof_C 	C 	0.973	0.9112	0.6163	0.096
Mof_C 	C 	0.719	0.1296	0.5581	0.097
Mof_Co	Co	0.34814	0.52006	0.58221	1.121
Mof_S 	S 	0.5263	0.3463	0.6333	-0.111
Mof_S 	S 	0.2107	0.7226	0.5615	-0.034
Mof_S 	S 	0.1426	0.6629	0.5663	-0.059
Mof_N 	N 	0.2741	0.432	0.57852	-0.225
Mof_N 	N 	0.922	0.1073	0.58598	-0.269
Mof_N 	N 	0.3511	0.4658	0.16321	-0.393
Mof_N 	N 	0.3425	0.4973	0.50266	-0.112
Mof_N 	N 	0.4352	0.4571	0.6054	-0.276
Mof_N 	N 	0.2626	0.5875	0.5573	-0.261
Mof_C 	C 	0.2888	0.3678	0.5705	0.04
Mof_H 	H 	0.3341	0.3598	0.5674	-0.009
Mof_C 	C 	0.2461	0.3119	0.5662	-0.066
Mof_H 	H 	0.262	0.2684	0.5604	0.024
Mof_C 	C 	0.1781	0.3209	0.5706	-0.094
Mof_C 	C 	0.1601	0.3886	0.5778	-0.055
Mof_H 	H 	0.1148	0.3985	0.5802	0.038
Mof_C 	C 	0.2085	0.4409	0.5816	0.03
Mof_H 	H 	0.1944	0.4854	0.5866	0.001
Mof_C 	C 	0.1253	0.2621	0.5627	0.338
Mof_C 	C 	0.129	0.2079	0.5254	-0.884
Mof_H 	H 	0.1006	0.1689	0.5288	0.29
Mof_H 	H 	0.1106	0.2258	0.491	0.285
Mof_H 	H 	0.1782	0.1939	0.5322	0.277
Mof_C 	C 	0.9795	0.1169	0.6272	0.159
Mof_H 	H 	0.985	0.0885	0.6556	-0.042
Mof_C 	C 	0.0315	0.1662	0.6305	-0.296
Mof_H 	H 	0.0699	0.1716	0.6607	0.13
Mof_C 	C 	0.0254	0.2077	0.5879	0.279
Mof_C 	C 	0.967	0.1956	0.545	-0.312
Mof_H 	H 	0.961	0.2222	0.5156	0.139
Mof_C 	C 	0.9187	0.1465	0.5443	0.169
Mof_H 	H 	0.8812	0.1389	0.5139	-0.039
Mof_C 	C 	0.0814	0.2605	0.5908	-0.406
Mof_H 	H 	0.0862	0.2957	0.6147	0.161
Mof_C 	C 	0.3991	0.4944	0.4873	-0.261
Mof_H 	H 	0.4442	0.501	0.5115	0.1
Mof_C 	C 	0.3949	0.482	0.4363	0.491
Mof_H 	H 	0.4369	0.4817	0.4273	-0.171
Mof_C 	C 	0.3303	0.4702	0.3993	-0.941
Mof_C 	C 	0.2728	0.4743	0.4153	0.509
Mof_H 	H 	0.2272	0.4692	0.3914	-0.185
Mof_C 	C 	0.2787	0.4859	0.4662	-0.278
Mof_H 	H 	0.2371	0.4859	0.4757	0.106
Mof_C 	C 	0.3172	0.4468	0.3454	1.783
Mof_C 	C 	0.2646	0.3833	0.319	-1.645
Mof_H 	H 	0.2786	0.3653	0.2909	0.527
Mof_H 	H 	0.2683	0.3477	0.3441	0.492
Mof_H 	H 	0.2158	0.3994	0.3063	0.505
Mof_C 	C 	0.3835	0.5103	0.1996	0.497
Mof_H 	H 	0.411	0.5454	0.1921	-0.159
Mof_C 	C 	0.3776	0.5064	0.2493	-0.939
Mof_H 	H 	0.4016	0.5394	0.2733	0.345
Mof_C 	C 	0.3405	0.4592	0.2641	1.198
Mof_C 	C 	0.3144	0.417	0.1763	0.46
Mof_H 	H 	0.2907	0.3843	0.1519	-0.146
Mof_C 	C 	0.3097	0.4126	0.2266	-0.865
Mof_H 	H 	0.2842	0.3761	0.2345	0.29
Mof_C 	C 	0.3369	0.4621	0.3178	-2.069
Mof_H 	H 	0.3707	0.4955	0.3338	0.627
Mof_C 	C 	0.473	0.4112	0.6163	0.095
Mof_C 	C 	0.219	0.6296	0.5581	0.097
Mof_Co	Co	0.15186	0.97994	0.41779	1.121
Mof_S 	S 	0.9737	0.1537	0.3667	-0.111
Mof_S 	S 	0.2893	0.7774	0.4385	-0.034
Mof_S 	S 	0.3574	0.8371	0.4337	-0.059
Mof_N 	N 	0.2259	0.068	0.42148	-0.225
Mof_N 	N 	0.578	0.3927	0.41402	-0.269
Mof_N 	N 	0.1489	0.0342	0.83679	-0.393
Mof_N 	N 	0.1575	0.0027	0.49734	-0.113
Mof_N 	N 	0.0648	0.0429	0.3946	-0.276
Mof_N 	N 	0.2374	0.9125	0.4427	-0.261
Mof_C 	C 	0.2112	0.1322	0.4295	0.04
Mof_H 	H 	0.1659	0.1402	0.4326	-0.009
Mof_C 	C 	0.2539	0.1881	0.4338	-0.066
Mof_H 	H 	0.238	0.2316	0.4396	0.024
Mof_C 	C 	0.3219	0.1791	0.4294	-0.095
Mof_C 	C 	0.3399	0.1114	0.4222	-0.055
Mof_H 	H 	0.3852	0.1015	0.4198	0.038
Mof_C 	C 	0.2915	0.0591	0.4184	0.03
Mof_H 	H 	0.3056	0.0146	0.4134	0.001
Mof_C 	C 	0.3747	0.2379	0.4373	0.338
Mof_C 	C 	0.371	0.2921	0.4746	-0.884
Mof_H 	H 	0.3994	0.3311	0.4712	0.29
Mof_H 	H 	0.3894	0.2742	0.509	0.285
Mof_H 	H 	0.3218	0.3061	0.4678	0.277
Mof_C 	C 	0.5205	0.3831	0.3728	0.158
Mof_H 	H 	0.515	0.4115	0.3444	-0.042
Mof_C 	C 	0.4685	0.3338	0.3695	-0.295
Mof_H 	H 	0.4301	0.3284	0.3393	0.13
Mof_C 	C 	0.4746	0.2923	0.4121	0.279
Mof_C 	C 	0.533	0.3044	0.455	-0.312
Mof_H 	H 	0.539	0.2778	0.4844	0.139
Mof_C 	C 	0.5813	0.3535	0.4557	0.169
Mof_H 	H 	0.6188	0.3611	0.4861	-0.039
Mof_C 	C 	0.4186	0.2395	0.4092	-0.407
Mof_H 	H 	0.4138	0.2043	0.3853	0.161
Mof_C 	C 	0.1009	0.0056	0.5127	-0.26
Mof_H 	H 	0.0558	0.999	0.4885	0.1
Mof_C 	C 	0.1051	0.018	0.5637	0.489
Mof_H 	H 	0.0631	0.0183	0.5727	-0.17
Mof_C 	C 	0.1697	0.0298	0.6007	-0.937
Mof_C 	C 	0.2272	0.0257	0.5847	0.507
Mof_H 	H 	0.2728	0.0308	0.6086	-0.184
Mof_C 	C 	0.2213	0.0141	0.5338	-0.276
Mof_H 	H 	0.2629	0.0141	0.5243	0.106
Mof_C 	C 	0.1828	0.0532	0.6546	1.776
Mof_C 	C 	0.2354	0.1167	0.681	-1.64
Mof_H 	H 	0.2214	0.1347	0.7091	0.526
Mof_H 	H 	0.2317	0.1523	0.6559	0.49
Mof_H 	H 	0.2842	0.1006	0.6937	0.503
Mof_C 	C 	0.1165	0.9897	0.8004	0.497
Mof_H 	H 	0.089	0.9546	0.8079	-0.159
Mof_C 	C 	0.1224	0.9936	0.7507	-0.934
Mof_H 	H 	0.0984	0.9606	0.7267	0.343
Mof_C 	C 	0.1595	0.0408	0.7359	1.192
Mof_C 	C 	0.1856	0.083	0.8237	0.458
Mof_H 	H 	0.2093	0.1157	0.8481	-0.145
Mof_C 	C 	0.1903	0.0874	0.7734	-0.861
Mof_H 	H 	0.2158	0.1239	0.7655	0.288
Mof_C 	C 	0.1631	0.0379	0.6822	-2.061
Mof_H 	H 	0.1293	0.0045	0.6662	0.625
Mof_C 	C 	0.027	0.0888	0.3837	0.096
Mof_C 	C 	0.281	0.8704	0.4419	0.097
Mof_Co	Co	0.65186	0.47994	0.41779	1.121
Mof_S 	S 	0.4737	0.6537	0.3667	-0.111
Mof_S 	S 	0.7893	0.2774	0.4385	-0.034
Mof_S 	S 	0.8574	0.3371	0.4337	-0.059
Mof_N 	N 	0.7259	0.568	0.42148	-0.225
Mof_N 	N 	0.078	0.8927	0.41402	-0.269
Mof_N 	N 	0.6489	0.5342	0.83679	-0.393
Mof_N 	N 	0.6575	0.5027	0.49734	-0.112
Mof_N 	N 	0.5648	0.5429	0.3946	-0.276
Mof_N 	N 	0.7374	0.4125	0.4427	-0.261
Mof_C 	C 	0.7112	0.6322	0.4295	0.04
Mof_H 	H 	0.6659	0.6402	0.4326	-0.009
Mof_C 	C 	0.7539	0.6881	0.4338	-0.066
Mof_H 	H 	0.738	0.7316	0.4396	0.024
Mof_C 	C 	0.8219	0.6791	0.4294	-0.094
Mof_C 	C 	0.8399	0.6114	0.4222	-0.055
Mof_H 	H 	0.8852	0.6015	0.4198	0.038
Mof_C 	C 	0.7915	0.5591	0.4184	0.03
Mof_H 	H 	0.8056	0.5146	0.4134	0.001
Mof_C 	C 	0.8747	0.7379	0.4373	0.338
Mof_C 	C 	0.871	0.7921	0.4746	-0.884
Mof_H 	H 	0.8994	0.8311	0.4712	0.29
Mof_H 	H 	0.8894	0.7742	0.509	0.285
Mof_H 	H 	0.8218	0.8061	0.4678	0.277
Mof_C 	C 	0.0205	0.8831	0.3728	0.159
Mof_H 	H 	0.015	0.9115	0.3444	-0.042
Mof_C 	C 	0.9685	0.8338	0.3695	-0.296
Mof_H 	H 	0.9301	0.8284	0.3393	0.13
Mof_C 	C 	0.9746	0.7923	0.4121	0.279
Mof_C 	C 	0.033	0.8044	0.455	-0.312
Mof_H 	H 	0.039	0.7778	0.4844	0.139
Mof_C 	C 	0.0813	0.8535	0.4557	0.169
Mof_H 	H 	0.1188	0.8611	0.4861	-0.039
Mof_C 	C 	0.9186	0.7395	0.4092	-0.406
Mof_H 	H 	0.9138	0.7043	0.3853	0.161
Mof_C 	C 	0.6009	0.5056	0.5127	-0.261
Mof_H 	H 	0.5558	0.499	0.4885	0.1
Mof_C 	C 	0.6051	0.518	0.5637	0.491
Mof_H 	H 	0.5631	0.5183	0.5727	-0.171
Mof_C 	C 	0.6697	0.5298	0.6007	-0.941
Mof_C 	C 	0.7272	0.5257	0.5847	0.509
Mof_H 	H 	0.7728	0.5308	0.6086	-0.185
Mof_C 	C 	0.7213	0.5141	0.5338	-0.278
Mof_H 	H 	0.7629	0.5141	0.5243	0.106
Mof_C 	C 	0.6828	0.5532	0.6546	1.783
Mof_C 	C 	0.7354	0.6167	0.681	-1.645
Mof_H 	H 	0.7214	0.6347	0.7091	0.527
Mof_H 	H 	0.7317	0.6523	0.6559	0.492
Mof_H 	H 	0.7842	0.6006	0.6937	0.505
Mof_C 	C 	0.6165	0.4897	0.8004	0.497
Mof_H 	H 	0.589	0.4546	0.8079	-0.159
Mof_C 	C 	0.6224	0.4936	0.7507	-0.939
Mof_H 	H 	0.5984	0.4606	0.7267	0.345
Mof_C 	C 	0.6595	0.5408	0.7359	1.198
Mof_C 	C 	0.6856	0.583	0.8237	0.46
Mof_H 	H 	0.7093	0.6157	0.8481	-0.146
Mof_C 	C 	0.6903	0.5874	0.7734	-0.865
Mof_H 	H 	0.7158	0.6239	0.7655	0.29
Mof_C 	C 	0.6631	0.5379	0.6822	-2.069
Mof_H 	H 	0.6293	0.5045	0.6662	0.627
Mof_C 	C 	0.527	0.5888	0.3837	0.095
Mof_C 	C 	0.781	0.3704	0.4419	0.097
Mof_Co	Co	0.15186	0.02006	0.91779	1.12
Mof_S 	S 	0.9737	0.8463	0.8667	-0.11
Mof_S 	S 	0.2893	0.2226	0.9385	-0.035
Mof_S 	S 	0.3574	0.1629	0.9337	-0.06
Mof_N 	N 	0.2259	0.932	0.92148	-0.224
Mof_N 	N 	0.578	0.6073	0.91402	-0.269
Mof_N 	N 	0.1489	0.9658	0.33679	-0.392
Mof_N 	N 	0.1575	0.9973	0.99734	-0.111
Mof_N 	N 	0.0648	0.9571	0.8946	-0.275
Mof_N 	N 	0.2374	0.0875	0.9427	-0.262
Mof_C 	C 	0.2112	0.8678	0.9295	0.041
Mof_H 	H 	0.1659	0.8598	0.9326	-0.009
Mof_C 	C 	0.2539	0.8119	0.9338	-0.067
Mof_H 	H 	0.238	0.7684	0.9396	0.024
Mof_C 	C 	0.3219	0.8209	0.9294	-0.094
Mof_C 	C 	0.3399	0.8886	0.9222	-0.055
Mof_H 	H 	0.3852	0.8985	0.9198	0.039
Mof_C 	C 	0.2915	0.9409	0.9184	0.03
Mof_H 	H 	0.3056	0.9854	0.9134	0.002
Mof_C 	C 	0.3747	0.7621	0.9373	0.336
Mof_C 	C 	0.371	0.7079	0.9746	-0.879
Mof_H 	H 	0.3994	0.6689	0.9712	0.289
Mof_H 	H 	0.3894	0.7258	0.009	0.283
Mof_H 	H 	0.3218	0.6939	0.9678	0.276
Mof_C 	C 	0.5205	0.6169	0.8728	0.158
Mof_H 	H 	0.515	0.5885	0.8444	-0.042
Mof_C 	C 	0.4685	0.6662	0.8695	-0.295
Mof_H 	H 	0.4301	0.6716	0.8393	0.129
Mof_C 	C 	0.4746	0.7077	0.9121	0.279
Mof_C 	C 	0.533	0.6956	0.955	-0.312
Mof_H 	H 	0.539	0.7222	0.9844	0.14
Mof_C 	C 	0.5813	0.6465	0.9557	0.169
Mof_H 	H 	0.6188	0.6389	0.9861	-0.038
Mof_C 	C 	0.4186	0.7605	0.9092	-0.405
Mof_H 	H 	0.4138	0.7957	0.8853	0.161
Mof_C 	C 	0.1009	0.9944	0.0127	-0.261
Mof_H 	H 	0.0558	0.001	0.9885	0.099
Mof_C 	C 	0.1051	0.982	0.0637	0.49
Mof_H 	H 	0.0631	0.9817	0.0727	-0.17
Mof_C 	C 	0.1697	0.9702	0.1007	-0.938
Mof_C 	C 	0.2272	0.9743	0.0847	0.508
Mof_H 	H 	0.2728	0.9692	0.1086	-0.185
Mof_C 	C 	0.2213	0.9859	0.0338	-0.279
Mof_H 	H 	0.2629	0.9859	0.0243	0.106
Mof_C 	C 	0.1828	0.9468	0.1546	1.778
Mof_C 	C 	0.2354	0.8833	0.181	-1.642
Mof_H 	H 	0.2214	0.8653	0.2091	0.526
Mof_H 	H 	0.2317	0.8477	0.1559	0.491
Mof_H 	H 	0.2842	0.8994	0.1937	0.504
Mof_C 	C 	0.1165	0.0103	0.3004	0.496
Mof_H 	H 	0.089	0.0454	0.3079	-0.159
Mof_C 	C 	0.1224	0.0064	0.2507	-0.935
Mof_H 	H 	0.0984	0.0394	0.2267	0.344
Mof_C 	C 	0.1595	0.9592	0.2359	1.194
Mof_C 	C 	0.1856	0.917	0.3237	0.458
Mof_H 	H 	0.2093	0.8843	0.3481	-0.145
Mof_C 	C 	0.1903	0.9126	0.2734	-0.862
Mof_H 	H 	0.2158	0.8761	0.2655	0.289
Mof_C 	C 	0.1631	0.9621	0.1822	-2.063
Mof_H 	H 	0.1293	0.9955	0.1662	0.625
Mof_C 	C 	0.027	0.9112	0.8837	0.095
Mof_C 	C 	0.281	0.1296	0.9419	0.097
Mof_Co	Co	0.65186	0.52006	0.91779	1.121
Mof_S 	S 	0.4737	0.3463	0.8667	-0.112
Mof_S 	S 	0.7893	0.7226	0.9385	-0.033
Mof_S 	S 	0.8574	0.6629	0.9337	-0.059
Mof_N 	N 	0.7259	0.432	0.92148	-0.225
Mof_N 	N 	0.078	0.1073	0.91402	-0.269
Mof_N 	N 	0.6489	0.4658	0.33679	-0.393
Mof_N 	N 	0.6575	0.4973	0.99734	-0.112
Mof_N 	N 	0.5648	0.4571	0.8946	-0.276
Mof_N 	N 	0.7374	0.5875	0.9427	-0.261
Mof_C 	C 	0.7112	0.3678	0.9295	0.04
Mof_H 	H 	0.6659	0.3598	0.9326	-0.009
Mof_C 	C 	0.7539	0.3119	0.9338	-0.066
Mof_H 	H 	0.738	0.2684	0.9396	0.023
Mof_C 	C 	0.8219	0.3209	0.9294	-0.095
Mof_C 	C 	0.8399	0.3886	0.9222	-0.054
Mof_H 	H 	0.8852	0.3985	0.9198	0.038
Mof_C 	C 	0.7915	0.4409	0.9184	0.03
Mof_H 	H 	0.8056	0.4854	0.9134	0.001
Mof_C 	C 	0.8747	0.2621	0.9373	0.339
Mof_C 	C 	0.871	0.2079	0.9746	-0.888
Mof_H 	H 	0.8994	0.1689	0.9712	0.291
Mof_H 	H 	0.8894	0.2258	0.009	0.287
Mof_H 	H 	0.8218	0.1939	0.9678	0.278
Mof_C 	C 	0.0205	0.1169	0.8728	0.158
Mof_H 	H 	0.015	0.0885	0.8444	-0.042
Mof_C 	C 	0.9685	0.1662	0.8695	-0.295
Mof_H 	H 	0.9301	0.1716	0.8393	0.129
Mof_C 	C 	0.9746	0.2077	0.9121	0.28
Mof_C 	C 	0.033	0.1956	0.955	-0.314
Mof_H 	H 	0.039	0.2222	0.9844	0.139
Mof_C 	C 	0.0813	0.1465	0.9557	0.17
Mof_H 	H 	0.1188	0.1389	0.9861	-0.039
Mof_C 	C 	0.9186	0.2605	0.9092	-0.408
Mof_H 	H 	0.9138	0.2957	0.8853	0.162
Mof_C 	C 	0.6009	0.4944	0.0127	-0.262
Mof_H 	H 	0.5558	0.501	0.9885	0.1
Mof_C 	C 	0.6051	0.482	0.0637	0.492
Mof_H 	H 	0.5631	0.4817	0.0727	-0.171
Mof_C 	C 	0.6697	0.4702	0.1007	-0.941
Mof_C 	C 	0.7272	0.4743	0.0847	0.51
Mof_H 	H 	0.7728	0.4692	0.1086	-0.186
Mof_C 	C 	0.7213	0.4859	0.0338	-0.278
Mof_H 	H 	0.7629	0.4859	0.0243	0.106
Mof_C 	C 	0.6828	0.4468	0.1546	1.784
Mof_C 	C 	0.7354	0.3833	0.181	-1.646
Mof_H 	H 	0.7214	0.3653	0.2091	0.527
Mof_H 	H 	0.7317	0.3477	0.1559	0.492
Mof_H 	H 	0.7842	0.3994	0.1937	0.505
Mof_C 	C 	0.6165	0.5103	0.3004	0.497
Mof_H 	H 	0.589	0.5454	0.3079	-0.159
Mof_C 	C 	0.6224	0.5064	0.2507	-0.94
Mof_H 	H 	0.5984	0.5394	0.2267	0.345
Mof_C 	C 	0.6595	0.4592	0.2359	1.199
Mof_C 	C 	0.6856	0.417	0.3237	0.46
Mof_H 	H 	0.7093	0.3843	0.3481	-0.146
Mof_C 	C 	0.6903	0.4126	0.2734	-0.865
Mof_H 	H 	0.7158	0.3761	0.2655	0.29
Mof_C 	C 	0.6631	0.4621	0.1822	-2.07
Mof_H 	H 	0.6293	0.4955	0.1662	0.628
Mof_C 	C 	0.527	0.4112	0.8837	0.095
Mof_C 	C 	0.781	0.6296	0.9419	0.097
_end
