# CIF file generated by openbabel 3.1.0, see https://openbabel.org
data_I
_chemical_name_common 'image0'
_cell_length_a 9.203
_cell_length_b 15.776
_cell_length_c 31.587
_cell_angle_alpha 90
_cell_angle_beta 90
_cell_angle_gamma 90
_space_group_name_H-M_alt 'P 1'
_space_group_name_Hall 'P 1'
loop_
    _symmetry_equiv_pos_as_xyz
    x,y,z
loop_
    _atom_site_label
    _atom_site_type_symbol
    _atom_site_fract_x
    _atom_site_fract_y
    _atom_site_fract_z
    _atom_site_occupancy
    P1       P        0.10185    0.30470    0.30866    1.000
    O1       O        0.05250    0.35630    0.27112    1.000
    O2       O        0.98720    0.29435    0.34228    1.000
    O3       O        0.17130    0.22186    0.29649    1.000
    O4       O        0.22790    0.35930    0.33108    1.000
    H1       H        0.31900    0.35900    0.32100    1.000
    H2       H        0.18100    0.35500    0.35570    1.000
    P2       P        0.10185    0.80470    0.80866    1.000
    O5       O        0.05250    0.85630    0.77112    1.000
    O6       O        0.98720    0.79435    0.84228    1.000
    O7       O        0.17130    0.72186    0.79649    1.000
    O8       O        0.22790    0.85930    0.83108    1.000
    H3       H        0.31900    0.85900    0.82100    1.000
    H4       H        0.18100    0.85500    0.85570    1.000
    P3       P        0.60185    0.30470    0.80866    1.000
    O9       O        0.55250    0.35630    0.77112    1.000
    O10      O        0.48720    0.29435    0.84228    1.000
    O11      O        0.67130    0.22186    0.79649    1.000
    O12      O        0.72790    0.35930    0.83108    1.000
    H5       H        0.81900    0.35900    0.82100    1.000
    H6       H        0.68100    0.35500    0.85570    1.000
    P4       P        0.60185    0.80470    0.30866    1.000
    O13      O        0.55250    0.85630    0.27112    1.000
    O14      O        0.48720    0.79435    0.34228    1.000
    O15      O        0.67130    0.72186    0.29649    1.000
    O16      O        0.72790    0.85930    0.33108    1.000
    H7       H        0.81900    0.85900    0.32100    1.000
    H8       H        0.68100    0.85500    0.35570    1.000
    P5       P        0.64815    0.44530    0.30866    1.000
    O17      O        0.69750    0.39370    0.27112    1.000
    O18      O        0.76280    0.45565    0.34228    1.000
    O19      O        0.57870    0.52814    0.29649    1.000
    O20      O        0.52210    0.39070    0.33108    1.000
    H9       H        0.43100    0.39100    0.32100    1.000
    H10      H        0.56900    0.39500    0.35570    1.000
    P6       P        0.64815    0.94530    0.80866    1.000
    O21      O        0.69750    0.89370    0.77112    1.000
    O22      O        0.76280    0.95565    0.84228    1.000
    O23      O        0.57870    0.02814    0.79649    1.000
    O24      O        0.52210    0.89070    0.83108    1.000
    H11      H        0.43100    0.89100    0.82100    1.000
    H12      H        0.56900    0.89500    0.85570    1.000
    P7       P        0.14815    0.44530    0.80866    1.000
    O25      O        0.19750    0.39370    0.77112    1.000
    O26      O        0.26280    0.45565    0.84228    1.000
    O27      O        0.07870    0.52814    0.79649    1.000
    O28      O        0.02210    0.39070    0.83108    1.000
    H13      H        0.93100    0.39100    0.82100    1.000
    H14      H        0.06900    0.39500    0.85570    1.000
    P8       P        0.14815    0.94530    0.30866    1.000
    O29      O        0.19750    0.89370    0.27112    1.000
    O30      O        0.26280    0.95565    0.34228    1.000
    O31      O        0.07870    0.02814    0.29649    1.000
    O32      O        0.02210    0.89070    0.33108    1.000
    H15      H        0.93100    0.89100    0.32100    1.000
    H16      H        0.06900    0.89500    0.35570    1.000
    P9       P        0.64815    0.30470    0.44134    1.000
    O33      O        0.69750    0.35630    0.47888    1.000
    O34      O        0.76280    0.29435    0.40772    1.000
    O35      O        0.57870    0.22186    0.45351    1.000
    O36      O        0.52210    0.35930    0.41892    1.000
    H17      H        0.43100    0.35900    0.42900    1.000
    H18      H        0.56900    0.35500    0.39430    1.000
    P10      P        0.64815    0.80470    0.94134    1.000
    O37      O        0.69750    0.85630    0.97888    1.000
    O38      O        0.76280    0.79435    0.90772    1.000
    O39      O        0.57870    0.72186    0.95351    1.000
    O40      O        0.52210    0.85930    0.91892    1.000
    H19      H        0.43100    0.85900    0.92900    1.000
    H20      H        0.56900    0.85500    0.89430    1.000
    P11      P        0.14815    0.30470    0.94134    1.000
    O41      O        0.19750    0.35630    0.97888    1.000
    O42      O        0.26280    0.29435    0.90772    1.000
    O43      O        0.07870    0.22186    0.95351    1.000
    O44      O        0.02210    0.35930    0.91892    1.000
    H21      H        0.93100    0.35900    0.92900    1.000
    H22      H        0.06900    0.35500    0.89430    1.000
    P12      P        0.14815    0.80470    0.44134    1.000
    O45      O        0.19750    0.85630    0.47888    1.000
    O46      O        0.26280    0.79435    0.40772    1.000
    O47      O        0.07870    0.72186    0.45351    1.000
    O48      O        0.02210    0.85930    0.41892    1.000
    H23      H        0.93100    0.85900    0.42900    1.000
    H24      H        0.06900    0.85500    0.39430    1.000
    P13      P        0.10185    0.44530    0.44134    1.000
    O49      O        0.05250    0.39370    0.47888    1.000
    O50      O        0.98720    0.45565    0.40772    1.000
    O51      O        0.17130    0.52814    0.45351    1.000
    O52      O        0.22790    0.39070    0.41892    1.000
    H25      H        0.31900    0.39100    0.42900    1.000
    H26      H        0.18100    0.39500    0.39430    1.000
    P14      P        0.10185    0.94530    0.94134    1.000
    O53      O        0.05250    0.89370    0.97888    1.000
    O54      O        0.98720    0.95565    0.90772    1.000
    O55      O        0.17130    0.02814    0.95351    1.000
    O56      O        0.22790    0.89070    0.91892    1.000
    H27      H        0.31900    0.89100    0.92900    1.000
    H28      H        0.18100    0.89500    0.89430    1.000
    P15      P        0.60185    0.44530    0.94134    1.000
    O57      O        0.55250    0.39370    0.97888    1.000
    O58      O        0.48720    0.45565    0.90772    1.000
    O59      O        0.67130    0.52814    0.95351    1.000
    O60      O        0.72790    0.39070    0.91892    1.000
    H29      H        0.81900    0.39100    0.92900    1.000
    H30      H        0.68100    0.39500    0.89430    1.000
    P16      P        0.60185    0.94530    0.44134    1.000
    O61      O        0.55250    0.89370    0.47888    1.000
    O62      O        0.48720    0.95565    0.40772    1.000
    O63      O        0.67130    0.02814    0.45351    1.000
    O64      O        0.72790    0.89070    0.41892    1.000
    H31      H        0.81900    0.89100    0.42900    1.000
    H32      H        0.68100    0.89500    0.39430    1.000
    P17      P        0.89815    0.69530    0.69134    1.000
    O65      O        0.94750    0.64370    0.72888    1.000
    O66      O        0.01280    0.70565    0.65772    1.000
    O67      O        0.82870    0.77814    0.70351    1.000
    O68      O        0.77210    0.64070    0.66892    1.000
    H33      H        0.68100    0.64100    0.67900    1.000
    H34      H        0.81900    0.64500    0.64430    1.000
    P18      P        0.89815    0.19530    0.19134    1.000
    O69      O        0.94750    0.14370    0.22888    1.000
    O70      O        0.01280    0.20565    0.15772    1.000
    O71      O        0.82870    0.27814    0.20351    1.000
    O72      O        0.77210    0.14070    0.16892    1.000
    H35      H        0.68100    0.14100    0.17900    1.000
    H36      H        0.81900    0.14500    0.14430    1.000
    P19      P        0.39815    0.69530    0.19134    1.000
    O73      O        0.44750    0.64370    0.22888    1.000
    O74      O        0.51280    0.70565    0.15772    1.000
    O75      O        0.32870    0.77814    0.20351    1.000
    O76      O        0.27210    0.64070    0.16892    1.000
    H37      H        0.18100    0.64100    0.17900    1.000
    H38      H        0.31900    0.64500    0.14430    1.000
    P20      P        0.39815    0.19530    0.69134    1.000
    O77      O        0.44750    0.14370    0.72888    1.000
    O78      O        0.51280    0.20565    0.65772    1.000
    O79      O        0.32870    0.27814    0.70351    1.000
    O80      O        0.27210    0.14070    0.66892    1.000
    H39      H        0.18100    0.14100    0.67900    1.000
    H40      H        0.31900    0.14500    0.64430    1.000
    P21      P        0.35185    0.55470    0.69134    1.000
    O81      O        0.30250    0.60630    0.72888    1.000
    O82      O        0.23720    0.54435    0.65772    1.000
    O83      O        0.42130    0.47186    0.70351    1.000
    O84      O        0.47790    0.60930    0.66892    1.000
    H41      H        0.56900    0.60900    0.67900    1.000
    H42      H        0.43100    0.60500    0.64430    1.000
    P22      P        0.35185    0.05470    0.19134    1.000
    O85      O        0.30250    0.10630    0.22888    1.000
    O86      O        0.23720    0.04435    0.15772    1.000
    O87      O        0.42130    0.97186    0.20351    1.000
    O88      O        0.47790    0.10930    0.16892    1.000
    H43      H        0.56900    0.10900    0.17900    1.000
    H44      H        0.43100    0.10500    0.14430    1.000
    P23      P        0.85185    0.55470    0.19134    1.000
    O89      O        0.80250    0.60630    0.22888    1.000
    O90      O        0.73720    0.54435    0.15772    1.000
    O91      O        0.92130    0.47186    0.20351    1.000
    O92      O        0.97790    0.60930    0.16892    1.000
    H45      H        0.06900    0.60900    0.17900    1.000
    H46      H        0.93100    0.60500    0.14430    1.000
    P24      P        0.85185    0.05470    0.69134    1.000
    O93      O        0.80250    0.10630    0.72888    1.000
    O94      O        0.73720    0.04435    0.65772    1.000
    O95      O        0.92130    0.97186    0.70351    1.000
    O96      O        0.97790    0.10930    0.66892    1.000
    H47      H        0.06900    0.10900    0.67900    1.000
    H48      H        0.93100    0.10500    0.64430    1.000
    P25      P        0.35185    0.69530    0.55866    1.000
    O97      O        0.30250    0.64370    0.52112    1.000
    O98      O        0.23720    0.70565    0.59228    1.000
    O99      O        0.42130    0.77814    0.54649    1.000
    O100     O        0.47790    0.64070    0.58108    1.000
    H49      H        0.56900    0.64100    0.57100    1.000
    H50      H        0.43100    0.64500    0.60570    1.000
    P26      P        0.35185    0.19530    0.05866    1.000
    O101     O        0.30250    0.14370    0.02112    1.000
    O102     O        0.23720    0.20565    0.09228    1.000
    O103     O        0.42130    0.27814    0.04649    1.000
    O104     O        0.47790    0.14070    0.08108    1.000
    H51      H        0.56900    0.14100    0.07100    1.000
    H52      H        0.43100    0.14500    0.10570    1.000
    P27      P        0.85185    0.69530    0.05866    1.000
    O105     O        0.80250    0.64370    0.02112    1.000
    O106     O        0.73720    0.70565    0.09228    1.000
    O107     O        0.92130    0.77814    0.04649    1.000
    O108     O        0.97790    0.64070    0.08108    1.000
    H53      H        0.06900    0.64100    0.07100    1.000
    H54      H        0.93100    0.64500    0.10570    1.000
    P28      P        0.85185    0.19530    0.55866    1.000
    O109     O        0.80250    0.14370    0.52112    1.000
    O110     O        0.73720    0.20565    0.59228    1.000
    O111     O        0.92130    0.27814    0.54649    1.000
    O112     O        0.97790    0.14070    0.58108    1.000
    H55      H        0.06900    0.14100    0.57100    1.000
    H56      H        0.93100    0.14500    0.60570    1.000
    P29      P        0.89815    0.55470    0.55866    1.000
    O113     O        0.94750    0.60630    0.52112    1.000
    O114     O        0.01280    0.54435    0.59228    1.000
    O115     O        0.82870    0.47186    0.54649    1.000
    O116     O        0.77210    0.60930    0.58108    1.000
    H57      H        0.68100    0.60900    0.57100    1.000
    H58      H        0.81900    0.60500    0.60570    1.000
    P30      P        0.89815    0.05470    0.05866    1.000
    O117     O        0.94750    0.10630    0.02112    1.000
    O118     O        0.01280    0.04435    0.09228    1.000
    O119     O        0.82870    0.97186    0.04649    1.000
    O120     O        0.77210    0.10930    0.08108    1.000
    H59      H        0.68100    0.10900    0.07100    1.000
    H60      H        0.81900    0.10500    0.10570    1.000
    P31      P        0.39815    0.55470    0.05866    1.000
    O121     O        0.44750    0.60630    0.02112    1.000
    O122     O        0.51280    0.54435    0.09228    1.000
    O123     O        0.32870    0.47186    0.04649    1.000
    O124     O        0.27210    0.60930    0.08108    1.000
    H61      H        0.18100    0.60900    0.07100    1.000
    H62      H        0.31900    0.60500    0.10570    1.000
    P32      P        0.39815    0.05470    0.55866    1.000
    O125     O        0.44750    0.10630    0.52112    1.000
    O126     O        0.51280    0.04435    0.59228    1.000
    O127     O        0.32870    0.97186    0.54649    1.000
    O128     O        0.27210    0.10930    0.58108    1.000
    H63      H        0.18100    0.10900    0.57100    1.000
    H64      H        0.31900    0.10500    0.60570    1.000
    Zn1      Zn       0.87500    0.37500    0.37500    1.000
    Zn2      Zn       0.87500    0.87500    0.87500    1.000
    Zn3      Zn       0.37500    0.37500    0.87500    1.000
    Zn4      Zn       0.37500    0.87500    0.37500    1.000
    Zn5      Zn       0.12500    0.62500    0.62500    1.000
    Zn6      Zn       0.12500    0.12500    0.12500    1.000
    Zn7      Zn       0.62500    0.62500    0.12500    1.000
    Zn8      Zn       0.62500    0.12500    0.62500    1.000
    Zn9      Zn       0.87500    0.37500    0.23928    1.000
    Zn10     Zn       0.87500    0.87500    0.73928    1.000
    Zn11     Zn       0.37500    0.37500    0.73928    1.000
    Zn12     Zn       0.37500    0.87500    0.23928    1.000
    Zn13     Zn       0.87500    0.37500    0.51072    1.000
    Zn14     Zn       0.87500    0.87500    0.01072    1.000
    Zn15     Zn       0.37500    0.37500    0.01072    1.000
    Zn16     Zn       0.37500    0.87500    0.51072    1.000
    Zn17     Zn       0.12500    0.62500    0.76072    1.000
    Zn18     Zn       0.12500    0.12500    0.26072    1.000
    Zn19     Zn       0.62500    0.62500    0.26072    1.000
    Zn20     Zn       0.62500    0.12500    0.76072    1.000
    Zn21     Zn       0.12500    0.62500    0.48928    1.000
    Zn22     Zn       0.12500    0.12500    0.98928    1.000
    Zn23     Zn       0.62500    0.62500    0.98928    1.000
    Zn24     Zn       0.62500    0.12500    0.48928    1.000
