# CIF file generated by openbabel 3.1.0, see https://openbabel.org
data_I
_chemical_name_common 'image0'
_cell_length_a 10.7108
_cell_length_b 13.2616
_cell_length_c 20.7926
_cell_angle_alpha 90
_cell_angle_beta 92.5034
_cell_angle_gamma 90
_space_group_name_H-M_alt 'P 1'
_space_group_name_Hall 'P 1'
loop_
    _symmetry_equiv_pos_as_xyz
    x,y,z
loop_
    _atom_site_label
    _atom_site_type_symbol
    _atom_site_fract_x
    _atom_site_fract_y
    _atom_site_fract_z
    _atom_site_occupancy
    Ag1      Ag       0.19470    0.19007    0.06907    1.000
    Ag2      Ag       0.09897    0.99414    0.40110    1.000
    S1       S        0.95685    0.23640    0.10417    1.000
    S2       S        0.02388    0.12382    0.48366    1.000
    N1       N        0.18394    0.14170    0.18023    1.000
    N2       N        0.13938    0.05943    0.30021    1.000
    N3       N        0.71322    0.14724    0.03161    1.000
    N4       N        0.75391    0.95694    0.97928    1.000
    N5       N        0.02829    0.13805    0.63712    1.000
    N6       N        0.19718    0.28150    0.68744    1.000
    N7       N        0.96573    0.35392    0.53198    1.000
    N8       N        0.19680    0.44982    0.55499    1.000
    C1       C        0.25360    0.06710    0.20541    1.000
    H1       H        0.31900    0.04100    0.18210    1.000
    C2       C        0.23120    0.02525    0.26456    1.000
    H2       H        0.27800    0.96950    0.28120    1.000
    C3       C        0.06910    0.13467    0.27510    1.000
    H3       H        0.00200    0.15760    0.29990    1.000
    C4       C        0.08994    0.17521    0.21494    1.000
    C5       C        0.00810    0.25812    0.18766    1.000
    H4       H        0.93700    0.26530    0.21230    1.000
    H5       H        0.05500    0.31900    0.18690    1.000
    C6       C        0.87360    0.11833    0.11645    1.000
    H6       H        0.81500    0.12880    0.15130    1.000
    H7       H        0.93000    0.06810    0.12930    1.000
    C7       C        0.80208    0.08596    0.05634    1.000
    C8       C        0.82430    0.99230    0.02902    1.000
    H8       H        0.88700    0.95050    0.04390    1.000
    C9       C        0.66230    0.01725    0.95662    1.000
    H9       H        0.61100    0.99400    0.92180    1.000
    C10      C        0.64340    0.11294    0.98137    1.000
    H10      H        0.58600    0.15540    0.96440    1.000
    C11      C        0.01250    0.18303    0.69397    1.000
    H11      H        0.94800    0.16270    0.71640    1.000
    C12      C        0.09580    0.25471    0.71857    1.000
    H12      H        0.08200    0.28510    0.75710    1.000
    C13      C        0.21362    0.23434    0.63173    1.000
    H13      H        0.28600    0.25080    0.60860    1.000
    C14      C        0.13021    0.16419    0.60561    1.000
    C15      C        0.15343    0.11271    0.54287    1.000
    H14      H        0.16000    0.04050    0.55060    1.000
    H15      H        0.23200    0.13590    0.52430    1.000
    C16      C        0.05320    0.24749    0.44890    1.000
    H16      H        0.98400    0.26070    0.42030    1.000
    H17      H        0.12800    0.24350    0.42420    1.000
    C17      C        0.06617    0.32930    0.49845    1.000
    C18      C        0.18019    0.37782    0.51006    1.000
    H18      H        0.25300    0.35840    0.48450    1.000
    C19      C        0.09620    0.47513    0.58740    1.000
    H19      H        0.10500    0.52740    0.62010    1.000
    C20      C        0.98190    0.42715    0.57553    1.000
    H20      H        0.91400    0.44300    0.59930    1.000
    Ag3      Ag       0.30530    0.69007    0.93093    1.000
    Ag4      Ag       0.40103    0.49414    0.59890    1.000
    S3       S        0.54315    0.73640    0.89583    1.000
    S4       S        0.47612    0.62382    0.51634    1.000
    N9       N        0.31606    0.64170    0.81977    1.000
    N10      N        0.36062    0.55943    0.69979    1.000
    N11      N        0.78678    0.64724    0.96839    1.000
    N12      N        0.74609    0.45694    0.02072    1.000
    N13      N        0.47171    0.63805    0.36288    1.000
    N14      N        0.30282    0.78150    0.31256    1.000
    N15      N        0.53427    0.85392    0.46802    1.000
    N16      N        0.30320    0.94982    0.44501    1.000
    C21      C        0.24640    0.56710    0.79459    1.000
    H21      H        0.18100    0.54100    0.81790    1.000
    C22      C        0.26880    0.52525    0.73544    1.000
    H22      H        0.22200    0.46950    0.71880    1.000
    C23      C        0.43090    0.63467    0.72490    1.000
    H23      H        0.49800    0.65760    0.70010    1.000
    C24      C        0.41006    0.67521    0.78506    1.000
    C25      C        0.49190    0.75812    0.81234    1.000
    H24      H        0.56300    0.76530    0.78770    1.000
    H25      H        0.44500    0.81900    0.81310    1.000
    C26      C        0.62640    0.61833    0.88355    1.000
    H26      H        0.68500    0.62880    0.84870    1.000
    H27      H        0.57000    0.56810    0.87070    1.000
    C27      C        0.69792    0.58596    0.94366    1.000
    C28      C        0.67570    0.49230    0.97098    1.000
    H28      H        0.61300    0.45050    0.95610    1.000
    C29      C        0.83770    0.51725    0.04338    1.000
    H29      H        0.88900    0.49400    0.07820    1.000
    C30      C        0.85660    0.61294    0.01863    1.000
    H30      H        0.91400    0.65540    0.03560    1.000
    C31      C        0.48750    0.68303    0.30603    1.000
    H31      H        0.55200    0.66270    0.28360    1.000
    C32      C        0.40420    0.75471    0.28143    1.000
    H32      H        0.41800    0.78510    0.24290    1.000
    C33      C        0.28638    0.73434    0.36827    1.000
    H33      H        0.21400    0.75080    0.39140    1.000
    C34      C        0.36979    0.66419    0.39439    1.000
    C35      C        0.34657    0.61271    0.45713    1.000
    H34      H        0.34000    0.54050    0.44940    1.000
    H35      H        0.26800    0.63590    0.47570    1.000
    C36      C        0.44680    0.74749    0.55110    1.000
    H36      H        0.51600    0.76070    0.57970    1.000
    H37      H        0.37200    0.74350    0.57580    1.000
    C37      C        0.43383    0.82930    0.50155    1.000
    C38      C        0.31981    0.87782    0.48994    1.000
    H38      H        0.24700    0.85840    0.51550    1.000
    C39      C        0.40380    0.97513    0.41260    1.000
    H39      H        0.39500    0.02740    0.37990    1.000
    C40      C        0.51810    0.92715    0.42447    1.000
    H40      H        0.58600    0.94300    0.40070    1.000
    Ag5      Ag       0.80529    0.80993    0.93093    1.000
    Ag6      Ag       0.90103    0.00586    0.59890    1.000
    S5       S        0.04315    0.76360    0.89583    1.000
    S6       S        0.97612    0.87618    0.51634    1.000
    N17      N        0.81606    0.85830    0.81977    1.000
    N18      N        0.86062    0.94057    0.69979    1.000
    N19      N        0.28678    0.85276    0.96839    1.000
    N20      N        0.24609    0.04306    0.02072    1.000
    N21      N        0.97171    0.86195    0.36288    1.000
    N22      N        0.80282    0.71850    0.31256    1.000
    N23      N        0.03427    0.64608    0.46802    1.000
    N24      N        0.80320    0.55018    0.44501    1.000
    C41      C        0.74640    0.93290    0.79459    1.000
    H41      H        0.68100    0.95900    0.81790    1.000
    C42      C        0.76880    0.97475    0.73544    1.000
    H42      H        0.72200    0.03050    0.71880    1.000
    C43      C        0.93090    0.86533    0.72490    1.000
    H43      H        0.99800    0.84240    0.70010    1.000
    C44      C        0.91006    0.82479    0.78506    1.000
    C45      C        0.99190    0.74188    0.81234    1.000
    H44      H        0.06300    0.73470    0.78770    1.000
    H45      H        0.94500    0.68100    0.81310    1.000
    C46      C        0.12640    0.88167    0.88355    1.000
    H46      H        0.18500    0.87120    0.84870    1.000
    H47      H        0.07000    0.93190    0.87070    1.000
    C47      C        0.19792    0.91404    0.94366    1.000
    C48      C        0.17570    0.00770    0.97098    1.000
    H48      H        0.11300    0.04950    0.95610    1.000
    C49      C        0.33770    0.98275    0.04338    1.000
    H49      H        0.38900    0.00600    0.07820    1.000
    C50      C        0.35660    0.88706    0.01863    1.000
    H50      H        0.41400    0.84460    0.03560    1.000
    C51      C        0.98750    0.81697    0.30603    1.000
    H51      H        0.05200    0.83730    0.28360    1.000
    C52      C        0.90420    0.74529    0.28143    1.000
    H52      H        0.91800    0.71490    0.24290    1.000
    C53      C        0.78638    0.76566    0.36827    1.000
    H53      H        0.71400    0.74920    0.39140    1.000
    C54      C        0.86979    0.83581    0.39439    1.000
    C55      C        0.84657    0.88729    0.45713    1.000
    H54      H        0.84000    0.95950    0.44940    1.000
    H55      H        0.76800    0.86410    0.47570    1.000
    C56      C        0.94680    0.75251    0.55110    1.000
    H56      H        0.01600    0.73930    0.57970    1.000
    H57      H        0.87200    0.75650    0.57580    1.000
    C57      C        0.93383    0.67070    0.50155    1.000
    C58      C        0.81981    0.62218    0.48994    1.000
    H58      H        0.74700    0.64160    0.51550    1.000
    C59      C        0.90380    0.52487    0.41260    1.000
    H59      H        0.89500    0.47260    0.37990    1.000
    C60      C        0.01810    0.57285    0.42447    1.000
    H60      H        0.08600    0.55700    0.40070    1.000
    Ag7      Ag       0.69470    0.30993    0.06907    1.000
    Ag8      Ag       0.59897    0.50586    0.40110    1.000
    S7       S        0.45685    0.26360    0.10417    1.000
    S8       S        0.52388    0.37618    0.48366    1.000
    N25      N        0.68394    0.35830    0.18023    1.000
    N26      N        0.63938    0.44057    0.30021    1.000
    N27      N        0.21322    0.35276    0.03161    1.000
    N28      N        0.25391    0.54306    0.97928    1.000
    N29      N        0.52829    0.36195    0.63712    1.000
    N30      N        0.69718    0.21850    0.68744    1.000
    N31      N        0.46573    0.14608    0.53198    1.000
    N32      N        0.69680    0.05018    0.55499    1.000
    C61      C        0.75360    0.43290    0.20541    1.000
    H61      H        0.81900    0.45900    0.18210    1.000
    C62      C        0.73120    0.47475    0.26456    1.000
    H62      H        0.77800    0.53050    0.28120    1.000
    C63      C        0.56910    0.36533    0.27510    1.000
    H63      H        0.50200    0.34240    0.29990    1.000
    C64      C        0.58994    0.32479    0.21494    1.000
    C65      C        0.50810    0.24188    0.18766    1.000
    H64      H        0.43700    0.23470    0.21230    1.000
    H65      H        0.55500    0.18100    0.18690    1.000
    C66      C        0.37360    0.38167    0.11645    1.000
    H66      H        0.31500    0.37120    0.15130    1.000
    H67      H        0.43000    0.43190    0.12930    1.000
    C67      C        0.30208    0.41404    0.05634    1.000
    C68      C        0.32430    0.50770    0.02902    1.000
    H68      H        0.38700    0.54950    0.04390    1.000
    C69      C        0.16230    0.48275    0.95662    1.000
    H69      H        0.11100    0.50600    0.92180    1.000
    C70      C        0.14340    0.38706    0.98137    1.000
    H70      H        0.08600    0.34460    0.96440    1.000
    C71      C        0.51250    0.31697    0.69397    1.000
    H71      H        0.44800    0.33730    0.71640    1.000
    C72      C        0.59580    0.24529    0.71857    1.000
    H72      H        0.58200    0.21490    0.75710    1.000
    C73      C        0.71362    0.26566    0.63173    1.000
    H73      H        0.78600    0.24920    0.60860    1.000
    C74      C        0.63021    0.33581    0.60561    1.000
    C75      C        0.65343    0.38729    0.54287    1.000
    H74      H        0.66000    0.45950    0.55060    1.000
    H75      H        0.73200    0.36410    0.52430    1.000
    C76      C        0.55320    0.25251    0.44890    1.000
    H76      H        0.48400    0.23930    0.42030    1.000
    H77      H        0.62800    0.25650    0.42420    1.000
    C77      C        0.56617    0.17070    0.49845    1.000
    C78      C        0.68019    0.12218    0.51006    1.000
    H78      H        0.75300    0.14160    0.48450    1.000
    C79      C        0.59620    0.02487    0.58740    1.000
    H79      H        0.60500    0.97260    0.62010    1.000
    C80      C        0.48190    0.07285    0.57553    1.000
    H80      H        0.41400    0.05700    0.59930    1.000
