data_functionalizedCrystal
_audit_creation_method	'EQeq! by Chris Wilmer'
_symmetry_space_group_name_H-M	'P1'
_symmetry_Int_Tables_number	1
_symmetry_cell_setting	triclinic
loop_
_symmetry_equiv_pos_as_xyz
  x,y,z
_cell_length_a	9.8108
_cell_length_b	9.8108
_cell_length_c	23.417
_cell_angle_alpha	90
_cell_angle_beta	90
_cell_angle_gamma	108.967
loop_
_atom_site_label
_atom_site_type_symbol
_atom_site_fract_x
_atom_site_fract_y
_atom_site_fract_z
_atom_site_charge
Mof_Cu	Cu	-1.18428e-32	0	0.75	0.829
Mof_Cu	Cu	-0	1.18428e-32	0.25	0.829
Mof_H 	H 	0.8584	0.186	0.6917	0.014
Mof_H 	H 	0.7072	0.1774	0.6164	0.14
Mof_H 	H 	0.6084	0.7474	0.6149	0.13
Mof_H 	H 	0.7629	0.7697	0.6899	-0.002
Mof_H 	H 	0.1416	0.814	0.6917	-0.004
Mof_H 	H 	0.2928	0.8226	0.6164	0.106
Mof_H 	H 	0.3916	0.2526	0.6149	0.11
Mof_H 	H 	0.2371	0.2303	0.6899	0
Mof_H 	H 	0.814	0.1416	0.8083	-0.004
Mof_H 	H 	0.8226	0.2928	0.8836	0.106
Mof_H 	H 	0.2526	0.3916	0.8851	0.11
Mof_H 	H 	0.2303	0.2371	0.8101	-0
Mof_H 	H 	0.186	0.8584	0.8083	0.015
Mof_H 	H 	0.1774	0.7072	0.8836	0.14
Mof_H 	H 	0.7474	0.6084	0.8851	0.13
Mof_H 	H 	0.7697	0.7629	0.8101	-0.002
Mof_H 	H 	0.1416	0.814	0.3083	-0.004
Mof_H 	H 	0.2928	0.8226	0.3836	0.106
Mof_H 	H 	0.3916	0.2526	0.3851	0.11
Mof_H 	H 	0.2371	0.2303	0.3101	0
Mof_H 	H 	0.8584	0.186	0.3083	0.015
Mof_H 	H 	0.7072	0.1774	0.3836	0.14
Mof_H 	H 	0.6084	0.7474	0.3851	0.13
Mof_H 	H 	0.7629	0.7697	0.3101	-0.002
Mof_H 	H 	0.186	0.8584	0.1917	0.015
Mof_H 	H 	0.1774	0.7072	0.1164	0.14
Mof_H 	H 	0.7474	0.6084	0.1149	0.131
Mof_H 	H 	0.7697	0.7629	0.1899	-0.001
Mof_H 	H 	0.814	0.1416	0.1917	-0.004
Mof_H 	H 	0.8226	0.2928	0.1164	0.107
Mof_H 	H 	0.2526	0.3916	0.1149	0.111
Mof_H 	H 	0.2303	0.2371	0.1899	0
Mof_H 	H 	0.7081	0.0657	0.5	0.077
Mof_H 	H 	0.6905	0.8973	0.5	0.105
Mof_H 	H 	0.2919	0.9343	0.5	0.162
Mof_H 	H 	0.3095	0.1027	0.5	0.133
Mof_H 	H 	0.9343	0.2919	-0	0.162
Mof_H 	H 	0.1027	0.3095	-0	0.133
Mof_H 	H 	0.0657	0.7081	-0	0.077
Mof_H 	H 	0.8973	0.6905	-0	0.105
Mof_C 	C 	0.8081	0.0947	0.6755	0.09
Mof_C 	C 	0.7168	0.0904	0.6307	-0.206
Mof_C 	C 	0.6391	0.9613	0.60635	0.154
Mof_C 	C 	0.6591	0.8403	0.62966	-0.17
Mof_C 	C 	0.7526	0.8552	0.67428	0.125
Mof_C 	C 	0.5415	0.9455	0.55428	0.075
Mof_C 	C 	0.1919	0.9053	0.6755	0.12
Mof_C 	C 	0.2832	0.9096	0.6307	-0.095
Mof_C 	C 	0.3609	0.0387	0.60635	0.027
Mof_C 	C 	0.3409	0.1597	0.62966	-0.122
Mof_C 	C 	0.2474	0.1448	0.67428	0.077
Mof_C 	C 	0.4585	0.0545	0.55428	0.094
Mof_C 	C 	0.9053	0.1919	0.8245	0.12
Mof_C 	C 	0.9096	0.2832	0.8693	-0.095
Mof_C 	C 	0.0387	0.3609	0.89365	0.027
Mof_C 	C 	0.1597	0.3409	0.87034	-0.123
Mof_C 	C 	0.1448	0.2474	0.82572	0.077
Mof_C 	C 	0.0545	0.4585	0.94572	0.091
Mof_C 	C 	0.0947	0.8081	0.8245	0.09
Mof_C 	C 	0.0904	0.7168	0.8693	-0.206
Mof_C 	C 	0.9613	0.6391	0.89365	0.155
Mof_C 	C 	0.8403	0.6591	0.87034	-0.171
Mof_C 	C 	0.8552	0.7526	0.82572	0.125
Mof_C 	C 	0.9455	0.5415	0.94572	0.072
Mof_C 	C 	0.1919	0.9053	0.3245	0.12
Mof_C 	C 	0.2832	0.9096	0.3693	-0.095
Mof_C 	C 	0.3609	0.0387	0.39365	0.027
Mof_C 	C 	0.3409	0.1597	0.37034	-0.122
Mof_C 	C 	0.2474	0.1448	0.32572	0.077
Mof_C 	C 	0.4585	0.0545	0.44572	0.094
Mof_C 	C 	0.8081	0.0947	0.3245	0.09
Mof_C 	C 	0.7168	0.0904	0.3693	-0.206
Mof_C 	C 	0.6391	0.9613	0.39365	0.154
Mof_C 	C 	0.6591	0.8403	0.37034	-0.17
Mof_C 	C 	0.7526	0.8552	0.32572	0.125
Mof_C 	C 	0.5415	0.9455	0.44572	0.075
Mof_C 	C 	0.0947	0.8081	0.1755	0.09
Mof_C 	C 	0.0904	0.7168	0.1307	-0.205
Mof_C 	C 	0.9613	0.6391	0.10635	0.154
Mof_C 	C 	0.8403	0.6591	0.12966	-0.17
Mof_C 	C 	0.8552	0.7526	0.17428	0.125
Mof_C 	C 	0.9455	0.5415	0.05428	0.074
Mof_C 	C 	0.9053	0.1919	0.1755	0.12
Mof_C 	C 	0.9096	0.2832	0.1307	-0.095
Mof_C 	C 	0.0387	0.3609	0.10635	0.027
Mof_C 	C 	0.1597	0.3409	0.12966	-0.123
Mof_C 	C 	0.1448	0.2474	0.17428	0.077
Mof_C 	C 	0.0545	0.4585	0.05428	0.094
Mof_C 	C 	0.6371	0.9673	0.5	-0.112
Mof_C 	C 	0.3629	0.0327	0.5	-0.269
Mof_C 	C 	0.0327	0.3629	-0	-0.264
Mof_C 	C 	0.9673	0.6371	-0	-0.109
Mof_N 	N 	0.83056	0.98024	0.69755	-0.212
Mof_N 	N 	0.16944	0.01976	0.69755	-0.265
Mof_N 	N 	0.01976	0.16944	0.80245	-0.266
Mof_N 	N 	0.98024	0.83056	0.80245	-0.212
Mof_N 	N 	0.16944	0.01976	0.30245	-0.265
Mof_N 	N 	0.83056	0.98024	0.30245	-0.212
Mof_N 	N 	0.98024	0.83056	0.19755	-0.212
Mof_N 	N 	0.01976	0.16944	0.19755	-0.265
Mof_O 	O 	0.4354	0.805	0.5491	-0.132
Mof_O 	O 	0.5646	0.195	0.5491	-0.14
Mof_O 	O 	0.195	0.5646	0.9509	-0.142
Mof_O 	O 	0.805	0.4354	0.9509	-0.134
Mof_O 	O 	0.5646	0.195	0.4509	-0.14
Mof_O 	O 	0.4354	0.805	0.4509	-0.132
Mof_O 	O 	0.805	0.4354	0.0491	-0.131
Mof_O 	O 	0.195	0.5646	0.0491	-0.139
Mof_N 	N 	-3.83405e-18	0.5	0.6335	0.024
Mof_O 	O 	0.8829	0.4549	0.6069	-0.061
Mof_O 	O 	0.1171	0.5451	0.6069	-0.097
Mof_O 	O 	1.12275e-17	0.5	0.6871	-0.131
Mof_N 	N 	0.5	2.36856e-32	0.8665	0.024
Mof_O 	O 	0.5451	0.1171	0.8931	-0.099
Mof_O 	O 	0.4549	0.8829	0.8931	-0.063
Mof_O 	O 	0.5	-2.36856e-32	0.8129	-0.131
Mof_N 	N 	6.44385e-19	0.5	0.3665	0.024
Mof_O 	O 	0.1171	0.5451	0.3931	-0.097
Mof_O 	O 	0.8829	0.4549	0.3931	-0.061
Mof_O 	O 	1.22504e-17	0.5	0.3129	-0.131
Mof_N 	N 	0.5	0	0.1335	0.024
Mof_O 	O 	0.4549	0.8829	0.1069	-0.061
Mof_O 	O 	0.5451	0.1171	0.1069	-0.097
Mof_O 	O 	0.5	5.9214e-33	0.1871	-0.13
Mof_Cl	Cl	0.5	0.5	0.5	-0.225
Mof_Cl	Cl	0.5	0.5	-0	-0.222
_end
