data_functionalizedCrystal
_audit_creation_method	'EQeq! by Chris Wilmer'
_symmetry_space_group_name_H-M	'P1'
_symmetry_Int_Tables_number	1
_symmetry_cell_setting	triclinic
loop_
_symmetry_equiv_pos_as_xyz
  x,y,z
_cell_length_a	8.0191
_cell_length_b	17.305
_cell_length_c	23.3034
_cell_angle_alpha	90
_cell_angle_beta	90
_cell_angle_gamma	90
loop_
_atom_site_label
_atom_site_type_symbol
_atom_site_fract_x
_atom_site_fract_y
_atom_site_fract_z
_atom_site_charge
Mof_La	La	0.63702	0.89671	0.78241	2.191
Mof_La	La	0.86298	0.10329	0.28241	2.162
Mof_La	La	0.36298	0.39671	0.71759	2.145
Mof_La	La	0.13702	0.60329	0.21759	2.103
Mof_La	La	0.36298	0.10329	0.21759	2.114
Mof_La	La	0.13702	0.89671	0.71759	2.131
Mof_La	La	0.63702	0.60329	0.28241	2.161
Mof_La	La	0.86298	0.39671	0.78241	2.197
Mof_Cu	Cu	5.44785e-33	0	0.5	0.873
Mof_Cu	Cu	0.5	0	-0	0.867
Mof_Cu	Cu	-0	0.5	-0	0.879
Mof_Cu	Cu	0.5	0.5	0.5	0.905
Mof_H 	H 	0.3728	0.8319	0.4923	0.033
Mof_H 	H 	0.6147	0.7578	0.4899	0.061
Mof_H 	H 	0.8129	0.7745	0.5605	0.043
Mof_H 	H 	0.7973	0.1629	0.6615	0.039
Mof_H 	H 	0.7816	0.069	0.5913	0.03
Mof_H 	H 	0.2496	0.1011	0.5509	0.021
Mof_H 	H 	0.2713	0.2012	0.6153	0.051
Mof_H 	H 	0.1272	0.1681	0.9923	0.076
Mof_H 	H 	0.8853	0.2422	0.9899	0.101
Mof_H 	H 	0.6871	0.2255	0.0605	0.023
Mof_H 	H 	0.7027	0.8371	0.1615	0.054
Mof_H 	H 	0.7184	0.931	0.0913	0.044
Mof_H 	H 	0.2504	0.8989	0.0509	0.023
Mof_H 	H 	0.2287	0.7988	0.1153	0.05
Mof_H 	H 	0.6272	0.3319	0.0077	-0.009
Mof_H 	H 	0.3853	0.2578	0.0101	0.021
Mof_H 	H 	0.1871	0.2745	0.9395	0.044
Mof_H 	H 	0.2027	0.6629	0.8385	0.055
Mof_H 	H 	0.2184	0.569	0.9087	0.046
Mof_H 	H 	0.7504	0.6011	0.9491	0.033
Mof_H 	H 	0.7287	0.7012	0.8847	0.057
Mof_H 	H 	0.8728	0.6681	0.5077	0.016
Mof_H 	H 	0.1147	0.7422	0.5101	0.078
Mof_H 	H 	0.3129	0.7255	0.4395	0.025
Mof_H 	H 	0.2973	0.3371	0.3385	0.047
Mof_H 	H 	0.2816	0.431	0.4087	0.036
Mof_H 	H 	0.7496	0.3989	0.4491	0.029
Mof_H 	H 	0.7713	0.2988	0.3847	0.06
Mof_H 	H 	0.6272	0.1681	0.5077	0.025
Mof_H 	H 	0.3853	0.2422	0.5101	0.069
Mof_H 	H 	0.1871	0.2255	0.4395	0.025
Mof_H 	H 	0.2027	0.8371	0.3385	0.059
Mof_H 	H 	0.2184	0.931	0.4087	0.049
Mof_H 	H 	0.7504	0.8989	0.4491	0.033
Mof_H 	H 	0.7287	0.7988	0.3847	0.059
Mof_H 	H 	0.8728	0.8319	0.0077	-0.014
Mof_H 	H 	0.1147	0.7578	0.0101	0.032
Mof_H 	H 	0.3129	0.7745	0.9395	0.044
Mof_H 	H 	0.2973	0.1629	0.8385	0.043
Mof_H 	H 	0.2816	0.069	0.9087	0.036
Mof_H 	H 	0.7496	0.1011	0.9491	0.032
Mof_H 	H 	0.7713	0.2012	0.8847	0.058
Mof_H 	H 	0.3728	0.6681	0.9923	0.066
Mof_H 	H 	0.6147	0.7422	0.9899	0.105
Mof_H 	H 	0.8129	0.7255	0.0605	0.025
Mof_H 	H 	0.7973	0.3371	0.1615	0.043
Mof_H 	H 	0.7816	0.431	0.0913	0.032
Mof_H 	H 	0.2496	0.3989	0.0509	0.02
Mof_H 	H 	0.2713	0.2988	0.1153	0.052
Mof_H 	H 	0.1272	0.3319	0.4923	0.04
Mof_H 	H 	0.8853	0.2578	0.4899	0.054
Mof_H 	H 	0.6871	0.2745	0.5605	0.041
Mof_H 	H 	0.7027	0.6629	0.6615	0.05
Mof_H 	H 	0.7184	0.569	0.5913	0.04
Mof_H 	H 	0.2504	0.6011	0.5509	0.022
Mof_H 	H 	0.2287	0.7012	0.6153	0.049
Mof_C 	C 	0.8257	0.85968	0.65114	0.356
Mof_C 	C 	0.5077	0.96262	0.65222	0.43
Mof_C 	C 	0.2597	0.93052	0.5677	0.427
Mof_C 	C 	0.6912	0.85586	0.60633	-0.08
Mof_C 	C 	0.5447	0.89966	0.60875	-0.049
Mof_C 	C 	0.425	0.88914	0.56564	-0.096
Mof_C 	C 	0.4522	0.8373	0.52108	0.021
Mof_C 	C 	0.5974	0.7934	0.51927	-0.082
Mof_C 	C 	0.7152	0.80338	0.56169	0.005
Mof_C 	C 	0.0555	0.25691	0.68996	0.43
Mof_C 	C 	0.0363	0.19319	0.64606	-0.131
Mof_C 	C 	0.8896	0.15236	0.63862	-0.006
Mof_C 	C 	0.8814	0.0955	0.59671	0.016
Mof_C 	C 	0.1566	0.11519	0.57235	0
Mof_C 	C 	0.1714	0.1743	0.61176	-0.022
Mof_C 	C 	0.6743	0.14032	0.15114	0.365
Mof_C 	C 	0.9923	0.03738	0.15222	0.31
Mof_C 	C 	0.2403	0.06948	0.0677	0.426
Mof_C 	C 	0.8088	0.14414	0.10633	-0.118
Mof_C 	C 	0.9553	0.10034	0.10875	-0.001
Mof_C 	C 	0.075	0.11086	0.06564	-0.13
Mof_C 	C 	0.0478	0.1627	0.02108	-0.043
Mof_C 	C 	0.9026	0.2066	0.01927	-0.118
Mof_C 	C 	0.7848	0.19662	0.06169	0.034
Mof_C 	C 	0.4445	0.74309	0.18996	0.452
Mof_C 	C 	0.4637	0.80681	0.14606	-0.1
Mof_C 	C 	0.6104	0.84764	0.13862	-0.03
Mof_C 	C 	0.6186	0.9045	0.09671	0.012
Mof_C 	C 	0.3434	0.88481	0.07235	0.018
Mof_C 	C 	0.3286	0.8257	0.11176	-0.03
Mof_C 	C 	0.1743	0.35968	0.84886	0.359
Mof_C 	C 	0.4923	0.46262	0.84778	0.361
Mof_C 	C 	0.7403	0.43052	0.9323	0.434
Mof_C 	C 	0.3088	0.35586	0.89367	-0.092
Mof_C 	C 	0.4553	0.39966	0.89125	-0.031
Mof_C 	C 	0.575	0.38914	0.93436	-0.121
Mof_C 	C 	0.5478	0.3373	0.97892	0.073
Mof_C 	C 	0.4026	0.2934	0.98073	-0.037
Mof_C 	C 	0.2848	0.30338	0.93831	-0.009
Mof_C 	C 	0.9445	0.75691	0.81004	0.48
Mof_C 	C 	0.9637	0.69319	0.85394	-0.078
Mof_C 	C 	0.1104	0.65236	0.86138	-0.061
Mof_C 	C 	0.1186	0.5955	0.90329	-0.007
Mof_C 	C 	0.8434	0.61519	0.92765	0.022
Mof_C 	C 	0.8286	0.6743	0.88824	-0.033
Mof_C 	C 	0.3257	0.64032	0.34886	0.362
Mof_C 	C 	0.0077	0.53738	0.34778	0.331
Mof_C 	C 	0.7597	0.56948	0.4323	0.434
Mof_C 	C 	0.1912	0.64414	0.39367	-0.111
Mof_C 	C 	0.0447	0.60034	0.39125	-0.045
Mof_C 	C 	0.925	0.61086	0.43436	-0.105
Mof_C 	C 	0.9522	0.6627	0.47892	0.082
Mof_C 	C 	0.0974	0.7066	0.48073	-0.154
Mof_C 	C 	0.2152	0.69662	0.43831	0.04
Mof_C 	C 	0.5555	0.24309	0.31004	0.451
Mof_C 	C 	0.5363	0.30681	0.35394	-0.101
Mof_C 	C 	0.3896	0.34764	0.36138	-0.032
Mof_C 	C 	0.3814	0.4045	0.40329	0.008
Mof_C 	C 	0.6566	0.38481	0.42765	0.015
Mof_C 	C 	0.6714	0.3257	0.38824	-0.029
Mof_C 	C 	0.1743	0.14032	0.34886	0.365
Mof_C 	C 	0.4923	0.03738	0.34778	0.29
Mof_C 	C 	0.7403	0.06948	0.4323	0.432
Mof_C 	C 	0.3088	0.14414	0.39367	-0.119
Mof_C 	C 	0.4553	0.10034	0.39125	-0.013
Mof_C 	C 	0.575	0.11086	0.43436	-0.131
Mof_C 	C 	0.5478	0.1627	0.47892	0.043
Mof_C 	C 	0.4026	0.2066	0.48073	-0.111
Mof_C 	C 	0.2848	0.19662	0.43831	0.03
Mof_C 	C 	0.9445	0.74309	0.31004	0.479
Mof_C 	C 	0.9637	0.80681	0.35394	-0.07
Mof_C 	C 	0.1104	0.84764	0.36138	-0.061
Mof_C 	C 	0.1186	0.9045	0.40329	-0.004
Mof_C 	C 	0.8434	0.88481	0.42765	0.029
Mof_C 	C 	0.8286	0.8257	0.38824	-0.036
Mof_C 	C 	0.3257	0.85968	0.84886	0.356
Mof_C 	C 	0.0077	0.96262	0.84778	0.391
Mof_C 	C 	0.7597	0.93052	0.9323	0.433
Mof_C 	C 	0.1912	0.85586	0.89367	-0.084
Mof_C 	C 	0.0447	0.89966	0.89125	-0.062
Mof_C 	C 	0.925	0.88914	0.93436	-0.093
Mof_C 	C 	0.9522	0.8373	0.97892	0.106
Mof_C 	C 	0.0974	0.7934	0.98073	-0.083
Mof_C 	C 	0.2152	0.80338	0.93831	0.003
Mof_C 	C 	0.5555	0.25691	0.81004	0.453
Mof_C 	C 	0.5363	0.19319	0.85394	-0.108
Mof_C 	C 	0.3896	0.15236	0.86138	-0.032
Mof_C 	C 	0.3814	0.0955	0.90329	0.003
Mof_C 	C 	0.6566	0.11519	0.92765	0.009
Mof_C 	C 	0.6714	0.1743	0.88824	-0.026
Mof_C 	C 	0.8257	0.64032	0.15114	0.361
Mof_C 	C 	0.5077	0.53738	0.15222	0.36
Mof_C 	C 	0.2597	0.56948	0.0677	0.426
Mof_C 	C 	0.6912	0.64414	0.10633	-0.106
Mof_C 	C 	0.5447	0.60034	0.10875	-0.033
Mof_C 	C 	0.425	0.61086	0.06564	-0.106
Mof_C 	C 	0.4522	0.6627	0.02108	-0.01
Mof_C 	C 	0.5974	0.7066	0.01927	-0.149
Mof_C 	C 	0.7152	0.69662	0.06169	0.039
Mof_C 	C 	0.0555	0.24309	0.18996	0.429
Mof_C 	C 	0.0363	0.30681	0.14606	-0.127
Mof_C 	C 	0.8896	0.34764	0.13862	-0.005
Mof_C 	C 	0.8814	0.4045	0.09671	0.023
Mof_C 	C 	0.1566	0.38481	0.07235	0.005
Mof_C 	C 	0.1714	0.3257	0.11176	-0.024
Mof_C 	C 	0.6743	0.35968	0.65114	0.359
Mof_C 	C 	0.9923	0.46262	0.65222	0.387
Mof_C 	C 	0.2403	0.43052	0.5677	0.43
Mof_C 	C 	0.8088	0.35586	0.60633	-0.092
Mof_C 	C 	0.9553	0.39966	0.60875	-0.019
Mof_C 	C 	0.075	0.38914	0.56564	-0.124
Mof_C 	C 	0.0478	0.3373	0.52108	-0.01
Mof_C 	C 	0.9026	0.2934	0.51927	-0.047
Mof_C 	C 	0.7848	0.30338	0.56169	-0.002
Mof_C 	C 	0.4445	0.75691	0.68996	0.453
Mof_C 	C 	0.4637	0.69319	0.64606	-0.106
Mof_C 	C 	0.6104	0.65236	0.63862	-0.031
Mof_C 	C 	0.6186	0.5955	0.59671	0.007
Mof_C 	C 	0.3434	0.61519	0.57235	0.012
Mof_C 	C 	0.3286	0.6743	0.61176	-0.028
Mof_N 	N 	0.0127	0.07746	0.56386	-0.218
Mof_N 	N 	0.4873	0.92254	0.06386	-0.191
Mof_N 	N 	0.9873	0.57746	0.93614	-0.176
Mof_N 	N 	0.5127	0.42254	0.43614	-0.2
Mof_N 	N 	0.9873	0.92254	0.43614	-0.17
Mof_N 	N 	0.5127	0.07746	0.93614	-0.197
Mof_N 	N 	0.0127	0.42254	0.06386	-0.218
Mof_N 	N 	0.4873	0.57746	0.56386	-0.2
Mof_O 	O 	0.8121	0.90865	0.69232	-0.586
Mof_O 	O 	0.9495	0.81688	0.64711	-0.406
Mof_O 	O 	0.4508	0.94178	0.70133	-0.62
Mof_O 	O 	0.5283	0.02954	0.63601	-0.36
Mof_O 	O 	0.184	0.93672	0.61347	-0.497
Mof_O 	O 	0.2093	0.95423	0.51925	-0.416
Mof_O 	O 	0.1981	0.28571	0.6933	-0.522
Mof_O 	O 	0.9323	0.27655	0.71951	-0.447
Mof_O 	O 	0.6879	0.09135	0.19232	-0.609
Mof_O 	O 	0.5505	0.18312	0.14711	-0.424
Mof_O 	O 	0.0492	0.05822	0.20133	-0.625
Mof_O 	O 	0.9717	0.97046	0.13601	-0.237
Mof_O 	O 	0.316	0.06328	0.11347	-0.519
Mof_O 	O 	0.2907	0.04577	0.01925	-0.467
Mof_O 	O 	0.3019	0.71429	0.1933	-0.521
Mof_O 	O 	0.5677	0.72345	0.21951	-0.461
Mof_O 	O 	0.1879	0.40865	0.80768	-0.609
Mof_O 	O 	0.0505	0.31688	0.85289	-0.438
Mof_O 	O 	0.5492	0.44178	0.79867	-0.613
Mof_O 	O 	0.4717	0.52954	0.86399	-0.301
Mof_O 	O 	0.816	0.43672	0.88653	-0.502
Mof_O 	O 	0.7907	0.45423	0.98075	-0.407
Mof_O 	O 	0.8019	0.78571	0.8067	-0.532
Mof_O 	O 	0.0677	0.77655	0.78049	-0.491
Mof_O 	O 	0.3121	0.59135	0.30768	-0.599
Mof_O 	O 	0.4495	0.68312	0.35289	-0.424
Mof_O 	O 	0.9508	0.55822	0.29867	-0.578
Mof_O 	O 	0.0283	0.47046	0.36399	-0.304
Mof_O 	O 	0.684	0.56328	0.38653	-0.504
Mof_O 	O 	0.7093	0.54577	0.48075	-0.434
Mof_O 	O 	0.6981	0.21429	0.3067	-0.52
Mof_O 	O 	0.4323	0.22345	0.28049	-0.461
Mof_O 	O 	0.1879	0.09135	0.30768	-0.614
Mof_O 	O 	0.0505	0.18312	0.35289	-0.438
Mof_O 	O 	0.5492	0.05822	0.29867	-0.601
Mof_O 	O 	0.4717	0.97046	0.36399	-0.243
Mof_O 	O 	0.816	0.06328	0.38653	-0.514
Mof_O 	O 	0.7907	0.04577	0.48075	-0.443
Mof_O 	O 	0.8019	0.71429	0.3067	-0.526
Mof_O 	O 	0.0677	0.72345	0.28049	-0.485
Mof_O 	O 	0.3121	0.90865	0.80768	-0.593
Mof_O 	O 	0.4495	0.81688	0.85289	-0.424
Mof_O 	O 	0.9508	0.94178	0.79867	-0.586
Mof_O 	O 	0.0283	0.02954	0.86399	-0.354
Mof_O 	O 	0.684	0.93672	0.88653	-0.491
Mof_O 	O 	0.7093	0.95423	0.98075	-0.39
Mof_O 	O 	0.6981	0.28571	0.8067	-0.527
Mof_O 	O 	0.4323	0.27655	0.78049	-0.467
Mof_O 	O 	0.8121	0.59135	0.19232	-0.593
Mof_O 	O 	0.9495	0.68312	0.14711	-0.407
Mof_O 	O 	0.4508	0.55822	0.20133	-0.608
Mof_O 	O 	0.5283	0.47046	0.13601	-0.304
Mof_O 	O 	0.184	0.56328	0.11347	-0.509
Mof_O 	O 	0.2093	0.54577	0.01925	-0.453
Mof_O 	O 	0.1981	0.21429	0.1933	-0.516
Mof_O 	O 	0.9323	0.22345	0.21951	-0.44
Mof_O 	O 	0.6879	0.40865	0.69232	-0.603
Mof_O 	O 	0.5505	0.31688	0.64711	-0.424
Mof_O 	O 	0.0492	0.44178	0.70133	-0.641
Mof_O 	O 	0.9717	0.52954	0.63601	-0.3
Mof_O 	O 	0.316	0.43672	0.61347	-0.509
Mof_O 	O 	0.2907	0.45423	0.51925	-0.437
Mof_O 	O 	0.3019	0.78571	0.6933	-0.526
Mof_O 	O 	0.5677	0.77655	0.71951	-0.467
_end
