data_functionalizedCrystal
_audit_creation_method	'EQeq! by Chris Wilmer'
_symmetry_space_group_name_H-M	'P1'
_symmetry_Int_Tables_number	1
_symmetry_cell_setting	triclinic
loop_
_symmetry_equiv_pos_as_xyz
  x,y,z
_cell_length_a	26.1934
_cell_length_b	26.1934
_cell_length_c	9.3978
_cell_angle_alpha	90
_cell_angle_beta	90
_cell_angle_gamma	120
loop_
_atom_site_label
_atom_site_type_symbol
_atom_site_fract_x
_atom_site_fract_y
_atom_site_fract_z
_atom_site_charge
Mof_C 	C 	0.073	0.3235	0.1161	0.053
Mof_N 	N 	0.112	0.3311	0.1893	-0.207
Mof_C 	C 	0.1515	0.2153	0.3397	0.095
Mof_H 	H 	0.1926	0.2361	0.3429	-0.009
Mof_C 	C 	0.1226	0.1541	0.3379	-0.153
Mof_H 	H 	0.1442	0.1347	0.3384	0.088
Mof_C 	C 	0.73967	0.65683	0.44943	0.047
Mof_N 	N 	0.77867	0.66443	0.52263	-0.204
Mof_C 	C 	0.81817	0.54863	0.67303	0.091
Mof_H 	H 	0.85927	0.56943	0.67623	-0.006
Mof_C 	C 	0.78927	0.48743	0.67123	-0.143
Mof_H 	H 	0.81087	0.46803	0.67173	0.086
Mof_C 	C 	0.40633	0.99017	0.78277	0.058
Mof_N 	N 	0.44533	0.99777	0.85597	-0.182
Mof_C 	C 	0.48483	0.88197	0.00637	0.093
Mof_H 	H 	0.52593	0.90277	0.00957	-0.01
Mof_C 	C 	0.45593	0.82077	0.00457	-0.156
Mof_H 	H 	0.47753	0.80137	0.00507	0.087
Mof_C 	C 	0.6765	0.7495	0.1161	0.053
Mof_N 	N 	0.6689	0.7809	0.1893	-0.205
Mof_C 	C 	0.7847	0.9362	0.3397	0.077
Mof_H 	H 	0.7639	0.9565	0.3429	0.002
Mof_C 	C 	0.8459	0.9685	0.3379	-0.111
Mof_H 	H 	0.8653	0.0095	0.3384	0.069
Mof_C 	C 	0.34317	0.08283	0.44943	0.047
Mof_N 	N 	0.33557	0.11423	0.52263	-0.203
Mof_C 	C 	0.45137	0.26953	0.67303	0.092
Mof_H 	H 	0.43057	0.28983	0.67623	-0.006
Mof_C 	C 	0.51257	0.30183	0.67123	-0.142
Mof_H 	H 	0.53197	0.34283	0.67173	0.087
Mof_C 	C 	0.00983	0.41617	0.78277	0.052
Mof_N 	N 	0.00223	0.44757	0.85597	-0.187
Mof_C 	C 	0.11803	0.60287	0.00637	0.093
Mof_H 	H 	0.09723	0.62317	0.00957	-0.012
Mof_C 	C 	0.17923	0.63517	0.00457	-0.157
Mof_H 	H 	0.19863	0.67617	0.00507	0.087
Mof_C 	C 	0.2505	0.927	0.1161	0.063
Mof_N 	N 	0.2191	0.888	0.1893	-0.206
Mof_C 	C 	0.0638	0.8485	0.3397	0.099
Mof_H 	H 	0.0435	0.8074	0.3429	-0.012
Mof_C 	C 	0.0315	0.8774	0.3379	-0.163
Mof_H 	H 	0.9905	0.8558	0.3384	0.1
Mof_C 	C 	0.91717	0.26033	0.44943	0.05
Mof_N 	N 	0.88577	0.22133	0.52263	-0.202
Mof_C 	C 	0.73047	0.18183	0.67303	0.092
Mof_H 	H 	0.71017	0.14073	0.67623	-0.007
Mof_C 	C 	0.69817	0.21073	0.67123	-0.143
Mof_H 	H 	0.65717	0.18913	0.67173	0.086
Mof_C 	C 	0.58383	0.59367	0.78277	0.055
Mof_N 	N 	0.55243	0.55467	0.85597	-0.187
Mof_C 	C 	0.39713	0.51517	0.00637	0.093
Mof_H 	H 	0.37683	0.47407	0.00957	-0.012
Mof_C 	C 	0.36483	0.54407	0.00457	-0.157
Mof_H 	H 	0.32383	0.52247	0.00507	0.087
Mof_C 	C 	0.3235	0.073	0.8839	0.082
Mof_N 	N 	0.3311	0.112	0.8107	-0.207
Mof_C 	C 	0.2153	0.1515	0.6603	0.1
Mof_H 	H 	0.2361	0.1926	0.6571	-0.007
Mof_C 	C 	0.1541	0.1226	0.6621	-0.151
Mof_H 	H 	0.1347	0.1442	0.6616	0.094
Mof_C 	C 	0.99017	0.40633	0.21723	0.048
Mof_N 	N 	0.99777	0.44533	0.14403	-0.197
Mof_C 	C 	0.88197	0.48483	0.99363	0.086
Mof_H 	H 	0.90277	0.52593	0.99043	0.007
Mof_C 	C 	0.82077	0.45593	0.99543	-0.124
Mof_H 	H 	0.80137	0.47753	0.99493	0.088
Mof_C 	C 	0.65683	0.73967	0.55057	0.053
Mof_N 	N 	0.66443	0.77867	0.47737	-0.2
Mof_C 	C 	0.54863	0.81817	0.32697	0.093
Mof_H 	H 	0.56943	0.85927	0.32377	-0.005
Mof_C 	C 	0.48743	0.78927	0.32877	-0.142
Mof_H 	H 	0.46803	0.81087	0.32827	0.09
Mof_C 	C 	0.7495	0.6765	0.8839	0.081
Mof_N 	N 	0.7809	0.6689	0.8107	-0.206
Mof_C 	C 	0.9362	0.7847	0.6603	0.082
Mof_H 	H 	0.9565	0.7639	0.6571	0.003
Mof_C 	C 	0.9685	0.8459	0.6621	-0.112
Mof_H 	H 	0.0095	0.8653	0.6616	0.075
Mof_C 	C 	0.41617	0.00983	0.21723	0.042
Mof_N 	N 	0.44757	0.00223	0.14403	-0.203
Mof_C 	C 	0.60287	0.11803	0.99363	0.086
Mof_H 	H 	0.62317	0.09723	0.99043	0.004
Mof_C 	C 	0.63517	0.17923	0.99543	-0.125
Mof_H 	H 	0.67617	0.19863	0.99493	0.088
Mof_C 	C 	0.08283	0.34317	0.55057	0.051
Mof_N 	N 	0.11423	0.33557	0.47737	-0.201
Mof_C 	C 	0.26953	0.45137	0.32697	0.093
Mof_H 	H 	0.28983	0.43057	0.32377	-0.006
Mof_C 	C 	0.30183	0.51257	0.32877	-0.142
Mof_H 	H 	0.34283	0.53197	0.32827	0.089
Mof_C 	C 	0.927	0.2505	0.8839	0.091
Mof_N 	N 	0.888	0.2191	0.8107	-0.208
Mof_C 	C 	0.8485	0.0638	0.6603	0.104
Mof_H 	H 	0.8074	0.0435	0.6571	-0.011
Mof_C 	C 	0.8774	0.0315	0.6621	-0.164
Mof_H 	H 	0.8558	0.9905	0.6616	0.105
Mof_C 	C 	0.59367	0.58383	0.21723	0.045
Mof_N 	N 	0.55467	0.55243	0.14403	-0.202
Mof_C 	C 	0.51517	0.39713	0.99363	0.087
Mof_H 	H 	0.47407	0.37683	0.99043	0.005
Mof_C 	C 	0.54407	0.36483	0.99543	-0.125
Mof_H 	H 	0.52247	0.32383	0.99493	0.088
Mof_C 	C 	0.26033	0.91717	0.55057	0.054
Mof_N 	N 	0.22133	0.88577	0.47737	-0.2
Mof_C 	C 	0.18183	0.73047	0.32697	0.093
Mof_H 	H 	0.14073	0.71017	0.32377	-0.007
Mof_C 	C 	0.21073	0.69817	0.32877	-0.142
Mof_H 	H 	0.18913	0.65717	0.32827	0.089
Mof_C 	C 	0.927	0.6765	0.8839	0.091
Mof_N 	N 	0.888	0.6689	0.8107	-0.208
Mof_C 	C 	0.8485	0.7847	0.6603	0.09
Mof_H 	H 	0.8074	0.7639	0.6571	-0.003
Mof_C 	C 	0.8774	0.8459	0.6621	-0.132
Mof_H 	H 	0.8558	0.8653	0.6616	0.088
Mof_C 	C 	0.59367	0.00983	0.21723	0.042
Mof_N 	N 	0.55467	0.00223	0.14403	-0.203
Mof_C 	C 	0.51517	0.11803	0.99363	0.086
Mof_H 	H 	0.47407	0.09723	0.99043	0.004
Mof_C 	C 	0.54407	0.17923	0.99543	-0.125
Mof_H 	H 	0.52247	0.19863	0.99493	0.088
Mof_C 	C 	0.26033	0.34317	0.55057	0.052
Mof_N 	N 	0.22133	0.33557	0.47737	-0.2
Mof_C 	C 	0.18183	0.45137	0.32697	0.093
Mof_H 	H 	0.14073	0.43057	0.32377	-0.007
Mof_C 	C 	0.21073	0.51257	0.32877	-0.142
Mof_H 	H 	0.18913	0.53197	0.32827	0.089
Mof_C 	C 	0.3235	0.2505	0.8839	0.082
Mof_N 	N 	0.3311	0.2191	0.8107	-0.206
Mof_C 	C 	0.2153	0.0638	0.6603	0.109
Mof_H 	H 	0.2361	0.0435	0.6571	-0.012
Mof_C 	C 	0.1541	0.0315	0.6621	-0.172
Mof_H 	H 	0.1347	0.9905	0.6616	0.108
Mof_C 	C 	0.99017	0.58383	0.21723	0.048
Mof_N 	N 	0.99777	0.55243	0.14403	-0.197
Mof_C 	C 	0.88197	0.39713	0.99363	0.086
Mof_H 	H 	0.90277	0.37683	0.99043	0.007
Mof_C 	C 	0.82077	0.36483	0.99543	-0.124
Mof_H 	H 	0.80137	0.32383	0.99493	0.088
Mof_C 	C 	0.65683	0.91717	0.55057	0.054
Mof_N 	N 	0.66443	0.88577	0.47737	-0.2
Mof_C 	C 	0.54863	0.73047	0.32697	0.093
Mof_H 	H 	0.56943	0.71017	0.32377	-0.006
Mof_C 	C 	0.48743	0.69817	0.32877	-0.142
Mof_H 	H 	0.46803	0.65717	0.32827	0.089
Mof_C 	C 	0.7495	0.073	0.8839	0.082
Mof_N 	N 	0.7809	0.112	0.8107	-0.207
Mof_C 	C 	0.9362	0.1515	0.6603	0.087
Mof_H 	H 	0.9565	0.1926	0.6571	0.001
Mof_C 	C 	0.9685	0.1226	0.6621	-0.122
Mof_H 	H 	0.0095	0.1442	0.6616	0.078
Mof_C 	C 	0.41617	0.40633	0.21723	0.045
Mof_N 	N 	0.44757	0.44533	0.14403	-0.202
Mof_C 	C 	0.60287	0.48483	0.99363	0.087
Mof_H 	H 	0.62317	0.52593	0.99043	0.005
Mof_C 	C 	0.63517	0.45593	0.99543	-0.125
Mof_H 	H 	0.67617	0.47753	0.99493	0.088
Mof_C 	C 	0.08283	0.73967	0.55057	0.051
Mof_N 	N 	0.11423	0.77867	0.47737	-0.201
Mof_C 	C 	0.26953	0.81817	0.32697	0.093
Mof_H 	H 	0.28983	0.85927	0.32377	-0.005
Mof_C 	C 	0.30183	0.78927	0.32877	-0.142
Mof_H 	H 	0.34283	0.81087	0.32827	0.09
Mof_C 	C 	0.6765	0.927	0.1161	0.063
Mof_N 	N 	0.6689	0.888	0.1893	-0.206
Mof_C 	C 	0.7847	0.8485	0.3397	0.085
Mof_H 	H 	0.7639	0.8074	0.3429	-0.004
Mof_C 	C 	0.8459	0.8774	0.3379	-0.133
Mof_H 	H 	0.8653	0.8558	0.3384	0.083
Mof_C 	C 	0.34317	0.26033	0.44943	0.048
Mof_N 	N 	0.33557	0.22133	0.52263	-0.203
Mof_C 	C 	0.45137	0.18183	0.67303	0.092
Mof_H 	H 	0.43057	0.14073	0.67623	-0.007
Mof_C 	C 	0.51257	0.21073	0.67123	-0.143
Mof_H 	H 	0.53197	0.18913	0.67173	0.086
Mof_C 	C 	0.00983	0.59367	0.78277	0.052
Mof_N 	N 	0.00223	0.55467	0.85597	-0.187
Mof_C 	C 	0.11803	0.51517	0.00637	0.093
Mof_H 	H 	0.09723	0.47407	0.00957	-0.012
Mof_C 	C 	0.17923	0.54407	0.00457	-0.157
Mof_H 	H 	0.19863	0.52247	0.00507	0.087
Mof_C 	C 	0.2505	0.3235	0.1161	0.053
Mof_N 	N 	0.2191	0.3311	0.1893	-0.205
Mof_C 	C 	0.0638	0.2153	0.3397	0.104
Mof_H 	H 	0.0435	0.2361	0.3429	-0.013
Mof_C 	C 	0.0315	0.1541	0.3379	-0.173
Mof_H 	H 	0.9905	0.1347	0.3384	0.103
Mof_C 	C 	0.91717	0.65683	0.44943	0.05
Mof_N 	N 	0.88577	0.66443	0.52263	-0.202
Mof_C 	C 	0.73047	0.54863	0.67303	0.092
Mof_H 	H 	0.71017	0.56943	0.67623	-0.006
Mof_C 	C 	0.69817	0.48743	0.67123	-0.142
Mof_H 	H 	0.65717	0.46803	0.67173	0.087
Mof_C 	C 	0.58383	0.99017	0.78277	0.058
Mof_N 	N 	0.55243	0.99777	0.85597	-0.182
Mof_C 	C 	0.39713	0.88197	0.00637	0.093
Mof_H 	H 	0.37683	0.90277	0.00957	-0.01
Mof_C 	C 	0.36483	0.82077	0.00457	-0.156
Mof_H 	H 	0.32383	0.80137	0.00507	0.087
Mof_C 	C 	0.073	0.7495	0.1161	0.054
Mof_N 	N 	0.112	0.7809	0.1893	-0.205
Mof_C 	C 	0.1515	0.9362	0.3397	0.082
Mof_H 	H 	0.1926	0.9565	0.3429	0
Mof_C 	C 	0.1226	0.9685	0.3379	-0.12
Mof_H 	H 	0.1442	0.0095	0.3384	0.071
Mof_C 	C 	0.73967	0.08283	0.44943	0.047
Mof_N 	N 	0.77867	0.11423	0.52263	-0.203
Mof_C 	C 	0.81817	0.26953	0.67303	0.092
Mof_H 	H 	0.85927	0.28983	0.67623	-0.005
Mof_C 	C 	0.78927	0.30183	0.67123	-0.142
Mof_H 	H 	0.81087	0.34283	0.67173	0.087
Mof_C 	C 	0.40633	0.41617	0.78277	0.055
Mof_N 	N 	0.44533	0.44757	0.85597	-0.187
Mof_C 	C 	0.48483	0.60287	0.00637	0.093
Mof_H 	H 	0.52593	0.62317	0.00957	-0.012
Mof_C 	C 	0.45593	0.63517	0.00457	-0.157
Mof_H 	H 	0.47753	0.67617	0.00507	0.087
Mof_Au	Au	-2.03596e-17	0.29377	-0	-0.028
Mof_Au	Au	0.66667	0.6271	0.33333	0.031
Mof_Au	Au	0.33333	0.96044	0.66667	0.065
Mof_Au	Au	0.70623	0.70623	-0	-0.012
Mof_Au	Au	0.3729	0.03956	0.33333	0.024
Mof_Au	Au	0.03956	0.3729	0.66667	0.049
Mof_Au	Au	0.29377	0	-0	-0.029
Mof_Au	Au	0.96044	0.33333	0.33333	0.041
Mof_Au	Au	0.6271	0.66667	0.66667	0.055
Mof_Au	Au	-0	0.70623	-0	-0.028
Mof_Au	Au	0.66667	0.03956	0.33333	0.025
Mof_Au	Au	0.33333	0.3729	0.66667	0.055
Mof_Au	Au	0.29377	0.29377	-0	-0.013
Mof_Au	Au	0.96044	0.6271	0.33333	0.041
Mof_Au	Au	0.6271	0.96044	0.66667	0.064
Mof_Au	Au	0.70623	0	-0	-0.027
Mof_Au	Au	0.3729	0.33333	0.33333	0.031
Mof_Au	Au	0.03956	0.66667	0.66667	0.049
Mof_Fe	Fe	0.16667	0.33333	0.33333	0.77
Mof_Fe	Fe	0.66667	0.83333	0.33333	0.771
Mof_Fe	Fe	0.16667	0.83333	0.33333	0.771
Mof_Fe	Fe	0.33333	0.16667	0.66667	0.774
Mof_Fe	Fe	-0	0.5	-0	0.709
Mof_Fe	Fe	0.83333	0.66667	0.66667	0.774
Mof_Fe	Fe	0.5	0	-0	0.71
Mof_Fe	Fe	0.83333	0.16667	0.66667	0.774
Mof_Fe	Fe	0.5	0.5	-0	0.724
Mof_N 	N 	0.2105	0.421	0.3298	-0.209
Mof_C 	C 	0.06095	0.1219	0.3353	0.076
Mof_C 	C 	0.02905	0.0581	0.3339	0.081
Mof_N 	N 	0.87717	0.75433	0.66313	-0.205
Mof_C 	C 	0.72762	0.45523	0.66863	0.064
Mof_C 	C 	0.69572	0.39143	0.66723	0.098
Mof_N 	N 	0.54383	0.08767	0.99647	-0.193
Mof_C 	C 	0.39428	0.78857	0.00197	0.081
Mof_C 	C 	0.36238	0.72477	0.00057	0.041
Mof_N 	N 	0.579	0.7895	0.3298	-0.209
Mof_C 	C 	0.8781	0.93905	0.3353	0.049
Mof_C 	C 	0.9419	0.97095	0.3339	0.111
Mof_N 	N 	0.24567	0.12283	0.66313	-0.212
Mof_C 	C 	0.54477	0.27238	0.66863	0.064
Mof_C 	C 	0.60857	0.30428	0.66723	0.098
Mof_N 	N 	0.91233	0.45617	0.99647	-0.19
Mof_C 	C 	0.21143	0.60572	0.00197	0.081
Mof_C 	C 	0.27523	0.63762	0.00057	0.041
Mof_N 	N 	0.2105	0.7895	0.3298	-0.209
Mof_C 	C 	0.06095	0.93905	0.3353	0.062
Mof_C 	C 	0.02905	0.97095	0.3339	0.097
Mof_N 	N 	0.87717	0.12283	0.66313	-0.209
Mof_C 	C 	0.72762	0.27238	0.66863	0.064
Mof_C 	C 	0.69572	0.30428	0.66723	0.098
Mof_N 	N 	0.54383	0.45617	0.99647	-0.193
Mof_C 	C 	0.39428	0.60572	0.00197	0.081
Mof_C 	C 	0.36238	0.63762	0.00057	0.041
Mof_N 	N 	0.421	0.2105	0.6702	-0.209
Mof_C 	C 	0.1219	0.06095	0.6647	0.082
Mof_C 	C 	0.0581	0.02905	0.6661	0.086
Mof_N 	N 	0.08767	0.54383	0.00353	-0.211
Mof_C 	C 	0.78857	0.39428	0.99803	0.047
Mof_C 	C 	0.72477	0.36238	0.99943	0.153
Mof_N 	N 	0.75433	0.87717	0.33687	-0.205
Mof_C 	C 	0.45523	0.72762	0.33137	0.066
Mof_C 	C 	0.39143	0.69572	0.33277	0.099
Mof_N 	N 	0.7895	0.579	0.6702	-0.209
Mof_C 	C 	0.93905	0.8781	0.6647	0.055
Mof_C 	C 	0.97095	0.9419	0.6661	0.115
Mof_N 	N 	0.45617	0.91233	0.00353	-0.207
Mof_C 	C 	0.60572	0.21143	0.99803	0.047
Mof_C 	C 	0.63762	0.27523	0.99943	0.153
Mof_N 	N 	0.12283	0.24567	0.33687	-0.212
Mof_C 	C 	0.27238	0.54477	0.33137	0.066
Mof_C 	C 	0.30428	0.60857	0.33277	0.099
Mof_N 	N 	0.7895	0.2105	0.6702	-0.209
Mof_C 	C 	0.93905	0.06095	0.6647	0.069
Mof_C 	C 	0.97095	0.02905	0.6661	0.1
Mof_N 	N 	0.45617	0.54383	0.00353	-0.211
Mof_C 	C 	0.60572	0.39428	0.99803	0.047
Mof_C 	C 	0.63762	0.36238	0.99943	0.153
Mof_N 	N 	0.12283	0.87717	0.33687	-0.208
Mof_C 	C 	0.27238	0.72762	0.33137	0.066
Mof_C 	C 	0.30428	0.69572	0.33277	0.099
Mof_N 	N 	0.0605	0.03025	0.3325	-0.14
Mof_N 	N 	0.72717	0.36358	0.66583	-0.136
Mof_N 	N 	0.39383	0.69692	0.99917	-0.082
Mof_N 	N 	0.96975	0.03025	0.3325	-0.137
Mof_N 	N 	0.63642	0.36358	0.66583	-0.136
Mof_N 	N 	0.30308	0.69692	0.99917	-0.082
Mof_N 	N 	0.96975	0.9395	0.3325	-0.134
Mof_N 	N 	0.63642	0.27283	0.66583	-0.137
Mof_N 	N 	0.30308	0.60617	0.99917	-0.082
Mof_N 	N 	0.03025	0.0605	0.6675	-0.136
Mof_N 	N 	0.69692	0.39383	0.00083	-0.185
Mof_N 	N 	0.36358	0.72717	0.33417	-0.134
Mof_N 	N 	0.03025	0.96975	0.6675	-0.133
Mof_N 	N 	0.69692	0.30308	0.00083	-0.185
Mof_N 	N 	0.36358	0.63642	0.33417	-0.134
Mof_N 	N 	0.9395	0.96975	0.6675	-0.13
Mof_N 	N 	0.60617	0.30308	0.00083	-0.185
Mof_N 	N 	0.27283	0.63642	0.33417	-0.134
_end
