data_functionalizedCrystal
_audit_creation_method	'EQeq! by Chris Wilmer'
_symmetry_space_group_name_H-M	'P1'
_symmetry_Int_Tables_number	1
_symmetry_cell_setting	triclinic
loop_
_symmetry_equiv_pos_as_xyz
  x,y,z
_cell_length_a	13.1261
_cell_length_b	17.1315
_cell_length_c	17.1315
_cell_angle_alpha	81.5605
_cell_angle_beta	67.4742
_cell_angle_gamma	67.4743
loop_
_atom_site_label
_atom_site_type_symbol
_atom_site_fract_x
_atom_site_fract_y
_atom_site_fract_z
_atom_site_charge
Mof_Cu	Cu	0.36695	0.25	0.7661	0.815
Mof_Cu	Cu	0.88305	0.25	0.7339	0.808
Mof_Cu	Cu	0.63305	0.2339	0.75	0.815
Mof_Cu	Cu	0.11695	0.2661	0.75	0.817
Mof_Cu	Cu	0.63305	0.75	0.2339	0.815
Mof_Cu	Cu	0.11695	0.75	0.2661	0.818
Mof_Cu	Cu	0.36695	0.7661	0.25	0.816
Mof_Cu	Cu	0.88305	0.7339	0.25	0.809
Mof_H 	H 	0.2102	0.1825	0.9457	0.07
Mof_H 	H 	0.2573	0.1459	0.8565	0.031
Mof_H 	H 	0.2675	0.016	0.9024	0.071
Mof_H 	H 	0.1462	0.075	0.9586	0.074
Mof_H 	H 	0.8384	0.3175	0.5543	0.076
Mof_H 	H 	0.7597	0.3541	0.6435	0.041
Mof_H 	H 	0.6859	0.484	0.5976	0.058
Mof_H 	H 	0.6798	0.425	0.5414	0.059
Mof_H 	H 	0.6559	0.0543	0.6825	0.064
Mof_H 	H 	0.6138	0.1435	0.6459	0.027
Mof_H 	H 	0.6699	0.0976	0.516	0.073
Mof_H 	H 	0.6048	0.0414	0.575	0.075
Mof_H 	H 	0.8927	0.4457	0.8175	0.069
Mof_H 	H 	0.9032	0.3565	0.8541	0.029
Mof_H 	H 	0.7835	0.4024	0.984	0.066
Mof_H 	H 	0.7212	0.4586	0.925	0.07
Mof_H 	H 	0.1616	0.4457	0.6825	0.062
Mof_H 	H 	0.2403	0.3565	0.6459	0.022
Mof_H 	H 	0.3141	0.4024	0.516	0.08
Mof_H 	H 	0.3202	0.4586	0.575	0.081
Mof_H 	H 	0.7898	0.0543	0.8175	0.068
Mof_H 	H 	0.7427	0.1435	0.8541	0.031
Mof_H 	H 	0.7325	0.0976	0.984	0.063
Mof_H 	H 	0.8538	0.0414	0.925	0.061
Mof_H 	H 	0.1073	0.1825	0.5543	0.067
Mof_H 	H 	0.0968	0.1459	0.6435	0.028
Mof_H 	H 	0.2165	0.016	0.5976	0.072
Mof_H 	H 	0.2788	0.075	0.5414	0.071
Mof_H 	H 	0.3441	0.3175	0.9457	0.073
Mof_H 	H 	0.3862	0.3541	0.8565	0.036
Mof_H 	H 	0.3301	0.484	0.9024	0.066
Mof_H 	H 	0.3952	0.425	0.9586	0.066
Mof_H 	H 	0.7898	0.8175	0.0543	0.068
Mof_H 	H 	0.7427	0.8541	0.1435	0.031
Mof_H 	H 	0.7325	0.984	0.0976	0.063
Mof_H 	H 	0.8538	0.925	0.0414	0.061
Mof_H 	H 	0.1616	0.6825	0.4457	0.062
Mof_H 	H 	0.2403	0.6459	0.3565	0.022
Mof_H 	H 	0.3141	0.516	0.4024	0.08
Mof_H 	H 	0.3202	0.575	0.4586	0.081
Mof_H 	H 	0.3441	0.9457	0.3175	0.073
Mof_H 	H 	0.3862	0.8565	0.3541	0.036
Mof_H 	H 	0.3301	0.9024	0.484	0.066
Mof_H 	H 	0.3952	0.9586	0.425	0.066
Mof_H 	H 	0.1073	0.5543	0.1825	0.067
Mof_H 	H 	0.0968	0.6435	0.1459	0.028
Mof_H 	H 	0.2165	0.5976	0.016	0.072
Mof_H 	H 	0.2788	0.5414	0.075	0.071
Mof_H 	H 	0.8384	0.5543	0.3175	0.076
Mof_H 	H 	0.7597	0.6435	0.3541	0.041
Mof_H 	H 	0.6859	0.5976	0.484	0.058
Mof_H 	H 	0.6798	0.5414	0.425	0.059
Mof_H 	H 	0.2102	0.9457	0.1825	0.07
Mof_H 	H 	0.2573	0.8565	0.1459	0.031
Mof_H 	H 	0.2675	0.9024	0.016	0.071
Mof_H 	H 	0.1462	0.9586	0.075	0.074
Mof_H 	H 	0.8927	0.8175	0.4457	0.069
Mof_H 	H 	0.9032	0.8541	0.3565	0.029
Mof_H 	H 	0.7835	0.984	0.4024	0.066
Mof_H 	H 	0.7212	0.925	0.4586	0.07
Mof_H 	H 	0.6559	0.6825	0.0543	0.064
Mof_H 	H 	0.6138	0.6459	0.1435	0.027
Mof_H 	H 	0.6699	0.516	0.0976	0.073
Mof_H 	H 	0.6048	0.575	0.0414	0.075
Mof_H 	H 	0.2078	0.0651	0.0651	0.037
Mof_H 	H 	0.838	0.4349	0.4349	0.045
Mof_H 	H 	0.7729	0.9349	0.5651	0.029
Mof_H 	H 	0.7729	0.5651	0.9349	0.029
Mof_H 	H 	0.162	0.5651	0.5651	0.028
Mof_H 	H 	0.7922	0.9349	0.9349	0.036
Mof_H 	H 	0.2271	0.0651	0.4349	0.043
Mof_H 	H 	0.2271	0.4349	0.0651	0.043
Mof_C 	C 	0.3867	0.1195	0.9017	0.081
Mof_C 	C 	0.4413	0.0591	0.9527	-0.022
Mof_C 	C 	0.2632	0.1343	0.9111	-0.16
Mof_C 	C 	0.2298	0.0585	0.9447	-0.115
Mof_C 	C 	0.9079	0.3805	0.5983	0.102
Mof_C 	C 	0.9531	0.4409	0.5473	-0.078
Mof_C 	C 	0.8086	0.3657	0.5889	-0.194
Mof_C 	C 	0.733	0.4415	0.5553	-0.075
Mof_C 	C 	0.7884	0.0983	0.6195	0.07
Mof_C 	C 	0.894	0.0473	0.5591	-0.003
Mof_C 	C 	0.6743	0.0889	0.6343	-0.147
Mof_C 	C 	0.6745	0.0553	0.5585	-0.126
Mof_C 	C 	0.0062	0.4017	0.8805	0.094
Mof_C 	C 	0.0004	0.4527	0.9409	0.012
Mof_C 	C 	0.8975	0.4111	0.8657	-0.183
Mof_C 	C 	0.7883	0.4447	0.9415	-0.113
Mof_C 	C 	0.0921	0.4017	0.6195	0.062
Mof_C 	C 	0.0469	0.4527	0.5591	0.032
Mof_C 	C 	0.1914	0.4111	0.6343	-0.131
Mof_C 	C 	0.267	0.4447	0.5585	-0.146
Mof_C 	C 	0.6133	0.0983	0.8805	0.083
Mof_C 	C 	0.5587	0.0473	0.9409	-0.024
Mof_C 	C 	0.7368	0.0889	0.8657	-0.168
Mof_C 	C 	0.7702	0.0553	0.9415	-0.099
Mof_C 	C 	0.9938	0.1195	0.5983	0.066
Mof_C 	C 	0.9996	0.0591	0.5473	-0.058
Mof_C 	C 	0.1025	0.1343	0.5889	-0.137
Mof_C 	C 	0.2117	0.0585	0.5553	-0.112
Mof_C 	C 	0.2116	0.3805	0.9017	0.093
Mof_C 	C 	0.106	0.4409	0.9527	-0.043
Mof_C 	C 	0.3257	0.3657	0.9111	-0.177
Mof_C 	C 	0.3255	0.4415	0.9447	-0.097
Mof_C 	C 	0.6133	0.8805	0.0983	0.083
Mof_C 	C 	0.5587	0.9409	0.0473	-0.024
Mof_C 	C 	0.7368	0.8657	0.0889	-0.168
Mof_C 	C 	0.7702	0.9415	0.0553	-0.099
Mof_C 	C 	0.0921	0.6195	0.4017	0.062
Mof_C 	C 	0.0469	0.5591	0.4527	0.032
Mof_C 	C 	0.1914	0.6343	0.4111	-0.131
Mof_C 	C 	0.267	0.5585	0.4447	-0.146
Mof_C 	C 	0.2116	0.9017	0.3805	0.093
Mof_C 	C 	0.106	0.9527	0.4409	-0.043
Mof_C 	C 	0.3257	0.9111	0.3657	-0.177
Mof_C 	C 	0.3255	0.9447	0.4415	-0.097
Mof_C 	C 	0.9938	0.5983	0.1195	0.066
Mof_C 	C 	0.9996	0.5473	0.0591	-0.058
Mof_C 	C 	0.1025	0.5889	0.1343	-0.137
Mof_C 	C 	0.2117	0.5553	0.0585	-0.112
Mof_C 	C 	0.9079	0.5983	0.3805	0.102
Mof_C 	C 	0.9531	0.5473	0.4409	-0.078
Mof_C 	C 	0.8086	0.5889	0.3657	-0.194
Mof_C 	C 	0.733	0.5553	0.4415	-0.075
Mof_C 	C 	0.3867	0.9017	0.1195	0.081
Mof_C 	C 	0.4413	0.9527	0.0591	-0.022
Mof_C 	C 	0.2632	0.9111	0.1343	-0.16
Mof_C 	C 	0.2298	0.9447	0.0585	-0.115
Mof_C 	C 	0.0062	0.8805	0.4017	0.094
Mof_C 	C 	0.0004	0.9409	0.4527	0.012
Mof_C 	C 	0.8975	0.8657	0.4111	-0.183
Mof_C 	C 	0.7883	0.9415	0.4447	-0.113
Mof_C 	C 	0.7884	0.6195	0.0983	0.07
Mof_C 	C 	0.894	0.5591	0.0473	-0.003
Mof_C 	C 	0.6743	0.6343	0.0889	-0.147
Mof_C 	C 	0.6745	0.5585	0.0553	-0.126
Mof_C 	C 	0.3807	0.0115	0.0115	0.006
Mof_C 	C 	0.2567	0.0228	0.0228	-0.002
Mof_C 	C 	0.9037	0.4885	0.4885	0.043
Mof_C 	C 	0.8023	0.4772	0.4772	-0.042
Mof_C 	C 	0.8922	0.9885	0.5115	-0.032
Mof_C 	C 	0.7795	0.9772	0.5228	0.011
Mof_C 	C 	0.8922	0.5115	0.9885	-0.032
Mof_C 	C 	0.7795	0.5228	0.9772	0.011
Mof_C 	C 	0.0963	0.5115	0.5115	-0.031
Mof_C 	C 	0.1977	0.5228	0.5228	0.032
Mof_C 	C 	0.6193	0.9885	0.9885	0.008
Mof_C 	C 	0.7433	0.9772	0.9772	-0.015
Mof_C 	C 	0.1078	0.0115	0.4885	0.044
Mof_C 	C 	0.2205	0.0228	0.4772	-0.02
Mof_C 	C 	0.1078	0.4885	0.0115	0.044
Mof_C 	C 	0.2205	0.4772	0.0228	-0.02
Mof_I 	I 	0.5	0.33278	0.66722	-0.472
Mof_I 	I 	-1.24085e-17	0.16722	0.83278	-0.447
Mof_I 	I 	0.66722	0.33278	0.83278	-0.477
Mof_I 	I 	0.33278	0.16722	0.66722	-0.471
Mof_I 	I 	0.5	0.66722	0.33278	-0.472
Mof_I 	I 	7.75276e-17	0.83278	0.16722	-0.447
Mof_I 	I 	0.33278	0.66722	0.16722	-0.471
Mof_I 	I 	0.66722	0.83278	0.33278	-0.477
Mof_N 	N 	0.4416	0.1651	0.8457	-0.215
Mof_N 	N 	0.9524	0.3349	0.6543	-0.231
Mof_N 	N 	0.7873	0.1543	0.6651	-0.214
Mof_N 	N 	0.1067	0.3457	0.8349	-0.215
Mof_N 	N 	0.0476	0.3457	0.6651	-0.2
Mof_N 	N 	0.5584	0.1543	0.8349	-0.216
Mof_N 	N 	0.8933	0.1651	0.6543	-0.216
Mof_N 	N 	0.2127	0.3349	0.8457	-0.217
Mof_N 	N 	0.5584	0.8349	0.1543	-0.216
Mof_N 	N 	0.0476	0.6651	0.3457	-0.2
Mof_N 	N 	0.2127	0.8457	0.3349	-0.217
Mof_N 	N 	0.8933	0.6543	0.1651	-0.216
Mof_N 	N 	0.9524	0.6543	0.3349	-0.231
Mof_N 	N 	0.4416	0.8457	0.1651	-0.215
Mof_N 	N 	0.1067	0.8349	0.3457	-0.215
Mof_N 	N 	0.7873	0.6651	0.1543	-0.214
_end
