data_functionalizedCrystal
_audit_creation_method	'EQeq! by Chris Wilmer'
_symmetry_space_group_name_H-M	'P1'
_symmetry_Int_Tables_number	1
_symmetry_cell_setting	triclinic
loop_
_symmetry_equiv_pos_as_xyz
  x,y,z
_cell_length_a	8.9371
_cell_length_b	16.2155
_cell_length_c	16.2155
_cell_angle_alpha	63.2965
_cell_angle_beta	79.4138
_cell_angle_gamma	100.586
loop_
_atom_site_label
_atom_site_type_symbol
_atom_site_fract_x
_atom_site_fract_y
_atom_site_fract_z
_atom_site_charge
Mof_Fe	Fe	0.5	-2.8907e-17	0.5	0.723
Mof_Fe	Fe	-2.8907e-17	0.5	0.5	0.717
Mof_Fe	Fe	0.5	0.5	-0	0.722
Mof_H 	H 	0.0987	0.9805	0.3365	0.115
Mof_H 	H 	0.2578	0.0879	0.1754	-0.018
Mof_H 	H 	0.526	0.1645	0.1458	0.083
Mof_H 	H 	0.6297	0.1313	0.274	0.001
Mof_H 	H 	0.7637	0.7274	0.6483	0.099
Mof_H 	H 	0.5708	0.6031	0.7823	0.003
Mof_H 	H 	0.7705	0.6646	0.9527	0.01
Mof_H 	H 	0.975	0.7864	0.8231	0.096
Mof_H 	H 	0.4352	0.3365	0.683	0.071
Mof_H 	H 	0.4332	0.1754	0.7367	0.011
Mof_H 	H 	0.6718	0.1458	0.6897	0.071
Mof_H 	H 	0.9037	0.274	0.5947	0.017
Mof_H 	H 	0.412	0.6483	0.6243	0.088
Mof_H 	H 	0.3531	0.7823	0.6146	0.006
Mof_H 	H 	0.7232	0.9527	0.3827	0.013
Mof_H 	H 	0.7981	0.8231	0.3905	0.083
Mof_H 	H 	0.1182	0.683	0.9805	0.12
Mof_H 	H 	0.1699	0.7367	0.0879	-0.019
Mof_H 	H 	0.3615	0.6897	0.1645	0.088
Mof_H 	H 	0.4984	0.5947	0.1313	-0.001
Mof_H 	H 	0.0363	0.6243	0.7274	0.069
Mof_H 	H 	0.9677	0.6146	0.6031	0.046
Mof_H 	H 	0.1059	0.3827	0.6646	0.003
Mof_H 	H 	0.1886	0.3905	0.7864	0.072
Mof_H 	H 	0.9013	0.0195	0.6635	0.028
Mof_H 	H 	0.7422	0.9121	0.8246	0.046
Mof_H 	H 	0.474	0.8355	0.8542	0.064
Mof_H 	H 	0.3703	0.8687	0.726	0.016
Mof_H 	H 	0.2363	0.2726	0.3517	0.077
Mof_H 	H 	0.4292	0.3969	0.2177	0.01
Mof_H 	H 	0.2295	0.3354	0.0473	-0.001
Mof_H 	H 	0.025	0.2136	0.1769	0.059
Mof_H 	H 	0.5648	0.6635	0.317	0.073
Mof_H 	H 	0.5668	0.8246	0.2633	0.016
Mof_H 	H 	0.3282	0.8542	0.3103	0.077
Mof_H 	H 	0.0963	0.726	0.4053	0.001
Mof_H 	H 	0.588	0.3517	0.3757	0.087
Mof_H 	H 	0.6469	0.2177	0.3854	0.007
Mof_H 	H 	0.2768	0.0473	0.6173	-0.005
Mof_H 	H 	0.2019	0.1769	0.6095	0.072
Mof_H 	H 	0.8818	0.317	0.0195	0.024
Mof_H 	H 	0.8301	0.2633	0.9121	0.046
Mof_H 	H 	0.6385	0.3103	0.8355	0.059
Mof_H 	H 	0.5016	0.4053	0.8687	0.019
Mof_H 	H 	0.9637	0.3757	0.2726	0.106
Mof_H 	H 	0.0323	0.3854	0.3969	-0.032
Mof_H 	H 	0.8941	0.6173	0.3354	0.006
Mof_H 	H 	0.8114	0.6095	0.2136	0.083
Mof_C 	C 	0.1899	0.9327	0.4978	0.068
Mof_C 	C 	0.0331	0.8416	0.6365	0.055
Mof_C 	C 	0.2743	0.9946	0.3962	0.133
Mof_C 	C 	0.2084	0.012	0.3224	-0.226
Mof_C 	C 	0.3016	0.0754	0.2274	0.105
Mof_C 	C 	0.4593	0.12	0.2102	-0.17
Mof_C 	C 	0.5206	0.0999	0.287	0.097
Mof_C 	C 	0.8968	0.7704	0.7192	0.101
Mof_C 	C 	0.7699	0.7141	0.7106	-0.155
Mof_C 	C 	0.655	0.6405	0.7909	0.104
Mof_C 	C 	0.7716	0.6756	0.8899	0.101
Mof_C 	C 	0.8928	0.7492	0.8129	-0.15
Mof_C 	C 	0.6877	0.4978	0.5695	0.089
Mof_C 	C 	0.6696	0.6365	0.5219	0.086
Mof_C 	C 	0.6705	0.3962	0.6092	0.063
Mof_C 	C 	0.5308	0.3224	0.6656	-0.113
Mof_C 	C 	0.529	0.2274	0.6972	0.041
Mof_C 	C 	0.6695	0.2102	0.6698	-0.123
Mof_C 	C 	0.8076	0.287	0.6131	0.077
Mof_C 	C 	0.616	0.7192	0.5104	0.061
Mof_C 	C 	0.4805	0.7106	0.5753	-0.137
Mof_C 	C 	0.4459	0.7909	0.5686	0.092
Mof_C 	C 	0.6615	0.8899	0.4345	0.089
Mof_C 	C 	0.7057	0.8129	0.4379	-0.131
Mof_C 	C 	0.2572	0.5695	0.9327	0.065
Mof_C 	C 	0.1915	0.5219	0.8416	0.092
Mof_C 	C 	0.2797	0.6092	0.9946	0.138
Mof_C 	C 	0.1964	0.6656	0.012	-0.235
Mof_C 	C 	0.2262	0.6972	0.0754	0.11
Mof_C 	C 	0.3393	0.6698	0.12	-0.176
Mof_C 	C 	0.4207	0.6131	0.0999	0.1
Mof_C 	C 	0.1264	0.5104	0.7704	0.039
Mof_C 	C 	0.0558	0.5753	0.7141	-0.102
Mof_C 	C 	0.0145	0.5686	0.6405	0.028
Mof_C 	C 	0.096	0.4345	0.6756	0.075
Mof_C 	C 	0.1436	0.4379	0.7492	-0.121
Mof_C 	C 	0.8101	0.0673	0.5022	0.109
Mof_C 	C 	0.9669	0.1584	0.3635	0.116
Mof_C 	C 	0.7257	0.0054	0.6038	-0.011
Mof_C 	C 	0.7916	0.988	0.6776	0.001
Mof_C 	C 	0.6984	0.9246	0.7726	-0.023
Mof_C 	C 	0.5407	0.88	0.7898	-0.08
Mof_C 	C 	0.4794	0.9001	0.713	0.057
Mof_C 	C 	0.1032	0.2296	0.2808	0.018
Mof_C 	C 	0.2301	0.2859	0.2894	-0.118
Mof_C 	C 	0.345	0.3595	0.2091	0.078
Mof_C 	C 	0.2284	0.3244	0.1101	0.071
Mof_C 	C 	0.1072	0.2508	0.1871	-0.113
Mof_C 	C 	0.3123	0.5022	0.4305	0.087
Mof_C 	C 	0.3304	0.3635	0.4781	0.086
Mof_C 	C 	0.3295	0.6038	0.3908	0.061
Mof_C 	C 	0.4692	0.6776	0.3344	-0.115
Mof_C 	C 	0.471	0.7726	0.3028	0.043
Mof_C 	C 	0.3305	0.7898	0.3302	-0.129
Mof_C 	C 	0.1924	0.713	0.3869	0.077
Mof_C 	C 	0.384	0.2808	0.4896	0.057
Mof_C 	C 	0.5195	0.2894	0.4247	-0.135
Mof_C 	C 	0.5541	0.2091	0.4314	0.09
Mof_C 	C 	0.3385	0.1101	0.5655	0.083
Mof_C 	C 	0.2943	0.1871	0.5621	-0.132
Mof_C 	C 	0.7428	0.4305	0.0673	0.111
Mof_C 	C 	0.8085	0.4781	0.1584	0.081
Mof_C 	C 	0.7203	0.3908	0.0054	-0.016
Mof_C 	C 	0.8036	0.3344	0.988	0.01
Mof_C 	C 	0.7738	0.3028	0.9246	-0.027
Mof_C 	C 	0.6607	0.3302	0.88	-0.074
Mof_C 	C 	0.5793	0.3869	0.9001	0.054
Mof_C 	C 	0.8736	0.4896	0.2296	0.078
Mof_C 	C 	0.9442	0.4247	0.2859	-0.169
Mof_C 	C 	0.9855	0.4314	0.3595	0.151
Mof_C 	C 	0.904	0.5655	0.3244	0.096
Mof_C 	C 	0.8564	0.5621	0.2508	-0.141
Mof_N 	N 	0.2731	0.9328	0.5585	-0.16
Mof_N 	N 	0.1697	0.8736	0.6499	-0.094
Mof_N 	N 	0.0369	0.8765	0.5436	-0.127
Mof_N 	N 	0.4316	0.0372	0.3803	-0.218
Mof_N 	N 	0.6526	0.6171	0.8824	-0.201
Mof_N 	N 	0.8316	0.5585	0.5087	-0.163
Mof_N 	N 	0.8196	0.6499	0.4765	-0.094
Mof_N 	N 	0.5805	0.5436	0.5799	-0.129
Mof_N 	N 	0.8119	0.3803	0.5825	-0.187
Mof_N 	N 	0.535	0.8824	0.5005	-0.198
Mof_N 	N 	0.3403	0.5087	0.9328	-0.159
Mof_N 	N 	0.2961	0.4765	0.8736	-0.098
Mof_N 	N 	0.1604	0.5799	0.8765	-0.129
Mof_N 	N 	0.3944	0.5825	0.0372	-0.221
Mof_N 	N 	0.0355	0.5005	0.6171	-0.195
Mof_N 	N 	0.7269	0.0672	0.4415	-0.176
Mof_N 	N 	0.8303	0.1264	0.3501	-0.101
Mof_N 	N 	0.9631	0.1235	0.4564	-0.133
Mof_N 	N 	0.5684	0.9628	0.6197	-0.166
Mof_N 	N 	0.3474	0.3829	0.1176	-0.202
Mof_N 	N 	0.1684	0.4415	0.4913	-0.171
Mof_N 	N 	0.1804	0.3501	0.5235	-0.102
Mof_N 	N 	0.4195	0.4564	0.4201	-0.13
Mof_N 	N 	0.1881	0.6197	0.4175	-0.196
Mof_N 	N 	0.465	0.1176	0.4995	-0.205
Mof_N 	N 	0.6597	0.4913	0.0672	-0.176
Mof_N 	N 	0.7039	0.5235	0.1264	-0.098
Mof_N 	N 	0.8396	0.4201	0.1235	-0.131
Mof_N 	N 	0.6056	0.4175	0.9628	-0.163
Mof_N 	N 	0.9645	0.4995	0.3829	-0.206
_end
