# CIF file generated by openbabel 3.1.0, see https://openbabel.org
data_I
_chemical_name_common 'VEQBUP_charged'
_cell_length_a 10.531
_cell_length_b 22.917
_cell_length_c 24.525
_cell_angle_alpha 90
_cell_angle_beta 98.595
_cell_angle_gamma 90
_space_group_name_H-M_alt 'P 1'
_space_group_name_Hall 'P 1'
loop_
    _symmetry_equiv_pos_as_xyz
    x,y,z
loop_
    _atom_site_label
    _atom_site_type_symbol
    _atom_site_fract_x
    _atom_site_fract_y
    _atom_site_fract_z
    _atom_site_occupancy
    Tb1      Tb       0.33212    0.00461    0.24274    1.000
    Tb2      Tb       0.16788    0.50461    0.75726    1.000
    Tb3      Tb       0.66788    0.99539    0.75726    1.000
    Tb4      Tb       0.83212    0.49539    0.24274    1.000
    Ba1      Ba       0.05790    0.21130    0.50179    1.000
    Ba2      Ba       0.73402    0.25120    0.96882    1.000
    Ba3      Ba       0.44210    0.71130    0.49821    1.000
    Ba4      Ba       0.76598    0.75120    0.03118    1.000
    Ba5      Ba       0.94210    0.78870    0.49821    1.000
    Ba6      Ba       0.26598    0.74880    0.03118    1.000
    Ba7      Ba       0.55790    0.28870    0.50179    1.000
    Ba8      Ba       0.23402    0.24880    0.96882    1.000
    H1       H        0.65750    0.09210    0.25410    1.000
    H2       H        0.74660    0.17180    0.30630    1.000
    H3       H        0.63820    0.09930    0.44180    1.000
    H4       H        0.68060    0.97330    0.44960    1.000
    H5       H        0.35610    0.87870    0.44940    1.000
    H6       H        0.24850    0.94030    0.38240    1.000
    H7       H        0.33000    0.08290    0.72990    1.000
    H8       H        0.23750    0.15390    0.66820    1.000
    H9       H        0.58150    0.23190    0.67360    1.000
    H10      H        0.69090    0.24600    0.78250    1.000
    H11      H        0.04180    0.17490    0.83220    1.000
    H12      H        0.98060    0.09520    0.77670    1.000
    H13      H        0.98680    0.01930    0.14910    1.000
    H14      H        0.90460    0.08210    0.07870    1.000
    H15      H        0.23420    0.06740    0.01340    1.000
    H16      H        0.29790    0.95060    0.00720    1.000
    H17      H        0.65020    0.90430    0.08370    1.000
    H18      H        0.62050    0.96560    0.15780    1.000
    H19      H        0.84250    0.59210    0.74590    1.000
    H20      H        0.75340    0.67180    0.69370    1.000
    H21      H        0.86180    0.59930    0.55820    1.000
    H22      H        0.81940    0.47330    0.55040    1.000
    H23      H        0.14390    0.37870    0.55060    1.000
    H24      H        0.25150    0.44030    0.61760    1.000
    H25      H        0.17000    0.58290    0.27010    1.000
    H26      H        0.26250    0.65390    0.33180    1.000
    H27      H        0.91850    0.73190    0.32640    1.000
    H28      H        0.80910    0.74600    0.21750    1.000
    H29      H        0.45820    0.67490    0.16780    1.000
    H30      H        0.51940    0.59520    0.22330    1.000
    H31      H        0.51320    0.51930    0.85090    1.000
    H32      H        0.59540    0.58210    0.92130    1.000
    H33      H        0.26580    0.56740    0.98660    1.000
    H34      H        0.20210    0.45060    0.99280    1.000
    H35      H        0.84980    0.40430    0.91630    1.000
    H36      H        0.87950    0.46560    0.84220    1.000
    H37      H        0.34250    0.90790    0.74590    1.000
    H38      H        0.25340    0.82820    0.69370    1.000
    H39      H        0.36180    0.90070    0.55820    1.000
    H40      H        0.31940    0.02670    0.55040    1.000
    H41      H        0.64390    0.12130    0.55060    1.000
    H42      H        0.75150    0.05970    0.61760    1.000
    H43      H        0.67000    0.91710    0.27010    1.000
    H44      H        0.76250    0.84610    0.33180    1.000
    H45      H        0.41850    0.76810    0.32640    1.000
    H46      H        0.30910    0.75400    0.21750    1.000
    H47      H        0.95820    0.82510    0.16780    1.000
    H48      H        0.01940    0.90480    0.22330    1.000
    H49      H        0.01320    0.98070    0.85090    1.000
    H50      H        0.09540    0.91790    0.92130    1.000
    H51      H        0.76580    0.93260    0.98660    1.000
    H52      H        0.70210    0.04940    0.99280    1.000
    H53      H        0.34980    0.09570    0.91630    1.000
    H54      H        0.37950    0.03440    0.84220    1.000
    H55      H        0.15750    0.40790    0.25410    1.000
    H56      H        0.24660    0.32820    0.30630    1.000
    H57      H        0.13820    0.40070    0.44180    1.000
    H58      H        0.18060    0.52670    0.44960    1.000
    H59      H        0.85610    0.62130    0.44940    1.000
    H60      H        0.74850    0.55970    0.38240    1.000
    H61      H        0.83000    0.41710    0.72990    1.000
    H62      H        0.73750    0.34610    0.66820    1.000
    H63      H        0.08150    0.26810    0.67360    1.000
    H64      H        0.19090    0.25400    0.78250    1.000
    H65      H        0.54180    0.32510    0.83220    1.000
    H66      H        0.48060    0.40480    0.77670    1.000
    H67      H        0.48680    0.48070    0.14910    1.000
    H68      H        0.40460    0.41790    0.07870    1.000
    H69      H        0.73420    0.43260    0.01340    1.000
    H70      H        0.79790    0.54940    0.00720    1.000
    H71      H        0.15020    0.59570    0.08370    1.000
    H72      H        0.12050    0.53440    0.15780    1.000
    C1       C        0.65290    0.09420    0.29240    1.000
    C2       C        0.70530    0.14150    0.32330    1.000
    C3       C        0.69710    0.14410    0.37860    1.000
    C4       C        0.64050    0.09860    0.40320    1.000
    C5       C        0.58800    0.05280    0.37250    1.000
    C6       C        0.52670    0.00220    0.39530    1.000
    C7       C        0.59270    0.96640    0.43580    1.000
    C8       C        0.52660    0.92010    0.45560    1.000
    C9       C        0.40020    0.91040    0.43580    1.000
    C10      C        0.33670    0.94680    0.39590    1.000
    C11      C        0.38070    0.11360    0.71850    1.000
    C12      C        0.32660    0.15570    0.68200    1.000
    C13      C        0.39960    0.20000    0.66520    1.000
    C14      C        0.52970    0.20190    0.68540    1.000
    C15      C        0.58420    0.16090    0.72220    1.000
    C16      C        0.71400    0.16580    0.75190    1.000
    C17      C        0.74940    0.21450    0.78250    1.000
    C18      C        0.87060    0.21810    0.81380    1.000
    C19      C        0.95800    0.17290    0.81160    1.000
    C20      C        0.92090    0.12570    0.77930    1.000
    C21      C        0.03690    0.02930    0.12130    1.000
    C22      C        0.98850    0.06640    0.07980    1.000
    C23      C        0.06170    0.08140    0.03900    1.000
    C24      C        0.18290    0.05770    0.04090    1.000
    C25      C        0.22820    0.02040    0.08230    1.000
    C26      C        0.34740    0.98700    0.08210    1.000
    C27      C        0.36410    0.95280    0.03800    1.000
    C28      C        0.47820    0.92060    0.03760    1.000
    C29      C        0.57250    0.92560    0.08250    1.000
    C30      C        0.55500    0.96210    0.12690    1.000
    C31      C        0.84710    0.59420    0.70760    1.000
    C32      C        0.79470    0.64150    0.67670    1.000
    C33      C        0.80290    0.64410    0.62140    1.000
    C34      C        0.85950    0.59860    0.59680    1.000
    C35      C        0.91200    0.55280    0.62750    1.000
    C36      C        0.97330    0.50220    0.60470    1.000
    C37      C        0.90730    0.46640    0.56420    1.000
    C38      C        0.97340    0.42010    0.54440    1.000
    C39      C        0.09980    0.41040    0.56420    1.000
    C40      C        0.16330    0.44680    0.60410    1.000
    C41      C        0.11930    0.61360    0.28150    1.000
    C42      C        0.17340    0.65570    0.31800    1.000
    C43      C        0.10040    0.70000    0.33480    1.000
    C44      C        0.97030    0.70190    0.31460    1.000
    C45      C        0.91580    0.66090    0.27780    1.000
    C46      C        0.78600    0.66580    0.24810    1.000
    C47      C        0.75060    0.71450    0.21750    1.000
    C48      C        0.62940    0.71810    0.18620    1.000
    C49      C        0.54200    0.67290    0.18840    1.000
    C50      C        0.57910    0.62570    0.22070    1.000
    C51      C        0.46310    0.52930    0.87870    1.000
    C52      C        0.51150    0.56640    0.92020    1.000
    C53      C        0.43830    0.58140    0.96100    1.000
    C54      C        0.31710    0.55770    0.95910    1.000
    C55      C        0.27180    0.52040    0.91770    1.000
    C56      C        0.15260    0.48700    0.91790    1.000
    C57      C        0.13590    0.45280    0.96200    1.000
    C58      C        0.02180    0.42060    0.96240    1.000
    C59      C        0.92750    0.42560    0.91750    1.000
    C60      C        0.94500    0.46210    0.87310    1.000
    C61      C        0.34710    0.90580    0.70760    1.000
    C62      C        0.29470    0.85850    0.67670    1.000
    C63      C        0.30290    0.85590    0.62140    1.000
    C64      C        0.35950    0.90140    0.59680    1.000
    C65      C        0.41200    0.94720    0.62750    1.000
    C66      C        0.47330    0.99780    0.60470    1.000
    C67      C        0.40730    0.03360    0.56420    1.000
    C68      C        0.47340    0.07990    0.54440    1.000
    C69      C        0.59980    0.08960    0.56420    1.000
    C70      C        0.66330    0.05320    0.60410    1.000
    C71      C        0.61930    0.88640    0.28150    1.000
    C72      C        0.67340    0.84430    0.31800    1.000
    C73      C        0.60040    0.80000    0.33480    1.000
    C74      C        0.47030    0.79810    0.31460    1.000
    C75      C        0.41580    0.83910    0.27780    1.000
    C76      C        0.28600    0.83420    0.24810    1.000
    C77      C        0.25060    0.78550    0.21750    1.000
    C78      C        0.12940    0.78190    0.18620    1.000
    C79      C        0.04200    0.82710    0.18840    1.000
    C80      C        0.07910    0.87430    0.22070    1.000
    C81      C        0.96310    0.97070    0.87870    1.000
    C82      C        0.01150    0.93360    0.92020    1.000
    C83      C        0.93830    0.91860    0.96100    1.000
    C84      C        0.81710    0.94230    0.95910    1.000
    C85      C        0.77180    0.97960    0.91770    1.000
    C86      C        0.65260    0.01300    0.91790    1.000
    C87      C        0.63590    0.04720    0.96200    1.000
    C88      C        0.52180    0.07940    0.96240    1.000
    C89      C        0.42750    0.07440    0.91750    1.000
    C90      C        0.44500    0.03790    0.87310    1.000
    C91      C        0.15290    0.40580    0.29240    1.000
    C92      C        0.20530    0.35850    0.32330    1.000
    C93      C        0.19710    0.35590    0.37860    1.000
    C94      C        0.14050    0.40140    0.40320    1.000
    C95      C        0.08800    0.44720    0.37250    1.000
    C96      C        0.02670    0.49780    0.39530    1.000
    C97      C        0.09270    0.53360    0.43580    1.000
    C98      C        0.02660    0.57990    0.45560    1.000
    C99      C        0.90020    0.58960    0.43580    1.000
    C100     C        0.83670    0.55320    0.39590    1.000
    C101     C        0.88070    0.38640    0.71850    1.000
    C102     C        0.82660    0.34430    0.68200    1.000
    C103     C        0.89960    0.30000    0.66520    1.000
    C104     C        0.02970    0.29810    0.68540    1.000
    C105     C        0.08420    0.33910    0.72220    1.000
    C106     C        0.21400    0.33420    0.75190    1.000
    C107     C        0.24940    0.28550    0.78250    1.000
    C108     C        0.37060    0.28190    0.81380    1.000
    C109     C        0.45800    0.32710    0.81160    1.000
    C110     C        0.42090    0.37430    0.77930    1.000
    C111     C        0.53690    0.47070    0.12130    1.000
    C112     C        0.48850    0.43360    0.07980    1.000
    C113     C        0.56170    0.41860    0.03900    1.000
    C114     C        0.68290    0.44230    0.04090    1.000
    C115     C        0.72820    0.47960    0.08230    1.000
    C116     C        0.84740    0.51300    0.08210    1.000
    C117     C        0.86410    0.54720    0.03800    1.000
    C118     C        0.97820    0.57940    0.03760    1.000
    C119     C        0.07250    0.57440    0.08250    1.000
    C120     C        0.05500    0.53790    0.12690    1.000
    S1       S        0.75860    0.20612    0.41713    1.000
    S2       S        0.61250    0.87281    0.50635    1.000
    S3       S        0.33500    0.25708    0.61969    1.000
    S4       S        0.90570    0.27954    0.85866    1.000
    S5       S        0.99860    0.12791    0.98316    1.000
    S6       S        0.48760    0.87332    0.98134    1.000
    S7       S        0.74140    0.70612    0.58287    1.000
    S8       S        0.88750    0.37281    0.49365    1.000
    S9       S        0.16500    0.75708    0.38031    1.000
    S10      S        0.59430    0.77954    0.14134    1.000
    S11      S        0.50140    0.62791    0.01684    1.000
    S12      S        0.01240    0.37332    0.01866    1.000
    S13      S        0.24140    0.79388    0.58287    1.000
    S14      S        0.38750    0.12719    0.49365    1.000
    S15      S        0.66500    0.74292    0.38031    1.000
    S16      S        0.09430    0.72046    0.14134    1.000
    S17      S        0.00140    0.87209    0.01684    1.000
    S18      S        0.51240    0.12668    0.01866    1.000
    S19      S        0.25860    0.29388    0.41713    1.000
    S20      S        0.11250    0.62719    0.50635    1.000
    S21      S        0.83500    0.24292    0.61969    1.000
    S22      S        0.40570    0.22046    0.85866    1.000
    S23      S        0.49860    0.37209    0.98316    1.000
    S24      S        0.98760    0.62668    0.98134    1.000
    N1       N        0.59570    0.05130    0.31730    1.000
    N2       N        0.39920    0.99140    0.37610    1.000
    N3       N        0.50870    0.11730    0.73790    1.000
    N4       N        0.80250    0.12150    0.75140    1.000
    N5       N        0.15510    0.00700    0.12290    1.000
    N6       N        0.44440    0.99190    0.12500    1.000
    N7       N        0.90430    0.55130    0.68270    1.000
    N8       N        0.10080    0.49140    0.62390    1.000
    N9       N        0.99130    0.61730    0.26210    1.000
    N10      N        0.69750    0.62150    0.24860    1.000
    N11      N        0.34490    0.50700    0.87710    1.000
    N12      N        0.05560    0.49190    0.87500    1.000
    N13      N        0.40430    0.94870    0.68270    1.000
    N14      N        0.60080    0.00860    0.62390    1.000
    N15      N        0.49130    0.88270    0.26210    1.000
    N16      N        0.19750    0.87850    0.24860    1.000
    N17      N        0.84490    0.99300    0.87710    1.000
    N18      N        0.55560    0.00810    0.87500    1.000
    N19      N        0.09570    0.44870    0.31730    1.000
    N20      N        0.89920    0.50860    0.37610    1.000
    N21      N        0.00870    0.38270    0.73790    1.000
    N22      N        0.30250    0.37850    0.75140    1.000
    N23      N        0.65510    0.49300    0.12290    1.000
    N24      N        0.94440    0.50810    0.12500    1.000
    O1       O        0.54770    0.00660    0.28710    1.000
    O2       O        0.33700    0.02640    0.33780    1.000
    O3       O        0.56020    0.07990    0.77680    1.000
    O4       O        0.76970    0.07430    0.72120    1.000
    O5       O        0.19970    0.96940    0.16220    1.000
    O6       O        0.43060    0.02980    0.16520    1.000
    O7       O        0.87370    0.22260    0.39650    1.000
    O8       O        0.65810    0.24880    0.40720    1.000
    O9       O        0.78460    0.18790    0.47360    1.000
    O10      O        0.72170    0.85400    0.48270    1.000
    O11      O        0.52320    0.82700    0.51510    1.000
    O12      O        0.64710    0.90980    0.55480    1.000
    O13      O        0.20280    0.24030    0.60130    1.000
    O14      O        0.41440    0.25710    0.57750    1.000
    O15      O        0.34910    0.30950    0.65230    1.000
    O16      O        0.78050    0.30170    0.86740    1.000
    O17      O        0.97670    0.25680    0.90920    1.000
    O18      O        0.97880    0.31900    0.82930    1.000
    O19      O        0.94060    0.17640    0.00840    1.000
    O20      O        0.90750    0.09110    0.94850    1.000
    O21      O        0.10870    0.14390    0.95720    1.000
    O22      O        0.37860    0.83570    0.97860    1.000
    O23      O        0.61160    0.84450    0.99430    1.000
    O24      O        0.48130    0.91170    0.93320    1.000
    O25      O        0.36730    0.10780    0.24540    1.000
    O26      O        0.12610    0.04880    0.24740    1.000
    O27      O        0.71360    0.16080    0.89530    1.000
    O28      O        0.73830    0.27430    0.08120    1.000
    O29      O        0.06010    0.10990    0.42510    1.000
    O30      O        0.99550    0.12050    0.57840    1.000
    O31      O        0.95230    0.50660    0.71290    1.000
    O32      O        0.16300    0.52640    0.66220    1.000
    O33      O        0.93980    0.57990    0.22320    1.000
    O34      O        0.73030    0.57430    0.27880    1.000
    O35      O        0.30030    0.46940    0.83780    1.000
    O36      O        0.06940    0.52980    0.83480    1.000
    O37      O        0.62630    0.72260    0.60350    1.000
    O38      O        0.84190    0.74880    0.59280    1.000
    O39      O        0.71540    0.68790    0.52640    1.000
    O40      O        0.77830    0.35400    0.51730    1.000
    O41      O        0.97680    0.32700    0.48490    1.000
    O42      O        0.85290    0.40980    0.44520    1.000
    O43      O        0.29720    0.74030    0.39870    1.000
    O44      O        0.08560    0.75710    0.42250    1.000
    O45      O        0.15090    0.80950    0.34770    1.000
    O46      O        0.71950    0.80170    0.13260    1.000
    O47      O        0.52330    0.75680    0.09080    1.000
    O48      O        0.52120    0.81900    0.17070    1.000
    O49      O        0.55940    0.67640    0.99160    1.000
    O50      O        0.59250    0.59110    0.05150    1.000
    O51      O        0.39130    0.64390    0.04280    1.000
    O52      O        0.12140    0.33570    0.02140    1.000
    O53      O        0.88840    0.34450    0.00570    1.000
    O54      O        0.01870    0.41170    0.06680    1.000
    O55      O        0.13270    0.60780    0.75460    1.000
    O56      O        0.37390    0.54880    0.75260    1.000
    O57      O        0.78640    0.66080    0.10470    1.000
    O58      O        0.76170    0.77430    0.91880    1.000
    O59      O        0.43990    0.60990    0.57490    1.000
    O60      O        0.50450    0.62050    0.42160    1.000
    O61      O        0.45230    0.99340    0.71290    1.000
    O62      O        0.66300    0.97360    0.66220    1.000
    O63      O        0.43980    0.92010    0.22320    1.000
    O64      O        0.23030    0.92570    0.27880    1.000
    O65      O        0.80030    0.03060    0.83780    1.000
    O66      O        0.56940    0.97020    0.83480    1.000
    O67      O        0.12630    0.77740    0.60350    1.000
    O68      O        0.34190    0.75120    0.59280    1.000
    O69      O        0.21540    0.81210    0.52640    1.000
    O70      O        0.27830    0.14600    0.51730    1.000
    O71      O        0.47680    0.17300    0.48490    1.000
    O72      O        0.35290    0.09020    0.44520    1.000
    O73      O        0.79720    0.75970    0.39870    1.000
    O74      O        0.58560    0.74290    0.42250    1.000
    O75      O        0.65090    0.69050    0.34770    1.000
    O76      O        0.21950    0.69830    0.13260    1.000
    O77      O        0.02330    0.74320    0.09080    1.000
    O78      O        0.02120    0.68100    0.17070    1.000
    O79      O        0.05940    0.82360    0.99160    1.000
    O80      O        0.09250    0.90890    0.05150    1.000
    O81      O        0.89130    0.85610    0.04280    1.000
    O82      O        0.62140    0.16430    0.02140    1.000
    O83      O        0.38840    0.15550    0.00570    1.000
    O84      O        0.51870    0.08830    0.06680    1.000
    O85      O        0.63270    0.89220    0.75460    1.000
    O86      O        0.87390    0.95120    0.75260    1.000
    O87      O        0.28640    0.83920    0.10470    1.000
    O88      O        0.26170    0.72570    0.91880    1.000
    O89      O        0.93990    0.89010    0.57490    1.000
    O90      O        0.00450    0.87950    0.42160    1.000
    O91      O        0.04770    0.49340    0.28710    1.000
    O92      O        0.83700    0.47360    0.33780    1.000
    O93      O        0.06020    0.42010    0.77680    1.000
    O94      O        0.26970    0.42570    0.72120    1.000
    O95      O        0.69970    0.53060    0.16220    1.000
    O96      O        0.93060    0.47020    0.16520    1.000
    O97      O        0.37370    0.27740    0.39650    1.000
    O98      O        0.15810    0.25120    0.40720    1.000
    O99      O        0.28460    0.31210    0.47360    1.000
    O100     O        0.22170    0.64600    0.48270    1.000
    O101     O        0.02320    0.67300    0.51510    1.000
    O102     O        0.14710    0.59020    0.55480    1.000
    O103     O        0.70280    0.25970    0.60130    1.000
    O104     O        0.91440    0.24290    0.57750    1.000
    O105     O        0.84910    0.19050    0.65230    1.000
    O106     O        0.28050    0.19830    0.86740    1.000
    O107     O        0.47670    0.24320    0.90920    1.000
    O108     O        0.47880    0.18100    0.82930    1.000
    O109     O        0.44060    0.32360    0.00840    1.000
    O110     O        0.40750    0.40890    0.94850    1.000
    O111     O        0.60870    0.35610    0.95720    1.000
    O112     O        0.87860    0.66430    0.97860    1.000
    O113     O        0.11160    0.65550    0.99430    1.000
    O114     O        0.98130    0.58830    0.93320    1.000
    O115     O        0.86730    0.39220    0.24540    1.000
    O116     O        0.62610    0.45120    0.24740    1.000
    O117     O        0.21360    0.33920    0.89530    1.000
    O118     O        0.23830    0.22570    0.08120    1.000
    O119     O        0.56010    0.39010    0.42510    1.000
    O120     O        0.49550    0.37950    0.57840    1.000
    Cl1      Cl       0.14540    0.01065    0.76503    1.000
    Cl2      Cl       0.35460    0.51065    0.23497    1.000
    Cl3      Cl       0.85460    0.98935    0.23497    1.000
    Cl4      Cl       0.64540    0.48935    0.76503    1.000
