# CIF file generated by openbabel 3.1.0, see https://openbabel.org
data_I
_chemical_name_common 'EXIDEV_clean'
_cell_length_a 9.3925
_cell_length_b 10.1977
_cell_length_c 24.4616
_cell_angle_alpha 91.926
_cell_angle_beta 90
_cell_angle_gamma 90
_space_group_name_H-M_alt 'P 1'
_space_group_name_Hall 'P 1'
loop_
    _symmetry_equiv_pos_as_xyz
    x,y,z
loop_
    _atom_site_label
    _atom_site_type_symbol
    _atom_site_fract_x
    _atom_site_fract_y
    _atom_site_fract_z
    _atom_site_occupancy
    Co1      Co       0.65741    0.25140    0.12680    1.000
    Co2      Co       0.00130    0.74930    0.37750    1.000
    Co3      Co       0.34259    0.25140    0.62680    1.000
    Co4      Co       0.99870    0.74930    0.87750    1.000
    H1       H        0.89880    0.15150    0.06240    1.000
    H2       H        0.10770    0.01850    0.07030    1.000
    H3       H        0.92340    0.87010    0.19800    1.000
    H4       H        0.74160    0.01900    0.19220    1.000
    H5       H        0.33650    0.95030    0.11330    1.000
    H6       H        0.23370    0.86540    0.07500    1.000
    H7       H        0.22520    0.66880    0.17600    1.000
    H8       H        0.32590    0.56350    0.14830    1.000
    H9       H        0.96510    0.57780    0.03730    1.000
    H10      H        0.76260    0.46470    0.05630    1.000
    H11      H        0.92380    0.33020    0.18780    1.000
    H12      H        0.11790    0.44130    0.17940    1.000
    H13      H        0.50320    0.86780    0.16370    1.000
    H14      H        0.38470    0.82320    0.20490    1.000
    H15      H        0.60000    0.89790    0.24780    1.000
    H16      H        0.76520    0.89800    0.32960    1.000
    H17      H        0.90360    0.56600    0.27900    1.000
    H18      H        0.71590    0.52150    0.22640    1.000
    H19      H        0.53220    0.64000    0.08710    1.000
    H20      H        0.40800    0.67190    0.04710    1.000
    H21      H        0.68020    0.98260    0.01830    1.000
    H22      H        0.85110    0.96130    0.94880    1.000
    H23      H        0.77230    0.58400    0.94230    1.000
    H24      H        0.59060    0.60610    0.99320    1.000
    H25      H        0.40240    0.45590    0.25210    1.000
    H26      H        0.04180    0.34800    0.32670    1.000
    H27      H        0.25450    0.08810    0.23030    1.000
    H28      H        0.02690    0.13690    0.93510    1.000
    H29      H        0.25630    0.41680    0.01400    1.000
    H30      H        0.40570    0.04790    0.00060    1.000
    H31      H        0.96410    0.14310    0.30840    1.000
    H32      H        0.10120    0.15150    0.56240    1.000
    H33      H        0.89230    0.01850    0.57030    1.000
    H34      H        0.07660    0.87010    0.69800    1.000
    H35      H        0.25840    0.01900    0.69220    1.000
    H36      H        0.66350    0.95030    0.61330    1.000
    H37      H        0.76630    0.86540    0.57500    1.000
    H38      H        0.77480    0.66880    0.67600    1.000
    H39      H        0.67410    0.56350    0.64830    1.000
    H40      H        0.03490    0.57780    0.53730    1.000
    H41      H        0.23740    0.46470    0.55630    1.000
    H42      H        0.07620    0.33020    0.68780    1.000
    H43      H        0.88210    0.44130    0.67940    1.000
    H44      H        0.49680    0.86780    0.66370    1.000
    H45      H        0.61530    0.82320    0.70490    1.000
    H46      H        0.40000    0.89790    0.74780    1.000
    H47      H        0.23480    0.89800    0.82960    1.000
    H48      H        0.09640    0.56600    0.77900    1.000
    H49      H        0.28410    0.52150    0.72640    1.000
    H50      H        0.46780    0.64000    0.58710    1.000
    H51      H        0.59200    0.67190    0.54710    1.000
    H52      H        0.31980    0.98260    0.51830    1.000
    H53      H        0.14890    0.96130    0.44880    1.000
    H54      H        0.22770    0.58400    0.44230    1.000
    H55      H        0.40940    0.60610    0.49320    1.000
    H56      H        0.59760    0.45590    0.75210    1.000
    H57      H        0.95820    0.34800    0.82670    1.000
    H58      H        0.74550    0.08810    0.73030    1.000
    H59      H        0.97310    0.13690    0.43510    1.000
    H60      H        0.74370    0.41680    0.51400    1.000
    H61      H        0.59430    0.04790    0.50060    1.000
    H62      H        0.03590    0.14310    0.80840    1.000
    C1       C        0.90900    0.09900    0.09240    1.000
    C2       C        0.03900    0.02400    0.09780    1.000
    C3       C        0.05400    0.96200    0.14490    1.000
    C4       C        0.92890    0.93910    0.17420    1.000
    C5       C        0.81600    0.02000    0.16700    1.000
    C6       C        0.27500    0.87400    0.11130    1.000
    C7       C        0.36170    0.73700    0.12840    1.000
    C8       C        0.27200    0.64290    0.14210    1.000
    C9       C        0.05500    0.54900    0.11550    1.000
    C10      C        0.95300    0.53700    0.07050    1.000
    C11      C        0.83600    0.46100    0.08160    1.000
    C12      C        0.92800    0.38500    0.15820    1.000
    C13      C        0.04300    0.45400    0.15520    1.000
    C14      C        0.44600    0.79400    0.17510    1.000
    C15      C        0.63100    0.70700    0.23310    1.000
    C16      C        0.64900    0.82300    0.25800    1.000
    C17      C        0.76100    0.82300    0.30690    1.000
    C18      C        0.83000    0.62690    0.27940    1.000
    C19      C        0.72600    0.60300    0.24380    1.000
    C20      C        0.46500    0.70700    0.07730    1.000
    C21      C        0.63700    0.79500    0.02110    1.000
    C22      C        0.70300    0.90000    0.00340    1.000
    C23      C        0.80590    0.88810    0.96240    1.000
    C24      C        0.75400    0.66690    0.95770    1.000
    C25      C        0.65400    0.67500    0.98960    1.000
    C26      C        0.49400    0.24100    0.20200    1.000
    C27      C        0.34740    0.26700    0.23550    1.000
    C28      C        0.33450    0.39230    0.25910    1.000
    C29      C        0.22000    0.42270    0.29330    1.000
    C30      C        0.11840    0.32770    0.30380    1.000
    C31      C        0.13130    0.20230    0.28030    1.000
    C32      C        0.24580    0.17190    0.24610    1.000
    C33      C        0.17700    0.56700    0.31290    1.000
    C34      C        0.20000    0.94000    0.94290    1.000
    C35      C        0.21360    0.07090    0.96480    1.000
    C36      C        0.10810    0.16240    0.95440    1.000
    C37      C        0.12410    0.29200    0.97280    1.000
    C38      C        0.24560    0.33010    0.00170    1.000
    C39      C        0.35110    0.23860    0.01210    1.000
    C40      C        0.33510    0.10910    0.99360    1.000
    C41      C        0.46430    0.27770    0.04830    1.000
    C42      C        0.09100    0.09900    0.59240    1.000
    C43      C        0.96100    0.02400    0.59780    1.000
    C44      C        0.94600    0.96200    0.64490    1.000
    C45      C        0.07110    0.93910    0.67420    1.000
    C46      C        0.18400    0.02000    0.66700    1.000
    C47      C        0.72500    0.87400    0.61130    1.000
    C48      C        0.63830    0.73700    0.62840    1.000
    C49      C        0.72800    0.64290    0.64210    1.000
    C50      C        0.94500    0.54900    0.61550    1.000
    C51      C        0.04700    0.53700    0.57050    1.000
    C52      C        0.16400    0.46100    0.58160    1.000
    C53      C        0.07200    0.38500    0.65820    1.000
    C54      C        0.95700    0.45400    0.65520    1.000
    C55      C        0.55400    0.79400    0.67510    1.000
    C56      C        0.36900    0.70700    0.73310    1.000
    C57      C        0.35100    0.82300    0.75800    1.000
    C58      C        0.23900    0.82300    0.80690    1.000
    C59      C        0.17000    0.62690    0.77940    1.000
    C60      C        0.27400    0.60300    0.74380    1.000
    C61      C        0.53500    0.70700    0.57730    1.000
    C62      C        0.36300    0.79500    0.52110    1.000
    C63      C        0.29700    0.90000    0.50340    1.000
    C64      C        0.19410    0.88810    0.46240    1.000
    C65      C        0.24600    0.66690    0.45770    1.000
    C66      C        0.34600    0.67500    0.48960    1.000
    C67      C        0.50600    0.24100    0.70200    1.000
    C68      C        0.65260    0.26700    0.73550    1.000
    C69      C        0.66550    0.39230    0.75910    1.000
    C70      C        0.78000    0.42270    0.79330    1.000
    C71      C        0.88160    0.32770    0.80380    1.000
    C72      C        0.86870    0.20230    0.78030    1.000
    C73      C        0.75420    0.17190    0.74610    1.000
    C74      C        0.82300    0.56700    0.81290    1.000
    C75      C        0.80000    0.94000    0.44290    1.000
    C76      C        0.78640    0.07090    0.46480    1.000
    C77      C        0.89190    0.16240    0.45440    1.000
    C78      C        0.87590    0.29200    0.47280    1.000
    C79      C        0.75440    0.33010    0.50170    1.000
    C80      C        0.64890    0.23860    0.51210    1.000
    C81      C        0.66490    0.10910    0.49360    1.000
    C82      C        0.53570    0.27770    0.54830    1.000
    N1       N        0.80710    0.09470    0.12810    1.000
    N2       N        0.81310    0.38120    0.12430    1.000
    N3       N        0.84300    0.73050    0.31710    1.000
    N4       N        0.83800    0.76150    0.94290    1.000
    N5       N        0.19290    0.09470    0.62810    1.000
    N6       N        0.18690    0.38120    0.62430    1.000
    N7       N        0.15700    0.73050    0.81710    1.000
    N8       N        0.16200    0.76150    0.44290    1.000
    O1       O        0.16260    0.88050    0.15470    1.000
    O2       O        0.17180    0.61700    0.10290    1.000
    O3       O        0.53650    0.68480    0.19100    1.000
    O4       O        0.53970    0.81430    0.05950    1.000
    O5       O        0.58000    0.30700    0.20220    1.000
    O6       O        0.46810    0.13450    0.16850    1.000
    O7       O        0.02600    0.11040    0.28880    1.000
    O8       O        0.09280    0.58260    0.34670    1.000
    O9       O        0.30090    0.64210    0.30520    1.000
    O10      O        0.09820    0.91450    0.90860    1.000
    O11      O        0.24350    0.84370    0.97160    1.000
    O12      O        0.02500    0.38470    0.96360    1.000
    O13      O        0.47700    0.39500    0.06780    1.000
    O14      O        0.59500    0.21900    0.04800    1.000
    O15      O        0.83740    0.88050    0.65470    1.000
    O16      O        0.82820    0.61700    0.60290    1.000
    O17      O        0.46350    0.68480    0.69100    1.000
    O18      O        0.46030    0.81430    0.55950    1.000
    O19      O        0.42000    0.30700    0.70220    1.000
    O20      O        0.53190    0.13450    0.66850    1.000
    O21      O        0.97400    0.11040    0.78880    1.000
    O22      O        0.90720    0.58260    0.84670    1.000
    O23      O        0.69910    0.64210    0.80520    1.000
    O24      O        0.90180    0.91450    0.40860    1.000
    O25      O        0.75650    0.84370    0.47160    1.000
    O26      O        0.97500    0.38470    0.46360    1.000
    O27      O        0.52300    0.39500    0.56780    1.000
    O28      O        0.40500    0.21900    0.54800    1.000
