data_functionalizedCrystal
_audit_creation_method	'EQeq! by Chris Wilmer'
_symmetry_space_group_name_H-M	'P1'
_symmetry_Int_Tables_number	1
_symmetry_cell_setting	triclinic
loop_
_symmetry_equiv_pos_as_xyz
  x,y,z
_cell_length_a	10.562
_cell_length_b	11.476
_cell_length_c	15.663
_cell_angle_alpha	90
_cell_angle_beta	90
_cell_angle_gamma	93.57
loop_
_atom_site_label
_atom_site_type_symbol
_atom_site_fract_x
_atom_site_fract_y
_atom_site_fract_z
_atom_site_charge
Mof_Cu	Cu	0.00319	0.90431	0.93752	0.886
Mof_Cu	Cu	0.59012	0.45054	0.94377	0.874
Mof_Cu	Cu	0.49681	0.59569	0.43752	0.896
Mof_Cu	Cu	0.90988	0.04946	0.44377	0.872
Mof_Cu	Cu	0.99681	0.09569	0.06248	0.886
Mof_Cu	Cu	0.40988	0.54946	0.05623	0.874
Mof_Cu	Cu	0.50319	0.40431	0.56248	0.895
Mof_Cu	Cu	0.09012	0.95054	0.55623	0.871
Mof_B 	B 	0.8462	0.4609	0.8313	1.71
Mof_B 	B 	0.6538	0.0391	0.3313	1.699
Mof_B 	B 	0.1538	0.5391	0.1687	1.71
Mof_B 	B 	0.3462	0.9609	0.6687	1.699
Mof_H 	H 	0.915	0.46	0.7928	-0.652
Mof_H 	H 	0.715	0.7756	0.9626	0.001
Mof_H 	H 	0.992	0.6693	0.8357	-0.104
Mof_H 	H 	0.465	0.418	0.755	-0.192
Mof_H 	H 	0.7836	0.4119	0.6519	-0.024
Mof_H 	H 	0.728	0.2471	0.0662	-0.008
Mof_H 	H 	0.011	0.284	0.904	-0.009
Mof_H 	H 	0.585	0.04	0.2928	-0.649
Mof_H 	H 	0.785	0.7244	0.4626	0.003
Mof_H 	H 	0.508	0.8307	0.3357	-0.107
Mof_H 	H 	0.035	0.082	0.255	-0.11
Mof_H 	H 	0.7164	0.0881	0.1519	-0.026
Mof_H 	H 	0.772	0.2529	0.5662	-0.01
Mof_H 	H 	0.489	0.216	0.404	-0.011
Mof_H 	H 	0.085	0.54	0.2072	-0.652
Mof_H 	H 	0.285	0.2244	0.0374	0.001
Mof_H 	H 	0.008	0.3307	0.1643	-0.104
Mof_H 	H 	0.535	0.582	0.245	-0.192
Mof_H 	H 	0.2164	0.5881	0.3481	-0.024
Mof_H 	H 	0.272	0.7529	0.9338	-0.008
Mof_H 	H 	0.989	0.716	0.096	-0.009
Mof_H 	H 	0.415	0.96	0.7072	-0.649
Mof_H 	H 	0.215	0.2756	0.5374	0.003
Mof_H 	H 	0.492	0.1693	0.6643	-0.107
Mof_H 	H 	0.965	0.918	0.745	-0.11
Mof_H 	H 	0.2836	0.9119	0.8481	-0.026
Mof_H 	H 	0.228	0.7471	0.4338	-0.01
Mof_H 	H 	0.511	0.784	0.596	-0.011
Mof_C 	C 	0.7764	0.7229	0.9397	0.116
Mof_C 	C 	0.9269	0.6732	0.8627	0.291
Mof_C 	C 	0.5276	0.4137	0.7531	0.399
Mof_C 	C 	0.7082	0.4243	0.6964	0.196
Mof_C 	C 	0.7679	0.2739	0.0113	0.09
Mof_C 	C 	0.9223	0.2905	0.9252	0.163
Mof_C 	C 	0.7236	0.7771	0.4397	0.117
Mof_C 	C 	0.5731	0.8268	0.3627	0.291
Mof_C 	C 	0.9724	0.0863	0.2531	0.271
Mof_C 	C 	0.7918	0.0757	0.1964	0.195
Mof_C 	C 	0.7321	0.2261	0.5113	0.102
Mof_C 	C 	0.5777	0.2095	0.4252	0.165
Mof_C 	C 	0.2236	0.2771	0.0603	0.116
Mof_C 	C 	0.0731	0.3268	0.1373	0.291
Mof_C 	C 	0.4724	0.5863	0.2469	0.399
Mof_C 	C 	0.2918	0.5757	0.3036	0.196
Mof_C 	C 	0.2321	0.7261	0.9887	0.09
Mof_C 	C 	0.0777	0.7095	0.0748	0.163
Mof_C 	C 	0.2764	0.2229	0.5603	0.117
Mof_C 	C 	0.4269	0.1732	0.6373	0.291
Mof_C 	C 	0.0276	0.9137	0.7469	0.271
Mof_C 	C 	0.2082	0.9243	0.8036	0.195
Mof_C 	C 	0.2679	0.7739	0.4887	0.102
Mof_C 	C 	0.4223	0.7905	0.5748	0.165
Mof_N 	N 	0.8453	0.5826	0.8704	-0.423
Mof_N 	N 	0.7481	0.6133	0.9207	-0.145
Mof_N 	N 	0.8899	0.7647	0.9057	-0.262
Mof_N 	N 	0.7238	0.4371	0.7785	-0.395
Mof_N 	N 	0.6065	0.4311	0.8161	-0.241
Mof_N 	N 	0.5848	0.4078	0.6774	-0.297
Mof_N 	N 	0.8423	0.3696	0.9036	-0.407
Mof_N 	N 	0.7428	0.3598	0.9596	-0.189
Mof_N 	N 	0.8793	0.2279	0.9925	-0.213
Mof_N 	N 	0.6547	0.9174	0.3704	-0.42
Mof_N 	N 	0.7519	0.8867	0.4207	-0.143
Mof_N 	N 	0.6101	0.7353	0.4057	-0.263
Mof_N 	N 	0.7762	0.0629	0.2785	-0.394
Mof_N 	N 	0.8935	0.0689	0.3161	-0.218
Mof_N 	N 	0.9152	0.0922	0.1774	-0.278
Mof_N 	N 	0.6577	0.1304	0.4036	-0.406
Mof_N 	N 	0.7572	0.1402	0.4596	-0.194
Mof_N 	N 	0.6207	0.2721	0.4925	-0.218
Mof_N 	N 	0.1547	0.4174	0.1296	-0.423
Mof_N 	N 	0.2519	0.3867	0.0793	-0.145
Mof_N 	N 	0.1101	0.2353	0.0943	-0.262
Mof_N 	N 	0.2762	0.5629	0.2215	-0.395
Mof_N 	N 	0.3935	0.5689	0.1839	-0.241
Mof_N 	N 	0.4152	0.5922	0.3226	-0.297
Mof_N 	N 	0.1577	0.6304	0.0964	-0.407
Mof_N 	N 	0.2572	0.6402	0.0404	-0.189
Mof_N 	N 	0.1207	0.7721	0.0075	-0.213
Mof_N 	N 	0.3453	0.0826	0.6296	-0.42
Mof_N 	N 	0.2481	0.1133	0.5793	-0.143
Mof_N 	N 	0.3899	0.2647	0.5943	-0.263
Mof_N 	N 	0.2238	0.9371	0.7215	-0.394
Mof_N 	N 	0.1065	0.9311	0.6839	-0.218
Mof_N 	N 	0.0848	0.9078	0.8226	-0.278
Mof_N 	N 	0.3423	0.8696	0.5964	-0.406
Mof_N 	N 	0.2428	0.8598	0.5404	-0.194
Mof_N 	N 	0.3793	0.7279	0.5075	-0.218
Mof_O 	O 	0.8934	0.9573	0.0275	-0.4
Mof_O 	O 	0.4371	0.5341	0.9345	-0.434
Mof_O 	O 	0.6066	0.5427	0.5275	-0.409
Mof_O 	O 	0.0629	0.9659	0.4345	-0.437
Mof_O 	O 	0.1066	0.0427	0.9725	-0.4
Mof_O 	O 	0.5629	0.4659	0.0655	-0.434
Mof_O 	O 	0.3934	0.4573	0.4725	-0.409
Mof_O 	O 	0.9371	0.0341	0.5655	-0.437
Mof_Cl	Cl	0.2073	0.2107	0.8188	-0.322
Mof_Cl	Cl	0.2927	0.2893	0.3188	-0.326
Mof_Cl	Cl	0.7927	0.7893	0.1812	-0.322
Mof_Cl	Cl	0.7073	0.7107	0.6812	-0.326
_end
