data_functionalizedCrystal
_audit_creation_method	'EQeq! by Chris Wilmer'
_symmetry_space_group_name_H-M	'P1'
_symmetry_Int_Tables_number	1
_symmetry_cell_setting	triclinic
loop_
_symmetry_equiv_pos_as_xyz
  x,y,z
_cell_length_a	6.2631
_cell_length_b	23.9283
_cell_length_c	23.9283
_cell_angle_alpha	60.7526
_cell_angle_beta	84.9947
_cell_angle_gamma	95.0053
loop_
_atom_site_label
_atom_site_type_symbol
_atom_site_fract_x
_atom_site_fract_y
_atom_site_fract_z
_atom_site_charge
Mof_Co	Co	0.3398	0.72237	0.67227	1.137
Mof_Co	Co	0.01207	0.67227	0.60536	1.134
Mof_Co	Co	0.61743	0.60536	0.72237	1.136
Mof_Co	Co	0.6602	0.27763	0.32773	1.137
Mof_Co	Co	0.98793	0.32773	0.39464	1.137
Mof_Co	Co	0.38257	0.39464	0.27763	1.139
Mof_P 	P 	0.82629	0.75812	0.66845	0.362
Mof_P 	P 	0.49474	0.66845	0.57343	0.357
Mof_P 	P 	0.06817	0.57343	0.75812	0.35
Mof_P 	P 	0.17371	0.24188	0.33155	0.361
Mof_P 	P 	0.50526	0.33155	0.42657	0.358
Mof_P 	P 	0.93183	0.42657	0.24188	0.351
Mof_C 	C 	0.7276	0.81	0.5982	-0.106
Mof_C 	C 	0.41814	0.85169	0.53867	-0.03
Mof_C 	C 	0.51561	0.92427	0.49224	-0.076
Mof_C 	C 	0.46967	0.96367	0.52486	0.007
Mof_C 	C 	0.53114	0.93511	0.59509	-0.07
Mof_C 	C 	0.44891	0.86261	0.63818	-0.043
Mof_C 	C 	0.3258	0.5982	0.5918	-0.1
Mof_C 	C 	0.95681	0.53867	0.60964	-0.025
Mof_C 	C 	0.00785	0.49224	0.58349	-0.082
Mof_C 	C 	0.99453	0.52486	0.51147	0.011
Mof_C 	C 	0.12623	0.59509	0.4698	-0.07
Mof_C 	C 	0.08709	0.63818	0.49921	-0.05
Mof_C 	C 	0.9176	0.5918	0.81	-0.094
Mof_C 	C 	0.56645	0.60964	0.85169	-0.031
Mof_C 	C 	0.59134	0.58349	0.92427	-0.075
Mof_C 	C 	0.506	0.51147	0.96367	0.007
Mof_C 	C 	0.59603	0.4698	0.93511	-0.069
Mof_C 	C 	0.5863	0.49921	0.86261	-0.044
Mof_C 	C 	0.2724	0.19	0.4018	-0.097
Mof_C 	C 	0.58186	0.14831	0.46133	-0.032
Mof_C 	C 	0.48439	0.07573	0.50776	-0.074
Mof_C 	C 	0.53033	0.03633	0.47514	0.007
Mof_C 	C 	0.46886	0.06489	0.40491	-0.069
Mof_C 	C 	0.55109	0.13739	0.36182	-0.044
Mof_C 	C 	0.6742	0.4018	0.4082	-0.106
Mof_C 	C 	0.04319	0.46133	0.39036	-0.026
Mof_C 	C 	0.99215	0.50776	0.41651	-0.08
Mof_C 	C 	0.00547	0.47514	0.48853	0.008
Mof_C 	C 	0.87377	0.40491	0.5302	-0.07
Mof_C 	C 	0.91291	0.36182	0.50079	-0.049
Mof_C 	C 	0.0824	0.4082	0.19	-0.097
Mof_C 	C 	0.43355	0.39036	0.14831	-0.032
Mof_C 	C 	0.40866	0.41651	0.07573	-0.075
Mof_C 	C 	0.494	0.48853	0.03633	0.008
Mof_C 	C 	0.40397	0.5302	0.06489	-0.07
Mof_C 	C 	0.4137	0.50079	0.13739	-0.043
Mof_N 	N 	0.50104	0.82437	0.60375	-0.173
Mof_N 	N 	0.10479	0.60375	0.57188	-0.174
Mof_N 	N 	0.67667	0.57188	0.82437	-0.173
Mof_N 	N 	0.49896	0.17563	0.39625	-0.172
Mof_N 	N 	0.89521	0.39625	0.42812	-0.174
Mof_N 	N 	0.32333	0.42812	0.17563	-0.173
Mof_O 	O 	0.88563	0.78643	0.71404	-0.308
Mof_O 	O 	0.04074	0.73677	0.64845	-0.511
Mof_O 	O 	0.64511	0.69527	0.70124	-0.54
Mof_O 	O 	0.59967	0.71404	0.49953	-0.307
Mof_O 	O 	0.68919	0.64845	0.61478	-0.509
Mof_O 	O 	0.34635	0.70124	0.60349	-0.541
Mof_O 	O 	0.0992	0.49953	0.78643	-0.297
Mof_O 	O 	0.30397	0.61478	0.73677	-0.511
Mof_O 	O 	0.94984	0.60349	0.69527	-0.531
Mof_O 	O 	0.11437	0.21357	0.28596	-0.294
Mof_O 	O 	0.95926	0.26323	0.35155	-0.515
Mof_O 	O 	0.35489	0.30473	0.29876	-0.537
Mof_O 	O 	0.40033	0.28596	0.50047	-0.312
Mof_O 	O 	0.31081	0.35155	0.38522	-0.505
Mof_O 	O 	0.65365	0.29876	0.39651	-0.536
Mof_O 	O 	0.9008	0.50047	0.21357	-0.312
Mof_O 	O 	0.69603	0.38522	0.26323	-0.506
Mof_O 	O 	0.05016	0.39651	0.30473	-0.534
Mof_H 	H 	0.46387	0.82223	0.51493	0.022
Mof_H 	H 	0.23402	0.84695	0.54786	0.021
Mof_H 	H 	0.43944	0.94374	0.44592	0.035
Mof_H 	H 	0.69835	0.92853	0.47977	0.045
Mof_H 	H 	0.45941	0.96209	0.61868	0.035
Mof_H 	H 	0.71501	0.94235	0.59203	0.045
Mof_H 	H 	0.26588	0.85528	0.65246	0.024
Mof_H 	H 	0.52877	0.84263	0.68385	0.01
Mof_H 	H 	0.9788	0.51493	0.66284	0.031
Mof_H 	H 	0.78187	0.54786	0.6052	0.022
Mof_H 	H 	0.88536	0.44592	0.61034	0.038
Mof_H 	H 	0.17812	0.47977	0.5917	0.046
Mof_H 	H 	0.07808	0.61868	0.41923	0.035
Mof_H 	H 	0.30704	0.59203	0.46562	0.047
Mof_H 	H 	0.91834	0.65246	0.49226	0.028
Mof_H 	H 	0.21262	0.68385	0.47351	0.023
Mof_H 	H 	0.64164	0.66284	0.82223	0.027
Mof_H 	H 	0.38707	0.6052	0.84695	0.021
Mof_H 	H 	0.49569	0.61034	0.94374	0.035
Mof_H 	H 	0.76982	0.5917	0.92853	0.046
Mof_H 	H 	0.49732	0.41923	0.96209	0.036
Mof_H 	H 	0.77266	0.46562	0.94235	0.047
Mof_H 	H 	0.4106	0.49226	0.85528	0.016
Mof_H 	H 	0.68613	0.47351	0.84263	0.022
Mof_H 	H 	0.76603	0.15276	0.45288	0.022
Mof_H 	H 	0.53495	0.17818	0.48449	0.032
Mof_H 	H 	0.30173	0.07156	0.52028	0.046
Mof_H 	H 	0.56073	0.05616	0.55405	0.036
Mof_H 	H 	0.28494	0.05654	0.40858	0.046
Mof_H 	H 	0.54256	0.03888	0.3805	0.035
Mof_H 	H 	0.47233	0.15684	0.31596	0.021
Mof_H 	H 	0.73444	0.14518	0.3479	0.014
Mof_H 	H 	0.21891	0.45288	0.39436	0.02
Mof_H 	H 	0.01944	0.48449	0.33733	0.028
Mof_H 	H 	0.82201	0.52028	0.40816	0.046
Mof_H 	H 	0.11479	0.55405	0.38979	0.037
Mof_H 	H 	0.69352	0.40858	0.53488	0.041
Mof_H 	H 	0.92306	0.3805	0.58061	0.033
Mof_H 	H 	0.78829	0.31596	0.5272	0.015
Mof_H 	H 	0.08234	0.3479	0.50692	0.022
Mof_H 	H 	0.61327	0.39436	0.15276	0.023
Mof_H 	H 	0.35677	0.33733	0.17818	0.031
Mof_H 	H 	0.23017	0.40816	0.07156	0.047
Mof_H 	H 	0.50458	0.38979	0.05616	0.036
Mof_H 	H 	0.2284	0.53488	0.05654	0.045
Mof_H 	H 	0.50368	0.58061	0.03888	0.035
Mof_H 	H 	0.31549	0.5272	0.15684	0.009
Mof_H 	H 	0.58926	0.50692	0.14518	0.025
Mof_H 	H 	0.73525	0.7946	0.73539	0.101
Mof_H 	H 	0.68064	0.76057	0.49266	0.097
Mof_H 	H 	0.27403	0.49529	0.78761	0.078
Mof_H 	H 	0.93641	0.20859	0.28612	0.077
Mof_H 	H 	0.43254	0.31131	0.52794	0.108
Mof_H 	H 	0.06121	0.53057	0.2016	0.104
_end
