# CIF file generated by openbabel 3.1.0, see https://openbabel.org
data_I
_chemical_name_common 'image0'
_cell_length_a 9.1258
_cell_length_b 11.138
_cell_length_c 11.3262
_cell_angle_alpha 77.317
_cell_angle_beta 68.681
_cell_angle_gamma 79.25
_space_group_name_H-M_alt 'P 1'
_space_group_name_Hall 'P 1'
loop_
    _symmetry_equiv_pos_as_xyz
    x,y,z
loop_
    _atom_site_label
    _atom_site_type_symbol
    _atom_site_fract_x
    _atom_site_fract_y
    _atom_site_fract_z
    _atom_site_occupancy
    La1      La       0.23463    0.51922    0.51840    1.000
    S1       S        0.19640    0.61900    0.99609    1.000
    S2       S        0.41181    0.23535    0.93975    1.000
    S3       S        0.34838    0.05074    0.37636    1.000
    O1       O        0.06750    0.54670    0.37640    1.000
    O2       O        0.41690    0.40030    0.33170    1.000
    O3       O        0.92770    0.57560    0.24980    1.000
    O4       O        0.23670    0.29270    0.48230    1.000
    O5       O        0.64810    0.30830    0.66580    1.000
    O6       O        0.45340    0.39520    0.59510    1.000
    C1       C        0.41350    0.01260    0.51740    1.000
    H1       H        0.37590    0.08110    0.56510    1.000
    H2       H        0.36610    0.94030    0.57310    1.000
    C2       C        0.20600    0.60030    0.15460    1.000
    H3       H        0.28850    0.53340    0.16270    1.000
    H4       H        0.23820    0.67550    0.16280    1.000
    C3       C        0.38110    0.39790    0.95290    1.000
    H5       H        0.41890    0.40700    0.01980    1.000
    H6       H        0.44520    0.44270    0.87260    1.000
    C4       C        0.21050    0.45770    0.98280    1.000
    H7       H        0.14460    0.41380    0.06280    1.000
    H8       H        0.17200    0.45200    0.91510    1.000
    C5       C        0.39200    0.24310    0.78520    1.000
    H9       H        0.40840    0.15960    0.76690    1.000
    H10      H        0.28460    0.27750    0.79000    1.000
    C6       C        0.41560    0.19620    0.30200    1.000
    H11      H        0.53000    0.18570    0.27830    1.000
    H12      H        0.39110    0.22090    0.22300    1.000
    C7       C        0.05600    0.57330    0.26540    1.000
    C8       C        0.35040    0.30210    0.37850    1.000
    C9       C        0.50600    0.32000    0.67540    1.000
    La2      La       0.76537    0.48078    0.48160    1.000
    S4       S        0.80360    0.38100    0.00391    1.000
    S5       S        0.58819    0.76465    0.06025    1.000
    S6       S        0.65162    0.94926    0.62364    1.000
    O7       O        0.93250    0.45330    0.62360    1.000
    O8       O        0.58310    0.59970    0.66830    1.000
    O9       O        0.07230    0.42440    0.75020    1.000
    O10      O        0.76330    0.70730    0.51770    1.000
    O11      O        0.35190    0.69170    0.33420    1.000
    O12      O        0.54660    0.60480    0.40490    1.000
    C10      C        0.58650    0.98740    0.48260    1.000
    H13      H        0.62410    0.91890    0.43490    1.000
    H14      H        0.63390    0.05970    0.42690    1.000
    C11      C        0.79400    0.39970    0.84540    1.000
    H15      H        0.71150    0.46660    0.83730    1.000
    H16      H        0.76180    0.32450    0.83720    1.000
    C12      C        0.61890    0.60210    0.04710    1.000
    H17      H        0.58110    0.59300    0.98020    1.000
    H18      H        0.55480    0.55730    0.12740    1.000
    C13      C        0.78950    0.54230    0.01720    1.000
    H19      H        0.85540    0.58620    0.93720    1.000
    H20      H        0.82800    0.54800    0.08490    1.000
    C14      C        0.60800    0.75690    0.21480    1.000
    H21      H        0.59160    0.84040    0.23310    1.000
    H22      H        0.71540    0.72250    0.21000    1.000
    C15      C        0.58440    0.80380    0.69800    1.000
    H23      H        0.47000    0.81430    0.72170    1.000
    H24      H        0.60890    0.77910    0.77700    1.000
    C16      C        0.94400    0.42670    0.73460    1.000
    C17      C        0.64960    0.69790    0.62150    1.000
    C18      C        0.49400    0.68000    0.32460    1.000
