# CIF file generated by openbabel 3.1.0, see https://openbabel.org
data_I
_chemical_name_common 'NIRMUW_clean'
_cell_length_a 7.481
_cell_length_b 8.336
_cell_length_c 10.42
_cell_angle_alpha 93.56
_cell_angle_beta 105.39
_cell_angle_gamma 109.35
_space_group_name_H-M_alt 'P 1'
_space_group_name_Hall 'P 1'
loop_
    _symmetry_equiv_pos_as_xyz
    x,y,z
loop_
    _atom_site_label
    _atom_site_type_symbol
    _atom_site_fract_x
    _atom_site_fract_y
    _atom_site_fract_z
    _atom_site_occupancy
    Ba1      Ba       0.31265    0.55941    0.62745    1.000
    Ba2      Ba       0.68735    0.44059    0.37255    1.000
    H1       H        0.81410    0.05960    0.19650    1.000
    H2       H        0.81210    0.10350    0.81360    1.000
    H3       H        0.23850    0.45230    0.11990    1.000
    H4       H        0.46890    0.70660    0.99190    1.000
    H5       H        0.18590    0.94040    0.80350    1.000
    H6       H        0.18790    0.89650    0.18640    1.000
    H7       H        0.76150    0.54770    0.88010    1.000
    H8       H        0.53110    0.29340    0.00810    1.000
    C1       C        0.03760    0.26890    0.18070    1.000
    C2       C        0.87050    0.11740    0.13520    1.000
    C3       C        0.78850    0.05320    0.99740    1.000
    C4       C        0.86990    0.14420    0.90570    1.000
    C5       C        0.03670    0.29540    0.95100    1.000
    C6       C        0.12310    0.35480    0.08880    1.000
    C7       C        0.12410    0.33910    0.33020    1.000
    C8       C        0.61770    0.88920    0.94130    1.000
    C9       C        0.12090    0.38890    0.84900    1.000
    C10      C        0.96240    0.73110    0.81930    1.000
    C11      C        0.12950    0.88260    0.86480    1.000
    C12      C        0.21150    0.94680    0.00260    1.000
    C13      C        0.13010    0.85580    0.09430    1.000
    C14      C        0.96330    0.70460    0.04900    1.000
    C15      C        0.87690    0.64520    0.91120    1.000
    C16      C        0.87590    0.66090    0.66980    1.000
    C17      C        0.38230    0.11080    0.05870    1.000
    C18      C        0.87910    0.61110    0.15100    1.000
    O1       O        0.31100    0.40720    0.37700    1.000
    O2       O        0.00740    0.32590    0.39940    1.000
    O3       O        0.55840    0.79800    0.03090    1.000
    O4       O        0.53790    0.84290    0.81930    1.000
    O5       O        0.02380    0.34020    0.72720    1.000
    O6       O        0.28670    0.51110    0.89010    1.000
    O7       O        0.68900    0.59280    0.62300    1.000
    O8       O        0.99260    0.67410    0.60060    1.000
    O9       O        0.44160    0.20200    0.96910    1.000
    O10      O        0.46210    0.15710    0.18070    1.000
    O11      O        0.97620    0.65980    0.27280    1.000
    O12      O        0.71330    0.48890    0.10990    1.000
