# CIF file generated by openbabel 3.1.0, see https://openbabel.org
data_I
_chemical_name_common 'image0'
_cell_length_a 10.061
_cell_length_b 25.034
_cell_length_c 14.69
_cell_angle_alpha 90
_cell_angle_beta 103.081
_cell_angle_gamma 90
_space_group_name_H-M_alt 'P 1'
_space_group_name_Hall 'P 1'
loop_
    _symmetry_equiv_pos_as_xyz
    x,y,z
loop_
    _atom_site_label
    _atom_site_type_symbol
    _atom_site_fract_x
    _atom_site_fract_y
    _atom_site_fract_z
    _atom_site_occupancy
    Co1      Co       0.47290    0.02123    0.35893    1.000
    C1       C        0.60030    0.91106    0.36210    1.000
    H1       H        0.67800    0.93200    0.36740    1.000
    C2       C        0.61470    0.85673    0.35940    1.000
    H2       H        0.70000    0.84170    0.36200    1.000
    C3       C        0.50120    0.82432    0.35270    1.000
    C4       C        0.37600    0.84945    0.34530    1.000
    H3       H        0.29620    0.82960    0.33830    1.000
    C5       C        0.37280    0.90428    0.34850    1.000
    H4       H        0.28840    0.92060    0.34410    1.000
    C6       C        0.42660    0.73026    0.35530    1.000
    C7       C        0.47130    0.67398    0.34530    1.000
    C8       C        0.60610    0.65923    0.35550    1.000
    H5       H        0.67440    0.68480    0.37190    1.000
    C9       C        0.64080    0.60681    0.34180    1.000
    H6       H        0.73160    0.59700    0.34860    1.000
    C10      C        0.53860    0.56941    0.31790    1.000
    C11      C        0.40460    0.58288    0.30810    1.000
    H7       H        0.33650    0.55720    0.29170    1.000
    C12      C        0.37220    0.63524    0.32290    1.000
    H8       H        0.28130    0.64460    0.31760    1.000
    C13      C        0.52800    0.47191    0.31030    1.000
    C14      C        0.56550    0.43073    0.25970    1.000
    H9       H        0.61520    0.43780    0.21480    1.000
    C15      C        0.53020    0.37931    0.27500    1.000
    H10      H        0.55540    0.35170    0.24010    1.000
    C16      C        0.45730    0.36810    0.34170    1.000
    C17      C        0.41730    0.41039    0.39060    1.000
    H11      H        0.36430    0.40380    0.43370    1.000
    C18      C        0.45550    0.46212    0.37580    1.000
    H12      H        0.43160    0.49010    0.41060    1.000
    C19      C        0.41760    0.31254    0.36330    1.000
    C20      C        0.48530    0.21870    0.34550    1.000
    C21      C        0.56730    0.18660    0.30560    1.000
    H13      H        0.62840    0.20200    0.27430    1.000
    C22      C        0.55960    0.13244    0.31170    1.000
    H14      H        0.61890    0.11210    0.28570    1.000
    C23      C        0.39520    0.13820    0.38970    1.000
    H15      H        0.33280    0.12200    0.41890    1.000
    C24      C        0.39910    0.19310    0.38890    1.000
    H16      H        0.34230    0.21260    0.41830    1.000
    C25      C        0.72210    0.00143    0.52290    1.000
    C26      C        0.86600    0.00036    0.51100    1.000
    C27      C        0.96690    0.97376    0.57440    1.000
    H17      H        0.94490    0.95590    0.62450    1.000
    C28      C        0.09960    0.97345    0.56430    1.000
    H18      H        0.16660    0.95570    0.60780    1.000
    C29      C        0.38410    0.00489    0.92880    1.000
    H19      H        0.30620    0.00830    0.88100    1.000
    C30      C        0.37550    0.01102    0.02070    1.000
    H20      H        0.29180    0.01830    0.03480    1.000
    C31      C        0.49200    0.00628    0.09230    1.000
    C32      C        0.48450    0.01357    0.19200    1.000
    N1       N        0.48160    0.93587    0.35760    1.000
    N2       N        0.52020    0.76920    0.35130    1.000
    H21      H        0.59990    0.75850    0.34740    1.000
    N3       N        0.50050    0.27389    0.34000    1.000
    H22      H        0.56950    0.28490    0.31980    1.000
    N4       N        0.47350    0.10694    0.35190    1.000
    O1       O        0.31200    0.74033    0.36220    1.000
    O2       O        0.58320    0.52056    0.29400    1.000
    O3       O        0.32390    0.30331    0.39830    1.000
    O4       O        0.69870    0.97624    0.59217    1.000
    O5       O        0.63650    0.02744    0.46540    1.000
    O6       O        0.36980    0.01728    0.21199    1.000
    O7       O        0.59290    0.01619    0.25365    1.000
    Co2      Co       0.52710    0.97877    0.64107    1.000
    C33      C        0.39970    0.08894    0.63790    1.000
    H23      H        0.32200    0.06800    0.63260    1.000
    C34      C        0.38530    0.14327    0.64060    1.000
    H24      H        0.30000    0.15830    0.63800    1.000
    C35      C        0.49880    0.17568    0.64730    1.000
    C36      C        0.62400    0.15055    0.65470    1.000
    H25      H        0.70380    0.17040    0.66170    1.000
    C37      C        0.62720    0.09572    0.65150    1.000
    H26      H        0.71160    0.07940    0.65590    1.000
    C38      C        0.57340    0.26974    0.64470    1.000
    C39      C        0.52870    0.32602    0.65470    1.000
    C40      C        0.39390    0.34077    0.64450    1.000
    H27      H        0.32560    0.31520    0.62810    1.000
    C41      C        0.35920    0.39319    0.65820    1.000
    H28      H        0.26840    0.40300    0.65140    1.000
    C42      C        0.46140    0.43059    0.68210    1.000
    C43      C        0.59540    0.41712    0.69190    1.000
    H29      H        0.66350    0.44280    0.70830    1.000
    C44      C        0.62780    0.36476    0.67710    1.000
    H30      H        0.71870    0.35540    0.68240    1.000
    C45      C        0.47200    0.52809    0.68970    1.000
    C46      C        0.43450    0.56927    0.74030    1.000
    H31      H        0.38480    0.56220    0.78520    1.000
    C47      C        0.46980    0.62069    0.72500    1.000
    H32      H        0.44460    0.64830    0.75990    1.000
    C48      C        0.54270    0.63190    0.65830    1.000
    C49      C        0.58270    0.58961    0.60940    1.000
    H33      H        0.63570    0.59620    0.56630    1.000
    C50      C        0.54450    0.53788    0.62420    1.000
    H34      H        0.56840    0.50990    0.58940    1.000
    C51      C        0.58240    0.68746    0.63670    1.000
    C52      C        0.51470    0.78130    0.65450    1.000
    C53      C        0.43270    0.81340    0.69440    1.000
    H35      H        0.37160    0.79800    0.72570    1.000
    C54      C        0.44040    0.86756    0.68830    1.000
    H36      H        0.38110    0.88790    0.71430    1.000
    C55      C        0.60480    0.86180    0.61030    1.000
    H37      H        0.66720    0.87800    0.58110    1.000
    C56      C        0.60090    0.80690    0.61110    1.000
    H38      H        0.65770    0.78740    0.58170    1.000
    C57      C        0.27790    0.99857    0.47710    1.000
    C58      C        0.13400    0.99964    0.48900    1.000
    C59      C        0.03310    0.02624    0.42560    1.000
    H39      H        0.05510    0.04410    0.37550    1.000
    C60      C        0.90040    0.02655    0.43570    1.000
    H40      H        0.83340    0.04430    0.39220    1.000
    C61      C        0.61590    0.99511    0.07120    1.000
    H41      H        0.69380    0.99170    0.11900    1.000
    C62      C        0.62450    0.98898    0.97930    1.000
    H42      H        0.70820    0.98170    0.96520    1.000
    C63      C        0.50800    0.99372    0.90770    1.000
    C64      C        0.51550    0.98643    0.80800    1.000
    N5       N        0.51840    0.06413    0.64240    1.000
    N6       N        0.47980    0.23080    0.64870    1.000
    H43      H        0.40010    0.24150    0.65260    1.000
    N7       N        0.49950    0.72611    0.66000    1.000
    H44      H        0.43050    0.71510    0.68020    1.000
    N8       N        0.52650    0.89306    0.64810    1.000
    O8       O        0.68800    0.25967    0.63780    1.000
    O9       O        0.41680    0.47944    0.70600    1.000
    O10      O        0.67610    0.69669    0.60170    1.000
    O11      O        0.30130    0.02376    0.40783    1.000
    O12      O        0.36350    0.97256    0.53460    1.000
    O13      O        0.63020    0.98272    0.78801    1.000
    O14      O        0.40710    0.98381    0.74635    1.000
    Co3      Co       0.02710    0.52123    0.14107    1.000
    C65      C        0.89970    0.41106    0.13790    1.000
    H45      H        0.82200    0.43200    0.13260    1.000
    C66      C        0.88530    0.35673    0.14060    1.000
    H46      H        0.80000    0.34170    0.13800    1.000
    C67      C        0.99880    0.32432    0.14730    1.000
    C68      C        0.12400    0.34945    0.15470    1.000
    H47      H        0.20380    0.32960    0.16170    1.000
    C69      C        0.12720    0.40428    0.15150    1.000
    H48      H        0.21160    0.42060    0.15590    1.000
    C70      C        0.07340    0.23026    0.14470    1.000
    C71      C        0.02870    0.17398    0.15470    1.000
    C72      C        0.89390    0.15923    0.14450    1.000
    H49      H        0.82560    0.18480    0.12810    1.000
    C73      C        0.85920    0.10681    0.15820    1.000
    H50      H        0.76840    0.09700    0.15140    1.000
    C74      C        0.96140    0.06941    0.18210    1.000
    C75      C        0.09540    0.08288    0.19190    1.000
    H51      H        0.16350    0.05720    0.20830    1.000
    C76      C        0.12780    0.13524    0.17710    1.000
    H52      H        0.21870    0.14460    0.18240    1.000
    C77      C        0.97200    0.97191    0.18970    1.000
    C78      C        0.93450    0.93073    0.24030    1.000
    H53      H        0.88480    0.93780    0.28520    1.000
    C79      C        0.96980    0.87931    0.22500    1.000
    H54      H        0.94460    0.85170    0.25990    1.000
    C80      C        0.04270    0.86810    0.15830    1.000
    C81      C        0.08270    0.91039    0.10940    1.000
    H55      H        0.13570    0.90380    0.06630    1.000
    C82      C        0.04450    0.96212    0.12420    1.000
    H56      H        0.06840    0.99010    0.08940    1.000
    C83      C        0.08240    0.81254    0.13670    1.000
    C84      C        0.01470    0.71870    0.15450    1.000
    C85      C        0.93270    0.68660    0.19440    1.000
    H57      H        0.87160    0.70200    0.22570    1.000
    C86      C        0.94040    0.63244    0.18830    1.000
    H58      H        0.88110    0.61210    0.21430    1.000
    C87      C        0.10480    0.63820    0.11030    1.000
    H59      H        0.16720    0.62200    0.08110    1.000
    C88      C        0.10090    0.69310    0.11110    1.000
    H60      H        0.15770    0.71260    0.08170    1.000
    C89      C        0.77790    0.50143    0.97710    1.000
    C90      C        0.63400    0.50036    0.98900    1.000
    C91      C        0.53310    0.47376    0.92560    1.000
    H61      H        0.55510    0.45590    0.87550    1.000
    C92      C        0.40040    0.47345    0.93570    1.000
    H62      H        0.33340    0.45570    0.89220    1.000
    C93      C        0.11590    0.50489    0.57120    1.000
    H63      H        0.19380    0.50830    0.61900    1.000
    C94      C        0.12450    0.51102    0.47930    1.000
    H64      H        0.20820    0.51830    0.46520    1.000
    C95      C        0.00800    0.50628    0.40770    1.000
    C96      C        0.01550    0.51357    0.30800    1.000
    N9       N        0.01840    0.43587    0.14240    1.000
    N10      N        0.97980    0.26920    0.14870    1.000
    H65      H        0.90010    0.25850    0.15260    1.000
    N11      N        0.99950    0.77389    0.16000    1.000
    H66      H        0.93050    0.78490    0.18020    1.000
    N12      N        0.02650    0.60694    0.14810    1.000
    O15      O        0.18800    0.24033    0.13780    1.000
    O16      O        0.91680    0.02056    0.20600    1.000
    O17      O        0.17610    0.80331    0.10170    1.000
    O18      O        0.80130    0.47624    0.90783    1.000
    O19      O        0.86350    0.52744    0.03460    1.000
    O20      O        0.13020    0.51728    0.28801    1.000
    O21      O        0.90710    0.51619    0.24635    1.000
    Co4      Co       0.97290    0.47877    0.85893    1.000
    C97      C        0.10030    0.58894    0.86210    1.000
    H67      H        0.17800    0.56800    0.86740    1.000
    C98      C        0.11470    0.64327    0.85940    1.000
    H68      H        0.20000    0.65830    0.86200    1.000
    C99      C        0.00120    0.67568    0.85270    1.000
    C100     C        0.87600    0.65055    0.84530    1.000
    H69      H        0.79620    0.67040    0.83830    1.000
    C101     C        0.87280    0.59572    0.84850    1.000
    H70      H        0.78840    0.57940    0.84410    1.000
    C102     C        0.92660    0.76974    0.85530    1.000
    C103     C        0.97130    0.82602    0.84530    1.000
    C104     C        0.10610    0.84077    0.85550    1.000
    H71      H        0.17440    0.81520    0.87190    1.000
    C105     C        0.14080    0.89319    0.84180    1.000
    H72      H        0.23160    0.90300    0.84860    1.000
    C106     C        0.03860    0.93059    0.81790    1.000
    C107     C        0.90460    0.91712    0.80810    1.000
    H73      H        0.83650    0.94280    0.79170    1.000
    C108     C        0.87220    0.86476    0.82290    1.000
    H74      H        0.78130    0.85540    0.81760    1.000
    C109     C        0.02800    0.02809    0.81030    1.000
    C110     C        0.06550    0.06927    0.75970    1.000
    H75      H        0.11520    0.06220    0.71480    1.000
    C111     C        0.03020    0.12069    0.77500    1.000
    H76      H        0.05540    0.14830    0.74010    1.000
    C112     C        0.95730    0.13190    0.84170    1.000
    C113     C        0.91730    0.08961    0.89060    1.000
    H77      H        0.86430    0.09620    0.93370    1.000
    C114     C        0.95550    0.03788    0.87580    1.000
    H78      H        0.93160    0.00990    0.91060    1.000
    C115     C        0.91760    0.18746    0.86330    1.000
    C116     C        0.98530    0.28130    0.84550    1.000
    C117     C        0.06730    0.31340    0.80560    1.000
    H79      H        0.12840    0.29800    0.77430    1.000
    C118     C        0.05960    0.36756    0.81170    1.000
    H80      H        0.11890    0.38790    0.78570    1.000
    C119     C        0.89520    0.36180    0.88970    1.000
    H81      H        0.83280    0.37800    0.91890    1.000
    C120     C        0.89910    0.30690    0.88890    1.000
    H82      H        0.84230    0.28740    0.91830    1.000
    C121     C        0.22210    0.49857    0.02290    1.000
    C122     C        0.36600    0.49964    0.01100    1.000
    C123     C        0.46690    0.52624    0.07440    1.000
    H83      H        0.44490    0.54410    0.12450    1.000
    C124     C        0.59960    0.52655    0.06430    1.000
    H84      H        0.66660    0.54430    0.10780    1.000
    C125     C        0.88410    0.49511    0.42880    1.000
    H85      H        0.80620    0.49170    0.38100    1.000
    C126     C        0.87550    0.48898    0.52070    1.000
    H86      H        0.79180    0.48170    0.53480    1.000
    C127     C        0.99200    0.49372    0.59230    1.000
    C128     C        0.98450    0.48643    0.69200    1.000
    N13      N        0.98160    0.56413    0.85760    1.000
    N14      N        0.02020    0.73080    0.85130    1.000
    H87      H        0.09990    0.74150    0.84740    1.000
    N15      N        0.00050    0.22611    0.84000    1.000
    H88      H        0.06950    0.21510    0.81980    1.000
    N16      N        0.97350    0.39306    0.85190    1.000
    O22      O        0.81200    0.75967    0.86220    1.000
    O23      O        0.08320    0.97944    0.79400    1.000
    O24      O        0.82390    0.19669    0.89830    1.000
    O25      O        0.19870    0.52376    0.09217    1.000
    O26      O        0.13650    0.47256    0.96540    1.000
    O27      O        0.86980    0.48272    0.71199    1.000
    O28      O        0.09290    0.48381    0.75365    1.000
