data_functionalizedCrystal
_audit_creation_method	'EQeq! by Chris Wilmer'
_symmetry_space_group_name_H-M	'P1'
_symmetry_Int_Tables_number	1
_symmetry_cell_setting	triclinic
loop_
_symmetry_equiv_pos_as_xyz
  x,y,z
_cell_length_a	9.5276
_cell_length_b	11.657
_cell_length_c	28.682
_cell_angle_alpha	90
_cell_angle_beta	90
_cell_angle_gamma	90
loop_
_atom_site_label
_atom_site_type_symbol
_atom_site_fract_x
_atom_site_fract_y
_atom_site_fract_z
_atom_site_charge
Mof_Ca	Ca	0.34144	0.81254	0.53615	1.604
Mof_Ca	Ca	0.15856	0.31254	0.46385	1.602
Mof_Ca	Ca	0.65856	0.18746	0.03615	1.604
Mof_Ca	Ca	0.84144	0.68746	0.96385	1.601
Mof_Ca	Ca	0.65856	0.18746	0.46385	1.604
Mof_Ca	Ca	0.84144	0.68746	0.53615	1.602
Mof_Ca	Ca	0.34144	0.81254	0.96385	1.604
Mof_Ca	Ca	0.15856	0.31254	0.03615	1.601
Mof_H 	H 	0.4991	0.9408	0.3688	0.143
Mof_H 	H 	0.6315	0.9154	0.4015	0.13
Mof_H 	H 	0.6413	0.7105	0.4391	0.023
Mof_H 	H 	0.3443	0.7654	0.3431	0.076
Mof_H 	H 	0.354	0.5561	0.3586	0.061
Mof_H 	H 	0.6363	0.5009	0.4471	0.109
Mof_H 	H 	0.5989	0.4416	0.3984	0.127
Mof_H 	H 	0.0275	0.7069	0.6445	0.119
Mof_H 	H 	0.1496	0.625	0.6634	0.14
Mof_H 	H 	0.9428	0.8752	0.7068	0.064
Mof_H 	H 	0.289	0.594	0.486	0.209
Mof_H 	H 	0.157	0.623	0.518	0.194
Mof_H 	H 	0.0009	0.4408	0.6312	0.141
Mof_H 	H 	0.8685	0.4154	0.5985	0.13
Mof_H 	H 	0.8587	0.2105	0.5609	0.024
Mof_H 	H 	0.1557	0.2654	0.6569	0.076
Mof_H 	H 	0.146	0.0561	0.6414	0.062
Mof_H 	H 	0.8637	0.0009	0.5529	0.114
Mof_H 	H 	0.9011	0.9416	0.6016	0.129
Mof_H 	H 	0.4725	0.2069	0.3555	0.118
Mof_H 	H 	0.3504	0.125	0.3366	0.14
Mof_H 	H 	0.5572	0.3752	0.2932	0.065
Mof_H 	H 	0.211	0.094	0.514	0.208
Mof_H 	H 	0.343	0.123	0.482	0.193
Mof_H 	H 	0.5009	0.0592	0.8688	0.143
Mof_H 	H 	0.3685	0.0846	0.9015	0.13
Mof_H 	H 	0.3587	0.2895	0.9391	0.023
Mof_H 	H 	0.6557	0.2346	0.8431	0.076
Mof_H 	H 	0.646	0.4439	0.8586	0.061
Mof_H 	H 	0.3637	0.4991	0.9471	0.109
Mof_H 	H 	0.4011	0.5584	0.8984	0.127
Mof_H 	H 	0.9725	0.2931	0.1445	0.119
Mof_H 	H 	0.8504	0.375	0.1634	0.14
Mof_H 	H 	0.0572	0.1248	0.2068	0.064
Mof_H 	H 	0.711	0.406	0.986	0.209
Mof_H 	H 	0.843	0.377	0.018	0.194
Mof_H 	H 	0.9991	0.5592	0.1312	0.142
Mof_H 	H 	0.1315	0.5846	0.0985	0.13
Mof_H 	H 	0.1413	0.7895	0.0609	0.024
Mof_H 	H 	0.8443	0.7346	0.1569	0.076
Mof_H 	H 	0.854	0.9439	0.1414	0.062
Mof_H 	H 	0.1363	0.9991	0.0529	0.115
Mof_H 	H 	0.0989	0.0584	0.1016	0.13
Mof_H 	H 	0.5275	0.7931	0.8555	0.118
Mof_H 	H 	0.6496	0.875	0.8366	0.14
Mof_H 	H 	0.4428	0.6248	0.7932	0.065
Mof_H 	H 	0.789	0.906	0.014	0.209
Mof_H 	H 	0.657	0.877	0.982	0.192
Mof_H 	H 	0.5009	0.0592	0.6312	0.143
Mof_H 	H 	0.3685	0.0846	0.5985	0.13
Mof_H 	H 	0.3587	0.2895	0.5609	0.023
Mof_H 	H 	0.6557	0.2346	0.6569	0.076
Mof_H 	H 	0.646	0.4439	0.6414	0.061
Mof_H 	H 	0.3637	0.4991	0.5529	0.109
Mof_H 	H 	0.4011	0.5584	0.6016	0.127
Mof_H 	H 	0.9725	0.2931	0.3555	0.119
Mof_H 	H 	0.8504	0.375	0.3366	0.14
Mof_H 	H 	0.0572	0.1248	0.2932	0.064
Mof_H 	H 	0.711	0.406	0.514	0.209
Mof_H 	H 	0.843	0.377	0.482	0.194
Mof_H 	H 	0.9991	0.5592	0.3688	0.141
Mof_H 	H 	0.1315	0.5846	0.4015	0.13
Mof_H 	H 	0.1413	0.7895	0.4391	0.024
Mof_H 	H 	0.8443	0.7346	0.3431	0.076
Mof_H 	H 	0.854	0.9439	0.3586	0.062
Mof_H 	H 	0.1363	0.9991	0.4471	0.114
Mof_H 	H 	0.0989	0.0584	0.3984	0.129
Mof_H 	H 	0.5275	0.7931	0.6445	0.118
Mof_H 	H 	0.6496	0.875	0.6634	0.14
Mof_H 	H 	0.4428	0.6248	0.7068	0.065
Mof_H 	H 	0.789	0.906	0.486	0.208
Mof_H 	H 	0.657	0.877	0.518	0.193
Mof_H 	H 	0.4991	0.9408	0.1312	0.143
Mof_H 	H 	0.6315	0.9154	0.0985	0.13
Mof_H 	H 	0.6413	0.7105	0.0609	0.023
Mof_H 	H 	0.3443	0.7654	0.1569	0.076
Mof_H 	H 	0.354	0.5561	0.1414	0.061
Mof_H 	H 	0.6363	0.5009	0.0529	0.109
Mof_H 	H 	0.5989	0.4416	0.1016	0.127
Mof_H 	H 	0.0275	0.7069	0.8555	0.119
Mof_H 	H 	0.1496	0.625	0.8366	0.14
Mof_H 	H 	0.9428	0.8752	0.7932	0.064
Mof_H 	H 	0.289	0.594	0.014	0.209
Mof_H 	H 	0.157	0.623	0.982	0.194
Mof_H 	H 	0.0009	0.4408	0.8688	0.142
Mof_H 	H 	0.8685	0.4154	0.9015	0.13
Mof_H 	H 	0.8587	0.2105	0.9391	0.024
Mof_H 	H 	0.1557	0.2654	0.8431	0.076
Mof_H 	H 	0.146	0.0561	0.8586	0.062
Mof_H 	H 	0.8637	0.0009	0.9471	0.115
Mof_H 	H 	0.9011	0.9416	0.8984	0.13
Mof_H 	H 	0.4725	0.2069	0.1445	0.118
Mof_H 	H 	0.3504	0.125	0.1634	0.14
Mof_H 	H 	0.5572	0.3752	0.2068	0.065
Mof_H 	H 	0.211	0.094	0.986	0.209
Mof_H 	H 	0.343	0.123	0.018	0.192
Mof_H 	H 	0.1794	0.6134	0.75	0.05
Mof_H 	H 	0.3206	0.1134	0.25	0.05
Mof_H 	H 	0.8206	0.3866	0.25	0.05
Mof_H 	H 	0.6794	0.8866	0.75	0.05
Mof_C 	C 	0.4516	0.9534	0.4392	0.493
Mof_C 	C 	0.5296	0.9016	0.3976	-0.305
Mof_C 	C 	0.5683	0.6979	0.4171	0.077
Mof_C 	C 	0.405	0.7275	0.3643	0.001
Mof_C 	C 	0.4103	0.6136	0.3728	0.012
Mof_C 	C 	0.5599	0.4877	0.4243	-0.275
Mof_C 	C 	0.4432	0.4194	0.4479	0.436
Mof_C 	C 	0.2221	0.7861	0.6448	0.44
Mof_C 	C 	0.1123	0.7042	0.6643	-0.274
Mof_C 	C 	0.9908	0.8229	0.7266	0.015
Mof_C 	C 	0.0484	0.4534	0.5608	0.491
Mof_C 	C 	0.9704	0.4016	0.6024	-0.301
Mof_C 	C 	0.9317	0.1979	0.5829	0.076
Mof_C 	C 	0.095	0.2275	0.6357	0.001
Mof_C 	C 	0.0897	0.1136	0.6272	0.008
Mof_C 	C 	0.9401	0.9877	0.5757	-0.288
Mof_C 	C 	0.0568	0.9194	0.5521	0.442
Mof_C 	C 	0.2779	0.2861	0.3552	0.44
Mof_C 	C 	0.3877	0.2042	0.3357	-0.273
Mof_C 	C 	0.5092	0.3229	0.2734	0.016
Mof_C 	C 	0.5484	0.0466	0.9392	0.494
Mof_C 	C 	0.4704	0.0984	0.8976	-0.306
Mof_C 	C 	0.4317	0.3021	0.9171	0.077
Mof_C 	C 	0.595	0.2725	0.8643	0.001
Mof_C 	C 	0.5897	0.3864	0.8728	0.012
Mof_C 	C 	0.4401	0.5123	0.9243	-0.275
Mof_C 	C 	0.5568	0.5806	0.9479	0.436
Mof_C 	C 	0.7779	0.2139	0.1448	0.44
Mof_C 	C 	0.8877	0.2958	0.1643	-0.274
Mof_C 	C 	0.0092	0.1771	0.2266	0.015
Mof_C 	C 	0.9516	0.5466	0.0608	0.491
Mof_C 	C 	0.0296	0.5984	0.1024	-0.302
Mof_C 	C 	0.0683	0.8021	0.0829	0.076
Mof_C 	C 	0.905	0.7725	0.1357	0.001
Mof_C 	C 	0.9103	0.8864	0.1272	0.008
Mof_C 	C 	0.0599	0.0123	0.0757	-0.291
Mof_C 	C 	0.9432	0.0806	0.0521	0.443
Mof_C 	C 	0.7221	0.7139	0.8552	0.44
Mof_C 	C 	0.6123	0.7958	0.8357	-0.273
Mof_C 	C 	0.4908	0.6771	0.7734	0.016
Mof_C 	C 	0.5484	0.0466	0.5608	0.493
Mof_C 	C 	0.4704	0.0984	0.6024	-0.305
Mof_C 	C 	0.4317	0.3021	0.5829	0.077
Mof_C 	C 	0.595	0.2725	0.6357	0.001
Mof_C 	C 	0.5897	0.3864	0.6272	0.012
Mof_C 	C 	0.4401	0.5123	0.5757	-0.275
Mof_C 	C 	0.5568	0.5806	0.5521	0.436
Mof_C 	C 	0.7779	0.2139	0.3552	0.44
Mof_C 	C 	0.8877	0.2958	0.3357	-0.274
Mof_C 	C 	0.0092	0.1771	0.2734	0.015
Mof_C 	C 	0.9516	0.5466	0.4392	0.491
Mof_C 	C 	0.0296	0.5984	0.3976	-0.301
Mof_C 	C 	0.0683	0.8021	0.4171	0.076
Mof_C 	C 	0.905	0.7725	0.3643	0.001
Mof_C 	C 	0.9103	0.8864	0.3728	0.008
Mof_C 	C 	0.0599	0.0123	0.4243	-0.288
Mof_C 	C 	0.9432	0.0806	0.4479	0.442
Mof_C 	C 	0.7221	0.7139	0.6448	0.44
Mof_C 	C 	0.6123	0.7958	0.6643	-0.273
Mof_C 	C 	0.4908	0.6771	0.7266	0.016
Mof_C 	C 	0.4516	0.9534	0.0608	0.494
Mof_C 	C 	0.5296	0.9016	0.1024	-0.306
Mof_C 	C 	0.5683	0.6979	0.0829	0.077
Mof_C 	C 	0.405	0.7275	0.1357	0.001
Mof_C 	C 	0.4103	0.6136	0.1272	0.012
Mof_C 	C 	0.5599	0.4877	0.0757	-0.275
Mof_C 	C 	0.4432	0.4194	0.0521	0.436
Mof_C 	C 	0.2221	0.7861	0.8552	0.44
Mof_C 	C 	0.1123	0.7042	0.8357	-0.274
Mof_C 	C 	0.9908	0.8229	0.7734	0.015
Mof_C 	C 	0.0484	0.4534	0.9392	0.491
Mof_C 	C 	0.9704	0.4016	0.8976	-0.302
Mof_C 	C 	0.9317	0.1979	0.9171	0.076
Mof_C 	C 	0.095	0.2275	0.8643	0.001
Mof_C 	C 	0.0897	0.1136	0.8728	0.008
Mof_C 	C 	0.9401	0.9877	0.9243	-0.291
Mof_C 	C 	0.0568	0.9194	0.9479	0.443
Mof_C 	C 	0.2779	0.2861	0.1448	0.44
Mof_C 	C 	0.3877	0.2042	0.1643	-0.273
Mof_C 	C 	0.5092	0.3229	0.2266	0.016
Mof_C 	C 	0.1209	0.6794	0.75	0.079
Mof_C 	C 	0.3791	0.1794	0.25	0.079
Mof_C 	C 	0.8791	0.3206	0.25	0.079
Mof_C 	C 	0.6209	0.8206	0.75	0.079
Mof_N 	N 	0.5137	0.5965	0.40634	-0.073
Mof_N 	N 	0.5053	0.7782	0.39267	-0.069
Mof_N 	N 	0.0733	0.733	0.7128	-0.07
Mof_N 	N 	0.9863	0.0965	0.59366	-0.069
Mof_N 	N 	0.9947	0.2782	0.60733	-0.068
Mof_N 	N 	0.4267	0.233	0.2872	-0.071
Mof_N 	N 	0.4863	0.4035	0.90634	-0.073
Mof_N 	N 	0.4947	0.2218	0.89267	-0.069
Mof_N 	N 	0.9267	0.267	0.2128	-0.07
Mof_N 	N 	0.0137	0.9035	0.09366	-0.068
Mof_N 	N 	0.0053	0.7218	0.10733	-0.068
Mof_N 	N 	0.5733	0.767	0.7872	-0.071
Mof_N 	N 	0.4863	0.4035	0.59366	-0.073
Mof_N 	N 	0.4947	0.2218	0.60733	-0.069
Mof_N 	N 	0.9267	0.267	0.2872	-0.07
Mof_N 	N 	0.0137	0.9035	0.40634	-0.069
Mof_N 	N 	0.0053	0.7218	0.39267	-0.068
Mof_N 	N 	0.5733	0.767	0.7128	-0.071
Mof_N 	N 	0.5137	0.5965	0.09366	-0.073
Mof_N 	N 	0.5053	0.7782	0.10733	-0.069
Mof_N 	N 	0.0733	0.733	0.7872	-0.07
Mof_N 	N 	0.9863	0.0965	0.90634	-0.068
Mof_N 	N 	0.9947	0.2782	0.89267	-0.068
Mof_N 	N 	0.4267	0.233	0.2128	-0.071
Mof_O 	O 	0.3691	0.8903	0.46143	-0.466
Mof_O 	O 	0.4777	0.0569	0.44711	-0.502
Mof_O 	O 	0.4748	0.3206	0.46185	-0.503
Mof_O 	O 	0.3254	0.4649	0.45307	-0.458
Mof_O 	O 	0.28	0.751	0.60829	-0.487
Mof_O 	O 	0.2471	0.8767	0.66505	-0.29
Mof_O 	O 	0.2278	0.6571	0.49708	-0.541
Mof_O 	O 	0.1309	0.3903	0.53857	-0.466
Mof_O 	O 	0.0223	0.5569	0.55289	-0.501
Mof_O 	O 	0.0252	0.8206	0.53815	-0.504
Mof_O 	O 	0.1746	0.9649	0.54693	-0.458
Mof_O 	O 	0.22	0.251	0.39171	-0.487
Mof_O 	O 	0.2529	0.3767	0.33495	-0.291
Mof_O 	O 	0.2722	0.1571	0.50292	-0.541
Mof_O 	O 	0.6309	0.1097	0.96143	-0.466
Mof_O 	O 	0.5223	0.9431	0.94711	-0.502
Mof_O 	O 	0.5252	0.6794	0.96185	-0.503
Mof_O 	O 	0.6746	0.5351	0.95307	-0.458
Mof_O 	O 	0.72	0.249	0.10829	-0.487
Mof_O 	O 	0.7529	0.1233	0.16505	-0.29
Mof_O 	O 	0.7722	0.3429	0.99708	-0.541
Mof_O 	O 	0.8691	0.6097	0.03857	-0.465
Mof_O 	O 	0.9777	0.4431	0.05289	-0.5
Mof_O 	O 	0.9748	0.1794	0.03815	-0.504
Mof_O 	O 	0.8254	0.0351	0.04693	-0.459
Mof_O 	O 	0.78	0.749	0.89171	-0.487
Mof_O 	O 	0.7471	0.6233	0.83495	-0.291
Mof_O 	O 	0.7278	0.8429	0.00292	-0.54
Mof_O 	O 	0.6309	0.1097	0.53857	-0.466
Mof_O 	O 	0.5223	0.9431	0.55289	-0.502
Mof_O 	O 	0.5252	0.6794	0.53815	-0.503
Mof_O 	O 	0.6746	0.5351	0.54693	-0.458
Mof_O 	O 	0.72	0.249	0.39171	-0.487
Mof_O 	O 	0.7529	0.1233	0.33495	-0.29
Mof_O 	O 	0.7722	0.3429	0.50292	-0.541
Mof_O 	O 	0.8691	0.6097	0.46143	-0.466
Mof_O 	O 	0.9777	0.4431	0.44711	-0.501
Mof_O 	O 	0.9748	0.1794	0.46185	-0.504
Mof_O 	O 	0.8254	0.0351	0.45307	-0.458
Mof_O 	O 	0.78	0.749	0.60829	-0.487
Mof_O 	O 	0.7471	0.6233	0.66505	-0.291
Mof_O 	O 	0.7278	0.8429	0.49708	-0.541
Mof_O 	O 	0.3691	0.8903	0.03857	-0.466
Mof_O 	O 	0.4777	0.0569	0.05289	-0.502
Mof_O 	O 	0.4748	0.3206	0.03815	-0.503
Mof_O 	O 	0.3254	0.4649	0.04693	-0.458
Mof_O 	O 	0.28	0.751	0.89171	-0.487
Mof_O 	O 	0.2471	0.8767	0.83495	-0.29
Mof_O 	O 	0.2278	0.6571	0.00292	-0.541
Mof_O 	O 	0.1309	0.3903	0.96143	-0.465
Mof_O 	O 	0.0223	0.5569	0.94711	-0.5
Mof_O 	O 	0.0252	0.8206	0.96185	-0.504
Mof_O 	O 	0.1746	0.9649	0.95307	-0.459
Mof_O 	O 	0.22	0.251	0.10829	-0.487
Mof_O 	O 	0.2529	0.3767	0.16505	-0.291
Mof_O 	O 	0.2722	0.1571	0.99708	-0.54
Mof_Br	Br	0.21755	0.94527	0.31299	-0.223
Mof_Br	Br	0.28245	0.44527	0.68701	-0.225
Mof_Br	Br	0.78245	0.05473	0.81299	-0.223
Mof_Br	Br	0.71755	0.55473	0.18701	-0.225
Mof_Br	Br	0.78245	0.05473	0.68701	-0.223
Mof_Br	Br	0.71755	0.55473	0.31299	-0.225
Mof_Br	Br	0.21755	0.94527	0.18701	-0.223
Mof_Br	Br	0.28245	0.44527	0.81299	-0.225
_end
