# CIF file generated by openbabel 3.1.0, see https://openbabel.org
data_I
_chemical_name_common 'GAJZEY_clean'
_cell_length_a 5.5871
_cell_length_b 13.424
_cell_length_c 21.157
_cell_angle_alpha 90
_cell_angle_beta 96.148
_cell_angle_gamma 90
_space_group_name_H-M_alt 'P 1'
_space_group_name_Hall 'P 1'
loop_
    _symmetry_equiv_pos_as_xyz
    x,y,z
loop_
    _atom_site_label
    _atom_site_type_symbol
    _atom_site_fract_x
    _atom_site_fract_y
    _atom_site_fract_z
    _atom_site_occupancy
    Nd1      Nd       0.62854    0.13445    0.97151    1.000
    Nd2      Nd       0.37146    0.63445    0.52849    1.000
    Nd3      Nd       0.37146    0.86555    0.02849    1.000
    Nd4      Nd       0.62854    0.36555    0.47151    1.000
    P1       P        0.91220    0.02307    0.08680    1.000
    P2       P        0.08780    0.52307    0.41320    1.000
    P3       P        0.08780    0.97693    0.91320    1.000
    P4       P        0.91220    0.47693    0.58680    1.000
    H1       H        0.76470    0.97450    0.17990    1.000
    H2       H        0.67430    0.08180    0.16150    1.000
    H3       H        0.76010    0.10060    0.28060    1.000
    H4       H        0.88940    0.99680    0.28640    1.000
    H5       H        0.03350    0.09910    0.37130    1.000
    H6       H        0.24310    0.07100    0.33090    1.000
    H7       H        0.99240    0.25480    0.32250    1.000
    H8       H        0.23620    0.30330    0.24560    1.000
    H9       H        0.37050    0.20050    0.25080    1.000
    H10      H        0.08070    0.19830    0.16130    1.000
    H11      H        0.87650    0.22380    0.20430    1.000
    H12      H        0.23530    0.47450    0.32010    1.000
    H13      H        0.32570    0.58180    0.33850    1.000
    H14      H        0.23990    0.60060    0.21940    1.000
    H15      H        0.11060    0.49680    0.21360    1.000
    H16      H        0.96650    0.59910    0.12870    1.000
    H17      H        0.75690    0.57100    0.16910    1.000
    H18      H        0.00760    0.75480    0.17750    1.000
    H19      H        0.76380    0.80330    0.25440    1.000
    H20      H        0.62950    0.70050    0.24920    1.000
    H21      H        0.91930    0.69830    0.33870    1.000
    H22      H        0.12350    0.72380    0.29570    1.000
    H23      H        0.23530    0.02550    0.82010    1.000
    H24      H        0.32570    0.91820    0.83850    1.000
    H25      H        0.23990    0.89940    0.71940    1.000
    H26      H        0.11060    0.00320    0.71360    1.000
    H27      H        0.96650    0.90090    0.62870    1.000
    H28      H        0.75690    0.92900    0.66910    1.000
    H29      H        0.00760    0.74520    0.67750    1.000
    H30      H        0.76380    0.69670    0.75440    1.000
    H31      H        0.62950    0.79950    0.74920    1.000
    H32      H        0.91930    0.80170    0.83870    1.000
    H33      H        0.12350    0.77620    0.79570    1.000
    H34      H        0.76470    0.52550    0.67990    1.000
    H35      H        0.67430    0.41820    0.66150    1.000
    H36      H        0.76010    0.39940    0.78060    1.000
    H37      H        0.88940    0.50320    0.78640    1.000
    H38      H        0.03350    0.40090    0.87130    1.000
    H39      H        0.24310    0.42900    0.83090    1.000
    H40      H        0.99240    0.24520    0.82250    1.000
    H41      H        0.23620    0.19670    0.74560    1.000
    H42      H        0.37050    0.29950    0.75080    1.000
    H43      H        0.08070    0.30170    0.66130    1.000
    H44      H        0.87650    0.27620    0.70430    1.000
    C1       C        0.81490    0.03890    0.16530    1.000
    C2       C        0.91320    0.06720    0.27900    1.000
    C3       C        0.09390    0.10800    0.33040    1.000
    C4       C        0.14400    0.21880    0.32040    1.000
    C5       C        0.21680    0.23280    0.25370    1.000
    C6       C        0.02830    0.18910    0.20320    1.000
    C7       C        0.32600    0.26090    0.37170    1.000
    C8       C        0.18510    0.53890    0.33470    1.000
    C9       C        0.08680    0.56720    0.22100    1.000
    C10      C        0.90610    0.60800    0.16960    1.000
    C11      C        0.85600    0.71880    0.17960    1.000
    C12      C        0.78320    0.73280    0.24630    1.000
    C13      C        0.97170    0.68910    0.29680    1.000
    C14      C        0.67400    0.76090    0.12830    1.000
    C15      C        0.18510    0.96110    0.83470    1.000
    C16      C        0.08680    0.93280    0.72100    1.000
    C17      C        0.90610    0.89200    0.66960    1.000
    C18      C        0.85600    0.78120    0.67960    1.000
    C19      C        0.78320    0.76720    0.74630    1.000
    C20      C        0.97170    0.81090    0.79680    1.000
    C21      C        0.67400    0.73910    0.62830    1.000
    C22      C        0.81490    0.46110    0.66530    1.000
    C23      C        0.91320    0.43280    0.77900    1.000
    C24      C        0.09390    0.39200    0.83040    1.000
    C25      C        0.14400    0.28120    0.82040    1.000
    C26      C        0.21680    0.26720    0.75370    1.000
    C27      C        0.02830    0.31090    0.70320    1.000
    C28      C        0.32600    0.23910    0.87170    1.000
    N1       N        0.99420    0.08120    0.21510    1.000
    N2       N        0.00580    0.58120    0.28490    1.000
    N3       N        0.00580    0.91880    0.78490    1.000
    N4       N        0.99420    0.41880    0.71510    1.000
    O1       O        0.68580    0.98260    0.04648    1.000
    O2       O        0.96320    0.12330    0.05740    1.000
    O3       O        0.12270    0.95240    0.09190    1.000
    O4       O        0.29920    0.24440    0.42940    1.000
    O5       O        0.49480    0.31510    0.35790    1.000
    O6       O        0.31420    0.48260    0.45352    1.000
    O7       O        0.03680    0.62330    0.44260    1.000
    O8       O        0.87730    0.45240    0.40810    1.000
    O9       O        0.70080    0.74440    0.07060    1.000
    O10      O        0.50520    0.81510    0.14210    1.000
    O11      O        0.31420    0.01740    0.95352    1.000
    O12      O        0.03680    0.87670    0.94260    1.000
    O13      O        0.87730    0.04760    0.90810    1.000
    O14      O        0.70080    0.75560    0.57060    1.000
    O15      O        0.50520    0.68490    0.64210    1.000
    O16      O        0.68580    0.51740    0.54648    1.000
    O17      O        0.96320    0.37670    0.55740    1.000
    O18      O        0.12270    0.54760    0.59190    1.000
    O19      O        0.29920    0.25560    0.92940    1.000
    O20      O        0.49480    0.18490    0.85790    1.000
