data_functionalizedCrystal
_audit_creation_method	'EQeq! by Chris Wilmer'
_symmetry_space_group_name_H-M	'P1'
_symmetry_Int_Tables_number	1
_symmetry_cell_setting	triclinic
loop_
_symmetry_equiv_pos_as_xyz
  x,y,z
_cell_length_a	9.9696
_cell_length_b	15.7389
_cell_length_c	15.7389
_cell_angle_alpha	64.3339
_cell_angle_beta	77.8105
_cell_angle_gamma	102.19
loop_
_atom_site_label
_atom_site_type_symbol
_atom_site_fract_x
_atom_site_fract_y
_atom_site_fract_z
_atom_site_charge
Mof_Fe	Fe	0.5	-2.78184e-17	0.5	0.63
Mof_Fe	Fe	-2.78184e-17	0.5	0.5	0.55
Mof_Fe	Fe	0.5	0.5	-0	0.623
Mof_Ag	Ag	0.70338	0.70338	0.59324	0.466
Mof_Ag	Ag	0.29662	0.59324	0.70338	0.407
Mof_Ag	Ag	-6.95459e-17	0.70338	0.70338	0.299
Mof_Ag	Ag	0.29662	0.29662	0.40676	0.402
Mof_Ag	Ag	0.70338	0.40676	0.29662	0.462
Mof_Ag	Ag	1.39092e-17	0.29662	0.29662	0.289
Mof_H 	H 	0.4691	0.8537	0.4196	-0.024
Mof_H 	H 	0.5168	0.8504	0.272	0.085
Mof_H 	H 	0.8887	0.4196	0.7267	-0.004
Mof_H 	H 	0.7888	0.272	0.8776	0.095
Mof_H 	H 	0.6154	0.7267	0.8537	-0.02
Mof_H 	H 	0.6664	0.8776	0.8504	0.09
Mof_H 	H 	0.1113	0.7267	0.4196	-0.029
Mof_H 	H 	0.2112	0.8776	0.272	0.083
Mof_H 	H 	0.3846	0.8537	0.7267	-0.023
Mof_H 	H 	0.3336	0.8504	0.8776	0.081
Mof_H 	H 	0.5309	0.4196	0.8537	-0.024
Mof_H 	H 	0.4832	0.272	0.8504	0.078
Mof_H 	H 	0.5309	0.1463	0.5804	-0.021
Mof_H 	H 	0.4832	0.1496	0.728	0.081
Mof_H 	H 	0.1113	0.5804	0.2733	-0.029
Mof_H 	H 	0.2112	0.728	0.1224	0.078
Mof_H 	H 	0.3846	0.2733	0.1463	-0.021
Mof_H 	H 	0.3336	0.1224	0.1496	0.077
Mof_H 	H 	0.8887	0.2733	0.5804	-0.005
Mof_H 	H 	0.7888	0.1224	0.728	0.09
Mof_H 	H 	0.6154	0.1463	0.2733	-0.019
Mof_H 	H 	0.6664	0.1496	0.1224	0.088
Mof_H 	H 	0.4691	0.5804	0.1463	-0.021
Mof_H 	H 	0.5168	0.728	0.1496	0.086
Mof_C 	C 	0.5111	0.9141	0.3588	0.104
Mof_C 	C 	0.5396	0.9114	0.2709	-0.146
Mof_C 	C 	0.6271	0.8177	0.578	-0.12
Mof_C 	C 	0.8699	0.3588	0.7271	0.097
Mof_C 	C 	0.8105	0.2709	0.8177	-0.152
Mof_C 	C 	0.2051	0.578	0.6043	-0.133
Mof_C 	C 	0.597	0.7271	0.9141	0.108
Mof_C 	C 	0.6282	0.8177	0.9114	-0.136
Mof_C 	C 	0.8094	0.6043	0.8177	-0.052
Mof_C 	C 	0.1301	0.7271	0.3588	0.085
Mof_C 	C 	0.1895	0.8177	0.2709	-0.162
Mof_C 	C 	0.7949	0.6043	0.578	-0.114
Mof_C 	C 	0.403	0.9141	0.7271	0.098
Mof_C 	C 	0.3718	0.9114	0.8177	-0.144
Mof_C 	C 	0.1906	0.8177	0.6043	-0.109
Mof_C 	C 	0.4889	0.3588	0.9141	0.101
Mof_C 	C 	0.4604	0.2709	0.9114	-0.139
Mof_C 	C 	0.3729	0.578	0.8177	-0.127
Mof_C 	C 	0.4889	0.0859	0.6412	0.086
Mof_C 	C 	0.4604	0.0886	0.7291	-0.155
Mof_C 	C 	0.3729	0.1823	0.422	-0.129
Mof_C 	C 	0.1301	0.6412	0.2729	0.084
Mof_C 	C 	0.1895	0.7291	0.1823	-0.162
Mof_C 	C 	0.7949	0.422	0.3957	-0.113
Mof_C 	C 	0.403	0.2729	0.0859	0.083
Mof_C 	C 	0.3718	0.1823	0.0886	-0.154
Mof_C 	C 	0.1906	0.3957	0.1823	-0.111
Mof_C 	C 	0.8699	0.2729	0.6412	0.096
Mof_C 	C 	0.8105	0.1823	0.7291	-0.152
Mof_C 	C 	0.2051	0.3957	0.422	-0.133
Mof_C 	C 	0.597	0.0859	0.2729	0.093
Mof_C 	C 	0.6282	0.0886	0.1823	-0.155
Mof_C 	C 	0.8094	0.1823	0.3957	-0.055
Mof_C 	C 	0.5111	0.6412	0.0859	0.09
Mof_C 	C 	0.5396	0.7291	0.0886	-0.152
Mof_C 	C 	0.6271	0.422	0.1823	-0.123
Mof_C 	C 	0.60215	0	0.18145	0.066
Mof_C 	C 	0.6345	-6.95459e-18	0.0832	0.094
Mof_C 	C 	0.7836	0.18145	0.81855	0.077
Mof_C 	C 	0.7177	0.0832	0.9168	0.12
Mof_C 	C 	0.60215	0.81855	-0	0.059
Mof_C 	C 	0.6345	0.9168	-0	0.104
Mof_C 	C 	0.2164	0.81855	0.18145	0.067
Mof_C 	C 	0.2823	0.9168	0.0832	0.103
Mof_C 	C 	0.39785	0	0.81855	0.055
Mof_C 	C 	0.3655	0	0.9168	0.103
Mof_C 	C 	0.39785	0.18145	-0	0.05
Mof_C 	C 	0.3655	0.0832	-0	0.083
Mof_N 	N 	0.5879	0.8858	0.5555	-0.146
Mof_N 	N 	0.1434	0.5555	0.5587	-0.157
Mof_N 	N 	0.7021	0.5587	0.8858	-0.159
Mof_N 	N 	0.8566	0.5587	0.5555	-0.125
Mof_N 	N 	0.2979	0.8858	0.5587	-0.157
Mof_N 	N 	0.4121	0.5555	0.8858	-0.15
Mof_N 	N 	0.4121	0.1142	0.4445	-0.157
Mof_N 	N 	0.8566	0.4445	0.4413	-0.125
Mof_N 	N 	0.2979	0.4413	0.1142	-0.163
Mof_N 	N 	0.1434	0.4413	0.4445	-0.158
Mof_N 	N 	0.7021	0.1142	0.4413	-0.166
Mof_N 	N 	0.5879	0.4445	0.1142	-0.151
Mof_N 	N 	0.5415	-2.78184e-17	0.3601	-0.204
Mof_N 	N 	0.9016	0.3601	0.6399	-0.174
Mof_N 	N 	0.5415	0.6399	-0	-0.206
Mof_N 	N 	0.0984	0.6399	0.3601	-0.199
Mof_N 	N 	0.4585	-5.56367e-17	0.6399	-0.203
Mof_N 	N 	0.4585	0.3601	-0	-0.206
Mof_N 	N 	0.60542	0.91178	0.08822	-0.136
Mof_N 	N 	0.69364	0.08822	-0	-0.151
Mof_N 	N 	0.69364	0	0.91178	-0.141
Mof_N 	N 	0.30636	0	0.08822	-0.153
Mof_N 	N 	0.30636	0.91178	-0	-0.153
Mof_N 	N 	0.39458	0.08822	0.91178	-0.138
_end
