# CIF file generated by openbabel 3.1.0, see https://openbabel.org
data_I
_chemical_name_common 'image0'
_cell_length_a 13.4541
_cell_length_b 13.4541
_cell_length_c 27.755
_cell_angle_alpha 90
_cell_angle_beta 90
_cell_angle_gamma 120
_space_group_name_H-M_alt 'P 1'
_space_group_name_Hall 'P 1'
loop_
    _symmetry_equiv_pos_as_xyz
    x,y,z
loop_
    _atom_site_label
    _atom_site_type_symbol
    _atom_site_fract_x
    _atom_site_fract_y
    _atom_site_fract_z
    _atom_site_occupancy
    V1       V        0.14188    0.43412    0.47322    1.000
    P1       P        0.02559    0.18703    0.41572    1.000
    P2       P        0.87287    0.36903    0.46431    1.000
    O1       O        0.22780    0.55220    0.42347    1.000
    O2       O        0.97357    0.10886    0.45959    1.000
    O3       O        0.07121    0.14026    0.37740    1.000
    O4       O        0.11974    0.30721    0.42952    1.000
    O5       O        0.99850    0.42730    0.45039    1.000
    O6       O        0.83350    0.45287    0.47659    1.000
    O7       O        0.84806    0.28152    0.50398    1.000
    O8       O        0.14190    0.07640    0.29532    1.000
    H1       H        0.93660    0.19640    0.39660    1.000
    H2       H        0.80490    0.30810    0.42180    1.000
    V2       V        0.56588    0.70776    0.47322    1.000
    P3       P        0.81297    0.83856    0.41572    1.000
    P4       P        0.63097    0.50384    0.46431    1.000
    O9       O        0.44780    0.67560    0.42347    1.000
    O10      O        0.89114    0.86471    0.45959    1.000
    O11      O        0.85974    0.93095    0.37740    1.000
    O12      O        0.69279    0.81253    0.42952    1.000
    O13      O        0.57270    0.57120    0.45039    1.000
    O14      O        0.54713    0.38063    0.47659    1.000
    O15      O        0.71848    0.56654    0.50398    1.000
    O16      O        0.92360    0.06550    0.29532    1.000
    H3       H        0.80360    0.74020    0.39660    1.000
    H4       H        0.69190    0.49680    0.42180    1.000
    V3       V        0.29224    0.85812    0.47322    1.000
    P5       P        0.16144    0.97441    0.41572    1.000
    P6       P        0.49616    0.12713    0.46431    1.000
    O17      O        0.32440    0.77220    0.42347    1.000
    O18      O        0.13529    0.02643    0.45959    1.000
    O19      O        0.06905    0.92879    0.37740    1.000
    O20      O        0.18747    0.88026    0.42952    1.000
    O21      O        0.42880    0.00150    0.45039    1.000
    O22      O        0.61937    0.16650    0.47659    1.000
    O23      O        0.43346    0.15194    0.50398    1.000
    O24      O        0.93450    0.85810    0.29532    1.000
    H5       H        0.25980    0.06340    0.39660    1.000
    H6       H        0.50320    0.19510    0.42180    1.000
    V4       V        0.85812    0.56588    0.97322    1.000
    P7       P        0.97441    0.81297    0.91572    1.000
    P8       P        0.12713    0.63097    0.96431    1.000
    O25      O        0.77220    0.44780    0.92347    1.000
    O26      O        0.02643    0.89114    0.95959    1.000
    O27      O        0.92879    0.85974    0.87740    1.000
    O28      O        0.88026    0.69279    0.92952    1.000
    O29      O        0.00150    0.57270    0.95039    1.000
    O30      O        0.16650    0.54713    0.97659    1.000
    O31      O        0.15194    0.71848    0.00398    1.000
    O32      O        0.85810    0.92360    0.79532    1.000
    H7       H        0.06340    0.80360    0.89660    1.000
    H8       H        0.19510    0.69190    0.92180    1.000
    V5       V        0.43412    0.29224    0.97322    1.000
    P9       P        0.18703    0.16144    0.91572    1.000
    P10      P        0.36903    0.49616    0.96431    1.000
    O33      O        0.55220    0.32440    0.92347    1.000
    O34      O        0.10886    0.13529    0.95959    1.000
    O35      O        0.14026    0.06905    0.87740    1.000
    O36      O        0.30721    0.18747    0.92952    1.000
    O37      O        0.42730    0.42880    0.95039    1.000
    O38      O        0.45287    0.61937    0.97659    1.000
    O39      O        0.28152    0.43346    0.00398    1.000
    O40      O        0.07640    0.93450    0.79532    1.000
    H9       H        0.19640    0.25980    0.89660    1.000
    H10      H        0.30810    0.50320    0.92180    1.000
    V6       V        0.70776    0.14188    0.97322    1.000
    P11      P        0.83856    0.02559    0.91572    1.000
    P12      P        0.50384    0.87287    0.96431    1.000
    O41      O        0.67560    0.22780    0.92347    1.000
    O42      O        0.86471    0.97357    0.95959    1.000
    O43      O        0.93095    0.07121    0.87740    1.000
    O44      O        0.81253    0.11974    0.92952    1.000
    O45      O        0.57120    0.99850    0.95039    1.000
    O46      O        0.38063    0.83350    0.97659    1.000
    O47      O        0.56654    0.84806    0.00398    1.000
    O48      O        0.06550    0.14190    0.79532    1.000
    H11      H        0.74020    0.93660    0.89660    1.000
    H12      H        0.49680    0.80490    0.92180    1.000
    V7       V        0.85812    0.56588    0.52678    1.000
    P13      P        0.97441    0.81297    0.58428    1.000
    P14      P        0.12713    0.63097    0.53569    1.000
    O49      O        0.77220    0.44780    0.57653    1.000
    O50      O        0.02643    0.89114    0.54041    1.000
    O51      O        0.92879    0.85974    0.62260    1.000
    O52      O        0.88026    0.69279    0.57048    1.000
    O53      O        0.00150    0.57270    0.54961    1.000
    O54      O        0.16650    0.54713    0.52341    1.000
    O55      O        0.15194    0.71848    0.49602    1.000
    O56      O        0.85810    0.92360    0.70468    1.000
    H13      H        0.06340    0.80360    0.60340    1.000
    H14      H        0.19510    0.69190    0.57820    1.000
    V8       V        0.43412    0.29224    0.52678    1.000
    P15      P        0.18703    0.16144    0.58428    1.000
    P16      P        0.36903    0.49616    0.53569    1.000
    O57      O        0.55220    0.32440    0.57653    1.000
    O58      O        0.10886    0.13529    0.54041    1.000
    O59      O        0.14026    0.06905    0.62260    1.000
    O60      O        0.30721    0.18747    0.57048    1.000
    O61      O        0.42730    0.42880    0.54961    1.000
    O62      O        0.45287    0.61937    0.52341    1.000
    O63      O        0.28152    0.43346    0.49602    1.000
    O64      O        0.07640    0.93450    0.70468    1.000
    H15      H        0.19640    0.25980    0.60340    1.000
    H16      H        0.30810    0.50320    0.57820    1.000
    V9       V        0.70776    0.14188    0.52678    1.000
    P17      P        0.83856    0.02559    0.58428    1.000
    P18      P        0.50384    0.87287    0.53569    1.000
    O65      O        0.67560    0.22780    0.57653    1.000
    O66      O        0.86471    0.97357    0.54041    1.000
    O67      O        0.93095    0.07121    0.62260    1.000
    O68      O        0.81253    0.11974    0.57048    1.000
    O69      O        0.57120    0.99850    0.54961    1.000
    O70      O        0.38063    0.83350    0.52341    1.000
    O71      O        0.56654    0.84806    0.49602    1.000
    O72      O        0.06550    0.14190    0.70468    1.000
    H17      H        0.74020    0.93660    0.60340    1.000
    H18      H        0.49680    0.80490    0.57820    1.000
    V10      V        0.14188    0.43412    0.02678    1.000
    P19      P        0.02559    0.18703    0.08428    1.000
    P20      P        0.87287    0.36903    0.03569    1.000
    O73      O        0.22780    0.55220    0.07653    1.000
    O74      O        0.97357    0.10886    0.04041    1.000
    O75      O        0.07121    0.14026    0.12260    1.000
    O76      O        0.11974    0.30721    0.07048    1.000
    O77      O        0.99850    0.42730    0.04961    1.000
    O78      O        0.83350    0.45287    0.02341    1.000
    O79      O        0.84806    0.28152    0.99602    1.000
    O80      O        0.14190    0.07640    0.20468    1.000
    H19      H        0.93660    0.19640    0.10340    1.000
    H20      H        0.80490    0.30810    0.07820    1.000
    V11      V        0.56588    0.70776    0.02678    1.000
    P21      P        0.81297    0.83856    0.08428    1.000
    P22      P        0.63097    0.50384    0.03569    1.000
    O81      O        0.44780    0.67560    0.07653    1.000
    O82      O        0.89114    0.86471    0.04041    1.000
    O83      O        0.85974    0.93095    0.12260    1.000
    O84      O        0.69279    0.81253    0.07048    1.000
    O85      O        0.57270    0.57120    0.04961    1.000
    O86      O        0.54713    0.38063    0.02341    1.000
    O87      O        0.71848    0.56654    0.99602    1.000
    O88      O        0.92360    0.06550    0.20468    1.000
    H21      H        0.80360    0.74020    0.10340    1.000
    H22      H        0.69190    0.49680    0.07820    1.000
    V12      V        0.29224    0.85812    0.02678    1.000
    P23      P        0.16144    0.97441    0.08428    1.000
    P24      P        0.49616    0.12713    0.03569    1.000
    O89      O        0.32440    0.77220    0.07653    1.000
    O90      O        0.13529    0.02643    0.04041    1.000
    O91      O        0.06905    0.92879    0.12260    1.000
    O92      O        0.18747    0.88026    0.07048    1.000
    O93      O        0.42880    0.00150    0.04961    1.000
    O94      O        0.61937    0.16650    0.02341    1.000
    O95      O        0.43346    0.15194    0.99602    1.000
    O96      O        0.93450    0.85810    0.20468    1.000
    H23      H        0.25980    0.06340    0.10340    1.000
    H24      H        0.50320    0.19510    0.07820    1.000
    V13      V        0.00000    0.00000    0.50000    1.000
    V14      V        0.00000    0.00000    0.00000    1.000
    V15      V        0.00000    0.00000    0.33611    1.000
    V16      V        0.00000    0.00000    0.83611    1.000
    V17      V        0.00000    0.00000    0.66389    1.000
    V18      V        0.00000    0.00000    0.16389    1.000
    P25      P        0.19180    0.06298    0.25000    1.000
    O97      O        0.32230    0.13900    0.25000    1.000
    H25      H        0.35170    0.09810    0.25000    1.000
    H26      H        0.20010    0.95750    0.25000    1.000
    H27      H        0.30550    0.22760    0.25000    1.000
    O98      O        0.31200    0.17000    0.25000    1.000
    P26      P        0.93702    0.12882    0.25000    1.000
    O99      O        0.86100    0.18330    0.25000    1.000
    H28      H        0.90190    0.25360    0.25000    1.000
    H29      H        0.04250    0.24260    0.25000    1.000
    H30      H        0.77240    0.07790    0.25000    1.000
    O100     O        0.83000    0.14200    0.25000    1.000
    P27      P        0.87118    0.80820    0.25000    1.000
    O101     O        0.81670    0.67770    0.25000    1.000
    H31      H        0.74640    0.64830    0.25000    1.000
    H32      H        0.75740    0.79990    0.25000    1.000
    H33      H        0.92210    0.69450    0.25000    1.000
    O102     O        0.85800    0.68800    0.25000    1.000
    P28      P        0.80820    0.93702    0.75000    1.000
    O103     O        0.67770    0.86100    0.75000    1.000
    H34      H        0.64830    0.90190    0.75000    1.000
    H35      H        0.79990    0.04250    0.75000    1.000
    H36      H        0.69450    0.77240    0.75000    1.000
    O104     O        0.68800    0.83000    0.75000    1.000
    P29      P        0.06298    0.87118    0.75000    1.000
    O105     O        0.13900    0.81670    0.75000    1.000
    H37      H        0.09810    0.74640    0.75000    1.000
    H38      H        0.95750    0.75740    0.75000    1.000
    H39      H        0.22760    0.92210    0.75000    1.000
    O106     O        0.17000    0.85800    0.75000    1.000
    P30      P        0.12882    0.19180    0.75000    1.000
    O107     O        0.18330    0.32230    0.75000    1.000
    H40      H        0.25360    0.35170    0.75000    1.000
    H41      H        0.24260    0.20010    0.75000    1.000
    H42      H        0.07790    0.30550    0.75000    1.000
    O108     O        0.14200    0.31200    0.75000    1.000
    P31      P        0.33333    0.66667    0.41040    1.000
    H43      H        0.33333    0.66667    0.36440    1.000
    B1       B        0.33333    0.66667    0.42000    1.000
    P32      P        0.66667    0.33333    0.91040    1.000
    H44      H        0.66667    0.33333    0.86440    1.000
    B2       B        0.66667    0.33333    0.92000    1.000
    P33      P        0.66667    0.33333    0.58960    1.000
    H45      H        0.66667    0.33333    0.63560    1.000
    B3       B        0.66667    0.33333    0.58000    1.000
    P34      P        0.33333    0.66667    0.08960    1.000
    H46      H        0.33333    0.66667    0.13560    1.000
    B4       B        0.33333    0.66667    0.08000    1.000
