# CIF file generated by openbabel 3.1.0, see https://openbabel.org
data_I
_chemical_name_common 'image0'
_cell_length_a 8.6538
_cell_length_b 14.4144
_cell_length_c 37.4884
_cell_angle_alpha 90
_cell_angle_beta 90
_cell_angle_gamma 90
_space_group_name_H-M_alt 'P 1'
_space_group_name_Hall 'P 1'
loop_
    _symmetry_equiv_pos_as_xyz
    x,y,z
loop_
    _atom_site_label
    _atom_site_type_symbol
    _atom_site_fract_x
    _atom_site_fract_y
    _atom_site_fract_z
    _atom_site_occupancy
    Zn1      Zn       0.06017    0.28394    0.14143    1.000
    O1       O        0.12890    0.21802    0.18447    1.000
    O2       O        0.34314    0.18818    0.15502    1.000
    N1       N        0.03350    0.20111    0.09847    1.000
    C1       C        0.94130    0.03638    0.00502    1.000
    H1       H        0.84260    0.00600    0.00880    1.000
    H2       H        0.92920    0.07850    0.98500    1.000
    C2       C        0.92550    0.22362    0.07458    1.000
    H3       H        0.86820    0.27730    0.07840    1.000
    C3       C        0.97910    0.09270    0.03782    1.000
    C4       C        0.11530    0.12424    0.09204    1.000
    H4       H        0.19060    0.10680    0.10840    1.000
    C5       C        0.09310    0.06961    0.06227    1.000
    H5       H        0.15430    0.01750    0.05860    1.000
    C6       C        0.89450    0.17222    0.04487    1.000
    H6       H        0.81650    0.19060    0.02930    1.000
    C7       C        0.33440    0.15620    0.21807    1.000
    C8       C        0.26640    0.18951    0.18370    1.000
    C9       C        0.46180    0.09746    0.21819    1.000
    H7       H        0.50550    0.07940    0.19660    1.000
    C10      C        0.66440    0.93730    0.28272    1.000
    H8       H        0.67230    0.97470    0.30380    1.000
    H9       H        0.75040    0.89530    0.28160    1.000
    H10      H        0.56980    0.90260    0.28330    1.000
    H11      H        0.89910    0.01890    0.24650    1.000
    H12      H        0.82000    0.08980    0.27240    1.000
    H13      H        0.80540    0.10290    0.23110    1.000
    Zn2      Zn       0.43983    0.78394    0.85857    1.000
    O3       O        0.37110    0.71802    0.81553    1.000
    O4       O        0.15686    0.68818    0.84498    1.000
    N2       N        0.46650    0.70111    0.90153    1.000
    C11      C        0.55870    0.53638    0.99498    1.000
    H14      H        0.65740    0.50600    0.99120    1.000
    H15      H        0.57080    0.57850    0.01500    1.000
    C12      C        0.57450    0.72362    0.92542    1.000
    H16      H        0.63180    0.77730    0.92160    1.000
    C13      C        0.52090    0.59270    0.96218    1.000
    C14      C        0.38470    0.62424    0.90796    1.000
    H17      H        0.30940    0.60680    0.89160    1.000
    C15      C        0.40690    0.56961    0.93773    1.000
    H18      H        0.34570    0.51750    0.94140    1.000
    C16      C        0.60550    0.67222    0.95513    1.000
    H19      H        0.68350    0.69060    0.97070    1.000
    C17      C        0.16560    0.65620    0.78193    1.000
    C18      C        0.23360    0.68951    0.81630    1.000
    C19      C        0.03820    0.59746    0.78181    1.000
    H20      H        0.99450    0.57940    0.80340    1.000
    C20      C        0.83560    0.43730    0.71728    1.000
    H21      H        0.82770    0.47470    0.69620    1.000
    H22      H        0.74960    0.39530    0.71840    1.000
    H23      H        0.93020    0.40260    0.71670    1.000
    H24      H        0.60090    0.51890    0.75350    1.000
    H25      H        0.68000    0.58980    0.72760    1.000
    H26      H        0.69460    0.60290    0.76890    1.000
    Zn3      Zn       0.93983    0.71606    0.64143    1.000
    O5       O        0.87110    0.78198    0.68447    1.000
    O6       O        0.65686    0.81182    0.65502    1.000
    N3       N        0.96650    0.79889    0.59847    1.000
    C21      C        0.05870    0.96362    0.50502    1.000
    H27      H        0.15740    0.99400    0.50880    1.000
    H28      H        0.07080    0.92150    0.48500    1.000
    C22      C        0.07450    0.77638    0.57458    1.000
    H29      H        0.13180    0.72270    0.57840    1.000
    C23      C        0.02090    0.90730    0.53782    1.000
    C24      C        0.88470    0.87576    0.59204    1.000
    H30      H        0.80940    0.89320    0.60840    1.000
    C25      C        0.90690    0.93039    0.56227    1.000
    H31      H        0.84570    0.98250    0.55860    1.000
    C26      C        0.10550    0.82778    0.54487    1.000
    H32      H        0.18350    0.80940    0.52930    1.000
    C27      C        0.66560    0.84380    0.71807    1.000
    C28      C        0.73360    0.81049    0.68370    1.000
    C29      C        0.53820    0.90254    0.71819    1.000
    H33      H        0.49450    0.92060    0.69660    1.000
    C30      C        0.33560    0.06270    0.78272    1.000
    H34      H        0.32770    0.02530    0.80380    1.000
    H35      H        0.24960    0.10470    0.78160    1.000
    H36      H        0.43020    0.09740    0.78330    1.000
    H37      H        0.10090    0.98110    0.74650    1.000
    H38      H        0.18000    0.91020    0.77240    1.000
    H39      H        0.19460    0.89710    0.73110    1.000
    Zn4      Zn       0.56017    0.21606    0.35857    1.000
    O7       O        0.62890    0.28198    0.31553    1.000
    O8       O        0.84314    0.31182    0.34498    1.000
    N4       N        0.53350    0.29889    0.40153    1.000
    C31      C        0.44130    0.46362    0.49498    1.000
    H40      H        0.34260    0.49400    0.49120    1.000
    H41      H        0.42920    0.42150    0.51500    1.000
    C32      C        0.42550    0.27638    0.42542    1.000
    H42      H        0.36820    0.22270    0.42160    1.000
    C33      C        0.47910    0.40730    0.46218    1.000
    C34      C        0.61530    0.37576    0.40796    1.000
    H43      H        0.69060    0.39320    0.39160    1.000
    C35      C        0.59310    0.43039    0.43773    1.000
    H44      H        0.65430    0.48250    0.44140    1.000
    C36      C        0.39450    0.32778    0.45513    1.000
    H45      H        0.31650    0.30940    0.47070    1.000
    C37      C        0.83440    0.34380    0.28193    1.000
    C38      C        0.76640    0.31049    0.31630    1.000
    C39      C        0.96180    0.40254    0.28181    1.000
    H46      H        0.00550    0.42060    0.30340    1.000
    C40      C        0.16440    0.56270    0.21728    1.000
    H47      H        0.17230    0.52530    0.19620    1.000
    H48      H        0.25040    0.60470    0.21840    1.000
    H49      H        0.06980    0.59740    0.21670    1.000
    H50      H        0.39910    0.48110    0.25350    1.000
    H51      H        0.32000    0.41020    0.22760    1.000
    H52      H        0.30540    0.39710    0.26890    1.000
    Zn5      Zn       0.93983    0.71606    0.85857    1.000
    O9       O        0.87110    0.78198    0.81553    1.000
    O10      O        0.65686    0.81182    0.84498    1.000
    N5       N        0.96650    0.79889    0.90153    1.000
    C41      C        0.05870    0.96362    0.99498    1.000
    H53      H        0.15740    0.99400    0.99120    1.000
    H54      H        0.07080    0.92150    0.01500    1.000
    C42      C        0.07450    0.77638    0.92542    1.000
    H55      H        0.13180    0.72270    0.92160    1.000
    C43      C        0.02090    0.90730    0.96218    1.000
    C44      C        0.88470    0.87576    0.90796    1.000
    H56      H        0.80940    0.89320    0.89160    1.000
    C45      C        0.90690    0.93039    0.93773    1.000
    H57      H        0.84570    0.98250    0.94140    1.000
    C46      C        0.10550    0.82778    0.95513    1.000
    H58      H        0.18350    0.80940    0.97070    1.000
    C47      C        0.66560    0.84380    0.78193    1.000
    C48      C        0.73360    0.81049    0.81630    1.000
    C49      C        0.53820    0.90254    0.78181    1.000
    H59      H        0.49450    0.92060    0.80340    1.000
    C50      C        0.33560    0.06270    0.71728    1.000
    H60      H        0.32770    0.02530    0.69620    1.000
    H61      H        0.24960    0.10470    0.71840    1.000
    H62      H        0.43020    0.09740    0.71670    1.000
    H63      H        0.10090    0.98110    0.75350    1.000
    H64      H        0.18000    0.91020    0.72760    1.000
    H65      H        0.19460    0.89710    0.76890    1.000
    Zn6      Zn       0.56017    0.21606    0.14143    1.000
    O11      O        0.62890    0.28198    0.18447    1.000
    O12      O        0.84314    0.31182    0.15502    1.000
    N6       N        0.53350    0.29889    0.09847    1.000
    C51      C        0.44130    0.46362    0.00502    1.000
    H66      H        0.34260    0.49400    0.00880    1.000
    H67      H        0.42920    0.42150    0.98500    1.000
    C52      C        0.42550    0.27638    0.07458    1.000
    H68      H        0.36820    0.22270    0.07840    1.000
    C53      C        0.47910    0.40730    0.03782    1.000
    C54      C        0.61530    0.37576    0.09204    1.000
    H69      H        0.69060    0.39320    0.10840    1.000
    C55      C        0.59310    0.43039    0.06227    1.000
    H70      H        0.65430    0.48250    0.05860    1.000
    C56      C        0.39450    0.32778    0.04487    1.000
    H71      H        0.31650    0.30940    0.02930    1.000
    C57      C        0.83440    0.34380    0.21807    1.000
    C58      C        0.76640    0.31049    0.18370    1.000
    C59      C        0.96180    0.40254    0.21819    1.000
    H72      H        0.00550    0.42060    0.19660    1.000
    C60      C        0.16440    0.56270    0.28272    1.000
    H73      H        0.17230    0.52530    0.30380    1.000
    H74      H        0.25040    0.60470    0.28160    1.000
    H75      H        0.06980    0.59740    0.28330    1.000
    H76      H        0.39910    0.48110    0.24650    1.000
    H77      H        0.32000    0.41020    0.27240    1.000
    H78      H        0.30540    0.39710    0.23110    1.000
    Zn7      Zn       0.06017    0.28394    0.35857    1.000
    O13      O        0.12890    0.21802    0.31553    1.000
    O14      O        0.34314    0.18818    0.34498    1.000
    N7       N        0.03350    0.20111    0.40153    1.000
    C61      C        0.94130    0.03638    0.49498    1.000
    H79      H        0.84260    0.00600    0.49120    1.000
    H80      H        0.92920    0.07850    0.51500    1.000
    C62      C        0.92550    0.22362    0.42542    1.000
    H81      H        0.86820    0.27730    0.42160    1.000
    C63      C        0.97910    0.09270    0.46218    1.000
    C64      C        0.11530    0.12424    0.40796    1.000
    H82      H        0.19060    0.10680    0.39160    1.000
    C65      C        0.09310    0.06961    0.43773    1.000
    H83      H        0.15430    0.01750    0.44140    1.000
    C66      C        0.89450    0.17222    0.45513    1.000
    H84      H        0.81650    0.19060    0.47070    1.000
    C67      C        0.33440    0.15620    0.28193    1.000
    C68      C        0.26640    0.18951    0.31630    1.000
    C69      C        0.46180    0.09746    0.28181    1.000
    H85      H        0.50550    0.07940    0.30340    1.000
    C70      C        0.66440    0.93730    0.21728    1.000
    H86      H        0.67230    0.97470    0.19620    1.000
    H87      H        0.75040    0.89530    0.21840    1.000
    H88      H        0.56980    0.90260    0.21670    1.000
    H89      H        0.89910    0.01890    0.25350    1.000
    H90      H        0.82000    0.08980    0.22760    1.000
    H91      H        0.80540    0.10290    0.26890    1.000
    Zn8      Zn       0.43983    0.78394    0.64143    1.000
    O15      O        0.37110    0.71802    0.68447    1.000
    O16      O        0.15686    0.68818    0.65502    1.000
    N8       N        0.46650    0.70111    0.59847    1.000
    C71      C        0.55870    0.53638    0.50502    1.000
    H92      H        0.65740    0.50600    0.50880    1.000
    H93      H        0.57080    0.57850    0.48500    1.000
    C72      C        0.57450    0.72362    0.57458    1.000
    H94      H        0.63180    0.77730    0.57840    1.000
    C73      C        0.52090    0.59270    0.53782    1.000
    C74      C        0.38470    0.62424    0.59204    1.000
    H95      H        0.30940    0.60680    0.60840    1.000
    C75      C        0.40690    0.56961    0.56227    1.000
    H96      H        0.34570    0.51750    0.55860    1.000
    C76      C        0.60550    0.67222    0.54487    1.000
    H97      H        0.68350    0.69060    0.52930    1.000
    C77      C        0.16560    0.65620    0.71807    1.000
    C78      C        0.23360    0.68951    0.68370    1.000
    C79      C        0.03820    0.59746    0.71819    1.000
    H98      H        0.99450    0.57940    0.69660    1.000
    C80      C        0.83560    0.43730    0.78272    1.000
    H99      H        0.82770    0.47470    0.80380    1.000
    H100     H        0.74960    0.39530    0.78160    1.000
    H101     H        0.93020    0.40260    0.78330    1.000
    H102     H        0.60090    0.51890    0.74650    1.000
    H103     H        0.68000    0.58980    0.77240    1.000
    H104     H        0.69460    0.60290    0.73110    1.000
    C81      C        0.26720    0.18380    0.25000    1.000
    H105     H        0.17850    0.22020    0.25000    1.000
    C82      C        0.52540    0.06510    0.25000    1.000
    C83      C        0.66550    0.99970    0.25000    1.000
    C84      C        0.81080    0.05820    0.25000    1.000
    C85      C        0.23280    0.68380    0.75000    1.000
    H106     H        0.32150    0.72020    0.75000    1.000
    C86      C        0.97460    0.56510    0.75000    1.000
    C87      C        0.83450    0.49970    0.75000    1.000
    C88      C        0.68920    0.55820    0.75000    1.000
    C89      C        0.73280    0.81620    0.75000    1.000
    H107     H        0.82150    0.77980    0.75000    1.000
    C90      C        0.47460    0.93490    0.75000    1.000
    C91      C        0.33450    0.00030    0.75000    1.000
    C92      C        0.18920    0.94180    0.75000    1.000
    C93      C        0.76720    0.31620    0.25000    1.000
    H108     H        0.67850    0.27980    0.25000    1.000
    C94      C        0.02540    0.43490    0.25000    1.000
    C95      C        0.16550    0.50030    0.25000    1.000
    C96      C        0.31080    0.44180    0.25000    1.000
