# CIF file generated by openbabel 3.1.0, see https://openbabel.org
data_I
_chemical_name_common 'HAFVUH_clean'
_cell_length_a 15.2927
_cell_length_b 15.2927
_cell_length_c 12.301
_cell_angle_alpha 90
_cell_angle_beta 90
_cell_angle_gamma 90
_space_group_name_H-M_alt 'P 1'
_space_group_name_Hall 'P 1'
loop_
    _symmetry_equiv_pos_as_xyz
    x,y,z
loop_
    _atom_site_label
    _atom_site_type_symbol
    _atom_site_fract_x
    _atom_site_fract_y
    _atom_site_fract_z
    _atom_site_occupancy
    H1       H        0.61700    0.55920    0.58160    1.000
    C2       C        0.56920    0.53670    0.61920    1.000
    C3       C        0.56840    0.54040    0.73220    1.000
    C4       C        0.63980    0.58770    0.79180    1.000
    O5       O        0.62030    0.61550    0.88540    1.000
    O6       O        0.71117    0.59694    0.74560    1.000
    H7       H        0.29732    0.28839    0.40903    1.000
    H8       H        0.11700    0.05920    0.08160    1.000
    C9       C        0.06920    0.03670    0.11920    1.000
    C10      C        0.06840    0.04040    0.23220    1.000
    C11      C        0.13980    0.08770    0.29180    1.000
    O12      O        0.12030    0.11550    0.38540    1.000
    O13      O        0.21117    0.09694    0.24560    1.000
    H14      H        0.79732    0.78839    0.90903    1.000
    H15      H        0.88300    0.94080    0.08160    1.000
    C16      C        0.93080    0.96330    0.11920    1.000
    C17      C        0.93160    0.95960    0.23220    1.000
    C18      C        0.86020    0.91230    0.29180    1.000
    O19      O        0.87970    0.88450    0.38540    1.000
    O20      O        0.78883    0.90306    0.24560    1.000
    H21      H        0.20268    0.21161    0.90903    1.000
    H22      H        0.38300    0.44080    0.58160    1.000
    C23      C        0.43080    0.46330    0.61920    1.000
    C24      C        0.43160    0.45960    0.73220    1.000
    C25      C        0.36020    0.41230    0.79180    1.000
    O26      O        0.37970    0.38450    0.88540    1.000
    O27      O        0.28883    0.40306    0.74560    1.000
    H28      H        0.70268    0.71161    0.40903    1.000
    H29      H        0.44080    0.11700    0.83160    1.000
    C30      C        0.46330    0.06920    0.86920    1.000
    C31      C        0.45960    0.06840    0.98220    1.000
    C32      C        0.41230    0.13980    0.04180    1.000
    O33      O        0.38450    0.12030    0.13540    1.000
    O34      O        0.40306    0.21117    0.99560    1.000
    H35      H        0.71161    0.79732    0.65903    1.000
    H36      H        0.94080    0.61700    0.33160    1.000
    C37      C        0.96330    0.56920    0.36920    1.000
    C38      C        0.95960    0.56840    0.48220    1.000
    C39      C        0.91230    0.63980    0.54180    1.000
    O40      O        0.88450    0.62030    0.63540    1.000
    O41      O        0.90306    0.71117    0.49560    1.000
    H42      H        0.21161    0.29732    0.15903    1.000
    H43      H        0.05920    0.38300    0.33160    1.000
    C44      C        0.03670    0.43080    0.36920    1.000
    C45      C        0.04040    0.43160    0.48220    1.000
    C46      C        0.08770    0.36020    0.54180    1.000
    O47      O        0.11550    0.37970    0.63540    1.000
    O48      O        0.09694    0.28883    0.49560    1.000
    H49      H        0.78839    0.70268    0.15903    1.000
    H50      H        0.55920    0.88300    0.83160    1.000
    C51      C        0.53670    0.93080    0.86920    1.000
    C52      C        0.54040    0.93160    0.98220    1.000
    C53      C        0.58770    0.86020    0.04180    1.000
    O54      O        0.61550    0.87970    0.13540    1.000
    O55      O        0.59694    0.78883    0.99560    1.000
    H56      H        0.28839    0.20268    0.65903    1.000
    H57      H        0.88300    0.55920    0.16840    1.000
    C58      C        0.93080    0.53670    0.13080    1.000
    C59      C        0.93160    0.54040    0.01780    1.000
    C60      C        0.86020    0.58770    0.95820    1.000
    O61      O        0.87970    0.61550    0.86460    1.000
    O62      O        0.78883    0.59694    0.00440    1.000
    H63      H        0.20268    0.28839    0.34097    1.000
    H64      H        0.38300    0.05920    0.66840    1.000
    C65      C        0.43080    0.03670    0.63080    1.000
    C66      C        0.43160    0.04040    0.51780    1.000
    C67      C        0.36020    0.08770    0.45820    1.000
    O68      O        0.37970    0.11550    0.36460    1.000
    O69      O        0.28883    0.09694    0.50440    1.000
    H70      H        0.70268    0.78839    0.84097    1.000
    H71      H        0.61700    0.94080    0.66840    1.000
    C72      C        0.56920    0.96330    0.63080    1.000
    C73      C        0.56840    0.95960    0.51780    1.000
    C74      C        0.63980    0.91230    0.45820    1.000
    O75      O        0.62030    0.88450    0.36460    1.000
    O76      O        0.71117    0.90306    0.50440    1.000
    H77      H        0.29732    0.21161    0.84097    1.000
    H78      H        0.11700    0.44080    0.16840    1.000
    C79      C        0.06920    0.46330    0.13080    1.000
    C80      C        0.06840    0.45960    0.01780    1.000
    C81      C        0.13980    0.41230    0.95820    1.000
    O82      O        0.12030    0.38450    0.86460    1.000
    O83      O        0.21117    0.40306    0.00440    1.000
    H84      H        0.79732    0.71161    0.34097    1.000
    H85      H        0.05920    0.11700    0.91840    1.000
    C86      C        0.03670    0.06920    0.88080    1.000
    C87      C        0.04040    0.06840    0.76780    1.000
    C88      C        0.08770    0.13980    0.70820    1.000
    O89      O        0.11550    0.12030    0.61460    1.000
    O90      O        0.09694    0.21117    0.75440    1.000
    H91      H        0.78839    0.79732    0.09097    1.000
    H92      H        0.55920    0.61700    0.41840    1.000
    C93      C        0.53670    0.56920    0.38080    1.000
    C94      C        0.54040    0.56840    0.26780    1.000
    C95      C        0.58770    0.63980    0.20820    1.000
    O96      O        0.61550    0.62030    0.11460    1.000
    O97      O        0.59694    0.71117    0.25440    1.000
    H98      H        0.28839    0.29732    0.59097    1.000
    H99      H        0.44080    0.38300    0.41840    1.000
    C100     C        0.46330    0.43080    0.38080    1.000
    C101     C        0.45960    0.43160    0.26780    1.000
    C102     C        0.41230    0.36020    0.20820    1.000
    O103     O        0.38450    0.37970    0.11460    1.000
    O104     O        0.40306    0.28883    0.25440    1.000
    H105     H        0.71161    0.70268    0.59097    1.000
    H106     H        0.94080    0.88300    0.91840    1.000
    C107     C        0.96330    0.93080    0.88080    1.000
    C108     C        0.95960    0.93160    0.76780    1.000
    C109     C        0.91230    0.86020    0.70820    1.000
    O110     O        0.88450    0.87970    0.61460    1.000
    O111     O        0.90306    0.78883    0.75440    1.000
    H112     H        0.21161    0.20268    0.09097    1.000
    Mg113    Mg       0.18480    0.18480    0.50000    1.000
    Mg114    Mg       0.31520    0.31520    0.00000    1.000
    Mg115    Mg       0.81520    0.68480    0.75000    1.000
    Mg116    Mg       0.68480    0.81520    0.25000    1.000
    Mg117    Mg       0.31520    0.18480    0.25000    1.000
    Mg118    Mg       0.18480    0.31520    0.75000    1.000
    Mg119    Mg       0.68480    0.68480    0.00000    1.000
    Mg120    Mg       0.81520    0.81520    0.50000    1.000
    H121     H        0.00000    0.00000    0.36390    1.000
    C122     C        0.00000    0.00000    0.06100    1.000
    C123     C        0.00000    0.00000    0.28830    1.000
    H124     H        0.50000    0.50000    0.86390    1.000
    C125     C        0.50000    0.50000    0.56100    1.000
    C126     C        0.50000    0.50000    0.78830    1.000
    H127     H        0.00000    0.50000    0.61390    1.000
    C128     C        0.00000    0.50000    0.31100    1.000
    C129     C        0.00000    0.50000    0.53830    1.000
    H130     H        0.50000    0.00000    0.11390    1.000
    C131     C        0.50000    0.00000    0.81100    1.000
    C132     C        0.50000    0.00000    0.03830    1.000
    H133     H        0.50000    0.00000    0.38610    1.000
    C134     C        0.50000    0.00000    0.68900    1.000
    C135     C        0.50000    0.00000    0.46170    1.000
    H136     H        0.00000    0.50000    0.88610    1.000
    C137     C        0.00000    0.50000    0.18900    1.000
    C138     C        0.00000    0.50000    0.96170    1.000
    H139     H        0.50000    0.50000    0.13610    1.000
    C140     C        0.50000    0.50000    0.43900    1.000
    C141     C        0.50000    0.50000    0.21170    1.000
    H142     H        0.00000    0.00000    0.63610    1.000
    C143     C        0.00000    0.00000    0.93900    1.000
    C144     C        0.00000    0.00000    0.71170    1.000
    O145     O        0.75540    0.75000    0.12500    1.000
    O146     O        0.25540    0.25000    0.62500    1.000
    O147     O        0.74460    0.75000    0.62500    1.000
    O148     O        0.24460    0.25000    0.12500    1.000
    O149     O        0.25000    0.25540    0.37500    1.000
    O150     O        0.75000    0.75540    0.87500    1.000
    O151     O        0.25000    0.24460    0.87500    1.000
    O152     O        0.75000    0.74460    0.37500    1.000
