data_functionalizedCrystal
_audit_creation_method	'EQeq! by Chris Wilmer'
_symmetry_space_group_name_H-M	'P1'
_symmetry_Int_Tables_number	1
_symmetry_cell_setting	triclinic
loop_
_symmetry_equiv_pos_as_xyz
  x,y,z
_cell_length_a	9.8105
_cell_length_b	17.3723
_cell_length_c	18.1988
_cell_angle_alpha	92.4481
_cell_angle_beta	90
_cell_angle_gamma	106.401
loop_
_atom_site_label
_atom_site_type_symbol
_atom_site_fract_x
_atom_site_fract_y
_atom_site_fract_z
_atom_site_charge
Mof_Zn	Zn	0.14748	0.69314	0.00332	1.219
Mof_Zn	Zn	0.45434	0.30686	0.49668	1.232
Mof_Zn	Zn	0.85252	0.30686	0.99668	1.241
Mof_Zn	Zn	0.54566	0.69314	0.50332	1.231
Mof_Zn	Zn	-0	0.5	-0	1.215
Mof_Zn	Zn	0.5	0.5	0.5	1.237
Mof_H 	H 	0.5874	0.9316	0.0864	0.017
Mof_H 	H 	0.3031	0.9336	0.9288	0.022
Mof_H 	H 	0.5292	0.5674	0.891	0.076
Mof_H 	H 	0.3167	0.506	0.0787	0.075
Mof_H 	H 	0.9936	0.7336	0.2249	0.058
Mof_H 	H 	0.8716	0.7284	0.3343	0.055
Mof_H 	H 	0.6336	0.506	0.2756	0.047
Mof_H 	H 	0.7513	0.5118	0.1652	0.054
Mof_H 	H 	0.6558	0.0684	0.4136	0.033
Mof_H 	H 	0.3695	0.0664	0.5712	0.044
Mof_H 	H 	0.9618	0.4326	0.609	0.016
Mof_H 	H 	0.8107	0.494	0.4213	0.004
Mof_H 	H 	0.26	0.2664	0.2751	0.047
Mof_H 	H 	0.1432	0.2716	0.1657	0.039
Mof_H 	H 	0.1276	0.494	0.2244	0.041
Mof_H 	H 	0.2395	0.4882	0.3348	0.054
Mof_H 	H 	0.4126	0.0684	0.9136	0.058
Mof_H 	H 	0.6969	0.0664	0.0712	0.077
Mof_H 	H 	0.4708	0.4326	0.109	0.025
Mof_H 	H 	0.6833	0.494	0.9213	0.014
Mof_H 	H 	0.0064	0.2664	0.7751	0.046
Mof_H 	H 	0.1284	0.2716	0.6657	0.04
Mof_H 	H 	0.3664	0.494	0.7244	0.041
Mof_H 	H 	0.2487	0.4882	0.8348	0.059
Mof_H 	H 	0.3442	0.9316	0.5864	0.039
Mof_H 	H 	0.6305	0.9336	0.4288	0.058
Mof_H 	H 	0.0382	0.5674	0.391	0.085
Mof_H 	H 	0.1893	0.506	0.5787	0.084
Mof_H 	H 	0.74	0.7336	0.7249	0.056
Mof_H 	H 	0.8568	0.7284	0.8343	0.056
Mof_H 	H 	0.8724	0.506	0.7756	0.047
Mof_H 	H 	0.7605	0.5118	0.6652	0.059
Mof_C 	C 	0.35997	0.83134	0.02107	0.285
Mof_C 	C 	0.43299	0.91878	0.00995	-0.136
Mof_C 	C 	0.55181	0.95902	0.05179	0.02
Mof_C 	C 	0.38202	0.96024	0.9576	0.058
Mof_C 	C 	0.31058	0.59296	0.96227	0.344
Mof_C 	C 	0.40685	0.5439	0.98185	0.009
Mof_C 	C 	0.51759	0.54038	0.93456	-0.09
Mof_C 	C 	0.39007	0.50354	0.04718	-0.126
Mof_C 	C 	0.9543	0.629	0.10984	0.409
Mof_C 	C 	0.88218	0.62436	0.18305	-0.082
Mof_C 	C 	0.9199	0.6884	0.23465	-0.011
Mof_C 	C 	0.84789	0.68498	0.30047	-0.021
Mof_C 	C 	0.73959	0.61618	0.31577	-0.078
Mof_C 	C 	0.70502	0.55204	0.26514	-0.028
Mof_C 	C 	0.77533	0.55546	0.19895	-0.019
Mof_C 	C 	0.65923	0.61186	0.38642	0.374
Mof_C 	C 	0.52863	0.16866	0.47893	0.311
Mof_C 	C 	0.51421	0.08122	0.49005	-0.073
Mof_C 	C 	0.59279	0.04098	0.44821	-0.009
Mof_C 	C 	0.42178	0.03976	0.5424	-0.018
Mof_C 	C 	0.71762	0.40704	0.53773	0.359
Mof_C 	C 	0.86295	0.4561	0.51815	-0.151
Mof_C 	C 	0.97721	0.45962	0.56544	0.109
Mof_C 	C 	0.88653	0.49646	0.45282	0.107
Mof_C 	C 	0.3253	0.371	0.39016	0.359
Mof_C 	C 	0.25782	0.37564	0.31695	-0.075
Mof_C 	C 	0.2315	0.3116	0.26535	-0.024
Mof_C 	C 	0.16291	0.31502	0.19953	-0.027
Mof_C 	C 	0.12341	0.38382	0.18423	-0.08
Mof_C 	C 	0.15298	0.44796	0.23486	-0.032
Mof_C 	C 	0.21987	0.44454	0.30105	-0.031
Mof_C 	C 	0.04737	0.38814	0.11358	0.326
Mof_C 	C 	0.64003	0.16866	0.97893	0.32
Mof_C 	C 	0.56701	0.08122	0.99005	0.006
Mof_C 	C 	0.44819	0.04098	0.94821	-0.088
Mof_C 	C 	0.61798	0.03976	0.0424	-0.11
Mof_C 	C 	0.68942	0.40704	0.03773	0.319
Mof_C 	C 	0.59315	0.4561	0.01815	-0.15
Mof_C 	C 	0.48241	0.45962	0.06544	0.05
Mof_C 	C 	0.60993	0.49646	0.95282	0.078
Mof_C 	C 	0.0457	0.371	0.89016	0.316
Mof_C 	C 	0.11782	0.37564	0.81695	-0.057
Mof_C 	C 	0.0801	0.3116	0.76535	-0.041
Mof_C 	C 	0.15211	0.31502	0.69953	-0.009
Mof_C 	C 	0.26041	0.38382	0.68423	-0.095
Mof_C 	C 	0.29498	0.44796	0.73486	-0.015
Mof_C 	C 	0.22467	0.44454	0.80105	-0.045
Mof_C 	C 	0.34077	0.38814	0.61358	0.376
Mof_C 	C 	0.47137	0.83134	0.52107	0.302
Mof_C 	C 	0.48579	0.91878	0.50995	-0.051
Mof_C 	C 	0.40721	0.95902	0.55179	-0.047
Mof_C 	C 	0.57822	0.96024	0.4576	-0.054
Mof_C 	C 	0.28238	0.59296	0.46227	0.298
Mof_C 	C 	0.13705	0.5439	0.48185	0.008
Mof_C 	C 	0.02279	0.54038	0.43456	-0.151
Mof_C 	C 	0.11347	0.50354	0.54718	-0.151
Mof_C 	C 	0.6747	0.629	0.60984	0.359
Mof_C 	C 	0.74218	0.62436	0.68305	-0.065
Mof_C 	C 	0.7685	0.6884	0.73465	-0.027
Mof_C 	C 	0.83709	0.68498	0.80047	-0.006
Mof_C 	C 	0.87659	0.61618	0.81577	-0.09
Mof_C 	C 	0.84702	0.55204	0.76514	-0.014
Mof_C 	C 	0.78013	0.55546	0.69895	-0.033
Mof_C 	C 	0.95263	0.61186	0.88642	0.411
Mof_O 	O 	0.25661	0.79842	0.97575	-0.406
Mof_O 	O 	0.3966	0.796	0.07144	-0.318
Mof_O 	O 	0.20928	0.59396	0.00799	-0.583
Mof_O 	O 	0.33351	0.63302	0.90664	-0.325
Mof_O 	O 	0.05622	0.69184	0.09958	-0.503
Mof_O 	O 	0.09062	0.42784	0.93629	-0.442
Mof_O 	O 	0.66898	0.67776	0.42118	-0.46
Mof_O 	O 	0.5887	0.54332	0.40431	-0.457
Mof_O 	O 	0.45819	0.20158	0.52425	-0.44
Mof_O 	O 	0.6006	0.204	0.42856	-0.316
Mof_O 	O 	0.61532	0.40604	0.49201	-0.555
Mof_O 	O 	0.70049	0.36698	0.59336	-0.331
Mof_O 	O 	0.36438	0.30816	0.40042	-0.46
Mof_O 	O 	0.66278	0.57216	0.56371	-0.456
Mof_O 	O 	0.99122	0.32224	0.07882	-0.431
Mof_O 	O 	0.04538	0.45668	0.09569	-0.468
Mof_O 	O 	0.74339	0.20158	0.02425	-0.462
Mof_O 	O 	0.6034	0.204	0.92856	-0.314
Mof_O 	O 	0.79072	0.40604	0.99201	-0.514
Mof_O 	O 	0.66649	0.36698	0.09336	-0.326
Mof_O 	O 	0.94378	0.30816	0.90042	-0.418
Mof_O 	O 	0.90938	0.57216	0.06371	-0.464
Mof_O 	O 	0.33102	0.32224	0.57882	-0.466
Mof_O 	O 	0.4113	0.45668	0.59569	-0.462
Mof_O 	O 	0.54181	0.79842	0.47575	-0.436
Mof_O 	O 	0.3994	0.796	0.57144	-0.318
Mof_O 	O 	0.38468	0.59396	0.50799	-0.542
Mof_O 	O 	0.29951	0.63302	0.40664	-0.32
Mof_O 	O 	0.63562	0.69184	0.59958	-0.455
Mof_O 	O 	0.33722	0.42784	0.43629	-0.459
Mof_O 	O 	0.00878	0.67776	0.92118	-0.484
Mof_O 	O 	0.95462	0.54332	0.90431	-0.443
Mof_H 	H 	0.4239	0.7814	0.8309	0.147
Mof_H 	H 	0.2977	0.7144	0.8376	0.156
Mof_H 	H 	0.4361	0.7504	0.7071	-0.071
Mof_H 	H 	0.4551	0.6824	0.7566	-0.071
Mof_H 	H 	0.2051	0.6796	0.6804	0.293
Mof_H 	H 	0.3004	0.6222	0.6639	0.293
Mof_H 	H 	0.2118	0.6146	0.7363	0.288
Mof_H 	H 	0.1745	0.7768	0.7612	-0.075
Mof_H 	H 	0.2165	0.8204	0.8386	-0.061
Mof_H 	H 	0.3737	0.8664	0.7098	0.277
Mof_H 	H 	0.276	0.914	0.7468	0.256
Mof_H 	H 	0.415	0.9102	0.7872	0.263
Mof_C 	C 	0.38802	0.71044	0.74117	0.351
Mof_C 	C 	0.26529	0.65138	0.70191	-0.867
Mof_C 	C 	0.25419	0.80558	0.79256	0.315
Mof_C 	C 	0.33741	0.88102	0.75571	-0.809
Mof_N 	N 	0.34474	0.75208	0.80707	-0.349
Mof_H 	H 	0.6425	0.2186	0.6691	0.147
Mof_H 	H 	0.5833	0.2856	0.6624	0.157
Mof_H 	H 	0.6857	0.2496	0.7929	-0.073
Mof_H 	H 	0.7727	0.3176	0.7434	-0.068
Mof_H 	H 	0.5255	0.3204	0.8196	0.309
Mof_H 	H 	0.6782	0.3778	0.8361	0.308
Mof_H 	H 	0.5972	0.3854	0.7637	0.303
Mof_H 	H 	0.3977	0.2232	0.7388	-0.07
Mof_H 	H 	0.3961	0.1796	0.6614	-0.06
Mof_H 	H 	0.5073	0.1336	0.7902	0.28
Mof_H 	H 	0.362	0.086	0.7532	0.26
Mof_H 	H 	0.5048	0.0898	0.7128	0.265
Mof_C 	C 	0.67758	0.28956	0.75883	0.364
Mof_C 	C 	0.61391	0.34862	0.79809	-0.896
Mof_C 	C 	0.44861	0.19442	0.70744	0.315
Mof_C 	C 	0.45639	0.11898	0.74429	-0.812
Mof_N 	N 	0.59266	0.24792	0.69293	-0.35
Mof_H 	H 	0.5761	0.2186	0.1691	0.139
Mof_H 	H 	0.7023	0.2856	0.1624	0.156
Mof_H 	H 	0.5639	0.2496	0.2929	-0.082
Mof_H 	H 	0.5449	0.3176	0.2434	-0.081
Mof_H 	H 	0.7949	0.3204	0.3196	0.323
Mof_H 	H 	0.6996	0.3778	0.3361	0.317
Mof_H 	H 	0.7882	0.3854	0.2637	0.319
Mof_H 	H 	0.8255	0.2232	0.2388	-0.06
Mof_H 	H 	0.7835	0.1796	0.1614	-0.054
Mof_H 	H 	0.6263	0.1336	0.2902	0.276
Mof_H 	H 	0.724	0.086	0.2532	0.262
Mof_H 	H 	0.585	0.0898	0.2128	0.258
Mof_C 	C 	0.61198	0.28956	0.25883	0.383
Mof_C 	C 	0.73471	0.34862	0.29809	-0.928
Mof_C 	C 	0.74581	0.19442	0.20744	0.305
Mof_C 	C 	0.66259	0.11898	0.24429	-0.801
Mof_N 	N 	0.65526	0.24792	0.19293	-0.349
Mof_H 	H 	0.3575	0.7814	0.3309	0.138
Mof_H 	H 	0.4167	0.7144	0.3376	0.154
Mof_H 	H 	0.3143	0.7504	0.2071	-0.081
Mof_H 	H 	0.2273	0.6824	0.2566	-0.084
Mof_H 	H 	0.4745	0.6796	0.1804	0.306
Mof_H 	H 	0.3218	0.6222	0.1639	0.301
Mof_H 	H 	0.4028	0.6146	0.2363	0.302
Mof_H 	H 	0.6023	0.7768	0.2612	-0.066
Mof_H 	H 	0.6039	0.8204	0.3386	-0.055
Mof_H 	H 	0.4927	0.8664	0.2098	0.271
Mof_H 	H 	0.638	0.914	0.2468	0.255
Mof_H 	H 	0.4952	0.9102	0.2872	0.253
Mof_C 	C 	0.32242	0.71044	0.24117	0.37
Mof_C 	C 	0.38609	0.65138	0.20191	-0.896
Mof_C 	C 	0.55139	0.80558	0.29256	0.303
Mof_C 	C 	0.54361	0.88102	0.25571	-0.792
Mof_N 	N 	0.40734	0.75208	0.30707	-0.347
_end
