# CIF file generated by openbabel 3.1.0, see https://openbabel.org
data_I
_chemical_name_common 'image0'
_cell_length_a 9.057
_cell_length_b 12.606
_cell_length_c 14.623
_cell_angle_alpha 89.547
_cell_angle_beta 86.53
_cell_angle_gamma 72.512
_space_group_name_H-M_alt 'P 1'
_space_group_name_Hall 'P 1'
loop_
    _symmetry_equiv_pos_as_xyz
    x,y,z
loop_
    _atom_site_label
    _atom_site_type_symbol
    _atom_site_fract_x
    _atom_site_fract_y
    _atom_site_fract_z
    _atom_site_occupancy
    Fe1      Fe       0.18119    0.06253    0.23973    1.000
    Al1      Al       0.03642    0.80503    0.39430    1.000
    Al2      Al       0.04650    0.36635    0.11213    1.000
    Al3      Al       0.05890    0.85310    0.12075    1.000
    Al4      Al       0.68940    0.19076    0.25222    1.000
    Al5      Al       0.06260    0.37223    0.36106    1.000
    Al6      Al       0.68050    0.68620    0.26290    1.000
    P1       P        0.32880    0.23759    0.21860    1.000
    P2       P        0.76730    0.92576    0.27050    1.000
    P3       P        0.86180    0.61968    0.43349    1.000
    P4       P        0.78630    0.42220    0.21626    1.000
    P5       P        0.31850    0.80577    0.25652    1.000
    P6       P        0.96080    0.63374    0.10442    1.000
    P7       P        0.96230    0.13032    0.09852    1.000
    P8       P        0.91730    0.17070    0.40200    1.000
    O1       O        0.25280    0.31970    0.14380    1.000
    O2       O        0.95770    0.38910    0.24570    1.000
    O3       O        0.71590    0.67570    0.38220    1.000
    O4       O        0.94780    0.28250    0.40480    1.000
    O5       O        0.06050    0.51320    0.12320    1.000
    O6       O        0.79840    0.15070    0.14350    1.000
    O7       O        0.22280    0.25830    0.30620    1.000
    O8       O        0.90770    0.49540    0.41390    1.000
    O9       O        0.07100    0.01790    0.13390    1.000
    O10      O        0.24760    0.81840    0.16400    1.000
    O11      O        0.03570    0.21780    0.12600    1.000
    O12      O        0.68780    0.53350    0.25440    1.000
    O13      O        0.90000    0.64330    0.00920    1.000
    O14      O        0.82120    0.64460    0.53560    1.000
    O15      O        0.82000    0.42190    0.11080    1.000
    O16      O        0.70630    0.33770    0.24680    1.000
    O17      O        0.66870    0.04540    0.26770    1.000
    O18      O        0.99510    0.66490    0.39800    1.000
    O19      O        0.66120    0.85140    0.26600    1.000
    O20      O        0.48660    0.25100    0.23360    1.000
    O21      O        0.95350    0.12060    0.99590    1.000
    O22      O        0.34900    0.11740    0.18750    1.000
    O23      O        0.06460    0.70810    0.11480    1.000
    O24      O        0.88300    0.89900    0.18840    1.000
    O25      O        0.84930    0.90440    0.36000    1.000
    O26      O        0.82130    0.66990    0.17210    1.000
    O27      O        0.75370    0.18550    0.37020    1.000
    O28      O        0.48140    0.72410    0.24370    1.000
    O29      O        0.91950    0.12630    0.50110    1.000
    O30      O        0.03850    0.08570    0.34250    1.000
    O31      O        0.22220    0.75860    0.32470    1.000
    O32      O        0.32030    0.91880    0.28830    1.000
    Fe2      Fe       0.96358    0.19497    0.60570    1.000
    Fe3      Fe       0.81881    0.93747    0.76027    1.000
    Al7      Al       0.95350    0.63365    0.88787    1.000
    Al8      Al       0.94110    0.14690    0.87925    1.000
    Al9      Al       0.31060    0.80924    0.74778    1.000
    Al10     Al       0.93740    0.62777    0.63894    1.000
    Al11     Al       0.31950    0.31380    0.73710    1.000
    P9       P        0.67120    0.76241    0.78140    1.000
    P10      P        0.23270    0.07424    0.72950    1.000
    P11      P        0.13820    0.38032    0.56651    1.000
    P12      P        0.21370    0.57780    0.78374    1.000
    P13      P        0.68150    0.19423    0.74348    1.000
    P14      P        0.03920    0.36626    0.89558    1.000
    P15      P        0.03770    0.86968    0.90148    1.000
    P16      P        0.08270    0.82930    0.59800    1.000
    O33      O        0.74720    0.68030    0.85620    1.000
    O34      O        0.04230    0.61090    0.75430    1.000
    O35      O        0.28410    0.32430    0.61780    1.000
    O36      O        0.05220    0.71750    0.59520    1.000
    O37      O        0.93950    0.48680    0.87680    1.000
    O38      O        0.20160    0.84930    0.85650    1.000
    O39      O        0.77720    0.74170    0.69380    1.000
    O40      O        0.09230    0.50460    0.58610    1.000
    O41      O        0.92900    0.98210    0.86610    1.000
    O42      O        0.75240    0.18160    0.83600    1.000
    O43      O        0.96430    0.78220    0.87400    1.000
    O44      O        0.31220    0.46650    0.74560    1.000
    O45      O        0.10000    0.35670    0.99080    1.000
    O46      O        0.17880    0.35540    0.46440    1.000
    O47      O        0.18000    0.57810    0.88920    1.000
    O48      O        0.29370    0.66230    0.75320    1.000
    O49      O        0.33130    0.95460    0.73230    1.000
    O50      O        0.00490    0.33510    0.60200    1.000
    O51      O        0.33880    0.14860    0.73400    1.000
    O52      O        0.51340    0.74900    0.76640    1.000
    O53      O        0.04650    0.87940    0.00410    1.000
    O54      O        0.65100    0.88260    0.81250    1.000
    O55      O        0.93540    0.29190    0.88520    1.000
    O56      O        0.11700    0.10100    0.81160    1.000
    O57      O        0.15070    0.09560    0.64000    1.000
    O58      O        0.17870    0.33010    0.82790    1.000
    O59      O        0.24630    0.81450    0.62980    1.000
    O60      O        0.51860    0.27590    0.75630    1.000
    O61      O        0.08050    0.87370    0.49890    1.000
    O62      O        0.96150    0.91430    0.65750    1.000
    O63      O        0.77780    0.24140    0.67530    1.000
    O64      O        0.67970    0.08120    0.71170    1.000
