# CIF file generated by openbabel 3.1.0, see https://openbabel.org
data_I
_chemical_name_common 'image0'
_cell_length_a 13.8392
_cell_length_b 13.8392
_cell_length_c 23.269
_cell_angle_alpha 90
_cell_angle_beta 90
_cell_angle_gamma 120
_space_group_name_H-M_alt 'P 1'
_space_group_name_Hall 'P 1'
loop_
    _symmetry_equiv_pos_as_xyz
    x,y,z
loop_
    _atom_site_label
    _atom_site_type_symbol
    _atom_site_fract_x
    _atom_site_fract_y
    _atom_site_fract_z
    _atom_site_occupancy
    O1       O        0.65020    0.13730    0.31750    1.000
    O2       O        0.86250    0.34900    0.31740    1.000
    C1       C        0.87480    0.12510    0.29460    1.000
    C2       C        0.55940    0.11880    0.33910    1.000
    N1       N        0.92810    0.07190    0.27930    1.000
    H1       H        0.86290    0.13690    0.33270    1.000
    C3       C        0.55770    0.06620    0.40040    1.000
    C4       C        0.64090    0.04470    0.41860    1.000
    C5       C        0.46820    0.05190    0.43340    1.000
    C6       C        0.63040    0.00550    0.47490    1.000
    C7       C        0.45880    0.01070    0.48960    1.000
    C8       C        0.50970    0.06740    0.39960    1.000
    C9       C        0.58380    0.05100    0.43270    1.000
    C10      C        0.55120    0.01040    0.48890    1.000
    C11      C        0.37560    0.00540    0.47560    1.000
    C12      C        0.40590    0.04550    0.41960    1.000
    Cl1      Cl       0.84700    0.92400    0.39190    1.000
    O3       O        0.86270    0.51290    0.31750    1.000
    O4       O        0.65100    0.51350    0.31740    1.000
    C13      C        0.87490    0.74970    0.29460    1.000
    C14      C        0.88120    0.44060    0.33910    1.000
    N2       N        0.92810    0.85620    0.27930    1.000
    H2       H        0.86310    0.72600    0.33270    1.000
    C15      C        0.93380    0.49150    0.40040    1.000
    C16      C        0.95530    0.59620    0.41860    1.000
    C17      C        0.94810    0.41630    0.43340    1.000
    C18      C        0.99450    0.62490    0.47490    1.000
    C19      C        0.98930    0.44810    0.48960    1.000
    C20      C        0.93260    0.44230    0.39960    1.000
    C21      C        0.94900    0.53280    0.43270    1.000
    C22      C        0.98960    0.54080    0.48890    1.000
    C23      C        0.99460    0.37020    0.47560    1.000
    C24      C        0.95450    0.36040    0.41960    1.000
    Cl2      Cl       0.07600    0.92300    0.39190    1.000
    O5       O        0.48710    0.34980    0.31750    1.000
    O6       O        0.48650    0.13750    0.31740    1.000
    C25      C        0.25030    0.12520    0.29460    1.000
    C26      C        0.55940    0.44060    0.33910    1.000
    N3       N        0.14380    0.07190    0.27930    1.000
    H3       H        0.27400    0.13710    0.33270    1.000
    C27      C        0.50850    0.44230    0.40040    1.000
    C28      C        0.40380    0.35910    0.41860    1.000
    C29      C        0.58370    0.53180    0.43340    1.000
    C30      C        0.37510    0.36960    0.47490    1.000
    C31      C        0.55190    0.54120    0.48960    1.000
    C32      C        0.55770    0.49030    0.39960    1.000
    C33      C        0.46720    0.41620    0.43270    1.000
    C34      C        0.45920    0.44880    0.48890    1.000
    C35      C        0.62980    0.62440    0.47560    1.000
    C36      C        0.63960    0.59410    0.41960    1.000
    O7       O        0.86270    0.34980    0.18250    1.000
    O8       O        0.65100    0.13750    0.18260    1.000
    C37      C        0.87490    0.12520    0.20540    1.000
    C38      C        0.88120    0.44060    0.16090    1.000
    N4       N        0.92810    0.07190    0.22070    1.000
    H4       H        0.86310    0.13710    0.16730    1.000
    C39      C        0.93380    0.44230    0.09960    1.000
    C40      C        0.95530    0.35910    0.08140    1.000
    C41      C        0.94810    0.53180    0.06660    1.000
    C42      C        0.99450    0.36960    0.02510    1.000
    C43      C        0.98930    0.54120    0.01040    1.000
    C44      C        0.93260    0.49030    0.10040    1.000
    C45      C        0.94900    0.41620    0.06730    1.000
    C46      C        0.98960    0.44880    0.01110    1.000
    C47      C        0.99460    0.62440    0.02440    1.000
    C48      C        0.95450    0.59410    0.08040    1.000
    Cl3      Cl       0.07600    0.15300    0.10810    1.000
    O9       O        0.48710    0.13730    0.18250    1.000
    O10      O        0.48650    0.34900    0.18260    1.000
    C49      C        0.25030    0.12510    0.20540    1.000
    C50      C        0.55940    0.11880    0.16090    1.000
    N5       N        0.14380    0.07190    0.22070    1.000
    H5       H        0.27400    0.13690    0.16730    1.000
    C51      C        0.50850    0.06620    0.09960    1.000
    C52      C        0.40380    0.04470    0.08140    1.000
    C53      C        0.58370    0.05190    0.06660    1.000
    C54      C        0.37510    0.00550    0.02510    1.000
    C55      C        0.55190    0.01070    0.01040    1.000
    C56      C        0.55770    0.06740    0.10040    1.000
    C57      C        0.46720    0.05100    0.06730    1.000
    C58      C        0.45920    0.01040    0.01110    1.000
    C59      C        0.62980    0.00540    0.02440    1.000
    C60      C        0.63960    0.04550    0.08040    1.000
    Cl4      Cl       0.07700    0.92400    0.10810    1.000
    O11      O        0.65020    0.51290    0.18250    1.000
    O12      O        0.86250    0.51350    0.18260    1.000
    C61      C        0.87480    0.74970    0.20540    1.000
    C62      C        0.55940    0.44060    0.16090    1.000
    N6       N        0.92810    0.85620    0.22070    1.000
    H6       H        0.86290    0.72600    0.16730    1.000
    C63      C        0.55770    0.49150    0.09960    1.000
    C64      C        0.64090    0.59620    0.08140    1.000
    C65      C        0.46820    0.41630    0.06660    1.000
    C66      C        0.63040    0.62490    0.02510    1.000
    C67      C        0.45880    0.44810    0.01040    1.000
    C68      C        0.50970    0.44230    0.10040    1.000
    C69      C        0.58380    0.53280    0.06730    1.000
    C70      C        0.55120    0.54080    0.01110    1.000
    C71      C        0.37560    0.37020    0.02440    1.000
    C72      C        0.40590    0.36040    0.08040    1.000
    O13      O        0.34980    0.86270    0.68250    1.000
    O14      O        0.13750    0.65100    0.68260    1.000
    C73      C        0.12520    0.87490    0.70540    1.000
    C74      C        0.44060    0.88120    0.66090    1.000
    N7       N        0.07190    0.92810    0.72070    1.000
    H7       H        0.13710    0.86310    0.66730    1.000
    C75      C        0.44230    0.93380    0.59960    1.000
    C76      C        0.35910    0.95530    0.58140    1.000
    C77      C        0.53180    0.94810    0.56660    1.000
    C78      C        0.36960    0.99450    0.52510    1.000
    C79      C        0.54120    0.98930    0.51040    1.000
    C80      C        0.49030    0.93260    0.60040    1.000
    C81      C        0.41620    0.94900    0.56730    1.000
    C82      C        0.44880    0.98960    0.51110    1.000
    C83      C        0.62440    0.99460    0.52440    1.000
    C84      C        0.59410    0.95450    0.58040    1.000
    Cl5      Cl       0.15300    0.07600    0.60810    1.000
    O15      O        0.13730    0.48710    0.68250    1.000
    O16      O        0.34900    0.48650    0.68260    1.000
    C85      C        0.12510    0.25030    0.70540    1.000
    C86      C        0.11880    0.55940    0.66090    1.000
    N8       N        0.07190    0.14380    0.72070    1.000
    H8       H        0.13690    0.27400    0.66730    1.000
    C87      C        0.06620    0.50850    0.59960    1.000
    C88      C        0.04470    0.40380    0.58140    1.000
    C89      C        0.05190    0.58370    0.56660    1.000
    C90      C        0.00550    0.37510    0.52510    1.000
    C91      C        0.01070    0.55190    0.51040    1.000
    C92      C        0.06740    0.55770    0.60040    1.000
    C93      C        0.05100    0.46720    0.56730    1.000
    C94      C        0.01040    0.45920    0.51110    1.000
    C95      C        0.00540    0.62980    0.52440    1.000
    C96      C        0.04550    0.63960    0.58040    1.000
    Cl6      Cl       0.92400    0.07700    0.60810    1.000
    O17      O        0.51290    0.65020    0.68250    1.000
    O18      O        0.51350    0.86250    0.68260    1.000
    C97      C        0.74970    0.87480    0.70540    1.000
    C98      C        0.44060    0.55940    0.66090    1.000
    N9       N        0.85620    0.92810    0.72070    1.000
    H9       H        0.72600    0.86290    0.66730    1.000
    C99      C        0.49150    0.55770    0.59960    1.000
    C100     C        0.59620    0.64090    0.58140    1.000
    C101     C        0.41630    0.46820    0.56660    1.000
    C102     C        0.62490    0.63040    0.52510    1.000
    C103     C        0.44810    0.45880    0.51040    1.000
    C104     C        0.44230    0.50970    0.60040    1.000
    C105     C        0.53280    0.58380    0.56730    1.000
    C106     C        0.54080    0.55120    0.51110    1.000
    C107     C        0.37020    0.37560    0.52440    1.000
    C108     C        0.36040    0.40590    0.58040    1.000
    O19      O        0.13730    0.65020    0.81750    1.000
    O20      O        0.34900    0.86250    0.81740    1.000
    C109     C        0.12510    0.87480    0.79460    1.000
    C110     C        0.11880    0.55940    0.83910    1.000
    N10      N        0.07190    0.92810    0.77930    1.000
    H10      H        0.13690    0.86290    0.83270    1.000
    C111     C        0.06620    0.55770    0.90040    1.000
    C112     C        0.04470    0.64090    0.91860    1.000
    C113     C        0.05190    0.46820    0.93340    1.000
    C114     C        0.00550    0.63040    0.97490    1.000
    C115     C        0.01070    0.45880    0.98960    1.000
    C116     C        0.06740    0.50970    0.89960    1.000
    C117     C        0.05100    0.58380    0.93270    1.000
    C118     C        0.01040    0.55120    0.98890    1.000
    C119     C        0.00540    0.37560    0.97560    1.000
    C120     C        0.04550    0.40590    0.91960    1.000
    Cl7      Cl       0.92400    0.84700    0.89190    1.000
    O21      O        0.51290    0.86270    0.81750    1.000
    O22      O        0.51350    0.65100    0.81740    1.000
    C121     C        0.74970    0.87490    0.79460    1.000
    C122     C        0.44060    0.88120    0.83910    1.000
    N11      N        0.85620    0.92810    0.77930    1.000
    H11      H        0.72600    0.86310    0.83270    1.000
    C123     C        0.49150    0.93380    0.90040    1.000
    C124     C        0.59620    0.95530    0.91860    1.000
    C125     C        0.41630    0.94810    0.93340    1.000
    C126     C        0.62490    0.99450    0.97490    1.000
    C127     C        0.44810    0.98930    0.98960    1.000
    C128     C        0.44230    0.93260    0.89960    1.000
    C129     C        0.53280    0.94900    0.93270    1.000
    C130     C        0.54080    0.98960    0.98890    1.000
    C131     C        0.37020    0.99460    0.97560    1.000
    C132     C        0.36040    0.95450    0.91960    1.000
    Cl8      Cl       0.92300    0.07600    0.89190    1.000
    O23      O        0.34980    0.48710    0.81750    1.000
    O24      O        0.13750    0.48650    0.81740    1.000
    C133     C        0.12520    0.25030    0.79460    1.000
    C134     C        0.44060    0.55940    0.83910    1.000
    N12      N        0.07190    0.14380    0.77930    1.000
    H12      H        0.13710    0.27400    0.83270    1.000
    C135     C        0.44230    0.50850    0.90040    1.000
    C136     C        0.35910    0.40380    0.91860    1.000
    C137     C        0.53180    0.58370    0.93340    1.000
    C138     C        0.36960    0.37510    0.97490    1.000
    C139     C        0.54120    0.55190    0.98960    1.000
    C140     C        0.49030    0.55770    0.89960    1.000
    C141     C        0.41620    0.46720    0.93270    1.000
    C142     C        0.44880    0.45920    0.98890    1.000
    C143     C        0.62440    0.62980    0.97560    1.000
    C144     C        0.59410    0.63960    0.91960    1.000
    In1      In       0.75120    0.24880    0.25000    1.000
    N13      N        0.84020    0.15980    0.25000    1.000
    In2      In       0.75120    0.50240    0.25000    1.000
    N14      N        0.84020    0.68040    0.25000    1.000
    In3      In       0.49760    0.24880    0.25000    1.000
    N15      N        0.31960    0.15980    0.25000    1.000
    In4      In       0.24880    0.75120    0.75000    1.000
    N16      N        0.15980    0.84020    0.75000    1.000
    In5      In       0.24880    0.49760    0.75000    1.000
    N17      N        0.15980    0.31960    0.75000    1.000
    In6      In       0.50240    0.75120    0.75000    1.000
    N18      N        0.68040    0.84020    0.75000    1.000
    O25      O        0.66667    0.33333    0.25000    1.000
    O26      O        0.33333    0.66667    0.75000    1.000
    Co1      Co       0.00000    0.00000    0.33266    1.000
    Co2      Co       0.00000    0.00000    0.16734    1.000
    Co3      Co       0.00000    0.00000    0.66734    1.000
    Co4      Co       0.00000    0.00000    0.83266    1.000
