data_functionalizedCrystal
_audit_creation_method	'EQeq! by Chris Wilmer'
_symmetry_space_group_name_H-M	'P1'
_symmetry_Int_Tables_number	1
_symmetry_cell_setting	triclinic
loop_
_symmetry_equiv_pos_as_xyz
  x,y,z
_cell_length_a	13.739
_cell_length_b	15.179
_cell_length_c	24.301
_cell_angle_alpha	90
_cell_angle_beta	90
_cell_angle_gamma	90
loop_
_atom_site_label
_atom_site_type_symbol
_atom_site_fract_x
_atom_site_fract_y
_atom_site_fract_z
_atom_site_charge
Mof_Co	Co	0.61652	0.79209	0.75211	1.111
Mof_Co	Co	0.77496	0.69905	0.84336	1.143
Mof_Co	Co	0.19356	0.49538	0.59	1.135
Mof_Co	Co	0.6446	0.6768	0.45831	1.068
Mof_Co	Co	0.88348	0.29209	0.74789	1.108
Mof_Co	Co	0.72504	0.19905	0.65664	1.142
Mof_Co	Co	0.30644	0.99538	0.91	1.135
Mof_Co	Co	0.8554	0.1768	0.04169	1.066
Mof_Co	Co	0.38348	0.70791	0.75211	1.11
Mof_Co	Co	0.22504	0.80095	0.84336	1.142
Mof_Co	Co	0.80644	0.00462	0.59	1.134
Mof_Co	Co	0.3554	0.8232	0.45831	1.068
Mof_Co	Co	0.11652	0.20791	0.74789	1.111
Mof_Co	Co	0.27496	0.30095	0.65664	1.143
Mof_Co	Co	0.69356	0.50462	0.91	1.135
Mof_Co	Co	0.1446	0.3232	0.04169	1.07
Mof_Co	Co	0.38348	0.20791	0.24789	1.11
Mof_Co	Co	0.22504	0.30095	0.15664	1.142
Mof_Co	Co	0.80644	0.50462	0.41	1.135
Mof_Co	Co	0.3554	0.3232	0.54169	1.068
Mof_Co	Co	0.11652	0.70791	0.25211	1.111
Mof_Co	Co	0.27496	0.80095	0.34336	1.143
Mof_Co	Co	0.69356	0.00462	0.09	1.134
Mof_Co	Co	0.1446	0.8232	0.95831	1.069
Mof_Co	Co	0.61652	0.29209	0.24789	1.11
Mof_Co	Co	0.77496	0.19905	0.15664	1.142
Mof_Co	Co	0.19356	0.99538	0.41	1.135
Mof_Co	Co	0.6446	0.1768	0.54169	1.068
Mof_Co	Co	0.88348	0.79209	0.25211	1.109
Mof_Co	Co	0.72504	0.69905	0.34336	1.142
Mof_Co	Co	0.30644	0.49538	0.09	1.135
Mof_Co	Co	0.8554	0.6768	0.95831	1.067
Mof_H 	H 	0.9055	0.5259	0.7263	0.004
Mof_H 	H 	0.7498	0.6627	0.6146	0.004
Mof_H 	H 	0.9367	0.4738	0.5642	0.025
Mof_H 	H 	0.9038	0.848	0.7461	0.05
Mof_H 	H 	0.5945	0.0259	0.7737	0.01
Mof_H 	H 	0.7502	0.1627	0.8854	0.005
Mof_H 	H 	0.5633	0.9738	0.9358	0.031
Mof_H 	H 	0.5962	0.348	0.7539	0.048
Mof_H 	H 	0.0945	0.9741	0.7263	0.02
Mof_H 	H 	0.2502	0.8373	0.6146	0.011
Mof_H 	H 	0.0633	0.0262	0.5642	0.048
Mof_H 	H 	0.0962	0.652	0.7461	0.049
Mof_H 	H 	0.4055	0.4741	0.7737	0.011
Mof_H 	H 	0.2498	0.3373	0.8854	0.007
Mof_H 	H 	0.4367	0.5262	0.9358	0.033
Mof_H 	H 	0.4038	0.152	0.7539	0.048
Mof_H 	H 	0.0945	0.4741	0.2737	0.016
Mof_H 	H 	0.2502	0.3373	0.3854	0.008
Mof_H 	H 	0.0633	0.5262	0.4358	0.039
Mof_H 	H 	0.0962	0.152	0.2539	0.049
Mof_H 	H 	0.4055	0.9741	0.2263	0.009
Mof_H 	H 	0.2498	0.8373	0.1146	0.006
Mof_H 	H 	0.4367	0.0262	0.0642	0.029
Mof_H 	H 	0.4038	0.652	0.2461	0.048
Mof_H 	H 	0.9055	0.0259	0.2737	0.01
Mof_H 	H 	0.7498	0.1627	0.3854	0.008
Mof_H 	H 	0.9367	0.9738	0.4358	0.037
Mof_H 	H 	0.9038	0.348	0.2539	0.05
Mof_H 	H 	0.5945	0.5259	0.2263	0.011
Mof_H 	H 	0.7502	0.6627	0.1146	0.006
Mof_H 	H 	0.5633	0.4738	0.0642	0.032
Mof_H 	H 	0.5962	0.848	0.2461	0.048
Mof_H 	H 	-1.59322e-32	0.75	0.602	0.059
Mof_H 	H 	0.5	0.25	0.898	0.06
Mof_H 	H 	2.63945e-33	0.25	0.398	0.058
Mof_H 	H 	0.5	0.75	0.102	0.06
Mof_C 	C 	0.0048	0.4221	0.6612	0.171
Mof_C 	C 	0.9297	0.491	0.6474	-0.112
Mof_C 	C 	0.8883	0.5374	0.6899	0.061
Mof_C 	C 	0.819	0.6027	0.6772	-0.142
Mof_C 	C 	0.7947	0.6187	0.6226	0.098
Mof_C 	C 	0.835	0.5715	0.5802	-0.166
Mof_C 	C 	0.9067	0.5056	0.5921	0.061
Mof_C 	C 	0.7735	0.6562	0.7226	0.398
Mof_C 	C 	0.8052	0.5839	0.5211	0.454
Mof_C 	C 	0.9426	0.8083	0.7269	-0.023
Mof_C 	C 	0.9422	0.8084	0.6689	-0.078
Mof_C 	C 	0.8837	0.8758	0.637	0.306
Mof_C 	C 	0.4952	0.9221	0.8388	0.149
Mof_C 	C 	0.5703	0.991	0.8526	-0.093
Mof_C 	C 	0.6117	0.0374	0.8101	0.052
Mof_C 	C 	0.681	0.1027	0.8228	-0.137
Mof_C 	C 	0.7053	0.1187	0.8774	0.094
Mof_C 	C 	0.665	0.0715	0.9198	-0.162
Mof_C 	C 	0.5933	0.0056	0.9079	0.055
Mof_C 	C 	0.7265	0.1562	0.7774	0.397
Mof_C 	C 	0.6948	0.0839	0.9789	0.455
Mof_C 	C 	0.5574	0.3083	0.7731	-0.014
Mof_C 	C 	0.5578	0.3084	0.8311	-0.069
Mof_C 	C 	0.6163	0.3758	0.863	0.304
Mof_C 	C 	0.9952	0.0779	0.6612	0.117
Mof_C 	C 	0.0703	0.009	0.6474	-0.053
Mof_C 	C 	0.1117	0.9626	0.6899	0.026
Mof_C 	C 	0.181	0.8973	0.6772	-0.122
Mof_C 	C 	0.2053	0.8813	0.6226	0.079
Mof_C 	C 	0.165	0.9285	0.5802	-0.145
Mof_C 	C 	0.0933	0.9944	0.5921	0.023
Mof_C 	C 	0.2265	0.8438	0.7226	0.392
Mof_C 	C 	0.1948	0.9161	0.5211	0.447
Mof_C 	C 	0.0574	0.6917	0.7269	-0.014
Mof_C 	C 	0.0578	0.6916	0.6689	-0.071
Mof_C 	C 	0.1163	0.6242	0.637	0.306
Mof_C 	C 	0.5048	0.5779	0.8388	0.148
Mof_C 	C 	0.4297	0.509	0.8526	-0.091
Mof_C 	C 	0.3883	0.4626	0.8101	0.05
Mof_C 	C 	0.319	0.3973	0.8228	-0.135
Mof_C 	C 	0.2947	0.3813	0.8774	0.092
Mof_C 	C 	0.335	0.4285	0.9198	-0.159
Mof_C 	C 	0.4067	0.4944	0.9079	0.051
Mof_C 	C 	0.2735	0.3438	0.7774	0.396
Mof_C 	C 	0.3052	0.4161	0.9789	0.452
Mof_C 	C 	0.4426	0.1917	0.7731	-0.014
Mof_C 	C 	0.4422	0.1916	0.8311	-0.069
Mof_C 	C 	0.3837	0.1242	0.863	0.304
Mof_C 	C 	0.9952	0.5779	0.3388	0.127
Mof_C 	C 	0.0703	0.509	0.3526	-0.072
Mof_C 	C 	0.1117	0.4626	0.3101	0.041
Mof_C 	C 	0.181	0.3973	0.3228	-0.129
Mof_C 	C 	0.2053	0.3813	0.3774	0.087
Mof_C 	C 	0.165	0.4285	0.4198	-0.153
Mof_C 	C 	0.0933	0.4944	0.4079	0.042
Mof_C 	C 	0.2265	0.3438	0.2774	0.394
Mof_C 	C 	0.1948	0.4161	0.4789	0.45
Mof_C 	C 	0.0574	0.1917	0.2731	-0.014
Mof_C 	C 	0.0578	0.1916	0.3311	-0.071
Mof_C 	C 	0.1163	0.1242	0.363	0.306
Mof_C 	C 	0.5048	0.0779	0.1612	0.15
Mof_C 	C 	0.4297	0.009	0.1474	-0.097
Mof_C 	C 	0.3883	0.9626	0.1899	0.056
Mof_C 	C 	0.319	0.8973	0.1772	-0.138
Mof_C 	C 	0.2947	0.8813	0.1226	0.096
Mof_C 	C 	0.335	0.9285	0.0802	-0.163
Mof_C 	C 	0.4067	0.9944	0.0921	0.06
Mof_C 	C 	0.2735	0.8438	0.2226	0.397
Mof_C 	C 	0.3052	0.9161	0.0211	0.456
Mof_C 	C 	0.4426	0.6917	0.2269	-0.014
Mof_C 	C 	0.4422	0.6916	0.1689	-0.069
Mof_C 	C 	0.3837	0.6242	0.137	0.304
Mof_C 	C 	0.0048	0.9221	0.3388	0.159
Mof_C 	C 	0.9297	0.991	0.3526	-0.087
Mof_C 	C 	0.8883	0.0374	0.3101	0.042
Mof_C 	C 	0.819	0.1027	0.3228	-0.133
Mof_C 	C 	0.7947	0.1187	0.3774	0.087
Mof_C 	C 	0.835	0.0715	0.4198	-0.155
Mof_C 	C 	0.9067	0.0056	0.4079	0.036
Mof_C 	C 	0.7735	0.1562	0.2774	0.395
Mof_C 	C 	0.8052	0.0839	0.4789	0.45
Mof_C 	C 	0.9426	0.3083	0.2731	-0.027
Mof_C 	C 	0.9422	0.3084	0.3311	-0.082
Mof_C 	C 	0.8837	0.3758	0.363	0.307
Mof_C 	C 	0.4952	0.4221	0.1612	0.148
Mof_C 	C 	0.5703	0.491	0.1474	-0.091
Mof_C 	C 	0.6117	0.5374	0.1899	0.051
Mof_C 	C 	0.681	0.6027	0.1772	-0.136
Mof_C 	C 	0.7053	0.6187	0.1226	0.093
Mof_C 	C 	0.665	0.5715	0.0802	-0.16
Mof_C 	C 	0.5933	0.5056	0.0921	0.052
Mof_C 	C 	0.7265	0.6562	0.2226	0.397
Mof_C 	C 	0.6948	0.5839	0.0211	0.452
Mof_C 	C 	0.5574	0.8083	0.2269	-0.014
Mof_C 	C 	0.5578	0.8084	0.1689	-0.069
Mof_C 	C 	0.6163	0.8758	0.137	0.304
Mof_C 	C 	-3.44322e-32	0.75	0.8168	0.132
Mof_C 	C 	-3.48427e-32	0.75	0.7549	-0.033
Mof_C 	C 	-5.71593e-33	0.75	0.6403	0.024
Mof_C 	C 	0.5	0.25	0.6832	0.126
Mof_C 	C 	0.5	0.25	0.7451	-0.042
Mof_C 	C 	0.5	0.25	0.8597	0.011
Mof_C 	C 	-3.76619e-33	0.25	0.1832	0.134
Mof_C 	C 	-8.33681e-33	0.25	0.2451	-0.03
Mof_C 	C 	-2.59568e-33	0.25	0.3597	0.029
Mof_C 	C 	0.5	0.75	0.3168	0.126
Mof_C 	C 	0.5	0.75	0.2549	-0.042
Mof_C 	C 	0.5	0.75	0.1403	0.011
Mof_N 	N 	0.0902	0.4141	0.6348	-0.196
Mof_N 	N 	0.1346	0.3444	0.6601	-0.184
Mof_N 	N 	0.0774	0.3159	0.699	-0.175
Mof_N 	N 	0.9949	0.3625	0.6999	-0.226
Mof_N 	N 	0.9207	0.738	0.8489	-0.216
Mof_N 	N 	0.9533	0.7424	0.9007	-0.207
Mof_N 	N 	0.7284	0.8161	0.8097	-0.304
Mof_N 	N 	0.7747	0.8791	0.8186	-0.05
Mof_N 	N 	0.8239	0.9428	0.8258	-0.093
Mof_N 	N 	0.4098	0.9141	0.8652	-0.194
Mof_N 	N 	0.3654	0.8444	0.8399	-0.184
Mof_N 	N 	0.4226	0.8159	0.801	-0.18
Mof_N 	N 	0.5051	0.8625	0.8001	-0.213
Mof_N 	N 	0.5793	0.238	0.6511	-0.212
Mof_N 	N 	0.5467	0.2424	0.5993	-0.203
Mof_N 	N 	0.7716	0.3161	0.6903	-0.304
Mof_N 	N 	0.7253	0.3791	0.6814	-0.05
Mof_N 	N 	0.6761	0.4428	0.6742	-0.091
Mof_N 	N 	0.9098	0.0859	0.6348	-0.191
Mof_N 	N 	0.8654	0.1556	0.6601	-0.185
Mof_N 	N 	0.9226	0.1841	0.699	-0.186
Mof_N 	N 	0.0051	0.1375	0.6999	-0.198
Mof_N 	N 	0.0793	0.762	0.8489	-0.212
Mof_N 	N 	0.0467	0.7576	0.9007	-0.199
Mof_N 	N 	0.2716	0.6839	0.8097	-0.304
Mof_N 	N 	0.2253	0.6209	0.8186	-0.05
Mof_N 	N 	0.1761	0.5572	0.8258	-0.09
Mof_N 	N 	0.5902	0.5859	0.8652	-0.194
Mof_N 	N 	0.6346	0.6556	0.8399	-0.184
Mof_N 	N 	0.5774	0.6841	0.801	-0.18
Mof_N 	N 	0.4949	0.6375	0.8001	-0.213
Mof_N 	N 	0.4207	0.262	0.6511	-0.212
Mof_N 	N 	0.4533	0.2576	0.5993	-0.203
Mof_N 	N 	0.2284	0.1839	0.6903	-0.303
Mof_N 	N 	0.2747	0.1209	0.6814	-0.05
Mof_N 	N 	0.3239	0.0572	0.6742	-0.091
Mof_N 	N 	0.9098	0.5859	0.3652	-0.192
Mof_N 	N 	0.8654	0.6556	0.3399	-0.185
Mof_N 	N 	0.9226	0.6841	0.301	-0.184
Mof_N 	N 	0.0051	0.6375	0.3001	-0.202
Mof_N 	N 	0.0793	0.262	0.1511	-0.212
Mof_N 	N 	0.0467	0.2576	0.0993	-0.197
Mof_N 	N 	0.2716	0.1839	0.1903	-0.304
Mof_N 	N 	0.2253	0.1209	0.1814	-0.05
Mof_N 	N 	0.1761	0.0572	0.1742	-0.09
Mof_N 	N 	0.5902	0.0859	0.1348	-0.195
Mof_N 	N 	0.6346	0.1556	0.1601	-0.184
Mof_N 	N 	0.5774	0.1841	0.199	-0.18
Mof_N 	N 	0.4949	0.1375	0.1999	-0.213
Mof_N 	N 	0.4207	0.762	0.3489	-0.212
Mof_N 	N 	0.4533	0.7576	0.4007	-0.203
Mof_N 	N 	0.2284	0.6839	0.3097	-0.304
Mof_N 	N 	0.2747	0.6209	0.3186	-0.05
Mof_N 	N 	0.3239	0.5572	0.3258	-0.091
Mof_N 	N 	0.0902	0.9141	0.3652	-0.195
Mof_N 	N 	0.1346	0.8444	0.3399	-0.184
Mof_N 	N 	0.0774	0.8159	0.301	-0.177
Mof_N 	N 	0.9949	0.8625	0.3001	-0.221
Mof_N 	N 	0.9207	0.238	0.1511	-0.218
Mof_N 	N 	0.9533	0.2424	0.0993	-0.209
Mof_N 	N 	0.7284	0.3161	0.1903	-0.304
Mof_N 	N 	0.7747	0.3791	0.1814	-0.051
Mof_N 	N 	0.8239	0.4428	0.1742	-0.093
Mof_N 	N 	0.4098	0.4141	0.1348	-0.194
Mof_N 	N 	0.3654	0.3444	0.1601	-0.184
Mof_N 	N 	0.4226	0.3159	0.199	-0.18
Mof_N 	N 	0.5051	0.3625	0.1999	-0.213
Mof_N 	N 	0.5793	0.738	0.3489	-0.212
Mof_N 	N 	0.5467	0.7424	0.4007	-0.203
Mof_N 	N 	0.7716	0.8161	0.3097	-0.304
Mof_N 	N 	0.7253	0.8791	0.3186	-0.05
Mof_N 	N 	0.6761	0.9428	0.3258	-0.09
Mof_O 	O 	0.7104	0.7124	0.7081	-0.46
Mof_O 	O 	0.8024	0.6406	0.7707	-0.459
Mof_O 	O 	0.738	0.6387	0.5131	-0.542
Mof_O 	O 	0.8458	0.5419	0.4854	-0.503
Mof_O 	O 	0.897	0.8884	0.5883	-0.392
Mof_O 	O 	0.8227	0.9243	0.6636	-0.396
Mof_O 	O 	0.8085	0.5881	0.8882	-0.605
Mof_O 	O 	0.7513	0.7594	0.9231	-0.45
Mof_O 	O 	0.7896	0.2124	0.7919	-0.462
Mof_O 	O 	0.6976	0.1406	0.7293	-0.458
Mof_O 	O 	0.762	0.1387	0.9869	-0.543
Mof_O 	O 	0.6542	0.0419	0.0146	-0.503
Mof_O 	O 	0.603	0.3884	0.9117	-0.39
Mof_O 	O 	0.6773	0.4243	0.8364	-0.397
Mof_O 	O 	0.6915	0.0881	0.6118	-0.603
Mof_O 	O 	0.7487	0.2594	0.5769	-0.45
Mof_O 	O 	0.2896	0.7876	0.7081	-0.458
Mof_O 	O 	0.1976	0.8594	0.7707	-0.456
Mof_O 	O 	0.262	0.8613	0.5131	-0.54
Mof_O 	O 	0.1542	0.9581	0.4854	-0.498
Mof_O 	O 	0.103	0.6116	0.5883	-0.388
Mof_O 	O 	0.1773	0.5757	0.6636	-0.396
Mof_O 	O 	0.1915	0.9119	0.8882	-0.603
Mof_O 	O 	0.2487	0.7406	0.9231	-0.449
Mof_O 	O 	0.2104	0.2876	0.7919	-0.458
Mof_O 	O 	0.3024	0.3594	0.7293	-0.457
Mof_O 	O 	0.238	0.3613	0.9869	-0.54
Mof_O 	O 	0.3458	0.4581	0.0146	-0.5
Mof_O 	O 	0.397	0.1116	0.9117	-0.388
Mof_O 	O 	0.3227	0.0757	0.8364	-0.394
Mof_O 	O 	0.3085	0.4119	0.6118	-0.603
Mof_O 	O 	0.2513	0.2406	0.5769	-0.448
Mof_O 	O 	0.2896	0.2876	0.2919	-0.459
Mof_O 	O 	0.1976	0.3594	0.2293	-0.456
Mof_O 	O 	0.262	0.3613	0.4869	-0.541
Mof_O 	O 	0.1542	0.4581	0.5146	-0.497
Mof_O 	O 	0.103	0.1116	0.4117	-0.387
Mof_O 	O 	0.1773	0.0757	0.3364	-0.395
Mof_O 	O 	0.1915	0.4119	0.1118	-0.602
Mof_O 	O 	0.2487	0.2406	0.0769	-0.449
Mof_O 	O 	0.2104	0.7876	0.2081	-0.459
Mof_O 	O 	0.3024	0.8594	0.2707	-0.458
Mof_O 	O 	0.238	0.8613	0.0131	-0.541
Mof_O 	O 	0.3458	0.9581	0.9854	-0.502
Mof_O 	O 	0.397	0.6116	0.0883	-0.389
Mof_O 	O 	0.3227	0.5757	0.1636	-0.396
Mof_O 	O 	0.3085	0.9119	0.3882	-0.603
Mof_O 	O 	0.2513	0.7406	0.4231	-0.449
Mof_O 	O 	0.7104	0.2124	0.2919	-0.459
Mof_O 	O 	0.8024	0.1406	0.2293	-0.459
Mof_O 	O 	0.738	0.1387	0.4869	-0.542
Mof_O 	O 	0.8458	0.0419	0.5146	-0.503
Mof_O 	O 	0.897	0.3884	0.4117	-0.394
Mof_O 	O 	0.8227	0.4243	0.3364	-0.397
Mof_O 	O 	0.8085	0.0881	0.1118	-0.606
Mof_O 	O 	0.7513	0.2594	0.0769	-0.45
Mof_O 	O 	0.7896	0.7124	0.2081	-0.461
Mof_O 	O 	0.6976	0.6406	0.2707	-0.458
Mof_O 	O 	0.762	0.6387	0.0131	-0.542
Mof_O 	O 	0.6542	0.5419	0.9854	-0.5
Mof_O 	O 	0.603	0.8884	0.0883	-0.388
Mof_O 	O 	0.6773	0.9243	0.1636	-0.395
Mof_O 	O 	0.6915	0.5881	0.3882	-0.603
Mof_O 	O 	0.7487	0.7594	0.4231	-0.45
Mof_O 	O 	0.5	0.75	0.699	-0.461
Mof_O 	O 	-4.6502e-33	0.25	0.801	-0.454
Mof_O 	O 	0.5	0.25	0.301	-0.461
Mof_O 	O 	-1.36237e-32	0.75	0.199	-0.456
_end
