data_functionalizedCrystal
_audit_creation_method	'EQeq! by Chris Wilmer'
_symmetry_space_group_name_H-M	'P1'
_symmetry_Int_Tables_number	1
_symmetry_cell_setting	triclinic
loop_
_symmetry_equiv_pos_as_xyz
  x,y,z
_cell_length_a	17.554
_cell_length_b	28.815
_cell_length_c	8.4209
_cell_angle_alpha	90
_cell_angle_beta	108.753
_cell_angle_gamma	90
loop_
_atom_site_label
_atom_site_type_symbol
_atom_site_fract_x
_atom_site_fract_y
_atom_site_fract_z
_atom_site_charge
Mof_Co	Co	0.3224	0.21697	0.34476	1.158
Mof_Cl	Cl	0.14613	8e-05	0.60507	-0.343
Mof_O 	O 	0.19401	0.29419	0.9298	-0.334
Mof_O 	O 	0.01838	0.28384	0.8177	-0.427
Mof_O 	O 	0.29094	0.26464	0.1458	-0.378
Mof_O 	O 	0.94142	0.25444	0.9589	-0.353
Mof_N 	N 	0.1931	0.20123	0.215	-0.218
Mof_N 	N 	0.0605	0.19995	0.1489	-0.108
Mof_C 	C 	0.1412	0.05276	0.4988	0.319
Mof_C 	C 	0.2008	0.10703	0.3585	0.131
Mof_H 	H 	0.2424	0.1156	0.3186	-0.018
Mof_C 	C 	0.1338	0.13606	0.3323	-0.129
Mof_C 	C 	0.205	0.06538	0.4441	-0.241
Mof_H 	H 	0.2498	0.0463	0.4645	0.177
Mof_C 	C 	0.0078	0.26043	0.9359	0.374
Mof_C 	C 	0.0781	0.23554	0.0577	-0.058
Mof_C 	C 	0.0743	0.08057	0.4716	-0.253
Mof_H 	H 	0.0319	0.0712	0.5077	0.179
Mof_C 	C 	0.1301	0.17956	0.2384	0.143
Mof_C 	C 	0.2184	0.26696	0.0542	0.285
Mof_C 	C 	0.071	0.12279	0.3894	0.13
Mof_H 	H 	0.0267	0.1422	0.3727	0.017
Mof_C 	C 	0.1606	0.23602	0.1001	-0.048
Mof_Co	Co	0.10503	0.28941	0.69993	1.159
Mof_Cl	Cl	0.86789	0.0929	0.91993	-0.318
Mof_O 	O 	0.28479	0.26417	0.4901	-0.366
Mof_O 	O 	0.35717	0.17093	0.5438	-0.404
Mof_O 	O 	0.35174	0.11768	0.7318	-0.346
Mof_O 	O 	0.19219	0.29758	0.5797	-0.379
Mof_N 	N 	0.1457	0.21704	0.6828	-0.212
Mof_C 	C 	0.2552	0.17654	0.6745	-0.023
Mof_C 	C 	0.0782	0.15498	0.7958	-0.088
Mof_C 	C 	0.0242	0.09714	0.9387	-0.152
Mof_H 	H 	0.0312	0.0714	0.0086	0.124
Mof_N 	N 	0.2105	0.14984	0.7492	-0.1
Mof_C 	C 	0.9487	0.11709	0.8702	0.282
Mof_C 	C 	0.0013	0.17331	0.7263	0.093
Mof_H 	H 	0.9932	0.1982	0.6524	-0.003
Mof_C 	C 	0.9361	0.15493	0.7656	-0.203
Mof_H 	H 	0.8852	0.168	0.722	0.164
Mof_C 	C 	0.145	0.17476	0.7485	0.139
Mof_C 	C 	0.2327	0.26232	0.5621	0.327
Mof_C 	C 	0.2142	0.21819	0.6353	-0.058
Mof_C 	C 	0.3279	0.15378	0.6486	0.351
Mof_C 	C 	0.0894	0.1163	0.901	0.071
Mof_H 	H 	0.1403	0.1033	0.946	0.052
Mof_Co	Co	0.95415	0.57246	0.76618	1.194
Mof_Cl	Cl	0.3676	0.59271	0.41978	-0.343
Mof_O 	O 	0.90262	0.46981	0.4019	-0.362
Mof_O 	O 	0.9943	0.61752	0.6176	-0.459
Mof_H 	H 	0.0399	0.6264	0.6698	0.247
Mof_O 	O 	0.00516	0.38722	0.476	-0.421
Mof_O 	O 	0.08808	0.36289	0.7235	-0.351
Mof_O 	O 	0.8985	0.53275	0.5504	-0.356
Mof_N 	N 	0.0421	0.51584	0.7807	-0.208
Mof_C 	C 	0.1691	0.51873	0.0228	-0.136
Mof_C 	C 	0.2827	0.51653	0.2768	-0.245
Mof_H 	H 	0.3182	0.5	0.3646	0.177
Mof_N 	N 	0.1106	0.44986	0.8484	-0.098
Mof_C 	C 	0.0482	0.44071	0.7031	-0.017
Mof_C 	C 	0.2909	0.56435	0.2649	0.307
Mof_C 	C 	0.2403	0.58971	0.1345	-0.218
Mof_H 	H 	0.2465	0.6217	0.1286	0.16
Mof_C 	C 	0.1802	0.56658	0.0127	0.074
Mof_H 	H 	0.1465	0.5831	0.9226	0.02
Mof_C 	C 	0.2217	0.49394	0.1573	0.128
Mof_H 	H 	0.2152	0.4621	0.1656	0.017
Mof_C 	C 	0.1061	0.49541	0.8899	0.172
Mof_C 	C 	0.9314	0.49525	0.5299	0.331
Mof_C 	C 	0.0063	0.48243	0.6632	-0.057
Mof_C 	C 	0.0461	0.39377	0.6272	0.339
Mof_Co	Co	0.8224	0.71697	0.34476	1.16
Mof_Cl	Cl	0.64613	0.50008	0.60507	-0.339
Mof_O 	O 	0.69401	0.79419	0.9298	-0.334
Mof_O 	O 	0.51838	0.78384	0.8177	-0.425
Mof_O 	O 	0.79094	0.76464	0.1458	-0.378
Mof_O 	O 	0.44142	0.75444	0.9589	-0.355
Mof_N 	N 	0.6931	0.70123	0.215	-0.218
Mof_N 	N 	0.5605	0.69995	0.1489	-0.107
Mof_C 	C 	0.6412	0.55276	0.4988	0.319
Mof_C 	C 	0.7008	0.60703	0.3585	0.131
Mof_H 	H 	0.7424	0.6156	0.3186	-0.017
Mof_C 	C 	0.6338	0.63606	0.3323	-0.129
Mof_C 	C 	0.705	0.56538	0.4441	-0.24
Mof_H 	H 	0.7498	0.5463	0.4645	0.178
Mof_C 	C 	0.5078	0.76043	0.9359	0.376
Mof_C 	C 	0.5781	0.73554	0.0577	-0.058
Mof_C 	C 	0.5743	0.58057	0.4716	-0.252
Mof_H 	H 	0.5319	0.5712	0.5077	0.18
Mof_C 	C 	0.6301	0.67956	0.2384	0.143
Mof_C 	C 	0.7184	0.76696	0.0542	0.286
Mof_C 	C 	0.571	0.62279	0.3894	0.13
Mof_H 	H 	0.5267	0.6422	0.3727	0.018
Mof_C 	C 	0.6606	0.73602	0.1001	-0.048
Mof_Co	Co	0.60503	0.78941	0.69993	1.16
Mof_Cl	Cl	0.36789	0.5929	0.91993	-0.318
Mof_O 	O 	0.78479	0.76417	0.4901	-0.366
Mof_O 	O 	0.85717	0.67093	0.5438	-0.404
Mof_O 	O 	0.85174	0.61768	0.7318	-0.345
Mof_O 	O 	0.69219	0.79758	0.5797	-0.379
Mof_N 	N 	0.6457	0.71704	0.6828	-0.212
Mof_C 	C 	0.7552	0.67654	0.6745	-0.023
Mof_C 	C 	0.5782	0.65498	0.7958	-0.094
Mof_C 	C 	0.5242	0.59714	0.9387	-0.154
Mof_H 	H 	0.5312	0.5714	0.0086	0.126
Mof_N 	N 	0.7105	0.64984	0.7492	-0.101
Mof_C 	C 	0.4487	0.61709	0.8702	0.284
Mof_C 	C 	0.5013	0.67331	0.7263	0.107
Mof_H 	H 	0.4932	0.6982	0.6524	-0.01
Mof_C 	C 	0.4361	0.65493	0.7656	-0.214
Mof_H 	H 	0.3852	0.668	0.722	0.167
Mof_C 	C 	0.645	0.67476	0.7485	0.141
Mof_C 	C 	0.7327	0.76232	0.5621	0.327
Mof_C 	C 	0.7142	0.71819	0.6353	-0.058
Mof_C 	C 	0.8279	0.65378	0.6486	0.351
Mof_C 	C 	0.5894	0.6163	0.901	0.076
Mof_H 	H 	0.6403	0.6033	0.946	0.05
Mof_Co	Co	0.45415	0.07246	0.76618	1.193
Mof_Cl	Cl	0.8676	0.09271	0.41978	-0.344
Mof_O 	O 	0.40262	0.96981	0.4019	-0.363
Mof_O 	O 	0.4943	0.11752	0.6176	-0.464
Mof_H 	H 	0.5399	0.1264	0.6698	0.251
Mof_O 	O 	0.50516	0.88722	0.476	-0.419
Mof_O 	O 	0.58808	0.86289	0.7235	-0.351
Mof_O 	O 	0.3985	0.03275	0.5504	-0.359
Mof_N 	N 	0.5421	0.01584	0.7807	-0.212
Mof_C 	C 	0.6691	0.01873	0.0228	-0.154
Mof_C 	C 	0.7827	0.01653	0.2768	-0.263
Mof_H 	H 	0.8182	0	0.3646	0.182
Mof_N 	N 	0.6106	0.94986	0.8484	-0.099
Mof_C 	C 	0.5482	0.94071	0.7031	-0.017
Mof_C 	C 	0.7909	0.06435	0.2649	0.316
Mof_C 	C 	0.7403	0.08971	0.1345	-0.229
Mof_H 	H 	0.7465	0.1217	0.1286	0.164
Mof_C 	C 	0.6802	0.06658	0.0127	0.087
Mof_H 	H 	0.6465	0.0831	0.9226	0.015
Mof_C 	C 	0.7217	0.99394	0.1573	0.151
Mof_H 	H 	0.7152	0.9621	0.1656	0.01
Mof_C 	C 	0.6061	0.99541	0.8899	0.182
Mof_C 	C 	0.4314	0.99525	0.5299	0.331
Mof_C 	C 	0.5063	0.98243	0.6632	-0.051
Mof_C 	C 	0.5461	0.89377	0.6272	0.34
Mof_Co	Co	0.3224	0.78303	0.84476	1.166
Mof_Cl	Cl	0.14613	0.99992	0.10507	-0.36
Mof_O 	O 	0.19401	0.70581	0.4298	-0.364
Mof_O 	O 	0.01838	0.71616	0.3177	-0.427
Mof_O 	O 	0.29094	0.73536	0.6458	-0.38
Mof_O 	O 	0.94142	0.74556	0.4589	-0.356
Mof_N 	N 	0.1931	0.79877	0.715	-0.211
Mof_N 	N 	0.0605	0.80005	0.6489	-0.104
Mof_C 	C 	0.1412	0.94724	0.9988	0.315
Mof_C 	C 	0.2008	0.89297	0.8585	0.12
Mof_H 	H 	0.2424	0.8844	0.8186	-0.005
Mof_C 	C 	0.1338	0.86394	0.8323	-0.103
Mof_C 	C 	0.205	0.93462	0.9441	-0.224
Mof_H 	H 	0.2498	0.9537	0.9645	0.183
Mof_C 	C 	0.0078	0.73957	0.4359	0.343
Mof_C 	C 	0.0781	0.76446	0.5577	-0.02
Mof_C 	C 	0.0743	0.91943	0.9716	-0.178
Mof_H 	H 	0.0319	0.9288	0.0077	0.133
Mof_C 	C 	0.1301	0.82044	0.7384	0.145
Mof_C 	C 	0.2184	0.73304	0.5542	0.326
Mof_C 	C 	0.071	0.87721	0.8894	0.093
Mof_H 	H 	0.0267	0.8578	0.8727	0.039
Mof_C 	C 	0.1606	0.76398	0.6001	-0.059
Mof_Co	Co	0.10503	0.71059	0.19993	1.155
Mof_Cl	Cl	0.86789	0.9071	0.41993	-0.343
Mof_O 	O 	0.28479	0.73583	0.9901	-0.335
Mof_O 	O 	0.35717	0.82907	0.0438	-0.42
Mof_O 	O 	0.35174	0.88232	0.2318	-0.352
Mof_O 	O 	0.19219	0.70242	0.0797	-0.379
Mof_N 	N 	0.1457	0.78296	0.1828	-0.218
Mof_C 	C 	0.2552	0.82346	0.1745	-0.036
Mof_C 	C 	0.0782	0.84502	0.2958	-0.122
Mof_C 	C 	0.0242	0.90286	0.4387	-0.247
Mof_H 	H 	0.0312	0.9286	0.5086	0.178
Mof_N 	N 	0.2105	0.85016	0.2492	-0.105
Mof_C 	C 	0.9487	0.88291	0.3702	0.318
Mof_C 	C 	0.0013	0.82669	0.2263	0.115
Mof_H 	H 	0.9932	0.8018	0.1524	-0.016
Mof_C 	C 	0.9361	0.84507	0.2656	-0.238
Mof_H 	H 	0.8852	0.832	0.222	0.17
Mof_C 	C 	0.145	0.82524	0.2485	0.14
Mof_C 	C 	0.2327	0.73768	0.0621	0.289
Mof_C 	C 	0.2142	0.78181	0.1353	-0.055
Mof_C 	C 	0.3279	0.84622	0.1486	0.351
Mof_C 	C 	0.0894	0.8837	0.401	0.121
Mof_H 	H 	0.1403	0.8967	0.446	0.024
Mof_Co	Co	0.95415	0.42754	0.26618	1.193
Mof_Cl	Cl	0.3676	0.40729	0.91978	-0.324
Mof_O 	O 	0.90262	0.53019	0.9019	-0.336
Mof_O 	O 	0.9943	0.38248	0.1176	-0.466
Mof_H 	H 	0.0399	0.3736	0.1698	0.243
Mof_O 	O 	0.00516	0.61278	0.976	-0.391
Mof_O 	O 	0.08808	0.63711	0.2235	-0.35
Mof_O 	O 	0.8985	0.46725	0.0504	-0.358
Mof_N 	N 	0.0421	0.48416	0.2807	-0.208
Mof_C 	C 	0.1691	0.48127	0.5228	-0.128
Mof_C 	C 	0.2827	0.48347	0.7768	-0.25
Mof_H 	H 	0.3182	0.5	0.8646	0.186
Mof_N 	N 	0.1106	0.55014	0.3484	-0.1
Mof_C 	C 	0.0482	0.55929	0.2031	-0.017
Mof_C 	C 	0.2909	0.43565	0.7649	0.322
Mof_C 	C 	0.2403	0.41029	0.6345	-0.248
Mof_H 	H 	0.2465	0.3783	0.6286	0.178
Mof_C 	C 	0.1802	0.43342	0.5127	0.138
Mof_H 	H 	0.1465	0.4169	0.4226	-0.021
Mof_C 	C 	0.2217	0.50606	0.6573	0.135
Mof_H 	H 	0.2152	0.5379	0.6656	0.023
Mof_C 	C 	0.1061	0.50459	0.3899	0.149
Mof_C 	C 	0.9314	0.50475	0.0299	0.298
Mof_C 	C 	0.0063	0.51757	0.1632	-0.058
Mof_C 	C 	0.0461	0.60623	0.1272	0.305
Mof_Co	Co	0.8224	0.28303	0.84476	1.166
Mof_Cl	Cl	0.64613	0.49992	0.10507	-0.362
Mof_O 	O 	0.69401	0.20581	0.4298	-0.364
Mof_O 	O 	0.51838	0.21616	0.3177	-0.426
Mof_O 	O 	0.79094	0.23536	0.6458	-0.38
Mof_O 	O 	0.44142	0.24556	0.4589	-0.359
Mof_N 	N 	0.6931	0.29877	0.715	-0.211
Mof_N 	N 	0.5605	0.30005	0.6489	-0.103
Mof_C 	C 	0.6412	0.44724	0.9988	0.315
Mof_C 	C 	0.7008	0.39297	0.8585	0.119
Mof_H 	H 	0.7424	0.3844	0.8186	-0.005
Mof_C 	C 	0.6338	0.36394	0.8323	-0.103
Mof_C 	C 	0.705	0.43462	0.9441	-0.224
Mof_H 	H 	0.7498	0.4537	0.9645	0.182
Mof_C 	C 	0.5078	0.23957	0.4359	0.347
Mof_C 	C 	0.5781	0.26446	0.5577	-0.02
Mof_C 	C 	0.5743	0.41943	0.9716	-0.178
Mof_H 	H 	0.5319	0.4288	0.0077	0.134
Mof_C 	C 	0.6301	0.32044	0.7384	0.145
Mof_C 	C 	0.7184	0.23304	0.5542	0.326
Mof_C 	C 	0.571	0.37721	0.8894	0.093
Mof_H 	H 	0.5267	0.3578	0.8727	0.04
Mof_C 	C 	0.6606	0.26398	0.6001	-0.059
Mof_Co	Co	0.60503	0.21059	0.19993	1.156
Mof_Cl	Cl	0.36789	0.4071	0.41993	-0.346
Mof_O 	O 	0.78479	0.23583	0.9901	-0.335
Mof_O 	O 	0.85717	0.32907	0.0438	-0.42
Mof_O 	O 	0.85174	0.38232	0.2318	-0.352
Mof_O 	O 	0.69219	0.20242	0.0797	-0.379
Mof_N 	N 	0.6457	0.28296	0.1828	-0.218
Mof_C 	C 	0.7552	0.32346	0.1745	-0.036
Mof_C 	C 	0.5782	0.34502	0.2958	-0.129
Mof_C 	C 	0.5242	0.40286	0.4387	-0.246
Mof_H 	H 	0.5312	0.4286	0.5086	0.178
Mof_N 	N 	0.7105	0.35016	0.2492	-0.106
Mof_C 	C 	0.4487	0.38291	0.3702	0.319
Mof_C 	C 	0.5013	0.32669	0.2263	0.133
Mof_H 	H 	0.4932	0.3018	0.1524	-0.025
Mof_C 	C 	0.4361	0.34507	0.2656	-0.251
Mof_H 	H 	0.3852	0.332	0.222	0.174
Mof_C 	C 	0.645	0.32524	0.2485	0.142
Mof_C 	C 	0.7327	0.23768	0.0621	0.289
Mof_C 	C 	0.7142	0.28181	0.1353	-0.055
Mof_C 	C 	0.8279	0.34622	0.1486	0.351
Mof_C 	C 	0.5894	0.3837	0.401	0.125
Mof_H 	H 	0.6403	0.3967	0.446	0.023
Mof_Co	Co	0.45415	0.92754	0.26618	1.192
Mof_Cl	Cl	0.8676	0.90729	0.91978	-0.32
Mof_O 	O 	0.40262	0.03019	0.9019	-0.334
Mof_O 	O 	0.4943	0.88248	0.1176	-0.471
Mof_H 	H 	0.5399	0.8736	0.1698	0.247
Mof_O 	O 	0.50516	0.11278	0.976	-0.39
Mof_O 	O 	0.58808	0.13711	0.2235	-0.35
Mof_O 	O 	0.3985	0.96725	0.0504	-0.354
Mof_N 	N 	0.5421	0.98416	0.2807	-0.203
Mof_C 	C 	0.6691	0.98127	0.5228	-0.107
Mof_C 	C 	0.7827	0.98347	0.7768	-0.222
Mof_H 	H 	0.8182	0	0.8646	0.174
Mof_N 	N 	0.6106	0.05014	0.3484	-0.098
Mof_C 	C 	0.5482	0.05929	0.2031	-0.017
Mof_C 	C 	0.7909	0.93565	0.7649	0.309
Mof_C 	C 	0.7403	0.91029	0.6345	-0.234
Mof_H 	H 	0.7465	0.8783	0.6286	0.173
Mof_C 	C 	0.6802	0.93342	0.5127	0.122
Mof_H 	H 	0.6465	0.9169	0.4226	-0.015
Mof_C 	C 	0.7217	0.00606	0.6573	0.106
Mof_H 	H 	0.7152	0.0379	0.6656	0.032
Mof_C 	C 	0.6061	0.00459	0.3899	0.137
Mof_C 	C 	0.4314	0.00475	0.0299	0.288
Mof_C 	C 	0.5063	0.01757	0.1632	-0.056
Mof_C 	C 	0.5461	0.10623	0.1272	0.305
_end
