# CIF file generated by openbabel 3.1.0, see https://openbabel.org
data_I
_chemical_name_common 'image0'
_cell_length_a 11.0483
_cell_length_b 20.7209
_cell_length_c 22.0818
_cell_angle_alpha 115.715
_cell_angle_beta 99.403
_cell_angle_gamma 90.774
_space_group_name_H-M_alt 'P 1'
_space_group_name_Hall 'P 1'
loop_
    _symmetry_equiv_pos_as_xyz
    x,y,z
loop_
    _atom_site_label
    _atom_site_type_symbol
    _atom_site_fract_x
    _atom_site_fract_y
    _atom_site_fract_z
    _atom_site_occupancy
    Co1      Co       0.83170    0.17147    0.45629    1.000
    Co2      Co       0.75120    0.33651    0.57974    1.000
    Co3      Co       0.26780    0.67131    0.92495    1.000
    Co4      Co       0.18740    0.83654    0.04737    1.000
    N1       N        0.79320    0.08750    0.35280    1.000
    N2       N        0.22470    0.92280    0.14970    1.000
    O1       O        0.00800    0.84690    0.04920    1.000
    O2       O        0.89740    0.75570    0.96000    1.000
    O3       O        0.42690    0.74410    0.96380    1.000
    O4       O        0.37010    0.83580    0.05020    1.000
    O5       O        0.65040    0.17000    0.45630    1.000
    O6       O        0.59440    0.26310    0.54170    1.000
    O7       O        0.12200    0.25440    0.54280    1.000
    O8       O        0.01140    0.16540    0.45220    1.000
    O9       O        0.26760    0.66260    0.83100    1.000
    O10      O        0.17200    0.75210    0.81980    1.000
    O11      O        0.17340    0.75570    0.58590    1.000
    O12      O        0.25240    0.66290    0.51120    1.000
    O13      O        0.75460    0.34550    0.67420    1.000
    O14      O        0.83960    0.25260    0.68230    1.000
    O15      O        0.81030    0.23610    0.90900    1.000
    O16      O        0.73100    0.32860    0.98440    1.000
    O17      O        0.88280    0.25350    0.56350    1.000
    H1       H        0.96630    0.27490    0.57240    1.000
    H2       H        0.87850    0.23180    0.59430    1.000
    O18      O        0.13710    0.75400    0.94070    1.000
    H3       H        0.14150    0.77530    0.90970    1.000
    H4       H        0.05360    0.73260    0.93190    1.000
    C1       C        0.71600    0.03290    0.33410    1.000
    H5       H        0.67520    0.03010    0.36660    1.000
    C2       C        0.68900    0.97660    0.26690    1.000
    H6       H        0.63080    0.93870    0.25630    1.000
    C3       C        0.74650    0.97740    0.21870    1.000
    C4       C        0.82830    0.03930    0.23750    1.000
    H7       H        0.86750    0.04490    0.20560    1.000
    C5       C        0.84800    0.09270    0.30710    1.000
    H8       H        0.90320    0.13290    0.32030    1.000
    C6       C        0.72190    0.91920    0.14730    1.000
    C7       C        0.60530    0.88820    0.11540    1.000
    H9       H        0.54040    0.90550    0.13820    1.000
    C8       C        0.58020    0.83140    0.04990    1.000
    C9       C        0.67990    0.80500    0.01640    1.000
    H10      H        0.66620    0.76610    0.97320    1.000
    C10      C        0.79770    0.83710    0.04820    1.000
    C11      C        0.81870    0.89410    0.11300    1.000
    H11      H        0.89830    0.91580    0.13370    1.000
    C12      C        0.90900    0.81020    0.01560    1.000
    C13      C        0.44860    0.79990    0.01750    1.000
    C14      C        0.31170    0.92270    0.19690    1.000
    H12      H        0.35660    0.88280    0.18600    1.000
    C15      C        0.34200    0.97910    0.26320    1.000
    H13      H        0.41070    0.97800    0.29330    1.000
    C16      C        0.27350    0.03410    0.28290    1.000
    C17      C        0.18400    0.03680    0.23370    1.000
    H14      H        0.13620    0.07570    0.24410    1.000
    C18      C        0.16400    0.98060    0.16750    1.000
    H15      H        0.10470    0.98420    0.13420    1.000
    C19      C        0.29880    0.09380    0.35400    1.000
    C20      C        0.41740    0.12090    0.38870    1.000
    H16      H        0.48340    0.10100    0.36800    1.000
    C21      C        0.43960    0.17730    0.45390    1.000
    C22      C        0.34100    0.20520    0.48580    1.000
    H17      H        0.35560    0.24310    0.52960    1.000
    C23      C        0.22180    0.17740    0.45290    1.000
    C24      C        0.20200    0.12150    0.38800    1.000
    H18      H        0.12180    0.10160    0.36620    1.000
    C25      C        0.11050    0.20190    0.48680    1.000
    C26      C        0.57100    0.20620    0.48720    1.000
    N3       N        0.63000    0.42190    0.60300    1.000
    C27      C        0.53300    0.42400    0.55700    1.000
    H19      H        0.51910    0.38520    0.51350    1.000
    C28      C        0.45600    0.47600    0.56910    1.000
    H20      H        0.39480    0.47560    0.53420    1.000
    C29      C        0.46900    0.53030    0.63340    1.000
    C30      C        0.58000    0.53860    0.68060    1.000
    H21      H        0.60080    0.57960    0.72210    1.000
    C31      C        0.65500    0.48360    0.66240    1.000
    H22      H        0.72810    0.48880    0.69260    1.000
    C32      C        0.38300    0.58710    0.64890    1.000
    C33      C        0.34600    0.61670    0.71200    1.000
    H23      H        0.37340    0.59870    0.74330    1.000
    C34      C        0.27080    0.67180    0.72950    1.000
    C35      C        0.23220    0.70010    0.68500    1.000
    H24      H        0.18390    0.73860    0.69730    1.000
    C36      C        0.26640    0.67060    0.62030    1.000
    C37      C        0.34480    0.61540    0.60500    1.000
    H25      H        0.37120    0.59760    0.56330    1.000
    C38      C        0.22640    0.69990    0.56800    1.000
    C39      C        0.23130    0.69950    0.79900    1.000
    N4       N        0.38630    0.58560    0.90170    1.000
    C40      C        0.49100    0.59300    0.87510    1.000
    H26      H        0.50820    0.63430    0.87010    1.000
    C41      C        0.56500    0.53920    0.85720    1.000
    H27      H        0.63250    0.54230    0.83770    1.000
    C42      C        0.54010    0.47390    0.86850    1.000
    C43      C        0.44000    0.47710    0.89550    1.000
    H28      H        0.41860    0.43950    0.90510    1.000
    C44      C        0.36700    0.53340    0.91000    1.000
    H29      H        0.29760    0.53040    0.92770    1.000
    C45      C        0.62170    0.41270    0.85040    1.000
    C46      C        0.66680    0.38800    0.78920    1.000
    H30      H        0.64900    0.41030    0.76060    1.000
    C47      C        0.73820    0.33000    0.77110    1.000
    C48      C        0.76850    0.29900    0.81480    1.000
    H31      H        0.81560    0.26000    0.80220    1.000
    C49      C        0.72980    0.32480    0.87770    1.000
    C50      C        0.65570    0.38090    0.89380    1.000
    H32      H        0.62780    0.39790    0.93500    1.000
    C51      C        0.78020    0.30660    0.70410    1.000
    C52      C        0.75920    0.29330    0.92620    1.000
    C53      C        0.64200    0.47300    0.59300    1.000
    H33      H        0.70910    0.47660    0.57330    1.000
    C54      C        0.56800    0.52700    0.60600    1.000
    H34      H        0.58710    0.56380    0.59470    1.000
    C55      C        0.44400    0.46540    0.64700    1.000
    H35      H        0.37680    0.46120    0.66610    1.000
    C56      C        0.52800    0.41220    0.62960    1.000
    H36      H        0.51600    0.37100    0.63570    1.000
    C57      C        0.48100    0.58140    0.94780    1.000
    H37      H        0.49500    0.61850    0.99210    1.000
    C58      C        0.55700    0.52600    0.93400    1.000
    H38      H        0.61760    0.52410    0.96780    1.000
    C59      C        0.43600    0.46700    0.82240    1.000
    H39      H        0.41670    0.42640    0.78050    1.000
    C60      C        0.36100    0.52250    0.84000    1.000
    H40      H        0.28890    0.51750    0.80960    1.000
    Co5      Co       0.16830    0.82853    0.54371    1.000
    Co6      Co       0.24880    0.66349    0.42026    1.000
    Co7      Co       0.73220    0.32869    0.07505    1.000
    Co8      Co       0.81260    0.16346    0.95263    1.000
    N5       N        0.20680    0.91250    0.64720    1.000
    N6       N        0.77530    0.07720    0.85030    1.000
    O19      O        0.99200    0.15310    0.95080    1.000
    O20      O        0.10260    0.24430    0.04000    1.000
    O21      O        0.57310    0.25590    0.03620    1.000
    O22      O        0.62990    0.16420    0.94980    1.000
    O23      O        0.34960    0.83000    0.54370    1.000
    O24      O        0.40560    0.73690    0.45830    1.000
    O25      O        0.87800    0.74560    0.45720    1.000
    O26      O        0.98860    0.83460    0.54780    1.000
    O27      O        0.73240    0.33740    0.16900    1.000
    O28      O        0.82800    0.24790    0.18020    1.000
    O29      O        0.82660    0.24430    0.41410    1.000
    O30      O        0.74760    0.33710    0.48880    1.000
    O31      O        0.24540    0.65450    0.32580    1.000
    O32      O        0.16040    0.74740    0.31770    1.000
    O33      O        0.18970    0.76390    0.09100    1.000
    O34      O        0.26900    0.67140    0.01560    1.000
    O35      O        0.11720    0.74650    0.43650    1.000
    H41      H        0.03370    0.72510    0.42760    1.000
    H42      H        0.12150    0.76820    0.40570    1.000
    O36      O        0.86290    0.24600    0.05930    1.000
    H43      H        0.85850    0.22470    0.09030    1.000
    H44      H        0.94640    0.26740    0.06810    1.000
    C61      C        0.28400    0.96710    0.66590    1.000
    H45      H        0.32480    0.96990    0.63340    1.000
    C62      C        0.31100    0.02340    0.73310    1.000
    H46      H        0.36920    0.06130    0.74370    1.000
    C63      C        0.25350    0.02260    0.78130    1.000
    C64      C        0.17170    0.96070    0.76250    1.000
    H47      H        0.13250    0.95510    0.79440    1.000
    C65      C        0.15200    0.90730    0.69290    1.000
    H48      H        0.09680    0.86710    0.67970    1.000
    C66      C        0.27810    0.08080    0.85270    1.000
    C67      C        0.39470    0.11180    0.88460    1.000
    H49      H        0.45960    0.09450    0.86180    1.000
    C68      C        0.41980    0.16860    0.95010    1.000
    C69      C        0.32010    0.19500    0.98360    1.000
    H50      H        0.33380    0.23390    0.02680    1.000
    C70      C        0.20230    0.16290    0.95180    1.000
    C71      C        0.18130    0.10590    0.88700    1.000
    H51      H        0.10170    0.08420    0.86630    1.000
    C72      C        0.09100    0.18980    0.98440    1.000
    C73      C        0.55140    0.20010    0.98250    1.000
    C74      C        0.68830    0.07730    0.80310    1.000
    H52      H        0.64340    0.11720    0.81400    1.000
    C75      C        0.65800    0.02090    0.73680    1.000
    H53      H        0.58930    0.02200    0.70670    1.000
    C76      C        0.72650    0.96590    0.71710    1.000
    C77      C        0.81600    0.96320    0.76630    1.000
    H54      H        0.86380    0.92430    0.75590    1.000
    C78      C        0.83600    0.01940    0.83250    1.000
    H55      H        0.89530    0.01580    0.86580    1.000
    C79      C        0.70120    0.90620    0.64600    1.000
    C80      C        0.58260    0.87910    0.61130    1.000
    H56      H        0.51660    0.89900    0.63200    1.000
    C81      C        0.56040    0.82270    0.54610    1.000
    C82      C        0.65900    0.79480    0.51420    1.000
    H57      H        0.64440    0.75690    0.47040    1.000
    C83      C        0.77820    0.82260    0.54710    1.000
    C84      C        0.79800    0.87850    0.61200    1.000
    H58      H        0.87820    0.89840    0.63380    1.000
    C85      C        0.88950    0.79810    0.51320    1.000
    C86      C        0.42900    0.79380    0.51280    1.000
    N7       N        0.37000    0.57810    0.39700    1.000
    C87      C        0.46700    0.57600    0.44300    1.000
    H59      H        0.48090    0.61480    0.48650    1.000
    C88      C        0.54400    0.52400    0.43090    1.000
    H60      H        0.60520    0.52440    0.46580    1.000
    C89      C        0.53100    0.46970    0.36660    1.000
    C90      C        0.42000    0.46140    0.31940    1.000
    H61      H        0.39920    0.42040    0.27790    1.000
    C91      C        0.34500    0.51640    0.33760    1.000
    H62      H        0.27190    0.51120    0.30740    1.000
    C92      C        0.61700    0.41290    0.35110    1.000
    C93      C        0.65400    0.38330    0.28800    1.000
    H63      H        0.62660    0.40130    0.25670    1.000
    C94      C        0.72920    0.32820    0.27050    1.000
    C95      C        0.76780    0.29990    0.31500    1.000
    H64      H        0.81610    0.26140    0.30270    1.000
    C96      C        0.73360    0.32940    0.37970    1.000
    C97      C        0.65520    0.38460    0.39500    1.000
    H65      H        0.62880    0.40240    0.43670    1.000
    C98      C        0.77360    0.30010    0.43200    1.000
    C99      C        0.76870    0.30050    0.20100    1.000
    N8       N        0.61370    0.41440    0.09830    1.000
    C100     C        0.50900    0.40700    0.12490    1.000
    H66      H        0.49180    0.36570    0.12990    1.000
    C101     C        0.43500    0.46080    0.14280    1.000
    H67      H        0.36750    0.45770    0.16230    1.000
    C102     C        0.45990    0.52610    0.13150    1.000
    C103     C        0.56000    0.52290    0.10450    1.000
    H68      H        0.58140    0.56050    0.09490    1.000
    C104     C        0.63300    0.46660    0.09000    1.000
    H69      H        0.70240    0.46960    0.07230    1.000
    C105     C        0.37830    0.58730    0.14960    1.000
    C106     C        0.33320    0.61200    0.21080    1.000
    H70      H        0.35100    0.58970    0.23940    1.000
    C107     C        0.26180    0.67000    0.22890    1.000
    C108     C        0.23150    0.70100    0.18520    1.000
    H71      H        0.18440    0.74000    0.19780    1.000
    C109     C        0.27020    0.67520    0.12230    1.000
    C110     C        0.34430    0.61910    0.10620    1.000
    H72      H        0.37220    0.60210    0.06500    1.000
    C111     C        0.21980    0.69340    0.29590    1.000
    C112     C        0.24080    0.70670    0.07380    1.000
    C113     C        0.35800    0.52700    0.40700    1.000
    H73      H        0.29090    0.52340    0.42670    1.000
    C114     C        0.43200    0.47300    0.39400    1.000
    H74      H        0.41290    0.43620    0.40530    1.000
    C115     C        0.55600    0.53460    0.35300    1.000
    H75      H        0.62320    0.53880    0.33390    1.000
    C116     C        0.47200    0.58780    0.37040    1.000
    H76      H        0.48400    0.62900    0.36430    1.000
    C117     C        0.51900    0.41860    0.05220    1.000
    H77      H        0.50500    0.38150    0.00790    1.000
    C118     C        0.44300    0.47400    0.06600    1.000
    H78      H        0.38240    0.47590    0.03220    1.000
    C119     C        0.56400    0.53300    0.17760    1.000
    H79      H        0.58330    0.57360    0.21950    1.000
    C120     C        0.63900    0.47750    0.16000    1.000
    H80      H        0.71110    0.48250    0.19040    1.000
