# CIF file generated by openbabel 3.1.0, see https://openbabel.org
data_I
_chemical_name_common 'image0'
_cell_length_a 19.3042
_cell_length_b 19.3042
_cell_length_c 19.3042
_cell_angle_alpha 90
_cell_angle_beta 90
_cell_angle_gamma 90
_space_group_name_H-M_alt 'P 1'
_space_group_name_Hall 'P 1'
loop_
    _symmetry_equiv_pos_as_xyz
    x,y,z
loop_
    _atom_site_label
    _atom_site_type_symbol
    _atom_site_fract_x
    _atom_site_fract_y
    _atom_site_fract_z
    _atom_site_occupancy
    C1       C        0.46460    0.29730    0.21080    1.000
    H1       H        0.46810    0.34310    0.19640    1.000
    C2       C        0.45290    0.24640    0.16190    1.000
    H2       H        0.45060    0.25840    0.11530    1.000
    C3       C        0.41100    0.07580    0.13120    1.000
    H3       H        0.37020    0.07060    0.16000    1.000
    H4       H        0.45080    0.05640    0.15490    1.000
    C4       C        0.41070    0.03610    0.06420    1.000
    O1       O        0.43240    0.14450    0.11750    1.000
    C5       C        0.53540    0.70270    0.21080    1.000
    H5       H        0.53190    0.65690    0.19640    1.000
    C6       C        0.54710    0.75360    0.16190    1.000
    H6       H        0.54940    0.74160    0.11530    1.000
    C7       C        0.58900    0.92420    0.13120    1.000
    H7       H        0.62980    0.92940    0.16000    1.000
    H8       H        0.54920    0.94360    0.15490    1.000
    C8       C        0.58930    0.96390    0.06420    1.000
    O2       O        0.56760    0.85550    0.11750    1.000
    C9       C        0.53540    0.29730    0.78920    1.000
    H9       H        0.53190    0.34310    0.80360    1.000
    C10      C        0.54710    0.24640    0.83810    1.000
    H10      H        0.54940    0.25840    0.88470    1.000
    C11      C        0.58900    0.07580    0.86880    1.000
    H11      H        0.62980    0.07060    0.84000    1.000
    H12      H        0.54920    0.05640    0.84510    1.000
    C12      C        0.58930    0.03610    0.93580    1.000
    O3       O        0.56760    0.14450    0.88250    1.000
    C13      C        0.46460    0.70270    0.78920    1.000
    H13      H        0.46810    0.65690    0.80360    1.000
    C14      C        0.45290    0.75360    0.83810    1.000
    H14      H        0.45060    0.74160    0.88470    1.000
    C15      C        0.41100    0.92420    0.86880    1.000
    H15      H        0.37020    0.92940    0.84000    1.000
    H16      H        0.45080    0.94360    0.84510    1.000
    C16      C        0.41070    0.96390    0.93580    1.000
    O4       O        0.43240    0.85550    0.88250    1.000
    C17      C        0.21080    0.46460    0.29730    1.000
    H17      H        0.19640    0.46810    0.34310    1.000
    C18      C        0.16190    0.45290    0.24640    1.000
    H18      H        0.11530    0.45060    0.25840    1.000
    C19      C        0.13120    0.41100    0.07580    1.000
    H19      H        0.16000    0.37020    0.07060    1.000
    H20      H        0.15490    0.45080    0.05640    1.000
    C20      C        0.06420    0.41070    0.03610    1.000
    O5       O        0.11750    0.43240    0.14450    1.000
    C21      C        0.21080    0.53540    0.70270    1.000
    H21      H        0.19640    0.53190    0.65690    1.000
    C22      C        0.16190    0.54710    0.75360    1.000
    H22      H        0.11530    0.54940    0.74160    1.000
    C23      C        0.13120    0.58900    0.92420    1.000
    H23      H        0.16000    0.62980    0.92940    1.000
    H24      H        0.15490    0.54920    0.94360    1.000
    C24      C        0.06420    0.58930    0.96390    1.000
    O6       O        0.11750    0.56760    0.85550    1.000
    C25      C        0.78920    0.53540    0.29730    1.000
    H25      H        0.80360    0.53190    0.34310    1.000
    C26      C        0.83810    0.54710    0.24640    1.000
    H26      H        0.88470    0.54940    0.25840    1.000
    C27      C        0.86880    0.58900    0.07580    1.000
    H27      H        0.84000    0.62980    0.07060    1.000
    H28      H        0.84510    0.54920    0.05640    1.000
    C28      C        0.93580    0.58930    0.03610    1.000
    O7       O        0.88250    0.56760    0.14450    1.000
    C29      C        0.78920    0.46460    0.70270    1.000
    H29      H        0.80360    0.46810    0.65690    1.000
    C30      C        0.83810    0.45290    0.75360    1.000
    H30      H        0.88470    0.45060    0.74160    1.000
    C31      C        0.86880    0.41100    0.92420    1.000
    H31      H        0.84000    0.37020    0.92940    1.000
    H32      H        0.84510    0.45080    0.94360    1.000
    C32      C        0.93580    0.41070    0.96390    1.000
    O8       O        0.88250    0.43240    0.85550    1.000
    C33      C        0.29730    0.21080    0.46460    1.000
    H33      H        0.34310    0.19640    0.46810    1.000
    C34      C        0.24640    0.16190    0.45290    1.000
    H34      H        0.25840    0.11530    0.45060    1.000
    C35      C        0.07580    0.13120    0.41100    1.000
    H35      H        0.07060    0.16000    0.37020    1.000
    H36      H        0.05640    0.15490    0.45080    1.000
    C36      C        0.03610    0.06420    0.41070    1.000
    O9       O        0.14450    0.11750    0.43240    1.000
    C37      C        0.70270    0.21080    0.53540    1.000
    H37      H        0.65690    0.19640    0.53190    1.000
    C38      C        0.75360    0.16190    0.54710    1.000
    H38      H        0.74160    0.11530    0.54940    1.000
    C39      C        0.92420    0.13120    0.58900    1.000
    H39      H        0.92940    0.16000    0.62980    1.000
    H40      H        0.94360    0.15490    0.54920    1.000
    C40      C        0.96390    0.06420    0.58930    1.000
    O10      O        0.85550    0.11750    0.56760    1.000
    C41      C        0.29730    0.78920    0.53540    1.000
    H41      H        0.34310    0.80360    0.53190    1.000
    C42      C        0.24640    0.83810    0.54710    1.000
    H42      H        0.25840    0.88470    0.54940    1.000
    C43      C        0.07580    0.86880    0.58900    1.000
    H43      H        0.07060    0.84000    0.62980    1.000
    H44      H        0.05640    0.84510    0.54920    1.000
    C44      C        0.03610    0.93580    0.58930    1.000
    O11      O        0.14450    0.88250    0.56760    1.000
    C45      C        0.70270    0.78920    0.46460    1.000
    H45      H        0.65690    0.80360    0.46810    1.000
    C46      C        0.75360    0.83810    0.45290    1.000
    H46      H        0.74160    0.88470    0.45060    1.000
    C47      C        0.92420    0.86880    0.41100    1.000
    H47      H        0.92940    0.84000    0.37020    1.000
    H48      H        0.94360    0.84510    0.45080    1.000
    C48      C        0.96390    0.93580    0.41070    1.000
    O12      O        0.85550    0.88250    0.43240    1.000
    C49      C        0.29730    0.46460    0.78920    1.000
    H49      H        0.34310    0.46810    0.80360    1.000
    C50      C        0.24640    0.45290    0.83810    1.000
    H50      H        0.25840    0.45060    0.88470    1.000
    C51      C        0.07580    0.41100    0.86880    1.000
    H51      H        0.07060    0.37020    0.84000    1.000
    H52      H        0.05640    0.45080    0.84510    1.000
    C52      C        0.03610    0.41070    0.93580    1.000
    O13      O        0.14450    0.43240    0.88250    1.000
    C53      C        0.70270    0.53540    0.78920    1.000
    H53      H        0.65690    0.53190    0.80360    1.000
    C54      C        0.75360    0.54710    0.83810    1.000
    H54      H        0.74160    0.54940    0.88470    1.000
    C55      C        0.92420    0.58900    0.86880    1.000
    H55      H        0.92940    0.62980    0.84000    1.000
    H56      H        0.94360    0.54920    0.84510    1.000
    C56      C        0.96390    0.58930    0.93580    1.000
    O14      O        0.85550    0.56760    0.88250    1.000
    C57      C        0.29730    0.53540    0.21080    1.000
    H57      H        0.34310    0.53190    0.19640    1.000
    C58      C        0.24640    0.54710    0.16190    1.000
    H58      H        0.25840    0.54940    0.11530    1.000
    C59      C        0.07580    0.58900    0.13120    1.000
    H59      H        0.07060    0.62980    0.16000    1.000
    H60      H        0.05640    0.54920    0.15490    1.000
    C60      C        0.03610    0.58930    0.06420    1.000
    O15      O        0.14450    0.56760    0.11750    1.000
    C61      C        0.70270    0.46460    0.21080    1.000
    H61      H        0.65690    0.46810    0.19640    1.000
    C62      C        0.75360    0.45290    0.16190    1.000
    H62      H        0.74160    0.45060    0.11530    1.000
    C63      C        0.92420    0.41100    0.13120    1.000
    H63      H        0.92940    0.37020    0.16000    1.000
    H64      H        0.94360    0.45080    0.15490    1.000
    C64      C        0.96390    0.41070    0.06420    1.000
    O16      O        0.85550    0.43240    0.11750    1.000
    C65      C        0.46460    0.21080    0.70270    1.000
    H65      H        0.46810    0.19640    0.65690    1.000
    C66      C        0.45290    0.16190    0.75360    1.000
    H66      H        0.45060    0.11530    0.74160    1.000
    C67      C        0.41100    0.13120    0.92420    1.000
    H67      H        0.37020    0.16000    0.92940    1.000
    H68      H        0.45080    0.15490    0.94360    1.000
    C68      C        0.41070    0.06420    0.96390    1.000
    O17      O        0.43240    0.11750    0.85550    1.000
    C69      C        0.53540    0.21080    0.29730    1.000
    H69      H        0.53190    0.19640    0.34310    1.000
    C70      C        0.54710    0.16190    0.24640    1.000
    H70      H        0.54940    0.11530    0.25840    1.000
    C71      C        0.58900    0.13120    0.07580    1.000
    H71      H        0.62980    0.16000    0.07060    1.000
    H72      H        0.54920    0.15490    0.05640    1.000
    C72      C        0.58930    0.06420    0.03610    1.000
    O18      O        0.56760    0.11750    0.14450    1.000
    C73      C        0.53540    0.78920    0.70270    1.000
    H73      H        0.53190    0.80360    0.65690    1.000
    C74      C        0.54710    0.83810    0.75360    1.000
    H74      H        0.54940    0.88470    0.74160    1.000
    C75      C        0.58900    0.86880    0.92420    1.000
    H75      H        0.62980    0.84000    0.92940    1.000
    H76      H        0.54920    0.84510    0.94360    1.000
    C76      C        0.58930    0.93580    0.96390    1.000
    O19      O        0.56760    0.88250    0.85550    1.000
    C77      C        0.46460    0.78920    0.29730    1.000
    H77      H        0.46810    0.80360    0.34310    1.000
    C78      C        0.45290    0.83810    0.24640    1.000
    H78      H        0.45060    0.88470    0.25840    1.000
    C79      C        0.41100    0.86880    0.07580    1.000
    H79      H        0.37020    0.84000    0.07060    1.000
    H80      H        0.45080    0.84510    0.05640    1.000
    C80      C        0.41070    0.93580    0.03610    1.000
    O20      O        0.43240    0.88250    0.14450    1.000
    C81      C        0.21080    0.29730    0.53540    1.000
    H81      H        0.19640    0.34310    0.53190    1.000
    C82      C        0.16190    0.24640    0.54710    1.000
    H82      H        0.11530    0.25840    0.54940    1.000
    C83      C        0.13120    0.07580    0.58900    1.000
    H83      H        0.16000    0.07060    0.62980    1.000
    H84      H        0.15490    0.05640    0.54920    1.000
    C84      C        0.06420    0.03610    0.58930    1.000
    O21      O        0.11750    0.14450    0.56760    1.000
    C85      C        0.21080    0.70270    0.46460    1.000
    H85      H        0.19640    0.65690    0.46810    1.000
    C86      C        0.16190    0.75360    0.45290    1.000
    H86      H        0.11530    0.74160    0.45060    1.000
    C87      C        0.13120    0.92420    0.41100    1.000
    H87      H        0.16000    0.92940    0.37020    1.000
    H88      H        0.15490    0.94360    0.45080    1.000
    C88      C        0.06420    0.96390    0.41070    1.000
    O22      O        0.11750    0.85550    0.43240    1.000
    C89      C        0.78920    0.29730    0.46460    1.000
    H89      H        0.80360    0.34310    0.46810    1.000
    C90      C        0.83810    0.24640    0.45290    1.000
    H90      H        0.88470    0.25840    0.45060    1.000
    C91      C        0.86880    0.07580    0.41100    1.000
    H91      H        0.84000    0.07060    0.37020    1.000
    H92      H        0.84510    0.05640    0.45080    1.000
    C92      C        0.93580    0.03610    0.41070    1.000
    O23      O        0.88250    0.14450    0.43240    1.000
    C93      C        0.78920    0.70270    0.53540    1.000
    H93      H        0.80360    0.65690    0.53190    1.000
    C94      C        0.83810    0.75360    0.54710    1.000
    H94      H        0.88470    0.74160    0.54940    1.000
    C95      C        0.86880    0.92420    0.58900    1.000
    H95      H        0.84000    0.92940    0.62980    1.000
    H96      H        0.84510    0.94360    0.54920    1.000
    C96      C        0.93580    0.96390    0.58930    1.000
    O24      O        0.88250    0.85550    0.56760    1.000
    C97      C        0.53540    0.70270    0.78920    1.000
    H97      H        0.53190    0.65690    0.80360    1.000
    C98      C        0.54710    0.75360    0.83810    1.000
    H98      H        0.54940    0.74160    0.88470    1.000
    C99      C        0.58900    0.92420    0.86880    1.000
    H99      H        0.62980    0.92940    0.84000    1.000
    H100     H        0.54920    0.94360    0.84510    1.000
    C100     C        0.58930    0.96390    0.93580    1.000
    O25      O        0.56760    0.85550    0.88250    1.000
    C101     C        0.46460    0.29730    0.78920    1.000
    H101     H        0.46810    0.34310    0.80360    1.000
    C102     C        0.45290    0.24640    0.83810    1.000
    H102     H        0.45060    0.25840    0.88470    1.000
    C103     C        0.41100    0.07580    0.86880    1.000
    H103     H        0.37020    0.07060    0.84000    1.000
    H104     H        0.45080    0.05640    0.84510    1.000
    C104     C        0.41070    0.03610    0.93580    1.000
    O26      O        0.43240    0.14450    0.88250    1.000
    C105     C        0.46460    0.70270    0.21080    1.000
    H105     H        0.46810    0.65690    0.19640    1.000
    C106     C        0.45290    0.75360    0.16190    1.000
    H106     H        0.45060    0.74160    0.11530    1.000
    C107     C        0.41100    0.92420    0.13120    1.000
    H107     H        0.37020    0.92940    0.16000    1.000
    H108     H        0.45080    0.94360    0.15490    1.000
    C108     C        0.41070    0.96390    0.06420    1.000
    O27      O        0.43240    0.85550    0.11750    1.000
    C109     C        0.53540    0.29730    0.21080    1.000
    H109     H        0.53190    0.34310    0.19640    1.000
    C110     C        0.54710    0.24640    0.16190    1.000
    H110     H        0.54940    0.25840    0.11530    1.000
    C111     C        0.58900    0.07580    0.13120    1.000
    H111     H        0.62980    0.07060    0.16000    1.000
    H112     H        0.54920    0.05640    0.15490    1.000
    C112     C        0.58930    0.03610    0.06420    1.000
    O28      O        0.56760    0.14450    0.11750    1.000
    C113     C        0.78920    0.53540    0.70270    1.000
    H113     H        0.80360    0.53190    0.65690    1.000
    C114     C        0.83810    0.54710    0.75360    1.000
    H114     H        0.88470    0.54940    0.74160    1.000
    C115     C        0.86880    0.58900    0.92420    1.000
    H115     H        0.84000    0.62980    0.92940    1.000
    H116     H        0.84510    0.54920    0.94360    1.000
    C116     C        0.93580    0.58930    0.96390    1.000
    O29      O        0.88250    0.56760    0.85550    1.000
    C117     C        0.78920    0.46460    0.29730    1.000
    H117     H        0.80360    0.46810    0.34310    1.000
    C118     C        0.83810    0.45290    0.24640    1.000
    H118     H        0.88470    0.45060    0.25840    1.000
    C119     C        0.86880    0.41100    0.07580    1.000
    H119     H        0.84000    0.37020    0.07060    1.000
    H120     H        0.84510    0.45080    0.05640    1.000
    C120     C        0.93580    0.41070    0.03610    1.000
    O30      O        0.88250    0.43240    0.14450    1.000
    C121     C        0.21080    0.46460    0.70270    1.000
    H121     H        0.19640    0.46810    0.65690    1.000
    C122     C        0.16190    0.45290    0.75360    1.000
    H122     H        0.11530    0.45060    0.74160    1.000
    C123     C        0.13120    0.41100    0.92420    1.000
    H123     H        0.16000    0.37020    0.92940    1.000
    H124     H        0.15490    0.45080    0.94360    1.000
    C124     C        0.06420    0.41070    0.96390    1.000
    O31      O        0.11750    0.43240    0.85550    1.000
    C125     C        0.21080    0.53540    0.29730    1.000
    H125     H        0.19640    0.53190    0.34310    1.000
    C126     C        0.16190    0.54710    0.24640    1.000
    H126     H        0.11530    0.54940    0.25840    1.000
    C127     C        0.13120    0.58900    0.07580    1.000
    H127     H        0.16000    0.62980    0.07060    1.000
    H128     H        0.15490    0.54920    0.05640    1.000
    C128     C        0.06420    0.58930    0.03610    1.000
    O32      O        0.11750    0.56760    0.14450    1.000
    C129     C        0.70270    0.78920    0.53540    1.000
    H129     H        0.65690    0.80360    0.53190    1.000
    C130     C        0.75360    0.83810    0.54710    1.000
    H130     H        0.74160    0.88470    0.54940    1.000
    C131     C        0.92420    0.86880    0.58900    1.000
    H131     H        0.92940    0.84000    0.62980    1.000
    H132     H        0.94360    0.84510    0.54920    1.000
    C132     C        0.96390    0.93580    0.58930    1.000
    O33      O        0.85550    0.88250    0.56760    1.000
    C133     C        0.29730    0.78920    0.46460    1.000
    H133     H        0.34310    0.80360    0.46810    1.000
    C134     C        0.24640    0.83810    0.45290    1.000
    H134     H        0.25840    0.88470    0.45060    1.000
    C135     C        0.07580    0.86880    0.41100    1.000
    H135     H        0.07060    0.84000    0.37020    1.000
    H136     H        0.05640    0.84510    0.45080    1.000
    C136     C        0.03610    0.93580    0.41070    1.000
    O34      O        0.14450    0.88250    0.43240    1.000
    C137     C        0.70270    0.21080    0.46460    1.000
    H137     H        0.65690    0.19640    0.46810    1.000
    C138     C        0.75360    0.16190    0.45290    1.000
    H138     H        0.74160    0.11530    0.45060    1.000
    C139     C        0.92420    0.13120    0.41100    1.000
    H139     H        0.92940    0.16000    0.37020    1.000
    H140     H        0.94360    0.15490    0.45080    1.000
    C140     C        0.96390    0.06420    0.41070    1.000
    O35      O        0.85550    0.11750    0.43240    1.000
    C141     C        0.29730    0.21080    0.53540    1.000
    H141     H        0.34310    0.19640    0.53190    1.000
    C142     C        0.24640    0.16190    0.54710    1.000
    H142     H        0.25840    0.11530    0.54940    1.000
    C143     C        0.07580    0.13120    0.58900    1.000
    H143     H        0.07060    0.16000    0.62980    1.000
    H144     H        0.05640    0.15490    0.54920    1.000
    C144     C        0.03610    0.06420    0.58930    1.000
    O36      O        0.14450    0.11750    0.56760    1.000
    C145     C        0.70270    0.53540    0.21080    1.000
    H145     H        0.65690    0.53190    0.19640    1.000
    C146     C        0.75360    0.54710    0.16190    1.000
    H146     H        0.74160    0.54940    0.11530    1.000
    C147     C        0.92420    0.58900    0.13120    1.000
    H147     H        0.92940    0.62980    0.16000    1.000
    H148     H        0.94360    0.54920    0.15490    1.000
    C148     C        0.96390    0.58930    0.06420    1.000
    O37      O        0.85550    0.56760    0.11750    1.000
    C149     C        0.29730    0.46460    0.21080    1.000
    H149     H        0.34310    0.46810    0.19640    1.000
    C150     C        0.24640    0.45290    0.16190    1.000
    H150     H        0.25840    0.45060    0.11530    1.000
    C151     C        0.07580    0.41100    0.13120    1.000
    H151     H        0.07060    0.37020    0.16000    1.000
    H152     H        0.05640    0.45080    0.15490    1.000
    C152     C        0.03610    0.41070    0.06420    1.000
    O38      O        0.14450    0.43240    0.11750    1.000
    C153     C        0.70270    0.46460    0.78920    1.000
    H153     H        0.65690    0.46810    0.80360    1.000
    C154     C        0.75360    0.45290    0.83810    1.000
    H154     H        0.74160    0.45060    0.88470    1.000
    C155     C        0.92420    0.41100    0.86880    1.000
    H155     H        0.92940    0.37020    0.84000    1.000
    H156     H        0.94360    0.45080    0.84510    1.000
    C156     C        0.96390    0.41070    0.93580    1.000
    O39      O        0.85550    0.43240    0.88250    1.000
    C157     C        0.29730    0.53540    0.78920    1.000
    H157     H        0.34310    0.53190    0.80360    1.000
    C158     C        0.24640    0.54710    0.83810    1.000
    H158     H        0.25840    0.54940    0.88470    1.000
    C159     C        0.07580    0.58900    0.86880    1.000
    H159     H        0.07060    0.62980    0.84000    1.000
    H160     H        0.05640    0.54920    0.84510    1.000
    C160     C        0.03610    0.58930    0.93580    1.000
    O40      O        0.14450    0.56760    0.88250    1.000
    C161     C        0.53540    0.78920    0.29730    1.000
    H161     H        0.53190    0.80360    0.34310    1.000
    C162     C        0.54710    0.83810    0.24640    1.000
    H162     H        0.54940    0.88470    0.25840    1.000
    C163     C        0.58900    0.86880    0.07580    1.000
    H163     H        0.62980    0.84000    0.07060    1.000
    H164     H        0.54920    0.84510    0.05640    1.000
    C164     C        0.58930    0.93580    0.03610    1.000
    O41      O        0.56760    0.88250    0.14450    1.000
    C165     C        0.46460    0.78920    0.70270    1.000
    H165     H        0.46810    0.80360    0.65690    1.000
    C166     C        0.45290    0.83810    0.75360    1.000
    H166     H        0.45060    0.88470    0.74160    1.000
    C167     C        0.41100    0.86880    0.92420    1.000
    H167     H        0.37020    0.84000    0.92940    1.000
    H168     H        0.45080    0.84510    0.94360    1.000
    C168     C        0.41070    0.93580    0.96390    1.000
    O42      O        0.43240    0.88250    0.85550    1.000
    C169     C        0.46460    0.21080    0.29730    1.000
    H169     H        0.46810    0.19640    0.34310    1.000
    C170     C        0.45290    0.16190    0.24640    1.000
    H170     H        0.45060    0.11530    0.25840    1.000
    C171     C        0.41100    0.13120    0.07580    1.000
    H171     H        0.37020    0.16000    0.07060    1.000
    H172     H        0.45080    0.15490    0.05640    1.000
    C172     C        0.41070    0.06420    0.03610    1.000
    O43      O        0.43240    0.11750    0.14450    1.000
    C173     C        0.53540    0.21080    0.70270    1.000
    H173     H        0.53190    0.19640    0.65690    1.000
    C174     C        0.54710    0.16190    0.75360    1.000
    H174     H        0.54940    0.11530    0.74160    1.000
    C175     C        0.58900    0.13120    0.92420    1.000
    H175     H        0.62980    0.16000    0.92940    1.000
    H176     H        0.54920    0.15490    0.94360    1.000
    C176     C        0.58930    0.06420    0.96390    1.000
    O44      O        0.56760    0.11750    0.85550    1.000
    C177     C        0.78920    0.70270    0.46460    1.000
    H177     H        0.80360    0.65690    0.46810    1.000
    C178     C        0.83810    0.75360    0.45290    1.000
    H178     H        0.88470    0.74160    0.45060    1.000
    C179     C        0.86880    0.92420    0.41100    1.000
    H179     H        0.84000    0.92940    0.37020    1.000
    H180     H        0.84510    0.94360    0.45080    1.000
    C180     C        0.93580    0.96390    0.41070    1.000
    O45      O        0.88250    0.85550    0.43240    1.000
    C181     C        0.78920    0.29730    0.53540    1.000
    H181     H        0.80360    0.34310    0.53190    1.000
    C182     C        0.83810    0.24640    0.54710    1.000
    H182     H        0.88470    0.25840    0.54940    1.000
    C183     C        0.86880    0.07580    0.58900    1.000
    H183     H        0.84000    0.07060    0.62980    1.000
    H184     H        0.84510    0.05640    0.54920    1.000
    C184     C        0.93580    0.03610    0.58930    1.000
    O46      O        0.88250    0.14450    0.56760    1.000
    C185     C        0.21080    0.70270    0.53540    1.000
    H185     H        0.19640    0.65690    0.53190    1.000
    C186     C        0.16190    0.75360    0.54710    1.000
    H186     H        0.11530    0.74160    0.54940    1.000
    C187     C        0.13120    0.92420    0.58900    1.000
    H187     H        0.16000    0.92940    0.62980    1.000
    H188     H        0.15490    0.94360    0.54920    1.000
    C188     C        0.06420    0.96390    0.58930    1.000
    O47      O        0.11750    0.85550    0.56760    1.000
    C189     C        0.21080    0.29730    0.46460    1.000
    H189     H        0.19640    0.34310    0.46810    1.000
    C190     C        0.16190    0.24640    0.45290    1.000
    H190     H        0.11530    0.25840    0.45060    1.000
    C191     C        0.13120    0.07580    0.41100    1.000
    H191     H        0.16000    0.07060    0.37020    1.000
    H192     H        0.15490    0.05640    0.45080    1.000
    C192     C        0.06420    0.03610    0.41070    1.000
    O48      O        0.11750    0.14450    0.43240    1.000
    Y1       Y        0.50000    0.35835    0.50000    1.000
    Y2       Y        0.50000    0.64165    0.50000    1.000
    Y3       Y        0.50000    0.50000    0.35835    1.000
    Y4       Y        0.50000    0.50000    0.64165    1.000
    Y5       Y        0.35835    0.50000    0.50000    1.000
    Y6       Y        0.64165    0.50000    0.50000    1.000
    O49      O        0.56430    0.43570    0.56430    1.000
    H193     H        0.59360    0.40640    0.59360    1.000
    O50      O        0.43570    0.56430    0.56430    1.000
    H194     H        0.40640    0.59360    0.59360    1.000
    O51      O        0.43570    0.43570    0.43570    1.000
    H195     H        0.40640    0.40640    0.40640    1.000
    O52      O        0.56430    0.56430    0.43570    1.000
    H196     H        0.59360    0.59360    0.40640    1.000
    O53      O        0.43570    0.56430    0.43570    1.000
    H197     H        0.40640    0.59360    0.40640    1.000
    O54      O        0.56430    0.43570    0.43570    1.000
    H198     H        0.59360    0.40640    0.40640    1.000
    O55      O        0.43570    0.43570    0.56430    1.000
    H199     H        0.40640    0.40640    0.59360    1.000
    O56      O        0.56430    0.56430    0.56430    1.000
    H200     H        0.59360    0.59360    0.59360    1.000
    C193     C        0.50000    0.33080    0.33080    1.000
    C194     C        0.50000    0.66920    0.33080    1.000
    C195     C        0.50000    0.33080    0.66920    1.000
    C196     C        0.50000    0.66920    0.66920    1.000
    C197     C        0.33080    0.50000    0.33080    1.000
    C198     C        0.33080    0.50000    0.66920    1.000
    C199     C        0.66920    0.50000    0.33080    1.000
    C200     C        0.66920    0.50000    0.66920    1.000
    C201     C        0.33080    0.33080    0.50000    1.000
    C202     C        0.66920    0.33080    0.50000    1.000
    C203     C        0.33080    0.66920    0.50000    1.000
    C204     C        0.66920    0.66920    0.50000    1.000
    O57      O        0.50000    0.30850    0.39220    1.000
    O58      O        0.50000    0.69150    0.39220    1.000
    O59      O        0.50000    0.30850    0.60780    1.000
    O60      O        0.50000    0.69150    0.60780    1.000
    O61      O        0.39220    0.50000    0.30850    1.000
    O62      O        0.39220    0.50000    0.69150    1.000
    O63      O        0.60780    0.50000    0.30850    1.000
    O64      O        0.60780    0.50000    0.69150    1.000
    O65      O        0.30850    0.39220    0.50000    1.000
    O66      O        0.69150    0.39220    0.50000    1.000
    O67      O        0.30850    0.60780    0.50000    1.000
    O68      O        0.69150    0.60780    0.50000    1.000
    O69      O        0.30850    0.50000    0.60780    1.000
    O70      O        0.69150    0.50000    0.60780    1.000
    O71      O        0.30850    0.50000    0.39220    1.000
    O72      O        0.69150    0.50000    0.39220    1.000
    O73      O        0.50000    0.39220    0.69150    1.000
    O74      O        0.50000    0.39220    0.30850    1.000
    O75      O        0.50000    0.60780    0.69150    1.000
    O76      O        0.50000    0.60780    0.30850    1.000
    O77      O        0.39220    0.30850    0.50000    1.000
    O78      O        0.39220    0.69150    0.50000    1.000
    O79      O        0.60780    0.30850    0.50000    1.000
    O80      O        0.60780    0.69150    0.50000    1.000
    C205     C        0.47250    0.27810    0.27810    1.000
    C206     C        0.44700    0.17990    0.17990    1.000
    C207     C        0.52750    0.72190    0.27810    1.000
    C208     C        0.55300    0.82010    0.17990    1.000
    C209     C        0.52750    0.27810    0.72190    1.000
    C210     C        0.55300    0.17990    0.82010    1.000
    C211     C        0.47250    0.72190    0.72190    1.000
    C212     C        0.44700    0.82010    0.82010    1.000
    C213     C        0.27810    0.47250    0.27810    1.000
    C214     C        0.17990    0.44700    0.17990    1.000
    C215     C        0.27810    0.52750    0.72190    1.000
    C216     C        0.17990    0.55300    0.82010    1.000
    C217     C        0.72190    0.52750    0.27810    1.000
    C218     C        0.82010    0.55300    0.17990    1.000
    C219     C        0.72190    0.47250    0.72190    1.000
    C220     C        0.82010    0.44700    0.82010    1.000
    C221     C        0.27810    0.27810    0.47250    1.000
    C222     C        0.17990    0.17990    0.44700    1.000
    C223     C        0.72190    0.27810    0.52750    1.000
    C224     C        0.82010    0.17990    0.55300    1.000
    C225     C        0.27810    0.72190    0.52750    1.000
    C226     C        0.17990    0.82010    0.55300    1.000
    C227     C        0.72190    0.72190    0.47250    1.000
    C228     C        0.82010    0.82010    0.44700    1.000
    C229     C        0.27810    0.47250    0.72190    1.000
    C230     C        0.17990    0.44700    0.82010    1.000
    C231     C        0.72190    0.52750    0.72190    1.000
    C232     C        0.82010    0.55300    0.82010    1.000
    C233     C        0.27810    0.52750    0.27810    1.000
    C234     C        0.17990    0.55300    0.17990    1.000
    C235     C        0.72190    0.47250    0.27810    1.000
    C236     C        0.82010    0.44700    0.17990    1.000
    C237     C        0.47250    0.27810    0.72190    1.000
    C238     C        0.44700    0.17990    0.82010    1.000
    C239     C        0.52750    0.27810    0.27810    1.000
    C240     C        0.55300    0.17990    0.17990    1.000
    C241     C        0.52750    0.72190    0.72190    1.000
    C242     C        0.55300    0.82010    0.82010    1.000
    C243     C        0.47250    0.72190    0.27810    1.000
    C244     C        0.44700    0.82010    0.17990    1.000
    C245     C        0.27810    0.27810    0.52750    1.000
    C246     C        0.17990    0.17990    0.55300    1.000
    C247     C        0.27810    0.72190    0.47250    1.000
    C248     C        0.17990    0.82010    0.44700    1.000
    C249     C        0.72190    0.27810    0.47250    1.000
    C250     C        0.82010    0.17990    0.44700    1.000
    C251     C        0.72190    0.72190    0.52750    1.000
    C252     C        0.82010    0.82010    0.55300    1.000
    C253     C        0.41080    0.06800    0.00000    1.000
    H201     H        0.41075    0.11594    0.00000    1.000
    C254     C        0.58920    0.93200    0.00000    1.000
    H202     H        0.58925    0.88405    0.00000    1.000
    C255     C        0.58920    0.06800    0.00000    1.000
    H203     H        0.58925    0.11594    0.00000    1.000
    C256     C        0.41080    0.93200    0.00000    1.000
    H204     H        0.41075    0.88405    0.00000    1.000
    C257     C        0.00000    0.41080    0.06800    1.000
    H205     H        0.00000    0.41075    0.11594    1.000
    C258     C        0.00000    0.58920    0.93200    1.000
    H206     H        0.00000    0.58925    0.88405    1.000
    C259     C        0.00000    0.58920    0.06800    1.000
    H207     H        0.00000    0.58925    0.11594    1.000
    C260     C        0.00000    0.41080    0.93200    1.000
    H208     H        0.00000    0.41075    0.88405    1.000
    C261     C        0.06800    0.00000    0.41080    1.000
    H209     H        0.11594    0.00000    0.41075    1.000
    C262     C        0.93200    0.00000    0.58920    1.000
    H210     H        0.88405    0.00000    0.58925    1.000
    C263     C        0.06800    0.00000    0.58920    1.000
    H211     H        0.11594    0.00000    0.58925    1.000
    C264     C        0.93200    0.00000    0.41080    1.000
    H212     H        0.88405    0.00000    0.41075    1.000
    C265     C        0.06800    0.41080    0.00000    1.000
    H213     H        0.11594    0.41075    0.00000    1.000
    C266     C        0.93200    0.58920    0.00000    1.000
    H214     H        0.88405    0.58925    0.00000    1.000
    C267     C        0.06800    0.58920    0.00000    1.000
    H215     H        0.11594    0.58925    0.00000    1.000
    C268     C        0.93200    0.41080    0.00000    1.000
    H216     H        0.88405    0.41075    0.00000    1.000
    C269     C        0.41080    0.00000    0.93200    1.000
    H217     H        0.41075    0.00000    0.88405    1.000
    C270     C        0.58920    0.00000    0.06800    1.000
    H218     H        0.58925    0.00000    0.11594    1.000
    C271     C        0.58920    0.00000    0.93200    1.000
    H219     H        0.58925    0.00000    0.88405    1.000
    C272     C        0.41080    0.00000    0.06800    1.000
    H220     H        0.41075    0.00000    0.11594    1.000
    C273     C        0.00000    0.06800    0.58920    1.000
    H221     H        0.00000    0.11594    0.58925    1.000
    C274     C        0.00000    0.93200    0.41080    1.000
    H222     H        0.00000    0.88405    0.41075    1.000
    C275     C        0.00000    0.06800    0.41080    1.000
    H223     H        0.00000    0.11594    0.41075    1.000
    C276     C        0.00000    0.93200    0.58920    1.000
    H224     H        0.00000    0.88405    0.58925    1.000
