# CIF file generated by openbabel 3.1.0, see https://openbabel.org
data_I
_chemical_name_common 'NEDWIE_clean'
_cell_length_a 15.6802
_cell_length_b 16.6187
_cell_length_c 16.8631
_cell_angle_alpha 98.782
_cell_angle_beta 109.215
_cell_angle_gamma 114.858
_space_group_name_H-M_alt 'P 1'
_space_group_name_Hall 'P 1'
loop_
    _symmetry_equiv_pos_as_xyz
    x,y,z
loop_
    _atom_site_label
    _atom_site_type_symbol
    _atom_site_fract_x
    _atom_site_fract_y
    _atom_site_fract_z
    _atom_site_occupancy
    Mn1      Mn       0.50000    0.50000    0.50000    1.000
    Ni1      Ni       0.33256    0.25061    0.40636    1.000
    Ni2      Ni       0.66744    0.74939    0.59364    1.000
    Ni3      Ni       0.50000    0.00000    0.50000    1.000
    H1       H        0.16780    0.24230    0.57190    1.000
    H2       H        0.08960    0.25930    0.66120    1.000
    H3       H        0.25800    0.53880    0.73620    1.000
    H4       H        0.33460    0.52410    0.64360    1.000
    H5       H        0.12400    0.52840    0.77750    1.000
    H6       H        0.22080    0.53300    0.85500    1.000
    H7       H        0.94950    0.35020    0.77760    1.000
    H8       H        0.92750    0.40410    0.84940    1.000
    H9       H        0.77620    0.30530    0.73260    1.000
    H10      H        0.60070    0.24590    0.63160    1.000
    H11      H        0.69320    0.46820    0.54490    1.000
    H12      H        0.86490    0.52790    0.64680    1.000
    H13      H        0.09990    0.35950    0.89470    1.000
    H14      H        0.19880    0.45880    0.96550    1.000
    H15      H        0.03570    0.26570    0.03510    1.000
    H16      H        0.13190    0.25320    0.16530    1.000
    H17      H        0.33650    0.52720    0.25900    1.000
    H18      H        0.24520    0.54450    0.12950    1.000
    H19      H        0.08750    0.60250    0.88990    1.000
    H20      H        0.06720    0.55730    0.96410    1.000
    H21      H        0.39340    0.71360    0.11780    1.000
    H22      H        0.45530    0.83390    0.24610    1.000
    H23      H        0.18130    0.82860    0.15380    1.000
    H24      H        0.11830    0.70810    0.02730    1.000
    H25      H        0.83220    0.75770    0.42810    1.000
    H26      H        0.91040    0.74070    0.33880    1.000
    H27      H        0.74200    0.46120    0.26380    1.000
    H28      H        0.66540    0.47590    0.35640    1.000
    H29      H        0.87600    0.47160    0.22250    1.000
    H30      H        0.77920    0.46700    0.14500    1.000
    H31      H        0.05050    0.64980    0.22240    1.000
    H32      H        0.07250    0.59590    0.15060    1.000
    H33      H        0.22380    0.69470    0.26740    1.000
    H34      H        0.39930    0.75410    0.36840    1.000
    H35      H        0.30680    0.53180    0.45510    1.000
    H36      H        0.13510    0.47210    0.35320    1.000
    H37      H        0.90010    0.64050    0.10530    1.000
    H38      H        0.80120    0.54120    0.03450    1.000
    H39      H        0.96430    0.73430    0.96490    1.000
    H40      H        0.86810    0.74680    0.83470    1.000
    H41      H        0.66350    0.47280    0.74100    1.000
    H42      H        0.75480    0.45550    0.87050    1.000
    H43      H        0.91250    0.39750    0.11010    1.000
    H44      H        0.93280    0.44270    0.03590    1.000
    H45      H        0.60660    0.28640    0.88220    1.000
    H46      H        0.54470    0.16610    0.75390    1.000
    H47      H        0.81870    0.17140    0.84620    1.000
    H48      H        0.88170    0.29190    0.97270    1.000
    C1       C        0.31100    0.37130    0.53890    1.000
    C2       C        0.25860    0.38130    0.59740    1.000
    C3       C        0.18640    0.30360    0.60480    1.000
    C4       C        0.14170    0.31380    0.65860    1.000
    C5       C        0.17040    0.40220    0.71020    1.000
    C6       C        0.23960    0.47780    0.70270    1.000
    C7       C        0.28470    0.46920    0.64750    1.000
    C8       C        0.14470    0.49420    0.81610    1.000
    C9       C        0.08460    0.47500    0.87210    1.000
    C10      C        0.96640    0.41290    0.81260    1.000
    C11      C        0.83600    0.41900    0.69710    1.000
    C12      C        0.75930    0.33800    0.69410    1.000
    C13      C        0.65450    0.30260    0.63380    1.000
    C14      C        0.62940    0.35000    0.57760    1.000
    C15      C        0.70960    0.43480    0.58280    1.000
    C16      C        0.81120    0.46960    0.64240    1.000
    C17      C        0.51970    0.31270    0.51640    1.000
    C18      C        0.12160    0.42310    0.93190    1.000
    C19      C        0.13070    0.40610    0.06770    1.000
    C20      C        0.09790    0.32000    0.07990    1.000
    C21      C        0.15560    0.31300    0.15770    1.000
    C22      C        0.24410    0.38750    0.22290    1.000
    C23      C        0.27560    0.47340    0.21240    1.000
    C24      C        0.22110    0.48410    0.13580    1.000
    C25      C        0.30610    0.37840    0.30740    1.000
    C26      C        0.10790    0.56830    0.92880    1.000
    C27      C        0.24940    0.69690    0.05990    1.000
    C28      C        0.34910    0.73610    0.12560    1.000
    C29      C        0.38550    0.80690    0.20200    1.000
    C30      C        0.32200    0.84030    0.21650    1.000
    C31      C        0.22420    0.80350    0.14780    1.000
    C32      C        0.18720    0.73320    0.07240    1.000
    C33      C        0.35750    0.90990    0.30440    1.000
    C34      C        0.68900    0.62870    0.46110    1.000
    C35      C        0.74140    0.61870    0.40260    1.000
    C36      C        0.81360    0.69640    0.39520    1.000
    C37      C        0.85830    0.68620    0.34140    1.000
    C38      C        0.82960    0.59780    0.28980    1.000
    C39      C        0.76040    0.52220    0.29730    1.000
    C40      C        0.71530    0.53080    0.35250    1.000
    C41      C        0.85530    0.50580    0.18390    1.000
    C42      C        0.91540    0.52500    0.12790    1.000
    C43      C        0.03360    0.58710    0.18740    1.000
    C44      C        0.16400    0.58100    0.30290    1.000
    C45      C        0.24070    0.66200    0.30590    1.000
    C46      C        0.34550    0.69740    0.36620    1.000
    C47      C        0.37060    0.65000    0.42240    1.000
    C48      C        0.29040    0.56520    0.41720    1.000
    C49      C        0.18880    0.53040    0.35760    1.000
    C50      C        0.48030    0.68730    0.48360    1.000
    C51      C        0.87840    0.57690    0.06810    1.000
    C52      C        0.86930    0.59390    0.93230    1.000
    C53      C        0.90210    0.68000    0.92010    1.000
    C54      C        0.84440    0.68700    0.84230    1.000
    C55      C        0.75590    0.61250    0.77710    1.000
    C56      C        0.72440    0.52660    0.78760    1.000
    C57      C        0.77890    0.51590    0.86420    1.000
    C58      C        0.69390    0.62160    0.69260    1.000
    C59      C        0.89210    0.43170    0.07120    1.000
    C60      C        0.75060    0.30310    0.94010    1.000
    C61      C        0.65090    0.26390    0.87440    1.000
    C62      C        0.61450    0.19310    0.79800    1.000
    C63      C        0.67800    0.15970    0.78350    1.000
    C64      C        0.77580    0.19650    0.85220    1.000
    C65      C        0.81280    0.26680    0.92760    1.000
    C66      C        0.64250    0.09010    0.69560    1.000
    O1       O        0.37290    0.44510    0.53540    1.000
    O2       O        0.28820    0.29030    0.49920    1.000
    O3       O        0.11920    0.40420    0.76260    1.000
    O4       O        0.93930    0.46090    0.75470    1.000
    O5       O        0.44880    0.23220    0.50420    1.000
    O6       O        0.49460    0.36350    0.47470    1.000
    O7       O        0.07450    0.41580    0.99260    1.000
    O8       O        0.26450    0.29960    0.31750    1.000
    O9       O        0.39310    0.44950    0.36130    1.000
    O10      O        0.21770    0.62360    0.98750    1.000
    O11      O        0.30150    0.94720    0.30670    1.000
    O12      O        0.43860    0.92550    0.36650    1.000
    O13      O        0.62710    0.55490    0.46460    1.000
    O14      O        0.71180    0.70970    0.50080    1.000
    O15      O        0.88080    0.59580    0.23740    1.000
    O16      O        0.06070    0.53910    0.24530    1.000
    O17      O        0.55120    0.76780    0.49580    1.000
    O18      O        0.50540    0.63650    0.52530    1.000
    O19      O        0.92550    0.58420    0.00740    1.000
    O20      O        0.73550    0.70040    0.68250    1.000
    O21      O        0.60690    0.55050    0.63870    1.000
    O22      O        0.78230    0.37640    0.01250    1.000
    O23      O        0.69850    0.05280    0.69330    1.000
    O24      O        0.56140    0.07450    0.63350    1.000
