data_functionalizedCrystal
_audit_creation_method	'EQeq! by Chris Wilmer'
_symmetry_space_group_name_H-M	'P1'
_symmetry_Int_Tables_number	1
_symmetry_cell_setting	triclinic
loop_
_symmetry_equiv_pos_as_xyz
  x,y,z
_cell_length_a	4.9387
_cell_length_b	8.1856
_cell_length_c	12.06
_cell_angle_alpha	90
_cell_angle_beta	90
_cell_angle_gamma	92.045
loop_
_atom_site_label
_atom_site_type_symbol
_atom_site_fract_x
_atom_site_fract_y
_atom_site_fract_z
_atom_site_charge
Mof_Al	Al	0.7544	0.8618	0.25	4.763
Mof_Al	Al	0.2456	0.1382	0.75	4.156
Mof_Al	Al	0.5	-6.4763e-33	0.5	3.282
Mof_Al	Al	0.5	0	-0	2.533
Mof_P 	P 	0.991	0.7659	0.48247	0.802
Mof_P 	P 	0.009	0.2341	0.98247	1.035
Mof_P 	P 	0.009	0.2341	0.51753	0.827
Mof_P 	P 	0.991	0.7659	0.01753	0.475
Mof_H 	H 	0.696	0.551	0.528	0.039
Mof_H 	H 	0.937	0.565	0.618	0.062
Mof_H 	H 	0.304	0.449	0.028	0.023
Mof_H 	H 	0.063	0.435	0.118	0.042
Mof_H 	H 	0.304	0.449	0.472	0
Mof_H 	H 	0.063	0.435	0.382	-0.018
Mof_H 	H 	0.696	0.551	0.972	0.019
Mof_H 	H 	0.937	0.565	0.882	0.001
Mof_C 	C 	0.918	0.5644	0.5314	-0.236
Mof_C 	C 	0.082	0.4356	0.0314	-0.382
Mof_C 	C 	0.082	0.4356	0.4686	-0.107
Mof_C 	C 	0.918	0.5644	0.9686	0.053
Mof_O 	O 	0.7972	0.8782	0.5418	-0.601
Mof_O 	O 	0.282	0.8077	0.5083	-0.648
Mof_O 	O 	0.9464	0.7629	0.3571	-1.305
Mof_O 	O 	0.2028	0.1218	0.0418	-1.102
Mof_O 	O 	0.718	0.1923	0.0083	-1.036
Mof_O 	O 	0.0536	0.2371	0.8571	-1.219
Mof_O 	O 	0.2028	0.1218	0.4582	-1.137
Mof_O 	O 	0.718	0.1923	0.4917	-1.041
Mof_O 	O 	0.0536	0.2371	0.6429	-1.219
Mof_O 	O 	0.7972	0.8782	0.9582	-0.342
Mof_O 	O 	0.282	0.8077	0.9917	-0.374
Mof_O 	O 	0.9464	0.7629	0.1429	-1.27
Mof_F 	F 	0.5572	0.9642	0.3528	-1.403
Mof_F 	F 	0.4428	0.0358	0.8528	-1.612
Mof_F 	F 	0.4428	0.0358	0.6472	-1.748
Mof_F 	F 	0.5572	0.9642	0.1472	-1.312
_end
