data_functionalizedCrystal
_audit_creation_method	'EQeq! by Chris Wilmer'
_symmetry_space_group_name_H-M	'P1'
_symmetry_Int_Tables_number	1
_symmetry_cell_setting	triclinic
loop_
_symmetry_equiv_pos_as_xyz
  x,y,z
_cell_length_a	19.2907
_cell_length_b	19.2907
_cell_length_c	19.2907
_cell_angle_alpha	90
_cell_angle_beta	90
_cell_angle_gamma	90
loop_
_atom_site_label
_atom_site_type_symbol
_atom_site_fract_x
_atom_site_fract_y
_atom_site_fract_z
_atom_site_charge
Mof_V 	V 	0.75509	0.39102	0.14242	1.753
Mof_O 	O 	0.80451	0.48174	0.15148	-0.559
Mof_O 	O 	0.80893	0.80864	0.1371	-0.559
Mof_O 	O 	0.74087	0.72206	0.10263	-0.562
Mof_O 	O 	0.89115	0.45975	0.22602	-0.568
Mof_C 	C 	0.7953	0.74479	0.13075	0.451
Mof_C 	C 	0.855	0.50048	0.18967	0.456
Mof_C 	C 	0.84526	0.69392	0.16074	-0.193
Mof_C 	C 	0.8304	0.62343	0.15697	0.125
Mof_H 	H 	0.79249	0.60811	0.13144	0.008
Mof_C 	C 	0.87225	0.57596	0.19139	-0.189
Mof_C 	C 	0.9287	0.5992	0.2301	0.107
Mof_H 	H 	0.956	0.5675	0.2541	0.001
Mof_C 	C 	0.903	0.7167	0.1977	0.109
Mof_H 	H 	0.914	0.7636	0.1988	0
Mof_C 	C 	0.9441	0.6693	0.2328	-0.17
Mof_H 	H 	0.9822	0.6845	0.2582	0.093
Mof_V 	V 	0.74491	0.60898	0.64242	1.754
Mof_O 	O 	0.69549	0.51826	0.65148	-0.558
Mof_O 	O 	0.69107	0.19136	0.6371	-0.558
Mof_O 	O 	0.75913	0.27794	0.60263	-0.562
Mof_O 	O 	0.60885	0.54025	0.72602	-0.567
Mof_C 	C 	0.7047	0.25521	0.63075	0.452
Mof_C 	C 	0.645	0.49952	0.68967	0.457
Mof_C 	C 	0.65474	0.30608	0.66074	-0.193
Mof_C 	C 	0.6696	0.37657	0.65697	0.125
Mof_H 	H 	0.70751	0.39189	0.63144	0.008
Mof_C 	C 	0.62775	0.42404	0.69139	-0.19
Mof_C 	C 	0.5713	0.4008	0.7301	0.107
Mof_H 	H 	0.544	0.4325	0.7541	0.001
Mof_C 	C 	0.597	0.2833	0.6977	0.109
Mof_H 	H 	0.586	0.2364	0.6988	0
Mof_C 	C 	0.5559	0.3307	0.7328	-0.17
Mof_H 	H 	0.5178	0.3155	0.7582	0.093
Mof_V 	V 	0.24491	0.89102	0.35758	1.754
Mof_O 	O 	0.19549	0.98174	0.34852	-0.554
Mof_O 	O 	0.19107	0.30864	0.3629	-0.558
Mof_O 	O 	0.25913	0.22206	0.39737	-0.562
Mof_O 	O 	0.10885	0.95975	0.27398	-0.562
Mof_C 	C 	0.2047	0.24479	0.36925	0.451
Mof_C 	C 	0.145	0.00048	0.31033	0.448
Mof_C 	C 	0.15474	0.19392	0.33926	-0.192
Mof_C 	C 	0.1696	0.12343	0.34303	0.123
Mof_H 	H 	0.20751	0.10811	0.36856	0.008
Mof_C 	C 	0.12775	0.07596	0.30861	-0.187
Mof_C 	C 	0.0713	0.0992	0.2699	0.105
Mof_H 	H 	0.044	0.0675	0.2459	-0
Mof_C 	C 	0.097	0.2167	0.3023	0.107
Mof_H 	H 	0.086	0.2636	0.3012	0
Mof_C 	C 	0.0559	0.1693	0.2672	-0.169
Mof_H 	H 	0.0178	0.1845	0.2418	0.091
Mof_V 	V 	0.25509	0.10898	0.85758	1.754
Mof_O 	O 	0.30451	0.01826	0.84852	-0.557
Mof_O 	O 	0.30893	0.69136	0.8629	-0.558
Mof_O 	O 	0.24087	0.77794	0.89737	-0.562
Mof_O 	O 	0.39115	0.04025	0.77398	-0.565
Mof_C 	C 	0.2953	0.75521	0.86925	0.451
Mof_C 	C 	0.355	0.99952	0.81033	0.454
Mof_C 	C 	0.34526	0.80608	0.83926	-0.193
Mof_C 	C 	0.3304	0.87657	0.84303	0.124
Mof_H 	H 	0.29249	0.89189	0.86856	0.008
Mof_C 	C 	0.37225	0.92404	0.80861	-0.189
Mof_C 	C 	0.4287	0.9008	0.7699	0.107
Mof_H 	H 	0.456	0.9325	0.7459	0.001
Mof_C 	C 	0.403	0.7833	0.8023	0.108
Mof_H 	H 	0.414	0.7364	0.8012	0
Mof_C 	C 	0.4441	0.8307	0.7672	-0.17
Mof_H 	H 	0.4822	0.8155	0.7418	0.093
Mof_V 	V 	0.14242	0.75509	0.39102	1.754
Mof_O 	O 	0.15148	0.80451	0.48174	-0.558
Mof_O 	O 	0.1371	0.80893	0.80864	-0.558
Mof_O 	O 	0.10263	0.74087	0.72206	-0.561
Mof_O 	O 	0.22602	0.89115	0.45975	-0.567
Mof_C 	C 	0.13075	0.7953	0.74479	0.452
Mof_C 	C 	0.18967	0.855	0.50048	0.457
Mof_C 	C 	0.16074	0.84526	0.69392	-0.192
Mof_C 	C 	0.15697	0.8304	0.62343	0.125
Mof_H 	H 	0.13144	0.79249	0.60811	0.008
Mof_C 	C 	0.19139	0.87225	0.57596	-0.189
Mof_C 	C 	0.2301	0.9287	0.5992	0.107
Mof_H 	H 	0.2541	0.956	0.5675	0.001
Mof_C 	C 	0.1977	0.903	0.7167	0.109
Mof_H 	H 	0.1988	0.914	0.7636	0
Mof_C 	C 	0.2328	0.9441	0.6693	-0.17
Mof_H 	H 	0.2582	0.9822	0.6845	0.093
Mof_V 	V 	0.64242	0.74491	0.60898	1.754
Mof_O 	O 	0.65148	0.69549	0.51826	-0.558
Mof_O 	O 	0.6371	0.69107	0.19136	-0.558
Mof_O 	O 	0.60263	0.75913	0.27794	-0.562
Mof_O 	O 	0.72602	0.60885	0.54025	-0.567
Mof_C 	C 	0.63075	0.7047	0.25521	0.452
Mof_C 	C 	0.68967	0.645	0.49952	0.457
Mof_C 	C 	0.66074	0.65474	0.30608	-0.193
Mof_C 	C 	0.65697	0.6696	0.37657	0.125
Mof_H 	H 	0.63144	0.70751	0.39189	0.008
Mof_C 	C 	0.69139	0.62775	0.42404	-0.19
Mof_C 	C 	0.7301	0.5713	0.4008	0.107
Mof_H 	H 	0.7541	0.544	0.4325	0.001
Mof_C 	C 	0.6977	0.597	0.2833	0.109
Mof_H 	H 	0.6988	0.586	0.2364	0
Mof_C 	C 	0.7328	0.5559	0.3307	-0.17
Mof_H 	H 	0.7582	0.5178	0.3155	0.093
Mof_V 	V 	0.35758	0.24491	0.89102	1.754
Mof_O 	O 	0.34852	0.19549	0.98174	-0.554
Mof_O 	O 	0.3629	0.19107	0.30864	-0.558
Mof_O 	O 	0.39737	0.25913	0.22206	-0.562
Mof_O 	O 	0.27398	0.10885	0.95975	-0.562
Mof_C 	C 	0.36925	0.2047	0.24479	0.451
Mof_C 	C 	0.31033	0.145	0.00048	0.448
Mof_C 	C 	0.33926	0.15474	0.19392	-0.192
Mof_C 	C 	0.34303	0.1696	0.12343	0.123
Mof_H 	H 	0.36856	0.20751	0.10811	0.008
Mof_C 	C 	0.30861	0.12775	0.07596	-0.187
Mof_C 	C 	0.2699	0.0713	0.0992	0.105
Mof_H 	H 	0.2459	0.044	0.0675	-0
Mof_C 	C 	0.3023	0.097	0.2167	0.107
Mof_H 	H 	0.3012	0.086	0.2636	0
Mof_C 	C 	0.2672	0.0559	0.1693	-0.169
Mof_H 	H 	0.2418	0.0178	0.1845	0.091
Mof_V 	V 	0.85758	0.25509	0.10898	1.754
Mof_O 	O 	0.84852	0.30451	0.01826	-0.557
Mof_O 	O 	0.8629	0.30893	0.69136	-0.558
Mof_O 	O 	0.89737	0.24087	0.77794	-0.562
Mof_O 	O 	0.77398	0.39115	0.04025	-0.565
Mof_C 	C 	0.86925	0.2953	0.75521	0.451
Mof_C 	C 	0.81033	0.355	0.99952	0.454
Mof_C 	C 	0.83926	0.34526	0.80608	-0.193
Mof_C 	C 	0.84303	0.3304	0.87657	0.124
Mof_H 	H 	0.86856	0.29249	0.89189	0.008
Mof_C 	C 	0.80861	0.37225	0.92404	-0.189
Mof_C 	C 	0.7699	0.4287	0.9008	0.107
Mof_H 	H 	0.7459	0.456	0.9325	0.001
Mof_C 	C 	0.8023	0.403	0.7833	0.108
Mof_H 	H 	0.8012	0.414	0.7364	0
Mof_C 	C 	0.7672	0.4441	0.8307	-0.17
Mof_H 	H 	0.7418	0.4822	0.8155	0.093
Mof_V 	V 	0.39102	0.14242	0.75509	1.754
Mof_O 	O 	0.48174	0.15148	0.80451	-0.558
Mof_O 	O 	0.80864	0.1371	0.80893	-0.558
Mof_O 	O 	0.72206	0.10263	0.74087	-0.561
Mof_O 	O 	0.45975	0.22602	0.89115	-0.567
Mof_C 	C 	0.74479	0.13075	0.7953	0.452
Mof_C 	C 	0.50048	0.18967	0.855	0.457
Mof_C 	C 	0.69392	0.16074	0.84526	-0.192
Mof_C 	C 	0.62343	0.15697	0.8304	0.125
Mof_H 	H 	0.60811	0.13144	0.79249	0.008
Mof_C 	C 	0.57596	0.19139	0.87225	-0.189
Mof_C 	C 	0.5992	0.2301	0.9287	0.107
Mof_H 	H 	0.5675	0.2541	0.956	0.001
Mof_C 	C 	0.7167	0.1977	0.903	0.109
Mof_H 	H 	0.7636	0.1988	0.914	0
Mof_C 	C 	0.6693	0.2328	0.9441	-0.17
Mof_H 	H 	0.6845	0.2582	0.9822	0.093
Mof_V 	V 	0.60898	0.64242	0.74491	1.754
Mof_O 	O 	0.51826	0.65148	0.69549	-0.558
Mof_O 	O 	0.19136	0.6371	0.69107	-0.558
Mof_O 	O 	0.27794	0.60263	0.75913	-0.562
Mof_O 	O 	0.54025	0.72602	0.60885	-0.567
Mof_C 	C 	0.25521	0.63075	0.7047	0.452
Mof_C 	C 	0.49952	0.68967	0.645	0.457
Mof_C 	C 	0.30608	0.66074	0.65474	-0.193
Mof_C 	C 	0.37657	0.65697	0.6696	0.125
Mof_H 	H 	0.39189	0.63144	0.70751	0.008
Mof_C 	C 	0.42404	0.69139	0.62775	-0.19
Mof_C 	C 	0.4008	0.7301	0.5713	0.107
Mof_H 	H 	0.4325	0.7541	0.544	0.001
Mof_C 	C 	0.2833	0.6977	0.597	0.109
Mof_H 	H 	0.2364	0.6988	0.586	0
Mof_C 	C 	0.3307	0.7328	0.5559	-0.17
Mof_H 	H 	0.3155	0.7582	0.5178	0.093
Mof_V 	V 	0.89102	0.35758	0.24491	1.754
Mof_O 	O 	0.98174	0.34852	0.19549	-0.554
Mof_O 	O 	0.30864	0.3629	0.19107	-0.558
Mof_O 	O 	0.22206	0.39737	0.25913	-0.562
Mof_O 	O 	0.95975	0.27398	0.10885	-0.562
Mof_C 	C 	0.24479	0.36925	0.2047	0.451
Mof_C 	C 	0.00048	0.31033	0.145	0.448
Mof_C 	C 	0.19392	0.33926	0.15474	-0.192
Mof_C 	C 	0.12343	0.34303	0.1696	0.123
Mof_H 	H 	0.10811	0.36856	0.20751	0.008
Mof_C 	C 	0.07596	0.30861	0.12775	-0.187
Mof_C 	C 	0.0992	0.2699	0.0713	0.105
Mof_H 	H 	0.0675	0.2459	0.044	-0
Mof_C 	C 	0.2167	0.3023	0.097	0.107
Mof_H 	H 	0.2636	0.3012	0.086	0
Mof_C 	C 	0.1693	0.2672	0.0559	-0.169
Mof_H 	H 	0.1845	0.2418	0.0178	0.091
Mof_V 	V 	0.10898	0.85758	0.25509	1.754
Mof_O 	O 	0.01826	0.84852	0.30451	-0.557
Mof_O 	O 	0.69136	0.8629	0.30893	-0.558
Mof_O 	O 	0.77794	0.89737	0.24087	-0.562
Mof_O 	O 	0.04025	0.77398	0.39115	-0.565
Mof_C 	C 	0.75521	0.86925	0.2953	0.451
Mof_C 	C 	0.99952	0.81033	0.355	0.454
Mof_C 	C 	0.80608	0.83926	0.34526	-0.193
Mof_C 	C 	0.87657	0.84303	0.3304	0.124
Mof_H 	H 	0.89189	0.86856	0.29249	0.008
Mof_C 	C 	0.92404	0.80861	0.37225	-0.189
Mof_C 	C 	0.9008	0.7699	0.4287	0.107
Mof_H 	H 	0.9325	0.7459	0.456	0.001
Mof_C 	C 	0.7833	0.8023	0.403	0.108
Mof_H 	H 	0.7364	0.8012	0.414	0
Mof_C 	C 	0.8307	0.7672	0.4441	-0.17
Mof_H 	H 	0.8155	0.7418	0.4822	0.093
Mof_V 	V 	0.24491	0.60898	0.85758	1.754
Mof_O 	O 	0.19549	0.51826	0.84852	-0.558
Mof_O 	O 	0.19107	0.19136	0.8629	-0.558
Mof_O 	O 	0.25913	0.27794	0.89737	-0.561
Mof_O 	O 	0.10885	0.54025	0.77398	-0.567
Mof_C 	C 	0.2047	0.25521	0.86925	0.452
Mof_C 	C 	0.145	0.49952	0.81033	0.457
Mof_C 	C 	0.15474	0.30608	0.83926	-0.192
Mof_C 	C 	0.1696	0.37657	0.84303	0.125
Mof_H 	H 	0.20751	0.39189	0.86856	0.008
Mof_C 	C 	0.12775	0.42404	0.80861	-0.189
Mof_C 	C 	0.0713	0.4008	0.7699	0.107
Mof_H 	H 	0.044	0.4325	0.7459	0.001
Mof_C 	C 	0.097	0.2833	0.8023	0.109
Mof_H 	H 	0.086	0.2364	0.8012	0
Mof_C 	C 	0.0559	0.3307	0.7672	-0.17
Mof_H 	H 	0.0178	0.3155	0.7418	0.093
Mof_V 	V 	0.25509	0.39102	0.35758	1.754
Mof_O 	O 	0.30451	0.48174	0.34852	-0.558
Mof_O 	O 	0.30893	0.80864	0.3629	-0.558
Mof_O 	O 	0.24087	0.72206	0.39737	-0.562
Mof_O 	O 	0.39115	0.45975	0.27398	-0.567
Mof_C 	C 	0.2953	0.74479	0.36925	0.452
Mof_C 	C 	0.355	0.50048	0.31033	0.457
Mof_C 	C 	0.34526	0.69392	0.33926	-0.193
Mof_C 	C 	0.3304	0.62343	0.34303	0.125
Mof_H 	H 	0.29249	0.60811	0.36856	0.008
Mof_C 	C 	0.37225	0.57596	0.30861	-0.19
Mof_C 	C 	0.4287	0.5992	0.2699	0.107
Mof_H 	H 	0.456	0.5675	0.2459	0.001
Mof_C 	C 	0.403	0.7167	0.3023	0.109
Mof_H 	H 	0.414	0.7636	0.3012	0
Mof_C 	C 	0.4441	0.6693	0.2672	-0.17
Mof_H 	H 	0.4822	0.6845	0.2418	0.093
Mof_V 	V 	0.75509	0.10898	0.64242	1.754
Mof_O 	O 	0.80451	0.01826	0.65148	-0.554
Mof_O 	O 	0.80893	0.69136	0.6371	-0.558
Mof_O 	O 	0.74087	0.77794	0.60263	-0.562
Mof_O 	O 	0.89115	0.04025	0.72602	-0.562
Mof_C 	C 	0.7953	0.75521	0.63075	0.451
Mof_C 	C 	0.855	0.99952	0.68967	0.448
Mof_C 	C 	0.84526	0.80608	0.66074	-0.192
Mof_C 	C 	0.8304	0.87657	0.65697	0.123
Mof_H 	H 	0.79249	0.89189	0.63144	0.008
Mof_C 	C 	0.87225	0.92404	0.69139	-0.187
Mof_C 	C 	0.9287	0.9008	0.7301	0.105
Mof_H 	H 	0.956	0.9325	0.7541	-0
Mof_C 	C 	0.903	0.7833	0.6977	0.107
Mof_H 	H 	0.914	0.7364	0.6988	0
Mof_C 	C 	0.9441	0.8307	0.7328	-0.169
Mof_H 	H 	0.9822	0.8155	0.7582	0.091
Mof_V 	V 	0.74491	0.89102	0.14242	1.754
Mof_O 	O 	0.69549	0.98174	0.15148	-0.557
Mof_O 	O 	0.69107	0.30864	0.1371	-0.558
Mof_O 	O 	0.75913	0.22206	0.10263	-0.562
Mof_O 	O 	0.60885	0.95975	0.22602	-0.565
Mof_C 	C 	0.7047	0.24479	0.13075	0.451
Mof_C 	C 	0.645	0.00048	0.18967	0.454
Mof_C 	C 	0.65474	0.19392	0.16074	-0.193
Mof_C 	C 	0.6696	0.12343	0.15697	0.124
Mof_H 	H 	0.70751	0.10811	0.13144	0.008
Mof_C 	C 	0.62775	0.07596	0.19139	-0.189
Mof_C 	C 	0.5713	0.0992	0.2301	0.107
Mof_H 	H 	0.544	0.0675	0.2541	0.001
Mof_C 	C 	0.597	0.2167	0.1977	0.108
Mof_H 	H 	0.586	0.2636	0.1988	0
Mof_C 	C 	0.5559	0.1693	0.2328	-0.17
Mof_H 	H 	0.5178	0.1845	0.2582	0.093
Mof_V 	V 	0.85758	0.24491	0.60898	1.754
Mof_O 	O 	0.84852	0.19549	0.51826	-0.558
Mof_O 	O 	0.8629	0.19107	0.19136	-0.558
Mof_O 	O 	0.89737	0.25913	0.27794	-0.561
Mof_O 	O 	0.77398	0.10885	0.54025	-0.567
Mof_C 	C 	0.86925	0.2047	0.25521	0.452
Mof_C 	C 	0.81033	0.145	0.49952	0.457
Mof_C 	C 	0.83926	0.15474	0.30608	-0.192
Mof_C 	C 	0.84303	0.1696	0.37657	0.125
Mof_H 	H 	0.86856	0.20751	0.39189	0.008
Mof_C 	C 	0.80861	0.12775	0.42404	-0.189
Mof_C 	C 	0.7699	0.0713	0.4008	0.107
Mof_H 	H 	0.7459	0.044	0.4325	0.001
Mof_C 	C 	0.8023	0.097	0.2833	0.109
Mof_H 	H 	0.8012	0.086	0.2364	0
Mof_C 	C 	0.7672	0.0559	0.3307	-0.17
Mof_H 	H 	0.7418	0.0178	0.3155	0.093
Mof_V 	V 	0.35758	0.25509	0.39102	1.754
Mof_O 	O 	0.34852	0.30451	0.48174	-0.558
Mof_O 	O 	0.3629	0.30893	0.80864	-0.558
Mof_O 	O 	0.39737	0.24087	0.72206	-0.562
Mof_O 	O 	0.27398	0.39115	0.45975	-0.567
Mof_C 	C 	0.36925	0.2953	0.74479	0.452
Mof_C 	C 	0.31033	0.355	0.50048	0.457
Mof_C 	C 	0.33926	0.34526	0.69392	-0.193
Mof_C 	C 	0.34303	0.3304	0.62343	0.125
Mof_H 	H 	0.36856	0.29249	0.60811	0.008
Mof_C 	C 	0.30861	0.37225	0.57596	-0.19
Mof_C 	C 	0.2699	0.4287	0.5992	0.107
Mof_H 	H 	0.2459	0.456	0.5675	0.001
Mof_C 	C 	0.3023	0.403	0.7167	0.109
Mof_H 	H 	0.3012	0.414	0.7636	0
Mof_C 	C 	0.2672	0.4441	0.6693	-0.17
Mof_H 	H 	0.2418	0.4822	0.6845	0.093
Mof_V 	V 	0.64242	0.75509	0.10898	1.754
Mof_O 	O 	0.65148	0.80451	0.01826	-0.554
Mof_O 	O 	0.6371	0.80893	0.69136	-0.558
Mof_O 	O 	0.60263	0.74087	0.77794	-0.562
Mof_O 	O 	0.72602	0.89115	0.04025	-0.562
Mof_C 	C 	0.63075	0.7953	0.75521	0.451
Mof_C 	C 	0.68967	0.855	0.99952	0.448
Mof_C 	C 	0.66074	0.84526	0.80608	-0.192
Mof_C 	C 	0.65697	0.8304	0.87657	0.123
Mof_H 	H 	0.63144	0.79249	0.89189	0.008
Mof_C 	C 	0.69139	0.87225	0.92404	-0.187
Mof_C 	C 	0.7301	0.9287	0.9008	0.105
Mof_H 	H 	0.7541	0.956	0.9325	-0
Mof_C 	C 	0.6977	0.903	0.7833	0.107
Mof_H 	H 	0.6988	0.914	0.7364	0
Mof_C 	C 	0.7328	0.9441	0.8307	-0.169
Mof_H 	H 	0.7582	0.9822	0.8155	0.091
Mof_V 	V 	0.14242	0.74491	0.89102	1.754
Mof_O 	O 	0.15148	0.69549	0.98174	-0.557
Mof_O 	O 	0.1371	0.69107	0.30864	-0.558
Mof_O 	O 	0.10263	0.75913	0.22206	-0.562
Mof_O 	O 	0.22602	0.60885	0.95975	-0.565
Mof_C 	C 	0.13075	0.7047	0.24479	0.451
Mof_C 	C 	0.18967	0.645	0.00048	0.454
Mof_C 	C 	0.16074	0.65474	0.19392	-0.193
Mof_C 	C 	0.15697	0.6696	0.12343	0.124
Mof_H 	H 	0.13144	0.70751	0.10811	0.008
Mof_C 	C 	0.19139	0.62775	0.07596	-0.189
Mof_C 	C 	0.2301	0.5713	0.0992	0.107
Mof_H 	H 	0.2541	0.544	0.0675	0.001
Mof_C 	C 	0.1977	0.597	0.2167	0.108
Mof_H 	H 	0.1988	0.586	0.2636	0
Mof_C 	C 	0.2328	0.5559	0.1693	-0.17
Mof_H 	H 	0.2582	0.5178	0.1845	0.093
Mof_V 	V 	0.60898	0.85758	0.24491	1.754
Mof_O 	O 	0.51826	0.84852	0.19549	-0.558
Mof_O 	O 	0.19136	0.8629	0.19107	-0.558
Mof_O 	O 	0.27794	0.89737	0.25913	-0.561
Mof_O 	O 	0.54025	0.77398	0.10885	-0.567
Mof_C 	C 	0.25521	0.86925	0.2047	0.452
Mof_C 	C 	0.49952	0.81033	0.145	0.457
Mof_C 	C 	0.30608	0.83926	0.15474	-0.192
Mof_C 	C 	0.37657	0.84303	0.1696	0.125
Mof_H 	H 	0.39189	0.86856	0.20751	0.008
Mof_C 	C 	0.42404	0.80861	0.12775	-0.189
Mof_C 	C 	0.4008	0.7699	0.0713	0.107
Mof_H 	H 	0.4325	0.7459	0.044	0.001
Mof_C 	C 	0.2833	0.8023	0.097	0.109
Mof_H 	H 	0.2364	0.8012	0.086	0
Mof_C 	C 	0.3307	0.7672	0.0559	-0.17
Mof_H 	H 	0.3155	0.7418	0.0178	0.093
Mof_V 	V 	0.39102	0.35758	0.25509	1.754
Mof_O 	O 	0.48174	0.34852	0.30451	-0.558
Mof_O 	O 	0.80864	0.3629	0.30893	-0.558
Mof_O 	O 	0.72206	0.39737	0.24087	-0.562
Mof_O 	O 	0.45975	0.27398	0.39115	-0.567
Mof_C 	C 	0.74479	0.36925	0.2953	0.452
Mof_C 	C 	0.50048	0.31033	0.355	0.457
Mof_C 	C 	0.69392	0.33926	0.34526	-0.193
Mof_C 	C 	0.62343	0.34303	0.3304	0.125
Mof_H 	H 	0.60811	0.36856	0.29249	0.008
Mof_C 	C 	0.57596	0.30861	0.37225	-0.19
Mof_C 	C 	0.5992	0.2699	0.4287	0.107
Mof_H 	H 	0.5675	0.2459	0.456	0.001
Mof_C 	C 	0.7167	0.3023	0.403	0.109
Mof_H 	H 	0.7636	0.3012	0.414	0
Mof_C 	C 	0.6693	0.2672	0.4441	-0.17
Mof_H 	H 	0.6845	0.2418	0.4822	0.093
Mof_V 	V 	0.10898	0.64242	0.75509	1.754
Mof_O 	O 	0.01826	0.65148	0.80451	-0.554
Mof_O 	O 	0.69136	0.6371	0.80893	-0.558
Mof_O 	O 	0.77794	0.60263	0.74087	-0.562
Mof_O 	O 	0.04025	0.72602	0.89115	-0.562
Mof_C 	C 	0.75521	0.63075	0.7953	0.451
Mof_C 	C 	0.99952	0.68967	0.855	0.448
Mof_C 	C 	0.80608	0.66074	0.84526	-0.192
Mof_C 	C 	0.87657	0.65697	0.8304	0.123
Mof_H 	H 	0.89189	0.63144	0.79249	0.008
Mof_C 	C 	0.92404	0.69139	0.87225	-0.187
Mof_C 	C 	0.9008	0.7301	0.9287	0.105
Mof_H 	H 	0.9325	0.7541	0.956	-0
Mof_C 	C 	0.7833	0.6977	0.903	0.107
Mof_H 	H 	0.7364	0.6988	0.914	0
Mof_C 	C 	0.8307	0.7328	0.9441	-0.169
Mof_H 	H 	0.8155	0.7582	0.9822	0.091
Mof_V 	V 	0.89102	0.14242	0.74491	1.754
Mof_O 	O 	0.98174	0.15148	0.69549	-0.557
Mof_O 	O 	0.30864	0.1371	0.69107	-0.558
Mof_O 	O 	0.22206	0.10263	0.75913	-0.562
Mof_O 	O 	0.95975	0.22602	0.60885	-0.565
Mof_C 	C 	0.24479	0.13075	0.7047	0.451
Mof_C 	C 	0.00048	0.18967	0.645	0.454
Mof_C 	C 	0.19392	0.16074	0.65474	-0.193
Mof_C 	C 	0.12343	0.15697	0.6696	0.124
Mof_H 	H 	0.10811	0.13144	0.70751	0.008
Mof_C 	C 	0.07596	0.19139	0.62775	-0.189
Mof_C 	C 	0.0992	0.2301	0.5713	0.107
Mof_H 	H 	0.0675	0.2541	0.544	0.001
Mof_C 	C 	0.2167	0.1977	0.597	0.108
Mof_H 	H 	0.2636	0.1988	0.586	0
Mof_C 	C 	0.1693	0.2328	0.5559	-0.17
Mof_H 	H 	0.1845	0.2582	0.5178	0.093
Mof_O 	O 	0.83494	0.33494	0.16506	-0.92
Mof_O 	O 	0.66506	0.66506	0.66506	-0.92
Mof_O 	O 	0.16506	0.83494	0.33494	-0.92
Mof_O 	O 	0.33494	0.16506	0.83494	-0.92
Mof_O 	O 	0.16506	0.66506	0.83494	-0.92
Mof_O 	O 	0.33494	0.33494	0.33494	-0.92
Mof_O 	O 	0.83494	0.16506	0.66506	-0.92
Mof_O 	O 	0.66506	0.83494	0.16506	-0.92
_end
