data_functionalizedCrystal
_audit_creation_method	'EQeq! by Chris Wilmer'
_symmetry_space_group_name_H-M	'P1'
_symmetry_Int_Tables_number	1
_symmetry_cell_setting	triclinic
loop_
_symmetry_equiv_pos_as_xyz
  x,y,z
_cell_length_a	12.2
_cell_length_b	26.58
_cell_length_c	18.62
_cell_angle_alpha	90
_cell_angle_beta	104.82
_cell_angle_gamma	90
loop_
_atom_site_label
_atom_site_type_symbol
_atom_site_fract_x
_atom_site_fract_y
_atom_site_fract_z
_atom_site_charge
Mof_Cd	Cd	0.78404	0.82999	0.79638	0.449
Mof_Cd	Cd	0.38388	0.67129	0.77853	0.428
Mof_O 	O 	0.2153	0.6227	0.73	-0.305
Mof_O 	O 	0.9242	0.8761	0.7524	-0.263
Mof_O 	O 	0.345	0.596	0.8216	-0.3
Mof_C 	C 	0.5615	0.8192	0.6644	0.004
Mof_H 	H 	0.5368	0.8043	0.7027	0.057
Mof_O 	O 	0.3068	0.73	0.8365	-0.266
Mof_O 	O 	0.8591	0.9049	0.8444	-0.272
Mof_O 	O 	0.9035	0.767	0.8413	-0.297
Mof_N 	N 	0.6691	0.834	0.873	-0.14
Mof_N 	N 	0.432	0.6619	0.6704	-0.131
Mof_O 	O 	0.3686	0.7583	0.7408	-0.251
Mof_O 	O 	0.7522	0.7421	0.7607	-0.264
Mof_C 	C 	0.5352	0.8387	0.9734	0.028
Mof_C 	C 	0.0135	0.6764	0.844	0.026
Mof_H 	H 	0.0486	0.7002	0.879	0.048
Mof_N 	N 	0.663	0.8403	0.684	-0.134
Mof_C 	C 	0.2509	0.5937	0.7764	0.371
Mof_C 	C 	0.2887	0.8549	0.7551	0.023
Mof_H 	H 	0.3302	0.8501	0.7201	0.045
Mof_C 	C 	0.8546	0.735	0.8025	0.337
Mof_C 	C 	0.9226	0.909	0.8001	0.305
Mof_C 	C 	0.4878	0.8161	0.5951	0.046
Mof_C 	C 	0.0128	0.5936	0.7889	0.04
Mof_C 	C 	0.2155	0.8249	0.8538	0.031
Mof_H 	H 	0.2137	0.8003	0.889	0.045
Mof_C 	C 	0.1054	0.9555	0.8052	0.078
Mof_C 	C 	0.0729	0.5461	0.7871	0.069
Mof_C 	C 	0.2754	0.8163	0.8035	-0.076
Mof_C 	C 	0.9921	0.9552	0.8064	-0.112
Mof_C 	C 	0.5385	0.7977	0.9304	-0.132
Mof_H 	H 	0.4938	0.7698	0.9333	0.088
Mof_C 	C 	0.3608	0.6444	0.6085	0.064
Mof_H 	H 	0.2933	0.63	0.613	0.033
Mof_C 	C 	0.6709	0.8755	0.9193	-0.021
Mof_H 	H 	0.7184	0.9021	0.9152	0.072
Mof_C 	C 	0.3213	0.7661	0.794	0.275
Mof_C 	C 	0.1698	0.9083	0.8057	0.04
Mof_C 	C 	0.1583	0.868	0.8547	-0.08
Mof_H 	H 	0.1116	0.8717	0.8868	0.08
Mof_C 	C 	0.2387	0.8992	0.7615	-0.086
Mof_H 	H 	0.2532	0.9258	0.7328	0.069
Mof_C 	C 	0.5338	0.838	0.5375	0.023
Mof_C 	C 	0.8995	0.686	0.7948	-0.1
Mof_C 	C 	0.524	0.682	0.6569	-0.015
Mof_H 	H 	0.5719	0.6964	0.6988	0.063
Mof_C 	C 	0.0669	0.6316	0.8369	-0.083
Mof_H 	H 	0.141	0.6266	0.8649	0.077
Mof_C 	C 	0.1883	0.546	0.7867	-0.119
Mof_C 	C 	0.6057	0.7976	0.8843	0.094
Mof_H 	H 	0.6071	0.7682	0.8574	0.008
Mof_C 	C 	0.5618	0.686	0.5992	0.063
Mof_C 	C 	0.6108	0.8798	0.9682	0.054
Mof_C 	C 	0.8474	0.6486	0.7506	0.037
Mof_H 	H 	0.7726	0.6527	0.7233	0.039
Mof_C 	C 	0.7017	0.8603	0.6289	0.066
Mof_H 	H 	0.7701	0.8777	0.6408	0.031
Mof_N 	N 	0.374	0.7987	0.5869	-0.086
Mof_C 	C 	0.6444	0.856	0.5568	-0.101
Mof_H 	H 	0.6793	0.8651	0.5198	0.084
Mof_C 	C 	0.9063	0.6018	0.7446	-0.093
Mof_H 	H 	0.8714	0.5774	0.7106	0.07
Mof_C 	C 	0.3792	0.646	0.5395	-0.095
Mof_H 	H 	0.3258	0.6352	0.4973	0.08
Mof_C 	C 	0.4892	0.6661	0.5373	0.015
Mof_N 	N 	0.6628	0.7065	0.6044	-0.094
Mof_N 	N 	0.6112	0.9269	0.0041	-0.086
Mof_Cd	Cd	0.21596	0.82999	0.20362	0.45
Mof_Cd	Cd	0.61612	0.67129	0.22147	0.429
Mof_O 	O 	0.7847	0.6227	0.27	-0.304
Mof_O 	O 	0.0758	0.8761	0.2476	-0.262
Mof_O 	O 	0.655	0.596	0.1784	-0.299
Mof_C 	C 	0.4385	0.8192	0.3356	0.005
Mof_H 	H 	0.4632	0.8043	0.2973	0.057
Mof_O 	O 	0.6932	0.73	0.1635	-0.266
Mof_O 	O 	0.1409	0.9049	0.1556	-0.272
Mof_O 	O 	0.0965	0.767	0.1587	-0.297
Mof_N 	N 	0.3309	0.834	0.127	-0.14
Mof_N 	N 	0.568	0.6619	0.3296	-0.131
Mof_O 	O 	0.6314	0.7583	0.2592	-0.251
Mof_O 	O 	0.2478	0.7421	0.2393	-0.264
Mof_C 	C 	0.4648	0.8387	0.0266	0.028
Mof_C 	C 	0.9865	0.6764	0.156	0.026
Mof_H 	H 	0.9514	0.7002	0.121	0.048
Mof_N 	N 	0.337	0.8403	0.316	-0.134
Mof_C 	C 	0.7491	0.5937	0.2236	0.371
Mof_C 	C 	0.7113	0.8549	0.2449	0.023
Mof_H 	H 	0.6698	0.8501	0.2799	0.045
Mof_C 	C 	0.1454	0.735	0.1975	0.337
Mof_C 	C 	0.0774	0.909	0.1999	0.305
Mof_C 	C 	0.5122	0.8161	0.4049	0.046
Mof_C 	C 	0.9872	0.5936	0.2111	0.04
Mof_C 	C 	0.7845	0.8249	0.1462	0.031
Mof_H 	H 	0.7863	0.8003	0.111	0.045
Mof_C 	C 	0.8946	0.9555	0.1948	0.078
Mof_C 	C 	0.9271	0.5461	0.2129	0.069
Mof_C 	C 	0.7246	0.8163	0.1965	-0.076
Mof_C 	C 	0.0079	0.9552	0.1936	-0.112
Mof_C 	C 	0.4615	0.7977	0.0696	-0.132
Mof_H 	H 	0.5062	0.7698	0.0667	0.088
Mof_C 	C 	0.6392	0.6444	0.3915	0.064
Mof_H 	H 	0.7067	0.63	0.387	0.033
Mof_C 	C 	0.3291	0.8755	0.0807	-0.021
Mof_H 	H 	0.2816	0.9021	0.0848	0.072
Mof_C 	C 	0.6787	0.7661	0.206	0.275
Mof_C 	C 	0.8302	0.9083	0.1943	0.04
Mof_C 	C 	0.8417	0.868	0.1453	-0.08
Mof_H 	H 	0.8884	0.8717	0.1132	0.08
Mof_C 	C 	0.7613	0.8992	0.2385	-0.086
Mof_H 	H 	0.7468	0.9258	0.2672	0.069
Mof_C 	C 	0.4662	0.838	0.4625	0.023
Mof_C 	C 	0.1005	0.686	0.2052	-0.1
Mof_C 	C 	0.476	0.682	0.3431	-0.015
Mof_H 	H 	0.4281	0.6964	0.3012	0.063
Mof_C 	C 	0.9331	0.6316	0.1631	-0.083
Mof_H 	H 	0.859	0.6266	0.1351	0.077
Mof_C 	C 	0.8117	0.546	0.2133	-0.119
Mof_C 	C 	0.3943	0.7976	0.1157	0.094
Mof_H 	H 	0.3929	0.7682	0.1426	0.008
Mof_C 	C 	0.4382	0.686	0.4008	0.063
Mof_C 	C 	0.3892	0.8798	0.0318	0.054
Mof_C 	C 	0.1526	0.6486	0.2494	0.037
Mof_H 	H 	0.2274	0.6527	0.2767	0.039
Mof_C 	C 	0.2983	0.8603	0.3711	0.066
Mof_H 	H 	0.2299	0.8777	0.3592	0.031
Mof_N 	N 	0.626	0.7987	0.4131	-0.086
Mof_C 	C 	0.3556	0.856	0.4432	-0.101
Mof_H 	H 	0.3207	0.8651	0.4802	0.084
Mof_C 	C 	0.0937	0.6018	0.2554	-0.093
Mof_H 	H 	0.1286	0.5774	0.2894	0.07
Mof_C 	C 	0.6208	0.646	0.4605	-0.095
Mof_H 	H 	0.6742	0.6352	0.5027	0.08
Mof_C 	C 	0.5108	0.6661	0.4627	0.015
Mof_N 	N 	0.3372	0.7065	0.3956	-0.094
Mof_N 	N 	0.3888	0.9269	0.9959	-0.086
Mof_Cd	Cd	0.21596	0.17001	0.20362	0.45
Mof_Cd	Cd	0.61612	0.32871	0.22147	0.429
Mof_O 	O 	0.7847	0.3773	0.27	-0.304
Mof_O 	O 	0.0758	0.1239	0.2476	-0.263
Mof_O 	O 	0.655	0.404	0.1784	-0.299
Mof_C 	C 	0.4385	0.1808	0.3356	0.005
Mof_H 	H 	0.4632	0.1957	0.2973	0.057
Mof_O 	O 	0.6932	0.27	0.1635	-0.266
Mof_O 	O 	0.1409	0.0951	0.1556	-0.273
Mof_O 	O 	0.0965	0.233	0.1587	-0.297
Mof_N 	N 	0.3309	0.166	0.127	-0.14
Mof_N 	N 	0.568	0.3381	0.3296	-0.131
Mof_O 	O 	0.6314	0.2417	0.2592	-0.251
Mof_O 	O 	0.2478	0.2579	0.2393	-0.264
Mof_C 	C 	0.4648	0.1613	0.0266	0.028
Mof_C 	C 	0.9865	0.3236	0.156	0.026
Mof_H 	H 	0.9514	0.2998	0.121	0.048
Mof_N 	N 	0.337	0.1597	0.316	-0.134
Mof_C 	C 	0.7491	0.4063	0.2236	0.371
Mof_C 	C 	0.7113	0.1451	0.2449	0.023
Mof_H 	H 	0.6698	0.1499	0.2799	0.045
Mof_C 	C 	0.1454	0.265	0.1975	0.337
Mof_C 	C 	0.0774	0.091	0.1999	0.305
Mof_C 	C 	0.5122	0.1839	0.4049	0.046
Mof_C 	C 	0.9872	0.4064	0.2111	0.04
Mof_C 	C 	0.7845	0.1751	0.1462	0.031
Mof_H 	H 	0.7863	0.1997	0.111	0.045
Mof_C 	C 	0.8946	0.0445	0.1948	0.077
Mof_C 	C 	0.9271	0.4539	0.2129	0.069
Mof_C 	C 	0.7246	0.1837	0.1965	-0.076
Mof_C 	C 	0.0079	0.0448	0.1936	-0.113
Mof_C 	C 	0.4615	0.2023	0.0696	-0.132
Mof_H 	H 	0.5062	0.2302	0.0667	0.088
Mof_C 	C 	0.6392	0.3556	0.3915	0.064
Mof_H 	H 	0.7067	0.37	0.387	0.033
Mof_C 	C 	0.3291	0.1245	0.0807	-0.021
Mof_H 	H 	0.2816	0.0979	0.0848	0.072
Mof_C 	C 	0.6787	0.2339	0.206	0.275
Mof_C 	C 	0.8302	0.0917	0.1943	0.04
Mof_C 	C 	0.8417	0.132	0.1453	-0.081
Mof_H 	H 	0.8884	0.1283	0.1132	0.08
Mof_C 	C 	0.7613	0.1008	0.2385	-0.086
Mof_H 	H 	0.7468	0.0742	0.2672	0.068
Mof_C 	C 	0.4662	0.162	0.4625	0.023
Mof_C 	C 	0.1005	0.314	0.2052	-0.1
Mof_C 	C 	0.476	0.318	0.3431	-0.015
Mof_H 	H 	0.4281	0.3036	0.3012	0.063
Mof_C 	C 	0.9331	0.3684	0.1631	-0.083
Mof_H 	H 	0.859	0.3734	0.1351	0.077
Mof_C 	C 	0.8117	0.454	0.2133	-0.119
Mof_C 	C 	0.3943	0.2024	0.1157	0.094
Mof_H 	H 	0.3929	0.2318	0.1426	0.008
Mof_C 	C 	0.4382	0.314	0.4008	0.063
Mof_C 	C 	0.3892	0.1202	0.0318	0.054
Mof_C 	C 	0.1526	0.3514	0.2494	0.037
Mof_H 	H 	0.2274	0.3473	0.2767	0.039
Mof_C 	C 	0.2983	0.1397	0.3711	0.066
Mof_H 	H 	0.2299	0.1223	0.3592	0.03
Mof_N 	N 	0.626	0.2013	0.4131	-0.086
Mof_C 	C 	0.3556	0.144	0.4432	-0.101
Mof_H 	H 	0.3207	0.1349	0.4802	0.084
Mof_C 	C 	0.0937	0.3982	0.2554	-0.093
Mof_H 	H 	0.1286	0.4226	0.2894	0.07
Mof_C 	C 	0.6208	0.354	0.4605	-0.095
Mof_H 	H 	0.6742	0.3648	0.5027	0.08
Mof_C 	C 	0.5108	0.3339	0.4627	0.015
Mof_N 	N 	0.3372	0.2935	0.3956	-0.094
Mof_N 	N 	0.3888	0.0731	0.9959	-0.087
Mof_Cd	Cd	0.78404	0.17001	0.79638	0.45
Mof_Cd	Cd	0.38388	0.32871	0.77853	0.429
Mof_O 	O 	0.2153	0.3773	0.73	-0.304
Mof_O 	O 	0.9242	0.1239	0.7524	-0.263
Mof_O 	O 	0.345	0.404	0.8216	-0.299
Mof_C 	C 	0.5615	0.1808	0.6644	0.005
Mof_H 	H 	0.5368	0.1957	0.7027	0.057
Mof_O 	O 	0.3068	0.27	0.8365	-0.266
Mof_O 	O 	0.8591	0.0951	0.8444	-0.273
Mof_O 	O 	0.9035	0.233	0.8413	-0.297
Mof_N 	N 	0.6691	0.166	0.873	-0.14
Mof_N 	N 	0.432	0.3381	0.6704	-0.131
Mof_O 	O 	0.3686	0.2417	0.7408	-0.251
Mof_O 	O 	0.7522	0.2579	0.7607	-0.264
Mof_C 	C 	0.5352	0.1613	0.9734	0.028
Mof_C 	C 	0.0135	0.3236	0.844	0.026
Mof_H 	H 	0.0486	0.2998	0.879	0.048
Mof_N 	N 	0.663	0.1597	0.684	-0.134
Mof_C 	C 	0.2509	0.4063	0.7764	0.371
Mof_C 	C 	0.2887	0.1451	0.7551	0.023
Mof_H 	H 	0.3302	0.1499	0.7201	0.045
Mof_C 	C 	0.8546	0.265	0.8025	0.337
Mof_C 	C 	0.9226	0.091	0.8001	0.305
Mof_C 	C 	0.4878	0.1839	0.5951	0.046
Mof_C 	C 	0.0128	0.4064	0.7889	0.04
Mof_C 	C 	0.2155	0.1751	0.8538	0.031
Mof_H 	H 	0.2137	0.1997	0.889	0.045
Mof_C 	C 	0.1054	0.0445	0.8052	0.077
Mof_C 	C 	0.0729	0.4539	0.7871	0.069
Mof_C 	C 	0.2754	0.1837	0.8035	-0.076
Mof_C 	C 	0.9921	0.0448	0.8064	-0.113
Mof_C 	C 	0.5385	0.2023	0.9304	-0.132
Mof_H 	H 	0.4938	0.2302	0.9333	0.088
Mof_C 	C 	0.3608	0.3556	0.6085	0.064
Mof_H 	H 	0.2933	0.37	0.613	0.033
Mof_C 	C 	0.6709	0.1245	0.9193	-0.021
Mof_H 	H 	0.7184	0.0979	0.9152	0.072
Mof_C 	C 	0.3213	0.2339	0.794	0.275
Mof_C 	C 	0.1698	0.0917	0.8057	0.04
Mof_C 	C 	0.1583	0.132	0.8547	-0.081
Mof_H 	H 	0.1116	0.1283	0.8868	0.08
Mof_C 	C 	0.2387	0.1008	0.7615	-0.086
Mof_H 	H 	0.2532	0.0742	0.7328	0.068
Mof_C 	C 	0.5338	0.162	0.5375	0.023
Mof_C 	C 	0.8995	0.314	0.7948	-0.1
Mof_C 	C 	0.524	0.318	0.6569	-0.015
Mof_H 	H 	0.5719	0.3036	0.6988	0.063
Mof_C 	C 	0.0669	0.3684	0.8369	-0.083
Mof_H 	H 	0.141	0.3734	0.8649	0.077
Mof_C 	C 	0.1883	0.454	0.7867	-0.119
Mof_C 	C 	0.6057	0.2024	0.8843	0.094
Mof_H 	H 	0.6071	0.2318	0.8574	0.008
Mof_C 	C 	0.5618	0.314	0.5992	0.063
Mof_C 	C 	0.6108	0.1202	0.9682	0.054
Mof_C 	C 	0.8474	0.3514	0.7506	0.037
Mof_H 	H 	0.7726	0.3473	0.7233	0.039
Mof_C 	C 	0.7017	0.1397	0.6289	0.066
Mof_H 	H 	0.7701	0.1223	0.6408	0.03
Mof_N 	N 	0.374	0.2013	0.5869	-0.086
Mof_C 	C 	0.6444	0.144	0.5568	-0.101
Mof_H 	H 	0.6793	0.1349	0.5198	0.084
Mof_C 	C 	0.9063	0.3982	0.7446	-0.093
Mof_H 	H 	0.8714	0.4226	0.7106	0.07
Mof_C 	C 	0.3792	0.354	0.5395	-0.095
Mof_H 	H 	0.3258	0.3648	0.4973	0.08
Mof_C 	C 	0.4892	0.3339	0.5373	0.015
Mof_N 	N 	0.6628	0.2935	0.6044	-0.094
Mof_N 	N 	0.6112	0.0731	0.0041	-0.087
Mof_C 	C 	0.9391	8.64926e-33	0.8092	0.057
Mof_H 	H 	0.8646	8.64926e-33	0.8131	0.037
Mof_C 	C 	0.1637	8.64926e-33	0.808	-0.14
Mof_H 	H 	0.2412	8.64926e-33	0.8118	0.09
Mof_C 	C 	0.0609	0	0.1908	0.057
Mof_H 	H 	0.1354	0	0.1869	0.037
Mof_C 	C 	0.8363	0	0.192	-0.14
Mof_H 	H 	0.7588	2.16231e-33	0.1882	0.09
Mof_C 	C 	0.0211	0.5	0.7861	-0.129
Mof_H 	H 	0.9443	0.5	0.7847	0.08
Mof_C 	C 	0.2419	0.5	0.7842	0.064
Mof_H 	H 	0.3166	0.5	0.7808	0.034
Mof_C 	C 	0.9789	0.5	0.2139	-0.129
Mof_H 	H 	0.0557	0.5	0.2153	0.08
Mof_C 	C 	0.7581	0.5	0.2158	0.064
Mof_H 	H 	0.6834	0.5	0.2192	0.034
_end
