# CIF file generated by openbabel 3.1.0, see https://openbabel.org
data_I
_chemical_name_common 'BAKGAX_clean'
_cell_length_a 7.3246
_cell_length_b 13.224
_cell_length_c 22.7669
_cell_angle_alpha 90
_cell_angle_beta 90
_cell_angle_gamma 90
_space_group_name_H-M_alt 'P 1'
_space_group_name_Hall 'P 1'
loop_
    _symmetry_equiv_pos_as_xyz
    x,y,z
loop_
    _atom_site_label
    _atom_site_type_symbol
    _atom_site_fract_x
    _atom_site_fract_y
    _atom_site_fract_z
    _atom_site_occupancy
    Co1      Co       0.67312    0.88278    0.61061    1.000
    Co2      Co       0.82688    0.11722    0.11061    1.000
    Co3      Co       0.32688    0.38278    0.38939    1.000
    Co4      Co       0.17312    0.61722    0.88939    1.000
    Co5      Co       0.32688    0.11722    0.38939    1.000
    Co6      Co       0.17312    0.88278    0.88939    1.000
    Co7      Co       0.67312    0.61722    0.61061    1.000
    Co8      Co       0.82688    0.38278    0.11061    1.000
    Co9      Co       0.65643    0.75000    0.74146    1.000
    Co10     Co       0.84357    0.25000    0.24146    1.000
    Co11     Co       0.34357    0.25000    0.25854    1.000
    Co12     Co       0.15643    0.75000    0.75854    1.000
    H1       H        0.71660    0.40310    0.87190    1.000
    H2       H        0.78340    0.59690    0.37190    1.000
    H3       H        0.28340    0.90310    0.12810    1.000
    H4       H        0.21660    0.09690    0.62810    1.000
    H5       H        0.28340    0.59690    0.12810    1.000
    H6       H        0.21660    0.40310    0.62810    1.000
    H7       H        0.71660    0.09690    0.87190    1.000
    H8       H        0.78340    0.90310    0.37190    1.000
    H9       H        0.86030    0.75000    0.65050    1.000
    H10      H        0.63970    0.25000    0.15050    1.000
    H11      H        0.13970    0.25000    0.34950    1.000
    H12      H        0.36030    0.75000    0.84950    1.000
    H13      H        0.60500    0.25000    0.72160    1.000
    H14      H        0.89500    0.75000    0.22160    1.000
    H15      H        0.39500    0.75000    0.27840    1.000
    H16      H        0.10500    0.25000    0.77840    1.000
    C1       C        0.64740    0.43730    0.76013    1.000
    C2       C        0.65850    0.34080    0.79187    1.000
    C3       C        0.70060    0.34090    0.85169    1.000
    C4       C        0.85260    0.56270    0.26013    1.000
    C5       C        0.84150    0.65920    0.29187    1.000
    C6       C        0.79940    0.65910    0.35169    1.000
    C7       C        0.35260    0.93730    0.23987    1.000
    C8       C        0.34150    0.84080    0.20813    1.000
    C9       C        0.29940    0.84090    0.14831    1.000
    C10      C        0.14740    0.06270    0.73987    1.000
    C11      C        0.15850    0.15920    0.70813    1.000
    C12      C        0.20060    0.15910    0.64831    1.000
    C13      C        0.35260    0.56270    0.23987    1.000
    C14      C        0.34150    0.65920    0.20813    1.000
    C15      C        0.29940    0.65910    0.14831    1.000
    C16      C        0.14740    0.43730    0.73987    1.000
    C17      C        0.15850    0.34080    0.70813    1.000
    C18      C        0.20060    0.34090    0.64831    1.000
    C19      C        0.64740    0.06270    0.76013    1.000
    C20      C        0.65850    0.15920    0.79187    1.000
    C21      C        0.70060    0.15910    0.85169    1.000
    C22      C        0.85260    0.93730    0.26013    1.000
    C23      C        0.84150    0.84080    0.29187    1.000
    C24      C        0.79940    0.84090    0.35169    1.000
    C25      C        0.63590    0.25000    0.76215    1.000
    C26      C        0.71920    0.25000    0.88163    1.000
    C27      C        0.75910    0.25000    0.94522    1.000
    C28      C        0.86410    0.75000    0.26215    1.000
    C29      C        0.78080    0.75000    0.38163    1.000
    C30      C        0.74090    0.75000    0.44522    1.000
    C31      C        0.36410    0.75000    0.23785    1.000
    C32      C        0.28080    0.75000    0.11837    1.000
    C33      C        0.24090    0.75000    0.05478    1.000
    C34      C        0.13590    0.25000    0.73785    1.000
    C35      C        0.21920    0.25000    0.61837    1.000
    C36      C        0.25910    0.25000    0.55478    1.000
    S1       S        0.32413    0.75000    0.64792    1.000
    S2       S        0.17587    0.25000    0.14792    1.000
    S3       S        0.67587    0.25000    0.35208    1.000
    S4       S        0.82413    0.75000    0.85208    1.000
    N1       N        0.64070    0.59340    0.74244    1.000
    N2       N        0.65520    0.54460    0.69184    1.000
    N3       N        0.63410    0.52730    0.78657    1.000
    N4       N        0.65940    0.44500    0.70171    1.000
    N5       N        0.77690    0.33362    0.97729    1.000
    N6       N        0.80570    0.30000    0.03168    1.000
    N7       N        0.85930    0.40660    0.24244    1.000
    N8       N        0.84480    0.45540    0.19184    1.000
    N9       N        0.86590    0.47270    0.28657    1.000
    N10      N        0.84060    0.55500    0.20171    1.000
    N11      N        0.72310    0.66638    0.47729    1.000
    N12      N        0.69430    0.70000    0.53168    1.000
    N13      N        0.35930    0.09340    0.25756    1.000
    N14      N        0.34480    0.04460    0.30816    1.000
    N15      N        0.36590    0.02730    0.21343    1.000
    N16      N        0.34060    0.94500    0.29829    1.000
    N17      N        0.22310    0.83362    0.02271    1.000
    N18      N        0.19430    0.80000    0.96832    1.000
    N19      N        0.14070    0.90660    0.75756    1.000
    N20      N        0.15520    0.95540    0.80816    1.000
    N21      N        0.13410    0.97270    0.71343    1.000
    N22      N        0.15940    0.05500    0.79829    1.000
    N23      N        0.27690    0.16638    0.52271    1.000
    N24      N        0.30570    0.20000    0.46832    1.000
    N25      N        0.35930    0.40660    0.25756    1.000
    N26      N        0.34480    0.45540    0.30816    1.000
    N27      N        0.36590    0.47270    0.21343    1.000
    N28      N        0.34060    0.55500    0.29829    1.000
    N29      N        0.22310    0.66638    0.02271    1.000
    N30      N        0.19430    0.70000    0.96832    1.000
    N31      N        0.14070    0.59340    0.75756    1.000
    N32      N        0.15520    0.54460    0.80816    1.000
    N33      N        0.13410    0.52730    0.71343    1.000
    N34      N        0.15940    0.44500    0.79829    1.000
    N35      N        0.27690    0.33362    0.52271    1.000
    N36      N        0.30570    0.30000    0.46832    1.000
    N37      N        0.64070    0.90660    0.74244    1.000
    N38      N        0.65520    0.95540    0.69184    1.000
    N39      N        0.63410    0.97270    0.78657    1.000
    N40      N        0.65940    0.05500    0.70171    1.000
    N41      N        0.77690    0.16638    0.97729    1.000
    N42      N        0.80570    0.20000    0.03168    1.000
    N43      N        0.85930    0.09340    0.24244    1.000
    N44      N        0.84480    0.04460    0.19184    1.000
    N45      N        0.86590    0.02730    0.28657    1.000
    N46      N        0.84060    0.94500    0.20171    1.000
    N47      N        0.72310    0.83362    0.47729    1.000
    N48      N        0.69430    0.80000    0.53168    1.000
    O1       O        0.38930    0.84088    0.61747    1.000
    O2       O        0.11070    0.15912    0.11747    1.000
    O3       O        0.61070    0.34088    0.38253    1.000
    O4       O        0.88930    0.65912    0.88253    1.000
    O5       O        0.61070    0.15912    0.38253    1.000
    O6       O        0.88930    0.84088    0.88253    1.000
    O7       O        0.38930    0.65912    0.61747    1.000
    O8       O        0.11070    0.34088    0.11747    1.000
    O9       O        0.74390    0.75000    0.65464    1.000
    O10      O        0.39500    0.75000    0.71016    1.000
    O11      O        0.12640    0.75000    0.65561    1.000
    O12      O        0.75610    0.25000    0.15464    1.000
    O13      O        0.10500    0.25000    0.21016    1.000
    O14      O        0.37360    0.25000    0.15561    1.000
    O15      O        0.25610    0.25000    0.34536    1.000
    O16      O        0.60500    0.25000    0.28984    1.000
    O17      O        0.87360    0.25000    0.34439    1.000
    O18      O        0.24390    0.75000    0.84536    1.000
    O19      O        0.89500    0.75000    0.78984    1.000
    O20      O        0.62640    0.75000    0.84439    1.000
