data_functionalizedCrystal
_audit_creation_method	'EQeq! by Chris Wilmer'
_symmetry_space_group_name_H-M	'P1'
_symmetry_Int_Tables_number	1
_symmetry_cell_setting	triclinic
loop_
_symmetry_equiv_pos_as_xyz
  x,y,z
_cell_length_a	16.719
_cell_length_b	16.719
_cell_length_c	24.598
_cell_angle_alpha	90
_cell_angle_beta	90
_cell_angle_gamma	120
loop_
_atom_site_label
_atom_site_type_symbol
_atom_site_fract_x
_atom_site_fract_y
_atom_site_fract_z
_atom_site_charge
Mof_Ni	Ni	0.4081	0.68558	0.7505	1.069
Mof_Ni	Ni	0.49459	0.25632	0.46877	1.043
Mof_C 	C 	0.0462	0.8292	0.5599	-0.736
Mof_H 	H 	0.1007	0.8331	0.5445	0.252
Mof_H 	H 	0.0517	0.8331	0.5988	0.243
Mof_H 	H 	0.0389	0.8791	0.5465	0.236
Mof_C 	C 	0.9621	0.7374	0.544	0.274
Mof_H 	H 	0.9706	0.6884	0.5598	-0.022
Mof_C 	C 	0.8726	0.7259	0.5671	-0.189
Mof_C 	C 	0.7877	0.6416	0.5583	0.236
Mof_C 	C 	0.7052	0.6261	0.5793	-0.296
Mof_H 	H 	0.6514	0.5699	0.5736	0.134
Mof_C 	C 	0.7031	0.6961	0.6095	0.241
Mof_C 	C 	0.7832	0.7817	0.6169	-0.2
Mof_C 	C 	0.8651	0.7917	0.596	0.11
Mof_H 	H 	0.919	0.8475	0.6022	-0.03
Mof_C 	C 	0.7306	0.5304	0.4874	-0.213
Mof_H 	H 	0.763	0.5348	0.4538	0.115
Mof_H 	H 	0.696	0.5622	0.482	0.105
Mof_C 	C 	0.664	0.4299	0.4997	0.411
Mof_C 	C 	0.5445	0.5966	0.6326	-0.168
Mof_H 	H 	0.5611	0.5518	0.6452	0.081
Mof_H 	H 	0.5216	0.5805	0.5957	0.088
Mof_C 	C 	0.4687	0.5927	0.6689	0.358
Mof_C 	C 	0.7787	0.8602	0.6455	0.293
Mof_H 	H 	0.7341	0.8321	0.6752	-0.037
Mof_C 	C 	0.869	0.9306	0.6714	-0.755
Mof_H 	H 	0.8613	0.9778	0.6886	0.253
Mof_H 	H 	0.9158	0.9579	0.6439	0.238
Mof_H 	H 	0.8871	0.9007	0.698	0.238
Mof_C 	C 	0.7416	0.9074	0.6083	-0.196
Mof_C 	C 	0.6981	0.9503	0.6297	0.235
Mof_C 	C 	0.6674	0.9983	0.5977	-0.299
Mof_H 	H 	0.6388	0.0277	0.6138	0.149
Mof_C 	C 	0.6794	0.0024	0.5419	0.233
Mof_C 	C 	0.724	0.9569	0.5179	-0.172
Mof_C 	C 	0.753	0.9118	0.5519	0.102
Mof_H 	H 	0.7822	0.8823	0.5366	-0.001
Mof_C 	C 	0.5984	0.882	0.7023	-0.205
Mof_H 	H 	0.5837	0.8244	0.6846	0.099
Mof_H 	H 	0.5526	0.8983	0.6915	0.084
Mof_C 	C 	0.5965	0.8701	0.7644	0.401
Mof_C 	C 	0.609	0.0934	0.5304	-0.212
Mof_H 	H 	0.6492	0.1345	0.5586	0.078
Mof_H 	H 	0.5511	0.0492	0.5474	0.099
Mof_C 	C 	0.5913	0.1483	0.489	0.406
Mof_O 	O 	0.796	0.575	0.5294	-0.176
Mof_O 	O 	0.6739	0.3996	0.5441	-0.455
Mof_O 	O 	0.6041	0.3871	0.463	-0.459
Mof_O 	O 	0.6244	0.6864	0.633	-0.199
Mof_O 	O 	0.3894	0.5259	0.6621	-0.338
Mof_O 	O 	0.4907	0.6544	0.7051	-0.426
Mof_O 	O 	0.686	0.9513	0.68646	-0.19
Mof_O 	O 	0.6562	0.9286	0.7919	-0.316
Mof_O 	O 	0.5243	0.8007	0.78392	-0.552
Mof_O 	O 	0.6504	0.0458	0.5069	-0.185
Mof_O 	O 	0.5959	0.1354	0.4403	-0.313
Mof_O 	O 	0.5698	0.2046	0.50804	-0.557
Mof_Ni	Ni	0.31442	0.72252	0.08383	1.068
Mof_Ni	Ni	0.74368	0.23827	0.8021	1.042
Mof_C 	C 	0.1708	0.217	0.89323	-0.737
Mof_H 	H 	0.1669	0.2676	0.87783	0.251
Mof_H 	H 	0.1669	0.2186	0.93213	0.242
Mof_H 	H 	0.1209	0.1598	0.87983	0.235
Mof_C 	C 	0.2626	0.2247	0.87733	0.273
Mof_H 	H 	0.3116	0.2822	0.89313	-0.023
Mof_C 	C 	0.2741	0.1467	0.90043	-0.188
Mof_C 	C 	0.3584	0.1461	0.89163	0.236
Mof_C 	C 	0.3739	0.0791	0.91263	-0.295
Mof_H 	H 	0.4301	0.0815	0.90693	0.134
Mof_C 	C 	0.3039	0.007	0.94283	0.24
Mof_C 	C 	0.2183	0.0015	0.95023	-0.198
Mof_C 	C 	0.2083	0.0734	0.92933	0.109
Mof_H 	H 	0.1525	0.0715	0.93553	-0.029
Mof_C 	C 	0.4696	0.2002	0.82073	-0.213
Mof_H 	H 	0.4652	0.2282	0.78713	0.115
Mof_H 	H 	0.4378	0.1338	0.81533	0.105
Mof_C 	C 	0.5701	0.2341	0.83303	0.411
Mof_C 	C 	0.4034	0.9479	0.96593	-0.169
Mof_H 	H 	0.4482	0.0093	0.97853	0.082
Mof_H 	H 	0.4195	0.9411	0.92903	0.088
Mof_C 	C 	0.4073	0.876	0.00223	0.359
Mof_C 	C 	0.1398	0.9185	0.97883	0.288
Mof_H 	H 	0.1679	0.902	0.00853	-0.035
Mof_C 	C 	0.0694	0.9384	0.00473	-0.748
Mof_H 	H 	0.0222	0.8835	0.02193	0.25
Mof_H 	H 	0.0421	0.9579	0.97723	0.235
Mof_H 	H 	0.0993	0.9864	0.03133	0.236
Mof_C 	C 	0.0926	0.8342	0.94163	-0.195
Mof_C 	C 	0.0497	0.7478	0.96303	0.234
Mof_C 	C 	0.0017	0.6691	0.93103	-0.3
Mof_H 	H 	0.9723	0.6111	0.94713	0.149
Mof_C 	C 	0.9976	0.677	0.87523	0.234
Mof_C 	C 	0.0431	0.7671	0.85123	-0.172
Mof_C 	C 	0.0882	0.8412	0.88523	0.101
Mof_H 	H 	0.1177	0.8999	0.86993	-0
Mof_C 	C 	0.118	0.7164	0.03563	-0.205
Mof_H 	H 	0.1756	0.7593	0.01793	0.099
Mof_H 	H 	0.1017	0.6543	0.02483	0.084
Mof_C 	C 	0.1299	0.7264	0.09773	0.401
Mof_C 	C 	0.9066	0.5156	0.86373	-0.212
Mof_H 	H 	0.8655	0.5147	0.89193	0.078
Mof_H 	H 	0.9508	0.5019	0.88073	0.099
Mof_C 	C 	0.8517	0.443	0.82233	0.406
Mof_O 	O 	0.425	0.221	0.86273	-0.176
Mof_O 	O 	0.6004	0.2743	0.87743	-0.455
Mof_O 	O 	0.6129	0.217	0.79633	-0.459
Mof_O 	O 	0.3136	0.938	0.96633	-0.199
Mof_O 	O 	0.4741	0.8635	0.99543	-0.339
Mof_O 	O 	0.3456	0.8363	0.03843	-0.426
Mof_O 	O 	0.0487	0.7347	0.01979	-0.189
Mof_O 	O 	0.0714	0.7276	0.12523	-0.316
Mof_O 	O 	0.1993	0.7236	0.11725	-0.552
Mof_O 	O 	0.9542	0.6046	0.84023	-0.185
Mof_O 	O 	0.8646	0.4605	0.77363	-0.313
Mof_O 	O 	0.7954	0.3652	0.84137	-0.557
Mof_Ni	Ni	0.27748	0.5919	0.41717	1.068
Mof_Ni	Ni	0.76173	0.50541	0.13544	1.042
Mof_C 	C 	0.783	0.9538	0.22657	-0.737
Mof_H 	H 	0.7324	0.8993	0.21117	0.251
Mof_H 	H 	0.7814	0.9483	0.26547	0.242
Mof_H 	H 	0.8402	0.9611	0.21317	0.235
Mof_C 	C 	0.7753	0.0379	0.21067	0.273
Mof_H 	H 	0.7178	0.0294	0.22647	-0.023
Mof_C 	C 	0.8533	0.1274	0.23377	-0.189
Mof_C 	C 	0.8539	0.2123	0.22497	0.236
Mof_C 	C 	0.9209	0.2948	0.24597	-0.296
Mof_H 	H 	0.9185	0.3486	0.24027	0.134
Mof_C 	C 	0.993	0.2969	0.27617	0.24
Mof_C 	C 	0.9985	0.2168	0.28357	-0.2
Mof_C 	C 	0.9266	0.1349	0.26267	0.11
Mof_H 	H 	0.9285	0.081	0.26887	-0.03
Mof_C 	C 	0.7998	0.2694	0.15407	-0.213
Mof_H 	H 	0.7718	0.237	0.12047	0.115
Mof_H 	H 	0.8662	0.304	0.14867	0.105
Mof_C 	C 	0.7659	0.336	0.16637	0.411
Mof_C 	C 	0.0521	0.4555	0.29927	-0.168
Mof_H 	H 	0.9907	0.4389	0.31187	0.081
Mof_H 	H 	0.0589	0.4784	0.26237	0.088
Mof_C 	C 	0.124	0.5313	0.33557	0.358
Mof_C 	C 	0.0815	0.2213	0.31217	0.293
Mof_H 	H 	0.098	0.2659	0.34187	-0.037
Mof_C 	C 	0.0616	0.131	0.33807	-0.755
Mof_H 	H 	0.1165	0.1387	0.35527	0.253
Mof_H 	H 	0.0421	0.0842	0.31057	0.238
Mof_H 	H 	0.0136	0.1129	0.36467	0.238
Mof_C 	C 	0.1658	0.2584	0.27497	-0.196
Mof_C 	C 	0.2522	0.3019	0.29637	0.235
Mof_C 	C 	0.3309	0.3326	0.26437	-0.299
Mof_H 	H 	0.3889	0.3612	0.28047	0.149
Mof_C 	C 	0.323	0.3206	0.20857	0.233
Mof_C 	C 	0.2329	0.276	0.18457	-0.172
Mof_C 	C 	0.1588	0.247	0.21857	0.102
Mof_H 	H 	0.1001	0.2178	0.20327	-0.001
Mof_C 	C 	0.2836	0.4016	0.36897	-0.205
Mof_H 	H 	0.2407	0.4163	0.35127	0.099
Mof_H 	H 	0.3457	0.4474	0.35817	0.084
Mof_C 	C 	0.2736	0.4035	0.43107	0.401
Mof_C 	C 	0.4844	0.391	0.19707	-0.212
Mof_H 	H 	0.4853	0.3508	0.22527	0.078
Mof_H 	H 	0.4981	0.4489	0.21407	0.099
Mof_C 	C 	0.557	0.4087	0.15567	0.406
Mof_O 	O 	0.779	0.204	0.19607	-0.176
Mof_O 	O 	0.7257	0.3261	0.21077	-0.455
Mof_O 	O 	0.783	0.3959	0.12967	-0.459
Mof_O 	O 	0.062	0.3756	0.29967	-0.199
Mof_O 	O 	0.1365	0.6106	0.32877	-0.338
Mof_O 	O 	0.1637	0.5093	0.37177	-0.426
Mof_O 	O 	0.2653	0.314	0.35313	-0.19
Mof_O 	O 	0.2724	0.3438	0.45857	-0.316
Mof_O 	O 	0.2764	0.4757	0.45059	-0.552
Mof_O 	O 	0.3954	0.3496	0.17357	-0.185
Mof_O 	O 	0.5395	0.4041	0.10697	-0.313
Mof_O 	O 	0.6348	0.4302	0.17471	-0.557
Mof_Ni	Ni	0.68558	0.4081	0.2495	1.068
Mof_Ni	Ni	0.25632	0.49459	0.53123	1.042
Mof_C 	C 	0.8292	0.0462	0.4401	-0.737
Mof_H 	H 	0.8331	0.1007	0.4555	0.251
Mof_H 	H 	0.8331	0.0517	0.4012	0.242
Mof_H 	H 	0.8791	0.0389	0.4535	0.235
Mof_C 	C 	0.7374	0.9621	0.456	0.273
Mof_H 	H 	0.6884	0.9706	0.4402	-0.023
Mof_C 	C 	0.7259	0.8726	0.4329	-0.189
Mof_C 	C 	0.6416	0.7877	0.4417	0.236
Mof_C 	C 	0.6261	0.7052	0.4207	-0.296
Mof_H 	H 	0.5699	0.6514	0.4264	0.134
Mof_C 	C 	0.6961	0.7031	0.3905	0.241
Mof_C 	C 	0.7817	0.7832	0.3831	-0.2
Mof_C 	C 	0.7917	0.8651	0.404	0.11
Mof_H 	H 	0.8475	0.919	0.3978	-0.03
Mof_C 	C 	0.5304	0.7306	0.5126	-0.213
Mof_H 	H 	0.5348	0.763	0.5462	0.115
Mof_H 	H 	0.5622	0.696	0.518	0.105
Mof_C 	C 	0.4299	0.664	0.5003	0.411
Mof_C 	C 	0.5966	0.5445	0.3674	-0.168
Mof_H 	H 	0.5518	0.5611	0.3548	0.081
Mof_H 	H 	0.5805	0.5216	0.4043	0.088
Mof_C 	C 	0.5927	0.4687	0.3311	0.358
Mof_C 	C 	0.8602	0.7787	0.3545	0.293
Mof_H 	H 	0.8321	0.7341	0.3248	-0.037
Mof_C 	C 	0.9306	0.869	0.3286	-0.755
Mof_H 	H 	0.9778	0.8613	0.3114	0.253
Mof_H 	H 	0.9579	0.9158	0.3561	0.238
Mof_H 	H 	0.9007	0.8871	0.302	0.238
Mof_C 	C 	0.9074	0.7416	0.3917	-0.196
Mof_C 	C 	0.9503	0.6981	0.3703	0.235
Mof_C 	C 	0.9983	0.6674	0.4023	-0.299
Mof_H 	H 	0.0277	0.6388	0.3862	0.149
Mof_C 	C 	0.0024	0.6794	0.4581	0.233
Mof_C 	C 	0.9569	0.724	0.4821	-0.172
Mof_C 	C 	0.9118	0.753	0.4481	0.102
Mof_H 	H 	0.8823	0.7822	0.4634	-0.001
Mof_C 	C 	0.882	0.5984	0.2977	-0.205
Mof_H 	H 	0.8244	0.5837	0.3154	0.099
Mof_H 	H 	0.8983	0.5526	0.3085	0.084
Mof_C 	C 	0.8701	0.5965	0.2356	0.401
Mof_C 	C 	0.0934	0.609	0.4696	-0.212
Mof_H 	H 	0.1345	0.6492	0.4414	0.078
Mof_H 	H 	0.0492	0.5511	0.4526	0.099
Mof_C 	C 	0.1483	0.5913	0.511	0.406
Mof_O 	O 	0.575	0.796	0.4706	-0.176
Mof_O 	O 	0.3996	0.6739	0.4559	-0.455
Mof_O 	O 	0.3871	0.6041	0.537	-0.459
Mof_O 	O 	0.6864	0.6244	0.367	-0.199
Mof_O 	O 	0.5259	0.3894	0.3379	-0.338
Mof_O 	O 	0.6544	0.4907	0.2949	-0.426
Mof_O 	O 	0.9513	0.686	0.31354	-0.19
Mof_O 	O 	0.9286	0.6562	0.2081	-0.316
Mof_O 	O 	0.8007	0.5243	0.21608	-0.552
Mof_O 	O 	0.0458	0.6504	0.4931	-0.185
Mof_O 	O 	0.1354	0.5959	0.5597	-0.313
Mof_O 	O 	0.2046	0.5698	0.49196	-0.557
Mof_Ni	Ni	0.72252	0.31442	0.91617	1.068
Mof_Ni	Ni	0.23827	0.74368	0.1979	1.042
Mof_C 	C 	0.217	0.1708	0.10677	-0.737
Mof_H 	H 	0.2676	0.1669	0.12217	0.251
Mof_H 	H 	0.2186	0.1669	0.06787	0.242
Mof_H 	H 	0.1598	0.1209	0.12017	0.235
Mof_C 	C 	0.2247	0.2626	0.12267	0.273
Mof_H 	H 	0.2822	0.3116	0.10687	-0.023
Mof_C 	C 	0.1467	0.2741	0.09957	-0.188
Mof_C 	C 	0.1461	0.3584	0.10837	0.236
Mof_C 	C 	0.0791	0.3739	0.08737	-0.295
Mof_H 	H 	0.0815	0.4301	0.09307	0.134
Mof_C 	C 	0.007	0.3039	0.05717	0.24
Mof_C 	C 	0.0015	0.2183	0.04977	-0.198
Mof_C 	C 	0.0734	0.2083	0.07067	0.109
Mof_H 	H 	0.0715	0.1525	0.06447	-0.029
Mof_C 	C 	0.2002	0.4696	0.17927	-0.213
Mof_H 	H 	0.2282	0.4652	0.21287	0.115
Mof_H 	H 	0.1338	0.4378	0.18467	0.105
Mof_C 	C 	0.2341	0.5701	0.16697	0.411
Mof_C 	C 	0.9479	0.4034	0.03407	-0.169
Mof_H 	H 	0.0093	0.4482	0.02147	0.082
Mof_H 	H 	0.9411	0.4195	0.07097	0.088
Mof_C 	C 	0.876	0.4073	0.99777	0.359
Mof_C 	C 	0.9185	0.1398	0.02117	0.288
Mof_H 	H 	0.902	0.1679	0.99147	-0.035
Mof_C 	C 	0.9384	0.0694	0.99527	-0.748
Mof_H 	H 	0.8835	0.0222	0.97807	0.25
Mof_H 	H 	0.9579	0.0421	0.02277	0.235
Mof_H 	H 	0.9864	0.0993	0.96867	0.236
Mof_C 	C 	0.8342	0.0926	0.05837	-0.195
Mof_C 	C 	0.7478	0.0497	0.03697	0.234
Mof_C 	C 	0.6691	0.0017	0.06897	-0.3
Mof_H 	H 	0.6111	0.9723	0.05287	0.149
Mof_C 	C 	0.677	0.9976	0.12477	0.234
Mof_C 	C 	0.7671	0.0431	0.14877	-0.172
Mof_C 	C 	0.8412	0.0882	0.11477	0.101
Mof_H 	H 	0.8999	0.1177	0.13007	-0
Mof_C 	C 	0.7164	0.118	0.96437	-0.205
Mof_H 	H 	0.7593	0.1756	0.98207	0.099
Mof_H 	H 	0.6543	0.1017	0.97517	0.084
Mof_C 	C 	0.7264	0.1299	0.90227	0.401
Mof_C 	C 	0.5156	0.9066	0.13627	-0.212
Mof_H 	H 	0.5147	0.8655	0.10807	0.078
Mof_H 	H 	0.5019	0.9508	0.11927	0.099
Mof_C 	C 	0.443	0.8517	0.17767	0.406
Mof_O 	O 	0.221	0.425	0.13727	-0.176
Mof_O 	O 	0.2743	0.6004	0.12257	-0.455
Mof_O 	O 	0.217	0.6129	0.20367	-0.459
Mof_O 	O 	0.938	0.3136	0.03367	-0.199
Mof_O 	O 	0.8635	0.4741	0.00457	-0.339
Mof_O 	O 	0.8363	0.3456	0.96157	-0.426
Mof_O 	O 	0.7347	0.0487	0.98021	-0.189
Mof_O 	O 	0.7276	0.0714	0.87477	-0.316
Mof_O 	O 	0.7236	0.1993	0.88275	-0.552
Mof_O 	O 	0.6046	0.9542	0.15977	-0.185
Mof_O 	O 	0.4605	0.8646	0.22637	-0.313
Mof_O 	O 	0.3652	0.7954	0.15863	-0.557
Mof_Ni	Ni	0.5919	0.27748	0.58283	1.068
Mof_Ni	Ni	0.50541	0.76173	0.86456	1.042
Mof_C 	C 	0.9538	0.783	0.77343	-0.737
Mof_H 	H 	0.8993	0.7324	0.78883	0.251
Mof_H 	H 	0.9483	0.7814	0.73453	0.242
Mof_H 	H 	0.9611	0.8402	0.78683	0.235
Mof_C 	C 	0.0379	0.7753	0.78933	0.273
Mof_H 	H 	0.0294	0.7178	0.77353	-0.023
Mof_C 	C 	0.1274	0.8533	0.76623	-0.189
Mof_C 	C 	0.2123	0.8539	0.77503	0.236
Mof_C 	C 	0.2948	0.9209	0.75403	-0.296
Mof_H 	H 	0.3486	0.9185	0.75973	0.134
Mof_C 	C 	0.2969	0.993	0.72383	0.24
Mof_C 	C 	0.2168	0.9985	0.71643	-0.2
Mof_C 	C 	0.1349	0.9266	0.73733	0.11
Mof_H 	H 	0.081	0.9285	0.73113	-0.03
Mof_C 	C 	0.2694	0.7998	0.84593	-0.213
Mof_H 	H 	0.237	0.7718	0.87953	0.115
Mof_H 	H 	0.304	0.8662	0.85133	0.105
Mof_C 	C 	0.336	0.7659	0.83363	0.411
Mof_C 	C 	0.4555	0.0521	0.70073	-0.168
Mof_H 	H 	0.4389	0.9907	0.68813	0.081
Mof_H 	H 	0.4784	0.0589	0.73763	0.088
Mof_C 	C 	0.5313	0.124	0.66443	0.358
Mof_C 	C 	0.2213	0.0815	0.68783	0.293
Mof_H 	H 	0.2659	0.098	0.65813	-0.037
Mof_C 	C 	0.131	0.0616	0.66193	-0.755
Mof_H 	H 	0.1387	0.1165	0.64473	0.253
Mof_H 	H 	0.0842	0.0421	0.68943	0.238
Mof_H 	H 	0.1129	0.0136	0.63533	0.238
Mof_C 	C 	0.2584	0.1658	0.72503	-0.196
Mof_C 	C 	0.3019	0.2522	0.70363	0.235
Mof_C 	C 	0.3326	0.3309	0.73563	-0.299
Mof_H 	H 	0.3612	0.3889	0.71953	0.149
Mof_C 	C 	0.3206	0.323	0.79143	0.233
Mof_C 	C 	0.276	0.2329	0.81543	-0.172
Mof_C 	C 	0.247	0.1588	0.78143	0.102
Mof_H 	H 	0.2178	0.1001	0.79673	-0.001
Mof_C 	C 	0.4016	0.2836	0.63103	-0.205
Mof_H 	H 	0.4163	0.2407	0.64873	0.099
Mof_H 	H 	0.4474	0.3457	0.64183	0.084
Mof_C 	C 	0.4035	0.2736	0.56893	0.401
Mof_C 	C 	0.391	0.4844	0.80293	-0.212
Mof_H 	H 	0.3508	0.4853	0.77473	0.078
Mof_H 	H 	0.4489	0.4981	0.78593	0.099
Mof_C 	C 	0.4087	0.557	0.84433	0.406
Mof_O 	O 	0.204	0.779	0.80393	-0.176
Mof_O 	O 	0.3261	0.7257	0.78923	-0.455
Mof_O 	O 	0.3959	0.783	0.87033	-0.459
Mof_O 	O 	0.3756	0.062	0.70033	-0.199
Mof_O 	O 	0.6106	0.1365	0.67123	-0.338
Mof_O 	O 	0.5093	0.1637	0.62823	-0.426
Mof_O 	O 	0.314	0.2653	0.64687	-0.19
Mof_O 	O 	0.3438	0.2724	0.54143	-0.316
Mof_O 	O 	0.4757	0.2764	0.54941	-0.552
Mof_O 	O 	0.3496	0.3954	0.82643	-0.185
Mof_O 	O 	0.4041	0.5395	0.89303	-0.313
Mof_O 	O 	0.4302	0.6348	0.82529	-0.557
_end
