data_functionalizedCrystal
_audit_creation_method	'EQeq! by Chris Wilmer'
_symmetry_space_group_name_H-M	'P1'
_symmetry_Int_Tables_number	1
_symmetry_cell_setting	triclinic
loop_
_symmetry_equiv_pos_as_xyz
  x,y,z
_cell_length_a	9.6521
_cell_length_b	15.4946
_cell_length_c	15.4946
_cell_angle_alpha	64.194
_cell_angle_beta	78.0156
_cell_angle_gamma	101.984
loop_
_atom_site_label
_atom_site_type_symbol
_atom_site_fract_x
_atom_site_fract_y
_atom_site_fract_z
_atom_site_charge
Mof_Fe	Fe	-0	0.5	-0	0.662
Mof_Fe	Fe	-1.48005e-17	0	0.5	0.665
Mof_Fe	Fe	0.5	0.5	0.5	0.741
Mof_Si	Si	0.5	0.29676	0.29676	0.273
Mof_Si	Si	0.20324	0.70324	0.59352	0.258
Mof_Si	Si	0.79676	0.29676	0.40648	0.296
Mof_Si	Si	0.79676	0.59352	0.70324	0.3
Mof_Si	Si	0.20324	0.40648	0.29676	0.252
Mof_Si	Si	0.5	0.70324	0.70324	0.282
Mof_H 	H 	0.3939	0.2789	0.572	-0.018
Mof_H 	H 	0.9825	0.2783	0.8467	0.109
Mof_H 	H 	0.2958	0.2783	0.875	0.084
Mof_H 	H 	0.115	0.7211	0.8509	-0.017
Mof_H 	H 	0.7042	0.875	0.2783	0.093
Mof_H 	H 	0.6061	0.7211	0.428	-0.015
Mof_H 	H 	0.115	0.1491	0.2789	-0.015
Mof_H 	H 	0.0175	0.7217	0.1533	0.052
Mof_H 	H 	0.2958	0.125	0.7217	0.078
Mof_H 	H 	0.1708	0.875	0.8467	0.071
Mof_H 	H 	0.9659	0.8509	0.428	0.047
Mof_H 	H 	0.3939	0.428	0.7211	-0.017
Mof_H 	H 	0.1708	0.1533	0.125	0.068
Mof_H 	H 	0.8292	0.8467	0.875	0.096
Mof_H 	H 	0.8292	0.125	0.1533	0.092
Mof_H 	H 	0.0175	0.8467	0.2783	0.051
Mof_H 	H 	0.885	0.8509	0.7211	-0.013
Mof_H 	H 	0.0341	0.1491	0.572	-0.079
Mof_H 	H 	0.885	0.2789	0.1491	-0.011
Mof_H 	H 	0.6061	0.572	0.2789	-0.016
Mof_H 	H 	0.0341	0.428	0.8509	-0.078
Mof_H 	H 	0.7042	0.7217	0.125	0.088
Mof_H 	H 	0.9659	0.572	0.1491	0.054
Mof_H 	H 	0.9825	0.1533	0.7217	0.112
Mof_C 	C 	0.90375	0.91211	0.72156	0.114
Mof_C 	C 	0.00836	0.91211	0.36633	0
Mof_C 	C 	0.68434	0.81447	0.27675	-0.148
Mof_C 	C 	0.70306	0.39878	0.4241	-0.05
Mof_C 	C 	0.31566	0.18553	0.72325	-0.151
Mof_C 	C 	0.10225	0.81575	-0	0.013
Mof_C 	C 	0.09625	0.08789	0.27844	0.063
Mof_C 	C 	0.29694	0.4241	0.39878	-0.057
Mof_C 	C 	0.89775	0.18425	-0	0.08
Mof_C 	C 	0.31566	0.27675	0.81447	-0.151
Mof_C 	C 	0.90375	0.27844	0.08789	0.1
Mof_C 	C 	0.68434	0.72325	0.18553	-0.148
Mof_C 	C 	0.22309	0.08584	0.91416	0.104
Mof_C 	C 	0.70306	0.5759	0.60122	-0.05
Mof_C 	C 	0.30428	0.17712	0.39878	-0.059
Mof_C 	C 	0.89775	0	0.81575	0.08
Mof_C 	C 	0.87284	0.17712	0.4241	-0.045
Mof_C 	C 	0.99164	0.08789	0.63367	0.185
Mof_C 	C 	0.96109	0.09122	0.72325	-0.195
Mof_C 	C 	0.03891	0.90878	0.27675	-0.078
Mof_C 	C 	0.7135	0.81575	0.18425	0.072
Mof_C 	C 	0.30428	0.60122	0.82288	-0.056
Mof_C 	C 	0.69572	0.39878	0.17712	-0.055
Mof_C 	C 	0.99164	0.36633	0.91211	0.195
Mof_C 	C 	0.86275	0.08584	-0	0.085
Mof_C 	C 	0.12716	0.82288	0.5759	-0.064
Mof_C 	C 	0.62531	0.63367	0.27844	0.094
Mof_C 	C 	0.13013	0.81447	0.90878	-0.107
Mof_C 	C 	0.86987	0.18553	0.09122	-0.159
Mof_C 	C 	0.37469	0.27844	0.63367	0.085
Mof_C 	C 	0.00836	0.63367	0.08789	-0.022
Mof_C 	C 	0.87284	0.5759	0.82288	-0.043
Mof_C 	C 	0.29694	0.60122	0.5759	-0.057
Mof_C 	C 	0.77691	0.91416	0.08584	0.114
Mof_C 	C 	0.96109	0.27675	0.90878	-0.181
Mof_C 	C 	0.2865	0.18425	0.81575	0.061
Mof_C 	C 	0.09625	0.72156	0.91211	0.081
Mof_C 	C 	0.03891	0.72325	0.09122	-0.086
Mof_C 	C 	0.10225	-1.48005e-17	0.18425	0.017
Mof_C 	C 	0.86987	0.90878	0.81447	-0.147
Mof_C 	C 	0.69572	0.82288	0.60122	-0.052
Mof_C 	C 	0.13013	0.09122	0.18553	-0.126
Mof_C 	C 	0.12716	0.4241	0.17712	-0.068
Mof_C 	C 	0.13725	0	0.08584	0.087
Mof_C 	C 	0.13725	0.91416	-0	0.104
Mof_C 	C 	0.86275	-5.92021e-17	0.91416	0.101
Mof_C 	C 	0.37469	0.36633	0.72156	0.086
Mof_C 	C 	0.62531	0.72156	0.36633	0.095
Mof_N 	N 	0.63628	0.44246	0.45002	-0.182
Mof_N 	N 	0.80408	-7.40026e-18	0.09076	-0.143
Mof_N 	N 	0.19382	0.55754	0.89248	-0.175
Mof_N 	N 	0.89484	0.09076	0.90924	-0.126
Mof_N 	N 	0.36372	0.55754	0.54998	-0.186
Mof_N 	N 	0.63628	0.54998	0.55754	-0.182
Mof_N 	N 	0.0863	0.45002	0.10752	-0.187
Mof_N 	N 	0.10516	0.90924	0.09076	-0.138
Mof_N 	N 	0.19592	0	0.90924	-0.146
Mof_N 	N 	0.40555	0.36823	0.63177	-0.209
Mof_N 	N 	0.59445	0.63177	0.36823	-0.209
Mof_N 	N 	0.36372	0.45002	0.44246	-0.186
Mof_N 	N 	0.0863	0.89248	0.54998	-0.18
Mof_N 	N 	0.80618	0.44246	0.10752	-0.168
Mof_N 	N 	0.03732	0	0.36823	-0.199
Mof_N 	N 	0.80618	0.89248	0.55754	-0.162
Mof_N 	N 	0.19382	0.10752	0.44246	-0.184
Mof_N 	N 	0.03732	0.63177	-0	-0.198
Mof_N 	N 	0.9137	0.10752	0.45002	-0.164
Mof_N 	N 	0.80408	0.90924	-0	-0.138
Mof_N 	N 	0.96268	0.36823	-0	-0.216
Mof_N 	N 	0.9137	0.54998	0.89248	-0.158
Mof_N 	N 	0.19592	0.09076	-0	-0.153
Mof_N 	N 	0.96268	0	0.63177	-0.217
_end
