# CIF file generated by openbabel 3.1.0, see https://openbabel.org
data_I
_chemical_name_common 'image0'
_cell_length_a 11.888
_cell_length_b 12.475
_cell_length_c 12.542
_cell_angle_alpha 90
_cell_angle_beta 98.94
_cell_angle_gamma 90
_space_group_name_H-M_alt 'P 1'
_space_group_name_Hall 'P 1'
loop_
    _symmetry_equiv_pos_as_xyz
    x,y,z
loop_
    _atom_site_label
    _atom_site_type_symbol
    _atom_site_fract_x
    _atom_site_fract_y
    _atom_site_fract_z
    _atom_site_occupancy
    C1       C        0.48470    0.33970    0.48980    1.000
    C2       C        0.38870    0.37430    0.52890    1.000
    H1       H        0.32600    0.40020    0.48240    1.000
    C3       C        0.38770    0.36950    0.64070    1.000
    C4       C        0.48170    0.33380    0.71110    1.000
    H2       H        0.47980    0.33020    0.78490    1.000
    C5       C        0.57920    0.30350    0.66950    1.000
    C6       C        0.58010    0.30410    0.55880    1.000
    H3       H        0.64410    0.28080    0.53120    1.000
    C7       C        0.48740    0.34140    0.37030    1.000
    C8       C        0.27940    0.38020    0.78520    1.000
    H4       H        0.30320    0.30650    0.80430    1.000
    C9       C        0.35650    0.45790    0.85910    1.000
    C10      C        0.15580    0.39250    0.79690    1.000
    H5       H        0.11100    0.34160    0.75110    1.000
    H6       H        0.13090    0.46380    0.77640    1.000
    H7       H        0.14680    0.37990    0.87060    1.000
    C11      C        0.69290    0.29530    0.84430    1.000
    H8       H        0.66150    0.36640    0.85520    1.000
    C12      C        0.63240    0.21280    0.90700    1.000
    C13      C        0.81870    0.29810    0.88290    1.000
    H9       H        0.85310    0.35160    0.84330    1.000
    H10      H        0.85100    0.22930    0.87160    1.000
    H11      H        0.83250    0.31530    0.95840    1.000
    C14      C        0.02210    0.54650    0.09100    1.000
    C15      C        0.96300    0.54850    0.98740    1.000
    H12      H        0.00030    0.53390    0.92920    1.000
    C16      C        0.84630    0.57250    0.97020    1.000
    C17      C        0.79040    0.59120    0.05720    1.000
    H13      H        0.71280    0.60600    0.04600    1.000
    C18      C        0.85170    0.58760    0.16300    1.000
    C19      C        0.96680    0.56670    0.17970    1.000
    H14      H        0.00750    0.56590    0.24940    1.000
    C20      C        0.14590    0.52040    0.10840    1.000
    C21      C        0.68650    0.57280    0.24780    1.000
    H15      H        0.63580    0.61990    0.19960    1.000
    C22      C        0.67250    0.45860    0.20910    1.000
    C23      C        0.65950    0.58140    0.36380    1.000
    H16      H        0.67390    0.65320    0.38990    1.000
    H17      H        0.70690    0.53240    0.40970    1.000
    H18      H        0.58090    0.56380    0.36410    1.000
    C24      C        0.68180    0.59940    0.83730    1.000
    H19      H        0.63390    0.55220    0.87380    1.000
    C25      C        0.66130    0.71610    0.86420    1.000
    C26      C        0.65270    0.58620    0.71460    1.000
    H20      H        0.66190    0.51250    0.69580    1.000
    H21      H        0.70260    0.63010    0.68000    1.000
    H22      H        0.57520    0.60770    0.69120    1.000
    O1       O        0.56360    0.28520    0.33750    1.000
    O2       O        0.41700    0.39750    0.31330    1.000
    O3       O        0.28810    0.39790    0.67480    1.000
    O4       O        0.37910    0.54550    0.82630    1.000
    O5       O        0.39050    0.42110    0.95390    1.000
    O6       O        0.67880    0.27460    0.73240    1.000
    O7       O        0.62530    0.23840    0.00150    1.000
    O8       O        0.59290    0.12810    0.85990    1.000
    O9       O        0.19740    0.49690    0.20030    1.000
    O10      O        0.19850    0.52210    0.02770    1.000
    O11      O        0.79740    0.57040    0.86450    1.000
    O12      O        0.74290    0.78170    0.87730    1.000
    O13      O        0.56120    0.74520    0.87100    1.000
    O14      O        0.80200    0.60610    0.25150    1.000
    O15      O        0.75000    0.39120    0.23220    1.000
    O16      O        0.57590    0.43150    0.15600    1.000
    O17      O        0.76370    0.16770    0.34980    1.000
    H23      H        0.77150    0.11100    0.31380    1.000
    H24      H        0.80440    0.16290    0.41170    1.000
    Eu1      Eu       0.37264    0.44573    0.13151    1.000
    Eu2      Eu       0.64118    0.22932    0.18708    1.000
    C27      C        0.51530    0.83970    0.51020    1.000
    C28      C        0.61130    0.87430    0.47110    1.000
    H25      H        0.67400    0.90020    0.51760    1.000
    C29      C        0.61230    0.86950    0.35930    1.000
    C30      C        0.51830    0.83380    0.28890    1.000
    H26      H        0.52020    0.83020    0.21510    1.000
    C31      C        0.42080    0.80350    0.33050    1.000
    C32      C        0.41990    0.80410    0.44120    1.000
    H27      H        0.35590    0.78080    0.46880    1.000
    C33      C        0.51260    0.84140    0.62970    1.000
    C34      C        0.72060    0.88020    0.21480    1.000
    H28      H        0.69680    0.80650    0.19570    1.000
    C35      C        0.64350    0.95790    0.14090    1.000
    C36      C        0.84420    0.89250    0.20310    1.000
    H29      H        0.88900    0.84160    0.24890    1.000
    H30      H        0.86910    0.96380    0.22360    1.000
    H31      H        0.85320    0.87990    0.12940    1.000
    C37      C        0.30710    0.79530    0.15570    1.000
    H32      H        0.33850    0.86640    0.14480    1.000
    C38      C        0.36760    0.71280    0.09300    1.000
    C39      C        0.18130    0.79810    0.11710    1.000
    H33      H        0.14690    0.85160    0.15670    1.000
    H34      H        0.14900    0.72930    0.12840    1.000
    H35      H        0.16750    0.81530    0.04160    1.000
    C40      C        0.97790    0.04650    0.90900    1.000
    C41      C        0.03700    0.04850    0.01260    1.000
    H36      H        0.99970    0.03390    0.07080    1.000
    C42      C        0.15370    0.07250    0.02980    1.000
    C43      C        0.20960    0.09120    0.94280    1.000
    H37      H        0.28720    0.10600    0.95400    1.000
    C44      C        0.14830    0.08760    0.83700    1.000
    C45      C        0.03320    0.06670    0.82030    1.000
    H38      H        0.99250    0.06590    0.75060    1.000
    C46      C        0.85410    0.02040    0.89160    1.000
    C47      C        0.31350    0.07280    0.75220    1.000
    H39      H        0.36420    0.11990    0.80040    1.000
    C48      C        0.32750    0.95860    0.79090    1.000
    C49      C        0.34050    0.08140    0.63620    1.000
    H40      H        0.32610    0.15320    0.61010    1.000
    H41      H        0.29310    0.03240    0.59030    1.000
    H42      H        0.41910    0.06380    0.63590    1.000
    C50      C        0.31820    0.09940    0.16270    1.000
    H43      H        0.36610    0.05220    0.12620    1.000
    C51      C        0.33870    0.21610    0.13580    1.000
    C52      C        0.34730    0.08620    0.28540    1.000
    H44      H        0.33810    0.01250    0.30420    1.000
    H45      H        0.29740    0.13010    0.32000    1.000
    H46      H        0.42480    0.10770    0.30880    1.000
    O18      O        0.43640    0.78520    0.66250    1.000
    O19      O        0.58300    0.89750    0.68670    1.000
    O20      O        0.71190    0.89790    0.32520    1.000
    O21      O        0.62090    0.04550    0.17370    1.000
    O22      O        0.60950    0.92110    0.04610    1.000
    O23      O        0.32120    0.77460    0.26760    1.000
    O24      O        0.37470    0.73840    0.99850    1.000
    O25      O        0.40710    0.62810    0.14010    1.000
    O26      O        0.80260    0.99690    0.79970    1.000
    O27      O        0.80150    0.02210    0.97230    1.000
    O28      O        0.20260    0.07040    0.13550    1.000
    O29      O        0.25710    0.28170    0.12270    1.000
    O30      O        0.43880    0.24520    0.12900    1.000
    O31      O        0.19800    0.10610    0.74850    1.000
    O32      O        0.25000    0.89120    0.76780    1.000
    O33      O        0.42410    0.93150    0.84400    1.000
    O34      O        0.23630    0.66770    0.65020    1.000
    H47      H        0.22850    0.61100    0.68620    1.000
    H48      H        0.19560    0.66290    0.58830    1.000
    Eu3      Eu       0.62736    0.94573    0.86849    1.000
    Eu4      Eu       0.35882    0.72932    0.81292    1.000
