data_functionalizedCrystal
_audit_creation_method	'EQeq! by Chris Wilmer'
_symmetry_space_group_name_H-M	'P1'
_symmetry_Int_Tables_number	1
_symmetry_cell_setting	triclinic
loop_
_symmetry_equiv_pos_as_xyz
  x,y,z
_cell_length_a	9.4299
_cell_length_b	16.49
_cell_length_c	11.2803
_cell_angle_alpha	90
_cell_angle_beta	97.731
_cell_angle_gamma	90
loop_
_atom_site_label
_atom_site_type_symbol
_atom_site_fract_x
_atom_site_fract_y
_atom_site_fract_z
_atom_site_charge
Mof_Zn	Zn	0.36663	0.07754	0.04912	1.238
Mof_O 	O 	0.70782	0.42033	0.64209	-0.417
Mof_O 	O 	0.42611	0.16307	0.94959	-0.433
Mof_O 	O 	0.19357	0.19128	0.91002	-0.282
Mof_O 	O 	0.76876	0.29717	0.71263	-0.264
Mof_O 	O 	0.04506	0.43598	0.66162	-0.456
Mof_O 	O 	0.19979	0.47992	0.54118	-0.47
Mof_C 	C 	0.31931	0.2045	0.89944	0.329
Mof_C 	C 	0.35723	0.27321	0.82068	-0.08
Mof_C 	C 	0.49738	0.28345	0.7972	0.034
Mof_H 	H 	0.569	0.2492	0.833	0.06
Mof_C 	C 	0.53114	0.34459	0.72043	-0.082
Mof_C 	C 	0.42349	0.39558	0.66719	0.05
Mof_H 	H 	0.4455	0.4366	0.6161	0.055
Mof_C 	C 	0.28256	0.38561	0.68989	-0.109
Mof_C 	C 	0.2501	0.32461	0.76714	0.044
Mof_H 	H 	0.1565	0.3181	0.7831	0.055
Mof_C 	C 	0.68085	0.35312	0.69043	0.333
Mof_C 	C 	0.16661	0.4382	0.62652	0.397
Mof_Zn	Zn	0.13337	0.57754	0.45088	1.24
Mof_O 	O 	0.79218	0.92033	0.85791	-0.418
Mof_O 	O 	0.07389	0.66307	0.55041	-0.435
Mof_O 	O 	0.30643	0.69128	0.58998	-0.284
Mof_O 	O 	0.73124	0.79717	0.78737	-0.265
Mof_O 	O 	0.45494	0.93598	0.83838	-0.457
Mof_O 	O 	0.30021	0.97992	0.95882	-0.471
Mof_C 	C 	0.18069	0.7045	0.60056	0.33
Mof_C 	C 	0.14277	0.77321	0.67932	-0.084
Mof_C 	C 	0.00262	0.78345	0.7028	0.042
Mof_H 	H 	0.931	0.7492	0.667	0.057
Mof_C 	C 	0.96886	0.84459	0.77957	-0.089
Mof_C 	C 	0.07651	0.89558	0.83281	0.055
Mof_H 	H 	0.0545	0.9366	0.8839	0.054
Mof_C 	C 	0.21744	0.88561	0.81011	-0.112
Mof_C 	C 	0.2499	0.82461	0.73286	0.048
Mof_H 	H 	0.3435	0.8181	0.7169	0.053
Mof_C 	C 	0.81915	0.85312	0.80957	0.335
Mof_C 	C 	0.33339	0.9382	0.87348	0.398
Mof_Zn	Zn	0.63337	0.92246	0.95088	1.239
Mof_O 	O 	0.29218	0.57967	0.35791	-0.416
Mof_O 	O 	0.57389	0.83693	0.05041	-0.433
Mof_O 	O 	0.80643	0.80872	0.08998	-0.282
Mof_O 	O 	0.23124	0.70283	0.28737	-0.264
Mof_O 	O 	0.95494	0.56402	0.33838	-0.456
Mof_O 	O 	0.80021	0.52008	0.45882	-0.47
Mof_C 	C 	0.68069	0.7955	0.10056	0.329
Mof_C 	C 	0.64277	0.72679	0.17932	-0.08
Mof_C 	C 	0.50262	0.71655	0.2028	0.034
Mof_H 	H 	0.431	0.7508	0.167	0.06
Mof_C 	C 	0.46886	0.65541	0.27957	-0.082
Mof_C 	C 	0.57651	0.60442	0.33281	0.05
Mof_H 	H 	0.5545	0.5634	0.3839	0.055
Mof_C 	C 	0.71744	0.61439	0.31011	-0.109
Mof_C 	C 	0.7499	0.67539	0.23286	0.044
Mof_H 	H 	0.8435	0.6819	0.2169	0.055
Mof_C 	C 	0.31915	0.64688	0.30957	0.333
Mof_C 	C 	0.83339	0.5618	0.37348	0.397
Mof_Zn	Zn	0.86663	0.42246	0.54912	1.24
Mof_O 	O 	0.20782	0.07967	0.14209	-0.418
Mof_O 	O 	0.92611	0.33693	0.44959	-0.435
Mof_O 	O 	0.69357	0.30872	0.41002	-0.284
Mof_O 	O 	0.26876	0.20283	0.21263	-0.265
Mof_O 	O 	0.54506	0.06402	0.16162	-0.457
Mof_O 	O 	0.69979	0.02008	0.04118	-0.471
Mof_C 	C 	0.81931	0.2955	0.39944	0.33
Mof_C 	C 	0.85723	0.22679	0.32068	-0.084
Mof_C 	C 	0.99738	0.21655	0.2972	0.042
Mof_H 	H 	0.069	0.2508	0.333	0.057
Mof_C 	C 	0.03114	0.15541	0.22043	-0.089
Mof_C 	C 	0.92349	0.10442	0.16719	0.055
Mof_H 	H 	0.9455	0.0634	0.1161	0.054
Mof_C 	C 	0.78256	0.11439	0.18989	-0.112
Mof_C 	C 	0.7501	0.17539	0.26714	0.048
Mof_H 	H 	0.6565	0.1819	0.2831	0.053
Mof_C 	C 	0.18085	0.14688	0.19043	0.335
Mof_C 	C 	0.66661	0.0618	0.12652	0.398
_end
