# CIF file generated by openbabel 3.1.0, see https://openbabel.org
data_I
_chemical_name_common 'RUTBUE_clean'
_cell_length_a 11.709
_cell_length_b 11.796
_cell_length_c 12.19
_cell_angle_alpha 76.13
_cell_angle_beta 88.96
_cell_angle_gamma 73.8
_space_group_name_H-M_alt 'P 1'
_space_group_name_Hall 'P 1'
loop_
    _symmetry_equiv_pos_as_xyz
    x,y,z
loop_
    _atom_site_label
    _atom_site_type_symbol
    _atom_site_fract_x
    _atom_site_fract_y
    _atom_site_fract_z
    _atom_site_occupancy
    Na1      Na       0.59730    0.09190    0.76980    1.000
    Na2      Na       0.58350    0.07960    0.07030    1.000
    Na3      Na       0.40270    0.90810    0.23020    1.000
    Na4      Na       0.41650    0.92040    0.92970    1.000
    Sn1      Sn       0.10538    0.41585    0.91053    1.000
    Sn2      Sn       0.91301    0.44607    0.61811    1.000
    Sn3      Sn       0.89462    0.58415    0.08947    1.000
    Sn4      Sn       0.08699    0.55393    0.38189    1.000
    Te1      Te       0.93088    0.64306    0.86285    1.000
    Te2      Te       0.02325    0.27097    0.80477    1.000
    Te3      Te       0.96857    0.37054    0.42414    1.000
    Te4      Te       0.06912    0.35694    0.13715    1.000
    Te5      Te       0.97675    0.72903    0.19523    1.000
    Te6      Te       0.03143    0.62946    0.57586    1.000
    H1       H        0.31590    0.46360    0.89600    1.000
    H2       H        0.25140    0.51750    0.77640    1.000
    H3       H        0.41690    0.34130    0.78150    1.000
    H4       H        0.29880    0.32770    0.73800    1.000
    H5       H        0.68790    0.56490    0.57290    1.000
    H6       H        0.73470    0.61530    0.66440    1.000
    H7       H        0.59890    0.50030    0.73700    1.000
    H8       H        0.71960    0.45350    0.80650    1.000
    H9       H        0.57730    0.74870    0.76420    1.000
    H10      H        0.54540    0.87440    0.67470    1.000
    H11      H        0.67880    0.80500    0.71300    1.000
    H12      H        0.83810    0.11070    0.89490    1.000
    H13      H        0.88450    0.00710    0.00490    1.000
    H14      H        0.88960    0.97540    0.88680    1.000
    H15      H        0.68410    0.53640    0.10400    1.000
    H16      H        0.74860    0.48250    0.22360    1.000
    H17      H        0.58310    0.65870    0.21850    1.000
    H18      H        0.70120    0.67230    0.26200    1.000
    H19      H        0.31210    0.43510    0.42710    1.000
    H20      H        0.26530    0.38470    0.33560    1.000
    H21      H        0.40110    0.49970    0.26300    1.000
    H22      H        0.28040    0.54650    0.19350    1.000
    H23      H        0.42270    0.25130    0.23580    1.000
    H24      H        0.45460    0.12560    0.32530    1.000
    H25      H        0.32120    0.19500    0.28700    1.000
    H26      H        0.16190    0.88930    0.10510    1.000
    H27      H        0.11550    0.99290    0.99510    1.000
    H28      H        0.11040    0.02460    0.11320    1.000
    C1       C        0.26960    0.44810    0.84010    1.000
    C2       C        0.33950    0.33380    0.80300    1.000
    C3       C        0.35380    0.21890    0.89590    1.000
    C4       C        0.73520    0.54230    0.64240    1.000
    C5       C        0.68230    0.46130    0.73460    1.000
    C6       C        0.69760    0.33640    0.71650    1.000
    C7       C        0.59870    0.82310    0.73720    1.000
    C8       C        0.84470    0.02740    0.93170    1.000
    C9       C        0.73040    0.55190    0.15990    1.000
    C10      C        0.66050    0.66620    0.19700    1.000
    C11      C        0.64620    0.78110    0.10410    1.000
    C12      C        0.26480    0.45770    0.35760    1.000
    C13      C        0.31770    0.53870    0.26540    1.000
    C14      C        0.30240    0.66360    0.28350    1.000
    C15      C        0.40130    0.17690    0.26280    1.000
    C16      C        0.15530    0.97260    0.06830    1.000
    O1       O        0.43850    0.12420    0.89390    1.000
    O2       O        0.27700    0.21990    0.97160    1.000
    O3       O        0.77590    0.29970    0.64820    1.000
    O4       O        0.63720    0.27270    0.77070    1.000
    O5       O        0.59060    0.88330    0.82470    1.000
    O6       O        0.73150    0.01120    0.94400    1.000
    O7       O        0.56150    0.87580    0.10610    1.000
    O8       O        0.72300    0.78010    0.02840    1.000
    O9       O        0.22410    0.70030    0.35180    1.000
    O10      O        0.36280    0.72730    0.22930    1.000
    O11      O        0.40940    0.11670    0.17530    1.000
    O12      O        0.26850    0.98880    0.05600    1.000
