data_functionalizedCrystal
_audit_creation_method	'EQeq! by Chris Wilmer'
_symmetry_space_group_name_H-M	'P1'
_symmetry_Int_Tables_number	1
_symmetry_cell_setting	triclinic
loop_
_symmetry_equiv_pos_as_xyz
  x,y,z
_cell_length_a	8.7373
_cell_length_b	20.691
_cell_length_c	34.124
_cell_angle_alpha	90
_cell_angle_beta	90
_cell_angle_gamma	90
loop_
_atom_site_label
_atom_site_type_symbol
_atom_site_fract_x
_atom_site_fract_y
_atom_site_fract_z
_atom_site_charge
Mof_O 	O 	0.2442	0.3352	0.593	-0.606
Mof_O 	O 	0.007	0.3334	0.5704	-0.56
Mof_O 	O 	0.2469	0.4574	0.6363	-0.595
Mof_C 	C 	0.148	0.3198	0.5673	0.552
Mof_C 	C 	0.2001	0.2845	0.5328	-0.164
Mof_C 	C 	0.0956	0.2636	0.5051	0.002
Mof_C 	C 	0.1461	0.2291	0.4726	0.019
Mof_C 	C 	0.2504	0.5913	0.6396	-0.003
Mof_C 	C 	0.2503	0.6586	0.6396	-0.01
Mof_H 	H 	0.9897	0.2727	0.5083	0.043
Mof_H 	H 	0.0738	0.2146	0.4537	0.024
Mof_H 	H 	0.328	0.5686	0.6534	0.039
Mof_H 	H 	0.3279	0.6812	0.6534	0.033
Mof_O 	O 	0.2442	0.8352	0.093	-0.607
Mof_O 	O 	0.007	0.8334	0.0704	-0.559
Mof_O 	O 	0.2469	0.9574	0.1363	-0.595
Mof_C 	C 	0.148	0.8198	0.0673	0.553
Mof_C 	C 	0.2001	0.7845	0.0328	-0.168
Mof_C 	C 	0.0956	0.7636	0.0051	0.012
Mof_C 	C 	0.1461	0.7291	0.9726	0.013
Mof_C 	C 	0.2504	0.0913	0.1396	-0.002
Mof_C 	C 	0.2503	0.1586	0.1396	-0.01
Mof_H 	H 	0.9897	0.7727	0.0083	0.038
Mof_H 	H 	0.0738	0.7146	0.9537	0.027
Mof_H 	H 	0.328	0.0686	0.1534	0.039
Mof_H 	H 	0.3279	0.1812	0.1534	0.033
Mof_O 	O 	0.7442	0.3352	0.093	-0.607
Mof_O 	O 	0.507	0.3334	0.0704	-0.561
Mof_O 	O 	0.7469	0.4574	0.1363	-0.595
Mof_C 	C 	0.648	0.3198	0.0673	0.551
Mof_C 	C 	0.7001	0.2845	0.0328	-0.163
Mof_C 	C 	0.5956	0.2636	0.0051	0.002
Mof_C 	C 	0.6461	0.2291	0.9726	0.02
Mof_C 	C 	0.7504	0.5913	0.1396	-0.003
Mof_C 	C 	0.7503	0.6586	0.1396	-0.009
Mof_H 	H 	0.4897	0.2727	0.0083	0.043
Mof_H 	H 	0.5738	0.2146	0.9537	0.024
Mof_H 	H 	0.828	0.5686	0.1534	0.039
Mof_H 	H 	0.8279	0.6812	0.1534	0.033
Mof_O 	O 	0.7442	0.8352	0.593	-0.607
Mof_O 	O 	0.507	0.8334	0.5704	-0.561
Mof_O 	O 	0.7469	0.9574	0.6363	-0.595
Mof_C 	C 	0.648	0.8198	0.5673	0.552
Mof_C 	C 	0.7001	0.7845	0.5328	-0.166
Mof_C 	C 	0.5956	0.7636	0.5051	0.005
Mof_C 	C 	0.6461	0.7291	0.4726	0.016
Mof_C 	C 	0.7504	0.0913	0.6396	-0.003
Mof_C 	C 	0.7503	0.1586	0.6396	-0.009
Mof_H 	H 	0.4897	0.7727	0.5083	0.042
Mof_H 	H 	0.5738	0.7146	0.4537	0.025
Mof_H 	H 	0.828	0.0686	0.6534	0.039
Mof_H 	H 	0.8279	0.1812	0.6534	0.033
Mof_O 	O 	0.5058	0.4148	0.593	-0.607
Mof_O 	O 	0.743	0.4166	0.5704	-0.561
Mof_O 	O 	0.5031	0.2926	0.6363	-0.595
Mof_C 	C 	0.602	0.4302	0.5673	0.552
Mof_C 	C 	0.5499	0.4655	0.5328	-0.165
Mof_C 	C 	0.6544	0.4864	0.5051	0.005
Mof_C 	C 	0.6039	0.5209	0.4726	0.017
Mof_C 	C 	0.4996	0.1587	0.6396	-0.003
Mof_C 	C 	0.4997	0.0914	0.6396	-0.01
Mof_H 	H 	0.7603	0.4773	0.5083	0.042
Mof_H 	H 	0.6762	0.5354	0.4537	0.025
Mof_H 	H 	0.422	0.1814	0.6534	0.039
Mof_H 	H 	0.4221	0.0688	0.6534	0.033
Mof_O 	O 	0.5058	0.9148	0.093	-0.607
Mof_O 	O 	0.743	0.9166	0.0704	-0.561
Mof_O 	O 	0.5031	0.7926	0.1363	-0.595
Mof_C 	C 	0.602	0.9302	0.0673	0.552
Mof_C 	C 	0.5499	0.9655	0.0328	-0.165
Mof_C 	C 	0.6544	0.9864	0.0051	0.004
Mof_C 	C 	0.6039	0.0209	0.9726	0.019
Mof_C 	C 	0.4996	0.6587	0.1396	-0.003
Mof_C 	C 	0.4997	0.5914	0.1396	-0.009
Mof_H 	H 	0.7603	0.9773	0.0083	0.041
Mof_H 	H 	0.6762	0.0354	0.9537	0.025
Mof_H 	H 	0.422	0.6814	0.1534	0.039
Mof_H 	H 	0.4221	0.5688	0.1534	0.033
Mof_O 	O 	0.0058	0.4148	0.093	-0.606
Mof_O 	O 	0.243	0.4166	0.0704	-0.561
Mof_O 	O 	0.0031	0.2926	0.1363	-0.595
Mof_C 	C 	0.102	0.4302	0.0673	0.552
Mof_C 	C 	0.0499	0.4655	0.0328	-0.164
Mof_C 	C 	0.1544	0.4864	0.0051	0.005
Mof_C 	C 	0.1039	0.5209	0.9726	0.015
Mof_C 	C 	0.9996	0.1587	0.1396	-0.003
Mof_C 	C 	0.9997	0.0914	0.1396	-0.008
Mof_H 	H 	0.2603	0.4773	0.0083	0.042
Mof_H 	H 	0.1762	0.5354	0.9537	0.026
Mof_H 	H 	0.922	0.1814	0.1534	0.039
Mof_H 	H 	0.9221	0.0688	0.1534	0.033
Mof_O 	O 	0.0058	0.9148	0.593	-0.604
Mof_O 	O 	0.243	0.9166	0.5704	-0.561
Mof_O 	O 	0.0031	0.7926	0.6363	-0.593
Mof_C 	C 	0.102	0.9302	0.5673	0.551
Mof_C 	C 	0.0499	0.9655	0.5328	-0.162
Mof_C 	C 	0.1544	0.9864	0.5051	0.008
Mof_C 	C 	0.1039	0.0209	0.4726	0.011
Mof_C 	C 	0.9996	0.6587	0.6396	-0.004
Mof_C 	C 	0.9997	0.5914	0.6396	-0.01
Mof_H 	H 	0.2603	0.9773	0.5083	0.041
Mof_H 	H 	0.1762	0.0354	0.4537	0.027
Mof_H 	H 	0.922	0.6814	0.6534	0.039
Mof_H 	H 	0.9221	0.5688	0.6534	0.033
Mof_O 	O 	0.5058	0.3352	0.157	-0.607
Mof_O 	O 	0.743	0.3334	0.1796	-0.561
Mof_O 	O 	0.5031	0.4574	0.1137	-0.595
Mof_C 	C 	0.602	0.3198	0.1827	0.552
Mof_C 	C 	0.5499	0.2845	0.2172	-0.165
Mof_C 	C 	0.6544	0.2636	0.2449	0.005
Mof_C 	C 	0.6039	0.2291	0.2774	0.017
Mof_C 	C 	0.4996	0.5913	0.1104	-0.003
Mof_C 	C 	0.4997	0.6586	0.1104	-0.01
Mof_H 	H 	0.7603	0.2727	0.2417	0.042
Mof_H 	H 	0.6762	0.2146	0.2963	0.025
Mof_H 	H 	0.422	0.5686	0.0966	0.039
Mof_H 	H 	0.4221	0.6812	0.0966	0.033
Mof_O 	O 	0.5058	0.8352	0.657	-0.607
Mof_O 	O 	0.743	0.8334	0.6796	-0.561
Mof_O 	O 	0.5031	0.9574	0.6137	-0.595
Mof_C 	C 	0.602	0.8198	0.6827	0.552
Mof_C 	C 	0.5499	0.7845	0.7172	-0.165
Mof_C 	C 	0.6544	0.7636	0.7449	0.005
Mof_C 	C 	0.6039	0.7291	0.7774	0.017
Mof_C 	C 	0.4996	0.0913	0.6104	-0.003
Mof_C 	C 	0.4997	0.1586	0.6104	-0.009
Mof_H 	H 	0.7603	0.7727	0.7417	0.042
Mof_H 	H 	0.6762	0.7146	0.7963	0.025
Mof_H 	H 	0.422	0.0686	0.5966	0.039
Mof_H 	H 	0.4221	0.1812	0.5966	0.033
Mof_O 	O 	0.0058	0.3352	0.657	-0.607
Mof_O 	O 	0.243	0.3334	0.6796	-0.562
Mof_O 	O 	0.0031	0.4574	0.6137	-0.595
Mof_C 	C 	0.102	0.3198	0.6827	0.554
Mof_C 	C 	0.0499	0.2845	0.7172	-0.169
Mof_C 	C 	0.1544	0.2636	0.7449	0.009
Mof_C 	C 	0.1039	0.2291	0.7774	0.011
Mof_C 	C 	0.9996	0.5913	0.6104	-0.004
Mof_C 	C 	0.9997	0.6586	0.6104	-0.011
Mof_H 	H 	0.2603	0.2727	0.7417	0.04
Mof_H 	H 	0.1762	0.2146	0.7963	0.027
Mof_H 	H 	0.922	0.5686	0.5966	0.039
Mof_H 	H 	0.9221	0.6812	0.5966	0.033
Mof_O 	O 	0.0058	0.8352	0.157	-0.604
Mof_O 	O 	0.243	0.8334	0.1796	-0.56
Mof_O 	O 	0.0031	0.9574	0.1137	-0.592
Mof_C 	C 	0.102	0.8198	0.1827	0.55
Mof_C 	C 	0.0499	0.7845	0.2172	-0.16
Mof_C 	C 	0.1544	0.7636	0.2449	0.001
Mof_C 	C 	0.1039	0.7291	0.2774	0.022
Mof_C 	C 	0.9996	0.0913	0.1104	-0.002
Mof_C 	C 	0.9997	0.1586	0.1104	-0.01
Mof_H 	H 	0.2603	0.7727	0.2417	0.043
Mof_H 	H 	0.1762	0.7146	0.2963	0.024
Mof_H 	H 	0.922	0.0686	0.0966	0.039
Mof_H 	H 	0.9221	0.1812	0.0966	0.033
Mof_O 	O 	0.2442	0.4148	0.157	-0.607
Mof_O 	O 	0.007	0.4166	0.1796	-0.561
Mof_O 	O 	0.2469	0.2926	0.1137	-0.595
Mof_C 	C 	0.148	0.4302	0.1827	0.552
Mof_C 	C 	0.2001	0.4655	0.2172	-0.166
Mof_C 	C 	0.0956	0.4864	0.2449	0.006
Mof_C 	C 	0.1461	0.5209	0.2774	0.017
Mof_C 	C 	0.2504	0.1587	0.1104	-0.003
Mof_C 	C 	0.2503	0.0914	0.1104	-0.009
Mof_H 	H 	0.9897	0.4773	0.2417	0.041
Mof_H 	H 	0.0738	0.5354	0.2963	0.025
Mof_H 	H 	0.328	0.1814	0.0966	0.039
Mof_H 	H 	0.3279	0.0688	0.0966	0.033
Mof_O 	O 	0.2442	0.9148	0.657	-0.607
Mof_O 	O 	0.007	0.9166	0.6796	-0.56
Mof_O 	O 	0.2469	0.7926	0.6137	-0.594
Mof_C 	C 	0.148	0.9302	0.6827	0.554
Mof_C 	C 	0.2001	0.9655	0.7172	-0.171
Mof_C 	C 	0.0956	0.9864	0.7449	0.016
Mof_C 	C 	0.1461	0.0209	0.7774	0.008
Mof_C 	C 	0.2504	0.6587	0.6104	-0.003
Mof_C 	C 	0.2503	0.5914	0.6104	-0.009
Mof_H 	H 	0.9897	0.9773	0.7417	0.036
Mof_H 	H 	0.0738	0.0354	0.7963	0.027
Mof_H 	H 	0.328	0.6814	0.5966	0.039
Mof_H 	H 	0.3279	0.5688	0.5966	0.033
Mof_O 	O 	0.7442	0.4148	0.657	-0.607
Mof_O 	O 	0.507	0.4166	0.6796	-0.561
Mof_O 	O 	0.7469	0.2926	0.6137	-0.595
Mof_C 	C 	0.648	0.4302	0.6827	0.552
Mof_C 	C 	0.7001	0.4655	0.7172	-0.165
Mof_C 	C 	0.5956	0.4864	0.7449	0.004
Mof_C 	C 	0.6461	0.5209	0.7774	0.018
Mof_C 	C 	0.7504	0.1587	0.6104	-0.003
Mof_C 	C 	0.7503	0.0914	0.6104	-0.01
Mof_H 	H 	0.4897	0.4773	0.7417	0.042
Mof_H 	H 	0.5738	0.5354	0.7963	0.025
Mof_H 	H 	0.828	0.1814	0.5966	0.039
Mof_H 	H 	0.8279	0.0688	0.5966	0.034
Mof_O 	O 	0.7442	0.9148	0.157	-0.606
Mof_O 	O 	0.507	0.9166	0.1796	-0.561
Mof_O 	O 	0.7469	0.7926	0.1137	-0.594
Mof_C 	C 	0.648	0.9302	0.1827	0.55
Mof_C 	C 	0.7001	0.9655	0.2172	-0.16
Mof_C 	C 	0.5956	0.9864	0.2449	-0.001
Mof_C 	C 	0.6461	0.0209	0.2774	0.023
Mof_C 	C 	0.7504	0.6587	0.1104	-0.003
Mof_C 	C 	0.7503	0.5914	0.1104	-0.009
Mof_H 	H 	0.4897	0.9773	0.2417	0.044
Mof_H 	H 	0.5738	0.0354	0.2963	0.023
Mof_H 	H 	0.828	0.6814	0.0966	0.039
Mof_H 	H 	0.8279	0.5688	0.0966	0.033
Mof_O 	O 	0.7558	0.6648	0.407	-0.607
Mof_O 	O 	0.993	0.6666	0.4296	-0.561
Mof_O 	O 	0.7531	0.5426	0.3637	-0.595
Mof_C 	C 	0.852	0.6802	0.4327	0.552
Mof_C 	C 	0.7999	0.7155	0.4672	-0.164
Mof_C 	C 	0.9044	0.7364	0.4949	0.002
Mof_C 	C 	0.8539	0.7709	0.5274	0.019
Mof_C 	C 	0.7496	0.4087	0.3604	-0.003
Mof_C 	C 	0.7497	0.3414	0.3604	-0.01
Mof_H 	H 	0.0103	0.7273	0.4917	0.043
Mof_H 	H 	0.9262	0.7854	0.5463	0.024
Mof_H 	H 	0.672	0.4314	0.3466	0.039
Mof_H 	H 	0.6721	0.3188	0.3466	0.033
Mof_O 	O 	0.7558	0.1648	0.907	-0.607
Mof_O 	O 	0.993	0.1666	0.9296	-0.559
Mof_O 	O 	0.7531	0.0426	0.8637	-0.595
Mof_C 	C 	0.852	0.1802	0.9327	0.553
Mof_C 	C 	0.7999	0.2155	0.9672	-0.168
Mof_C 	C 	0.9044	0.2364	0.9949	0.012
Mof_C 	C 	0.8539	0.2709	0.0274	0.013
Mof_C 	C 	0.7496	0.9087	0.8604	-0.002
Mof_C 	C 	0.7497	0.8414	0.8604	-0.01
Mof_H 	H 	0.0103	0.2273	0.9917	0.038
Mof_H 	H 	0.9262	0.2854	0.0463	0.027
Mof_H 	H 	0.672	0.9314	0.8466	0.039
Mof_H 	H 	0.6721	0.8188	0.8466	0.033
Mof_O 	O 	0.2558	0.6648	0.907	-0.607
Mof_O 	O 	0.493	0.6666	0.9296	-0.561
Mof_O 	O 	0.2531	0.5426	0.8637	-0.595
Mof_C 	C 	0.352	0.6802	0.9327	0.551
Mof_C 	C 	0.2999	0.7155	0.9672	-0.163
Mof_C 	C 	0.4044	0.7364	0.9949	0.002
Mof_C 	C 	0.3539	0.7709	0.0274	0.02
Mof_C 	C 	0.2496	0.4087	0.8604	-0.003
Mof_C 	C 	0.2497	0.3414	0.8604	-0.009
Mof_H 	H 	0.5103	0.7273	0.9917	0.043
Mof_H 	H 	0.4262	0.7854	0.0463	0.024
Mof_H 	H 	0.172	0.4314	0.8466	0.039
Mof_H 	H 	0.1721	0.3188	0.8466	0.033
Mof_O 	O 	0.2558	0.1648	0.407	-0.607
Mof_O 	O 	0.493	0.1666	0.4296	-0.561
Mof_O 	O 	0.2531	0.0426	0.3637	-0.595
Mof_C 	C 	0.352	0.1802	0.4327	0.552
Mof_C 	C 	0.2999	0.2155	0.4672	-0.166
Mof_C 	C 	0.4044	0.2364	0.4949	0.005
Mof_C 	C 	0.3539	0.2709	0.5274	0.016
Mof_C 	C 	0.2496	0.9087	0.3604	-0.003
Mof_C 	C 	0.2497	0.8414	0.3604	-0.009
Mof_H 	H 	0.5103	0.2273	0.4917	0.042
Mof_H 	H 	0.4262	0.2854	0.5463	0.025
Mof_H 	H 	0.172	0.9314	0.3466	0.039
Mof_H 	H 	0.1721	0.8188	0.3466	0.033
Mof_O 	O 	0.4942	0.5852	0.407	-0.607
Mof_O 	O 	0.257	0.5834	0.4296	-0.561
Mof_O 	O 	0.4969	0.7074	0.3637	-0.595
Mof_C 	C 	0.398	0.5698	0.4327	0.552
Mof_C 	C 	0.4501	0.5345	0.4672	-0.165
Mof_C 	C 	0.3456	0.5136	0.4949	0.005
Mof_C 	C 	0.3961	0.4791	0.5274	0.017
Mof_C 	C 	0.5004	0.8413	0.3604	-0.003
Mof_C 	C 	0.5003	0.9086	0.3604	-0.01
Mof_H 	H 	0.2397	0.5227	0.4917	0.042
Mof_H 	H 	0.3238	0.4646	0.5463	0.025
Mof_H 	H 	0.578	0.8186	0.3466	0.039
Mof_H 	H 	0.5779	0.9312	0.3466	0.033
Mof_O 	O 	0.4942	0.0852	0.907	-0.607
Mof_O 	O 	0.257	0.0834	0.9296	-0.561
Mof_O 	O 	0.4969	0.2074	0.8637	-0.595
Mof_C 	C 	0.398	0.0698	0.9327	0.552
Mof_C 	C 	0.4501	0.0345	0.9672	-0.165
Mof_C 	C 	0.3456	0.0136	0.9949	0.004
Mof_C 	C 	0.3961	0.9791	0.0274	0.019
Mof_C 	C 	0.5004	0.3413	0.8604	-0.003
Mof_C 	C 	0.5003	0.4086	0.8604	-0.009
Mof_H 	H 	0.2397	0.0227	0.9917	0.041
Mof_H 	H 	0.3238	0.9646	0.0463	0.025
Mof_H 	H 	0.578	0.3186	0.8466	0.039
Mof_H 	H 	0.5779	0.4312	0.8466	0.033
Mof_O 	O 	0.9942	0.5852	0.907	-0.606
Mof_O 	O 	0.757	0.5834	0.9296	-0.561
Mof_O 	O 	0.9969	0.7074	0.8637	-0.595
Mof_C 	C 	0.898	0.5698	0.9327	0.552
Mof_C 	C 	0.9501	0.5345	0.9672	-0.164
Mof_C 	C 	0.8456	0.5136	0.9949	0.005
Mof_C 	C 	0.8961	0.4791	0.0274	0.015
Mof_C 	C 	0.0004	0.8413	0.8604	-0.003
Mof_C 	C 	0.0003	0.9086	0.8604	-0.008
Mof_H 	H 	0.7397	0.5227	0.9917	0.042
Mof_H 	H 	0.8238	0.4646	0.0463	0.026
Mof_H 	H 	0.078	0.8186	0.8466	0.039
Mof_H 	H 	0.0779	0.9312	0.8466	0.033
Mof_O 	O 	0.9942	0.0852	0.407	-0.604
Mof_O 	O 	0.757	0.0834	0.4296	-0.561
Mof_O 	O 	0.9969	0.2074	0.3637	-0.593
Mof_C 	C 	0.898	0.0698	0.4327	0.551
Mof_C 	C 	0.9501	0.0345	0.4672	-0.162
Mof_C 	C 	0.8456	0.0136	0.4949	0.008
Mof_C 	C 	0.8961	0.9791	0.5274	0.011
Mof_C 	C 	0.0004	0.3413	0.3604	-0.004
Mof_C 	C 	0.0003	0.4086	0.3604	-0.01
Mof_H 	H 	0.7397	0.0227	0.4917	0.041
Mof_H 	H 	0.8238	0.9646	0.5463	0.027
Mof_H 	H 	0.078	0.3186	0.3466	0.039
Mof_H 	H 	0.0779	0.4312	0.3466	0.033
Mof_O 	O 	0.4942	0.6648	0.843	-0.607
Mof_O 	O 	0.257	0.6666	0.8204	-0.561
Mof_O 	O 	0.4969	0.5426	0.8863	-0.595
Mof_C 	C 	0.398	0.6802	0.8173	0.552
Mof_C 	C 	0.4501	0.7155	0.7828	-0.165
Mof_C 	C 	0.3456	0.7364	0.7551	0.005
Mof_C 	C 	0.3961	0.7709	0.7226	0.017
Mof_C 	C 	0.5004	0.4087	0.8896	-0.003
Mof_C 	C 	0.5003	0.3414	0.8896	-0.01
Mof_H 	H 	0.2397	0.7273	0.7583	0.042
Mof_H 	H 	0.3238	0.7854	0.7037	0.025
Mof_H 	H 	0.578	0.4314	0.9034	0.039
Mof_H 	H 	0.5779	0.3188	0.9034	0.033
Mof_O 	O 	0.4942	0.1648	0.343	-0.607
Mof_O 	O 	0.257	0.1666	0.3204	-0.561
Mof_O 	O 	0.4969	0.0426	0.3863	-0.595
Mof_C 	C 	0.398	0.1802	0.3173	0.552
Mof_C 	C 	0.4501	0.2155	0.2828	-0.165
Mof_C 	C 	0.3456	0.2364	0.2551	0.005
Mof_C 	C 	0.3961	0.2709	0.2226	0.017
Mof_C 	C 	0.5004	0.9087	0.3896	-0.003
Mof_C 	C 	0.5003	0.8414	0.3896	-0.009
Mof_H 	H 	0.2397	0.2273	0.2583	0.042
Mof_H 	H 	0.3238	0.2854	0.2037	0.025
Mof_H 	H 	0.578	0.9314	0.4034	0.039
Mof_H 	H 	0.5779	0.8188	0.4034	0.033
Mof_O 	O 	0.9942	0.6648	0.343	-0.607
Mof_O 	O 	0.757	0.6666	0.3204	-0.562
Mof_O 	O 	0.9969	0.5426	0.3863	-0.595
Mof_C 	C 	0.898	0.6802	0.3173	0.554
Mof_C 	C 	0.9501	0.7155	0.2828	-0.169
Mof_C 	C 	0.8456	0.7364	0.2551	0.009
Mof_C 	C 	0.8961	0.7709	0.2226	0.011
Mof_C 	C 	0.0004	0.4087	0.3896	-0.004
Mof_C 	C 	0.0003	0.3414	0.3896	-0.011
Mof_H 	H 	0.7397	0.7273	0.2583	0.04
Mof_H 	H 	0.8238	0.7854	0.2037	0.027
Mof_H 	H 	0.078	0.4314	0.4034	0.039
Mof_H 	H 	0.0779	0.3188	0.4034	0.033
Mof_O 	O 	0.9942	0.1648	0.843	-0.604
Mof_O 	O 	0.757	0.1666	0.8204	-0.56
Mof_O 	O 	0.9969	0.0426	0.8863	-0.592
Mof_C 	C 	0.898	0.1802	0.8173	0.55
Mof_C 	C 	0.9501	0.2155	0.7828	-0.16
Mof_C 	C 	0.8456	0.2364	0.7551	0.001
Mof_C 	C 	0.8961	0.2709	0.7226	0.022
Mof_C 	C 	0.0004	0.9087	0.8896	-0.002
Mof_C 	C 	0.0003	0.8414	0.8896	-0.01
Mof_H 	H 	0.7397	0.2273	0.7583	0.043
Mof_H 	H 	0.8238	0.2854	0.7037	0.024
Mof_H 	H 	0.078	0.9314	0.9034	0.039
Mof_H 	H 	0.0779	0.8188	0.9034	0.033
Mof_O 	O 	0.7558	0.5852	0.843	-0.607
Mof_O 	O 	0.993	0.5834	0.8204	-0.561
Mof_O 	O 	0.7531	0.7074	0.8863	-0.595
Mof_C 	C 	0.852	0.5698	0.8173	0.552
Mof_C 	C 	0.7999	0.5345	0.7828	-0.166
Mof_C 	C 	0.9044	0.5136	0.7551	0.006
Mof_C 	C 	0.8539	0.4791	0.7226	0.017
Mof_C 	C 	0.7496	0.8413	0.8896	-0.003
Mof_C 	C 	0.7497	0.9086	0.8896	-0.009
Mof_H 	H 	0.0103	0.5227	0.7583	0.041
Mof_H 	H 	0.9262	0.4646	0.7037	0.025
Mof_H 	H 	0.672	0.8186	0.9034	0.039
Mof_H 	H 	0.6721	0.9312	0.9034	0.033
Mof_O 	O 	0.7558	0.0852	0.343	-0.607
Mof_O 	O 	0.993	0.0834	0.3204	-0.56
Mof_O 	O 	0.7531	0.2074	0.3863	-0.594
Mof_C 	C 	0.852	0.0698	0.3173	0.554
Mof_C 	C 	0.7999	0.0345	0.2828	-0.171
Mof_C 	C 	0.9044	0.0136	0.2551	0.016
Mof_C 	C 	0.8539	0.9791	0.2226	0.008
Mof_C 	C 	0.7496	0.3413	0.3896	-0.003
Mof_C 	C 	0.7497	0.4086	0.3896	-0.009
Mof_H 	H 	0.0103	0.0227	0.2583	0.036
Mof_H 	H 	0.9262	0.9646	0.2037	0.027
Mof_H 	H 	0.672	0.3186	0.4034	0.039
Mof_H 	H 	0.6721	0.4312	0.4034	0.033
Mof_O 	O 	0.2558	0.5852	0.343	-0.607
Mof_O 	O 	0.493	0.5834	0.3204	-0.561
Mof_O 	O 	0.2531	0.7074	0.3863	-0.595
Mof_C 	C 	0.352	0.5698	0.3173	0.552
Mof_C 	C 	0.2999	0.5345	0.2828	-0.165
Mof_C 	C 	0.4044	0.5136	0.2551	0.004
Mof_C 	C 	0.3539	0.4791	0.2226	0.018
Mof_C 	C 	0.2496	0.8413	0.3896	-0.003
Mof_C 	C 	0.2497	0.9086	0.3896	-0.01
Mof_H 	H 	0.5103	0.5227	0.2583	0.042
Mof_H 	H 	0.4262	0.4646	0.2037	0.025
Mof_H 	H 	0.172	0.8186	0.4034	0.039
Mof_H 	H 	0.1721	0.9312	0.4034	0.034
Mof_O 	O 	0.2558	0.0852	0.843	-0.606
Mof_O 	O 	0.493	0.0834	0.8204	-0.561
Mof_O 	O 	0.2531	0.2074	0.8863	-0.594
Mof_C 	C 	0.352	0.0698	0.8173	0.55
Mof_C 	C 	0.2999	0.0345	0.7828	-0.16
Mof_C 	C 	0.4044	0.0136	0.7551	-0.001
Mof_C 	C 	0.3539	0.9791	0.7226	0.023
Mof_C 	C 	0.2496	0.3413	0.8896	-0.003
Mof_C 	C 	0.2497	0.4086	0.8896	-0.009
Mof_H 	H 	0.5103	0.0227	0.7583	0.044
Mof_H 	H 	0.4262	0.9646	0.7037	0.023
Mof_H 	H 	0.172	0.3186	0.9034	0.039
Mof_H 	H 	0.1721	0.4312	0.9034	0.033
Mof_Sc	Sc	0.375	0.375	0.63578	2.044
Mof_Sc	Sc	0.375	0.875	0.13578	2.044
Mof_Sc	Sc	0.875	0.375	0.13578	2.042
Mof_Sc	Sc	0.875	0.875	0.63578	2.038
Mof_Sc	Sc	0.375	0.375	0.11422	2.044
Mof_Sc	Sc	0.375	0.875	0.61422	2.044
Mof_Sc	Sc	0.875	0.375	0.61422	2.044
Mof_Sc	Sc	0.875	0.875	0.11422	2.036
Mof_Sc	Sc	0.625	0.625	0.36422	2.044
Mof_Sc	Sc	0.625	0.125	0.86422	2.044
Mof_Sc	Sc	0.125	0.625	0.86422	2.042
Mof_Sc	Sc	0.125	0.125	0.36422	2.038
Mof_Sc	Sc	0.625	0.625	0.88578	2.044
Mof_Sc	Sc	0.625	0.125	0.38578	2.044
Mof_Sc	Sc	0.125	0.625	0.38578	2.044
Mof_Sc	Sc	0.125	0.125	0.88578	2.036
Mof_C 	C 	0.125	0.4833	0.625	0.542
Mof_C 	C 	0.125	0.5578	0.625	-0.13
Mof_C 	C 	0.125	0.9833	0.125	0.544
Mof_C 	C 	0.125	0.0578	0.125	-0.134
Mof_C 	C 	0.625	0.9833	0.625	0.541
Mof_C 	C 	0.625	0.0578	0.625	-0.13
Mof_C 	C 	0.625	0.2667	0.625	0.542
Mof_C 	C 	0.625	0.1922	0.625	-0.131
Mof_C 	C 	0.625	0.7667	0.125	0.542
Mof_C 	C 	0.625	0.6922	0.125	-0.131
Mof_C 	C 	0.625	0.4833	0.125	0.542
Mof_C 	C 	0.625	0.5578	0.125	-0.131
Mof_C 	C 	0.125	0.2667	0.125	0.542
Mof_C 	C 	0.125	0.1922	0.125	-0.131
Mof_C 	C 	0.125	0.7667	0.625	0.541
Mof_C 	C 	0.125	0.6922	0.625	-0.128
Mof_C 	C 	0.875	0.5167	0.375	0.542
Mof_C 	C 	0.875	0.4422	0.375	-0.13
Mof_C 	C 	0.875	0.0167	0.875	0.544
Mof_C 	C 	0.875	0.9422	0.875	-0.134
Mof_C 	C 	0.375	0.7333	0.375	0.542
Mof_C 	C 	0.375	0.8078	0.375	-0.131
Mof_C 	C 	0.375	0.2333	0.875	0.542
Mof_C 	C 	0.375	0.3078	0.875	-0.131
Mof_C 	C 	0.375	0.5167	0.875	0.542
Mof_C 	C 	0.375	0.4422	0.875	-0.131
Mof_C 	C 	0.375	0.0167	0.375	0.541
Mof_C 	C 	0.375	0.9422	0.375	-0.13
Mof_C 	C 	0.875	0.7333	0.875	0.542
Mof_C 	C 	0.875	0.8078	0.875	-0.131
Mof_C 	C 	0.875	0.2333	0.375	0.541
Mof_C 	C 	0.875	0.3078	0.375	-0.128
_end
