data_functionalizedCrystal
_audit_creation_method	'EQeq! by Chris Wilmer'
_symmetry_space_group_name_H-M	'P1'
_symmetry_Int_Tables_number	1
_symmetry_cell_setting	triclinic
loop_
_symmetry_equiv_pos_as_xyz
  x,y,z
_cell_length_a	12.13
_cell_length_b	12.7016
_cell_length_c	21.819
_cell_angle_alpha	82.7499
_cell_angle_beta	74.675
_cell_angle_gamma	61.4777
loop_
_atom_site_label
_atom_site_type_symbol
_atom_site_fract_x
_atom_site_fract_y
_atom_site_fract_z
_atom_site_charge
Mof_Tb	Tb	0.76826	0.73906	0.47445	1.974
Mof_Tb	Tb	0.49268	0.73906	0.02555	1.973
Mof_Tb	Tb	0.23174	0.26094	0.52555	1.974
Mof_Tb	Tb	0.50732	0.26094	0.97445	1.973
Mof_Tb	Tb	0.7875	0.425	0.25	1.617
Mof_Tb	Tb	0.2125	0.575	0.75	1.617
Mof_Tb	Tb	0.24701	0.50598	0.25	2.149
Mof_Tb	Tb	0.75299	0.49402	0.75	2.149
Mof_H 	H 	0.0286	0.8694	0.4151	0.042
Mof_H 	H 	0.4182	0.702	0.3832	0.051
Mof_H 	H 	0.0637	0.0402	0.4075	0.055
Mof_H 	H 	0.3726	0.8076	0.4756	0.058
Mof_H 	H 	0.5317	0.876	0.1631	0.05
Mof_H 	H 	0.4152	0.0578	0.3454	0.061
Mof_H 	H 	0.102	0.8694	0.0849	0.042
Mof_H 	H 	0.8798	0.702	0.1168	0.051
Mof_H 	H 	0.8961	0.0402	0.0925	0.055
Mof_H 	H 	0.8198	0.8076	0.0244	0.059
Mof_H 	H 	0.5923	0.876	0.3369	0.05
Mof_H 	H 	0.527	0.0578	0.1546	0.061
Mof_H 	H 	0.9714	0.1306	0.5849	0.042
Mof_H 	H 	0.5818	0.298	0.6168	0.051
Mof_H 	H 	0.9363	0.9598	0.5925	0.055
Mof_H 	H 	0.6274	0.1924	0.5244	0.058
Mof_H 	H 	0.4683	0.124	0.8369	0.05
Mof_H 	H 	0.5848	0.9422	0.6546	0.061
Mof_H 	H 	0.898	0.1306	0.9151	0.042
Mof_H 	H 	0.1202	0.298	0.8832	0.051
Mof_H 	H 	0.1039	0.9598	0.9075	0.055
Mof_H 	H 	0.1802	0.1924	0.9756	0.059
Mof_H 	H 	0.4077	0.124	0.6631	0.05
Mof_H 	H 	0.473	0.9422	0.8454	0.061
Mof_C 	C 	0.6468	0.6316	0.1496	0.44
Mof_C 	C 	0.2809	0.3004	0.3605	0.411
Mof_C 	C 	0.0039	0.718	0.3471	0.401
Mof_C 	C 	0.1204	0.7208	0.3607	-0.05
Mof_C 	C 	0.1109	0.8082	0.3955	-0.032
Mof_C 	C 	0.2231	0.8068	0.4021	-0.001
Mof_C 	C 	0.34	0.71	0.3768	-0.039
Mof_C 	C 	0.3413	0.6246	0.342	-0.038
Mof_C 	C 	0.4649	0.5168	0.3065	0.421
Mof_C 	C 	0.0341	0.2438	0.456	0.344
Mof_C 	C 	0.1278	0.1104	0.4595	-0.008
Mof_C 	C 	0.1263	0.0214	0.4311	-0.07
Mof_C 	C 	0.2177	0.9024	0.4369	0.035
Mof_C 	C 	0.306	0.886	0.4715	-0.084
Mof_C 	C 	0.2985	0.981	0.5002	0.043
Mof_C 	C 	0.3732	0.9942	0.5446	0.247
Mof_C 	C 	0.6258	0.7144	0.2011	-0.045
Mof_C 	C 	0.564	0.836	0.1991	-0.029
Mof_C 	C 	0.3598	0.2184	0.3029	-0.034
Mof_C 	C 	0.4184	0.0972	0.3055	-0.05
Mof_C 	C 	0.7216	0.6316	0.3504	0.44
Mof_C 	C 	0.4187	0.3004	0.1395	0.41
Mof_C 	C 	0.2781	0.718	0.1529	0.401
Mof_C 	C 	0.1588	0.7208	0.1393	-0.05
Mof_C 	C 	0.0809	0.8082	0.1045	-0.033
Mof_C 	C 	0.9701	0.8068	0.0979	-0
Mof_C 	C 	0.95	0.71	0.1232	-0.038
Mof_C 	C 	0.0341	0.6246	0.158	-0.038
Mof_C 	C 	0.0183	0.5168	0.1935	0.421
Mof_C 	C 	0.7221	0.2438	0.044	0.344
Mof_C 	C 	0.7618	0.1104	0.0405	-0.008
Mof_C 	C 	0.8523	0.0214	0.0689	-0.07
Mof_C 	C 	0.8799	0.9024	0.0631	0.036
Mof_C 	C 	0.808	0.886	0.0285	-0.086
Mof_C 	C 	0.7205	0.981	0.9998	0.046
Mof_C 	C 	0.6326	0.9942	0.9554	0.249
Mof_C 	C 	0.6598	0.7144	0.2989	-0.045
Mof_C 	C 	0.6	0.836	0.3009	-0.029
Mof_C 	C 	0.4218	0.2184	0.1971	-0.034
Mof_C 	C 	0.4844	0.0972	0.1945	-0.05
Mof_C 	C 	0.3532	0.3684	0.8504	0.44
Mof_C 	C 	0.7191	0.6996	0.6395	0.411
Mof_C 	C 	0.9961	0.282	0.6529	0.401
Mof_C 	C 	0.8796	0.2792	0.6393	-0.05
Mof_C 	C 	0.8891	0.1918	0.6045	-0.032
Mof_C 	C 	0.7769	0.1932	0.5979	-0.001
Mof_C 	C 	0.66	0.29	0.6232	-0.039
Mof_C 	C 	0.6587	0.3754	0.658	-0.038
Mof_C 	C 	0.5351	0.4832	0.6935	0.421
Mof_C 	C 	0.9659	0.7562	0.544	0.344
Mof_C 	C 	0.8722	0.8896	0.5405	-0.008
Mof_C 	C 	0.8737	0.9786	0.5689	-0.07
Mof_C 	C 	0.7823	0.0976	0.5631	0.035
Mof_C 	C 	0.694	0.114	0.5285	-0.084
Mof_C 	C 	0.7015	0.019	0.4998	0.043
Mof_C 	C 	0.6268	0.0058	0.4554	0.247
Mof_C 	C 	0.3742	0.2856	0.7989	-0.045
Mof_C 	C 	0.436	0.164	0.8009	-0.029
Mof_C 	C 	0.6402	0.7816	0.6971	-0.034
Mof_C 	C 	0.5816	0.9028	0.6945	-0.05
Mof_C 	C 	0.2784	0.3684	0.6496	0.44
Mof_C 	C 	0.5813	0.6996	0.8605	0.41
Mof_C 	C 	0.7219	0.282	0.8471	0.401
Mof_C 	C 	0.8412	0.2792	0.8607	-0.05
Mof_C 	C 	0.9191	0.1918	0.8955	-0.033
Mof_C 	C 	0.0299	0.1932	0.9021	-0
Mof_C 	C 	0.05	0.29	0.8768	-0.038
Mof_C 	C 	0.9659	0.3754	0.842	-0.038
Mof_C 	C 	0.9817	0.4832	0.8065	0.421
Mof_C 	C 	0.2779	0.7562	0.956	0.344
Mof_C 	C 	0.2382	0.8896	0.9595	-0.008
Mof_C 	C 	0.1477	0.9786	0.9311	-0.07
Mof_C 	C 	0.1201	0.0976	0.9369	0.036
Mof_C 	C 	0.192	0.114	0.9715	-0.086
Mof_C 	C 	0.2795	0.019	0.0002	0.046
Mof_C 	C 	0.3674	0.0058	0.0446	0.249
Mof_C 	C 	0.3402	0.2856	0.7011	-0.045
Mof_C 	C 	0.4	0.164	0.6991	-0.029
Mof_C 	C 	0.5782	0.7816	0.8029	-0.034
Mof_C 	C 	0.5156	0.9028	0.8055	-0.05
Mof_C 	C 	0.549	0.902	0.25	0.002
Mof_C 	C 	0.4847	0.0306	0.25	0.02
Mof_C 	C 	0.451	0.098	0.75	0.002
Mof_C 	C 	0.5153	0.9694	0.75	0.02
Mof_N 	N 	0.2339	0.6322	0.3313	-0.211
Mof_N 	N 	0.2106	0.0892	0.494	-0.21
Mof_N 	N 	0.1339	0.6322	0.1687	-0.21
Mof_N 	N 	0.7002	0.0892	0.006	-0.21
Mof_N 	N 	0.7661	0.3678	0.6687	-0.211
Mof_N 	N 	0.7894	0.9108	0.506	-0.21
Mof_N 	N 	0.8661	0.3678	0.8313	-0.21
Mof_N 	N 	0.2998	0.9108	0.994	-0.21
Mof_N 	N 	0.6737	0.6526	0.25	-0.163
Mof_N 	N 	0.3587	0.2826	0.25	-0.214
Mof_N 	N 	0.3263	0.3474	0.75	-0.163
Mof_N 	N 	0.6413	0.7174	0.75	-0.214
Mof_O 	O 	0.0316	0.649	0.3017	-0.483
Mof_O 	O 	0.8963	0.7778	0.3817	-0.498
Mof_O 	O 	0.4477	0.4524	0.2762	-0.516
Mof_O 	O 	0.5684	0.5064	0.3125	-0.473
Mof_O 	O 	0.0393	0.313	0.4894	-0.474
Mof_O 	O 	0.9548	0.2744	0.4225	-0.292
Mof_O 	O 	0.4022	0.0838	0.5338	-0.451
Mof_O 	O 	0.3838	0.9004	0.5827	-0.248
Mof_O 	O 	0.6935	0.5258	0.1583	-0.475
Mof_O 	O 	0.619	0.689	0.0978	-0.524
Mof_O 	O 	0.2188	0.4104	0.3525	-0.507
Mof_O 	O 	0.2883	0.2458	0.4131	-0.499
Mof_O 	O 	0.3194	0.649	0.1983	-0.483
Mof_O 	O 	0.3259	0.7778	0.1183	-0.499
Mof_O 	O 	0.0999	0.4524	0.2238	-0.516
Mof_O 	O 	0.9252	0.5064	0.1875	-0.473
Mof_O 	O 	0.6477	0.313	0.0106	-0.473
Mof_O 	O 	0.7708	0.2744	0.0775	-0.292
Mof_O 	O 	0.514	0.0838	0.9662	-0.452
Mof_O 	O 	0.7158	0.9004	0.9173	-0.248
Mof_O 	O 	0.7807	0.5258	0.3417	-0.475
Mof_O 	O 	0.692	0.689	0.4022	-0.524
Mof_O 	O 	0.3708	0.4104	0.1475	-0.507
Mof_O 	O 	0.4659	0.2458	0.0869	-0.498
Mof_O 	O 	0.9684	0.351	0.6983	-0.483
Mof_O 	O 	0.1037	0.2222	0.6183	-0.498
Mof_O 	O 	0.5523	0.5476	0.7238	-0.516
Mof_O 	O 	0.4316	0.4936	0.6875	-0.473
Mof_O 	O 	0.9607	0.687	0.5106	-0.474
Mof_O 	O 	0.0452	0.7256	0.5775	-0.292
Mof_O 	O 	0.5978	0.9162	0.4662	-0.451
Mof_O 	O 	0.6162	0.0996	0.4173	-0.248
Mof_O 	O 	0.3065	0.4742	0.8417	-0.475
Mof_O 	O 	0.381	0.311	0.9022	-0.524
Mof_O 	O 	0.7812	0.5896	0.6475	-0.507
Mof_O 	O 	0.7117	0.7542	0.5869	-0.499
Mof_O 	O 	0.6806	0.351	0.8017	-0.483
Mof_O 	O 	0.6741	0.2222	0.8817	-0.499
Mof_O 	O 	0.9001	0.5476	0.7762	-0.516
Mof_O 	O 	0.0748	0.4936	0.8125	-0.473
Mof_O 	O 	0.3523	0.687	0.9894	-0.473
Mof_O 	O 	0.2292	0.7256	0.9225	-0.292
Mof_O 	O 	0.486	0.9162	0.0338	-0.452
Mof_O 	O 	0.2842	0.0996	0.0827	-0.248
Mof_O 	O 	0.2193	0.4742	0.6583	-0.475
Mof_O 	O 	0.308	0.311	0.5978	-0.524
Mof_O 	O 	0.6292	0.5896	0.8525	-0.507
Mof_O 	O 	0.5341	0.7542	0.9131	-0.498
_end
