# CIF file generated by openbabel 3.1.0, see https://openbabel.org
data_I
_chemical_name_common 'ISIMAZ_clean'
_cell_length_a 7.2169
_cell_length_b 16.9389
_cell_length_c 17.0897
_cell_angle_alpha 90
_cell_angle_beta 95.513
_cell_angle_gamma 90
_space_group_name_H-M_alt 'P 1'
_space_group_name_Hall 'P 1'
loop_
    _symmetry_equiv_pos_as_xyz
    x,y,z
loop_
    _atom_site_label
    _atom_site_type_symbol
    _atom_site_fract_x
    _atom_site_fract_y
    _atom_site_fract_z
    _atom_site_occupancy
    Zn1      Zn       0.93182    0.79919    0.30864    1.000
    Zn2      Zn       0.56818    0.29919    0.19136    1.000
    Zn3      Zn       0.06818    0.20081    0.69136    1.000
    Zn4      Zn       0.43182    0.70081    0.80864    1.000
    H1       H        0.59370    0.92780    0.42570    1.000
    H2       H        0.93260    0.93890    0.44750    1.000
    H3       H        0.82250    0.01760    0.46010    1.000
    H4       H        0.24680    0.66670    0.43600    1.000
    H5       H        0.25280    0.65720    0.34510    1.000
    H6       H        0.22710    0.79930    0.53410    1.000
    H7       H        0.70350    0.86850    0.65300    1.000
    H8       H        0.47040    0.48620    0.19810    1.000
    H9       H        0.39260    0.53110    0.37080    1.000
    H10      H        0.34870    0.54100    0.45840    1.000
    H11      H        0.88800    0.72470    0.47930    1.000
    H12      H        0.61490    0.65250    0.51640    1.000
    H13      H        0.52560    0.72110    0.29530    1.000
    H14      H        0.02040    0.55140    0.41030    1.000
    H15      H        0.10470    0.46710    0.39940    1.000
    H16      H        0.15350    0.50110    0.26920    1.000
    H17      H        0.05620    0.58240    0.28080    1.000
    H18      H        0.92530    0.37510    0.27280    1.000
    H19      H        0.69920    0.58620    0.24350    1.000
    H20      H        0.90630    0.42780    0.07430    1.000
    H21      H        0.56740    0.43890    0.05250    1.000
    H22      H        0.67750    0.51760    0.03990    1.000
    H23      H        0.25320    0.16670    0.06400    1.000
    H24      H        0.24720    0.15720    0.15490    1.000
    H25      H        0.27290    0.29930    0.96590    1.000
    H26      H        0.79650    0.36850    0.84700    1.000
    H27      H        0.02960    0.98620    0.30190    1.000
    H28      H        0.10740    0.03110    0.12920    1.000
    H29      H        0.15130    0.04100    0.04160    1.000
    H30      H        0.61200    0.22470    0.02070    1.000
    H31      H        0.88510    0.15250    0.98360    1.000
    H32      H        0.97440    0.22110    0.20470    1.000
    H33      H        0.47960    0.05140    0.08970    1.000
    H34      H        0.39530    0.96710    0.10060    1.000
    H35      H        0.34650    0.00110    0.23080    1.000
    H36      H        0.44380    0.08240    0.21920    1.000
    H37      H        0.57470    0.87510    0.22720    1.000
    H38      H        0.80080    0.08620    0.25650    1.000
    H39      H        0.40630    0.07220    0.57430    1.000
    H40      H        0.06740    0.06110    0.55250    1.000
    H41      H        0.17750    0.98240    0.53990    1.000
    H42      H        0.75320    0.33330    0.56400    1.000
    H43      H        0.74720    0.34280    0.65490    1.000
    H44      H        0.77290    0.20070    0.46590    1.000
    H45      H        0.29650    0.13150    0.34700    1.000
    H46      H        0.52960    0.51380    0.80190    1.000
    H47      H        0.60740    0.46890    0.62920    1.000
    H48      H        0.65130    0.45900    0.54160    1.000
    H49      H        0.11200    0.27530    0.52070    1.000
    H50      H        0.38510    0.34750    0.48360    1.000
    H51      H        0.47440    0.27890    0.70470    1.000
    H52      H        0.97960    0.44860    0.58970    1.000
    H53      H        0.89530    0.53290    0.60060    1.000
    H54      H        0.84650    0.49890    0.73080    1.000
    H55      H        0.94380    0.41760    0.71920    1.000
    H56      H        0.07470    0.62490    0.72720    1.000
    H57      H        0.30080    0.41380    0.75650    1.000
    H58      H        0.09370    0.57220    0.92570    1.000
    H59      H        0.43260    0.56110    0.94750    1.000
    H60      H        0.32250    0.48240    0.96010    1.000
    H61      H        0.74680    0.83330    0.93600    1.000
    H62      H        0.75280    0.84280    0.84510    1.000
    H63      H        0.72710    0.70070    0.03410    1.000
    H64      H        0.20350    0.63150    0.15300    1.000
    H65      H        0.97040    0.01380    0.69810    1.000
    H66      H        0.89260    0.96890    0.87080    1.000
    H67      H        0.84870    0.95900    0.95840    1.000
    H68      H        0.38800    0.77530    0.97930    1.000
    H69      H        0.11490    0.84750    0.01640    1.000
    H70      H        0.02560    0.77890    0.79530    1.000
    H71      H        0.52040    0.94860    0.91030    1.000
    H72      H        0.60470    0.03290    0.89940    1.000
    H73      H        0.65350    0.99890    0.76920    1.000
    H74      H        0.55620    0.91760    0.78080    1.000
    H75      H        0.42530    0.12490    0.77280    1.000
    H76      H        0.19920    0.91380    0.74350    1.000
    C1       C        0.55950    0.90270    0.47060    1.000
    C2       C        0.67430    0.90570    0.54110    1.000
    C3       C        0.90990    0.97970    0.48520    1.000
    C4       C        0.31510    0.64270    0.39590    1.000
    C5       C        0.34120    0.82502    0.53564    1.000
    C6       C        0.62420    0.86720    0.60681    1.000
    C7       C        0.39330    0.86135    0.46888    1.000
    C8       C        0.26840    0.85650    0.39230    1.000
    C9       C        0.59150    0.47620    0.21950    1.000
    C10      C        0.45770    0.82660    0.60500    1.000
    C11      C        0.30760    0.55510    0.40450    1.000
    C12      C        0.40620    0.78310    0.67620    1.000
    C13      C        0.78060    0.71460    0.44630    1.000
    C14      C        0.62970    0.67500    0.46780    1.000
    C15      C        0.58330    0.71310    0.34570    1.000
    C16      C        0.10930    0.52180    0.38290    1.000
    C17      C        0.05830    0.52730    0.29620    1.000
    C18      C        0.83940    0.41510    0.26030    1.000
    C19      C        0.71660    0.53180    0.24420    1.000
    C20      C        0.94050    0.40270    0.02940    1.000
    C21      C        0.82570    0.40570    0.95890    1.000
    C22      C        0.59010    0.47970    0.01480    1.000
    C23      C        0.18490    0.14270    0.10410    1.000
    C24      C        0.15880    0.32502    0.96436    1.000
    C25      C        0.87580    0.36720    0.89319    1.000
    C26      C        0.10670    0.36135    0.03112    1.000
    C27      C        0.23160    0.35650    0.10770    1.000
    C28      C        0.90850    0.97620    0.28050    1.000
    C29      C        0.04230    0.32660    0.89500    1.000
    C30      C        0.19240    0.05510    0.09550    1.000
    C31      C        0.09380    0.28310    0.82380    1.000
    C32      C        0.71940    0.21460    0.05370    1.000
    C33      C        0.87030    0.17500    0.03220    1.000
    C34      C        0.91670    0.21310    0.15430    1.000
    C35      C        0.39070    0.02180    0.11710    1.000
    C36      C        0.44170    0.02730    0.20380    1.000
    C37      C        0.66060    0.91510    0.23970    1.000
    C38      C        0.78340    0.03180    0.25580    1.000
    C39      C        0.44050    0.09730    0.52940    1.000
    C40      C        0.32570    0.09430    0.45890    1.000
    C41      C        0.09010    0.02030    0.51480    1.000
    C42      C        0.68490    0.35730    0.60410    1.000
    C43      C        0.65880    0.17498    0.46436    1.000
    C44      C        0.37580    0.13280    0.39319    1.000
    C45      C        0.60670    0.13865    0.53112    1.000
    C46      C        0.73160    0.14350    0.60770    1.000
    C47      C        0.40850    0.52380    0.78050    1.000
    C48      C        0.54230    0.17340    0.39500    1.000
    C49      C        0.69240    0.44490    0.59550    1.000
    C50      C        0.59380    0.21690    0.32380    1.000
    C51      C        0.21940    0.28540    0.55370    1.000
    C52      C        0.37030    0.32500    0.53220    1.000
    C53      C        0.41670    0.28690    0.65430    1.000
    C54      C        0.89070    0.47820    0.61710    1.000
    C55      C        0.94170    0.47270    0.70380    1.000
    C56      C        0.16060    0.58490    0.73970    1.000
    C57      C        0.28340    0.46820    0.75580    1.000
    C58      C        0.05950    0.59730    0.97060    1.000
    C59      C        0.17430    0.59430    0.04110    1.000
    C60      C        0.40990    0.52030    0.98520    1.000
    C61      C        0.81510    0.85730    0.89590    1.000
    C62      C        0.84120    0.67498    0.03564    1.000
    C63      C        0.12420    0.63280    0.10681    1.000
    C64      C        0.89330    0.63865    0.96888    1.000
    C65      C        0.76840    0.64350    0.89230    1.000
    C66      C        0.09150    0.02380    0.71950    1.000
    C67      C        0.95770    0.67340    0.10500    1.000
    C68      C        0.80760    0.94490    0.90450    1.000
    C69      C        0.90620    0.71690    0.17620    1.000
    C70      C        0.28060    0.78540    0.94630    1.000
    C71      C        0.12970    0.82500    0.96780    1.000
    C72      C        0.08330    0.78690    0.84570    1.000
    C73      C        0.60930    0.97820    0.88290    1.000
    C74      C        0.55830    0.97270    0.79620    1.000
    C75      C        0.33940    0.08490    0.76030    1.000
    C76      C        0.21660    0.96820    0.74420    1.000
    N1       N        0.50400    0.67526    0.40246    1.000
    N2       N        0.75220    0.73749    0.36926    1.000
    N3       N        0.66810    0.40307    0.23026    1.000
    N4       N        0.87580    0.49148    0.27072    1.000
    N5       N        0.99600    0.17526    0.09754    1.000
    N6       N        0.74780    0.23749    0.13074    1.000
    N7       N        0.83190    0.90307    0.26974    1.000
    N8       N        0.62420    0.99148    0.22928    1.000
    N9       N        0.49600    0.32474    0.59754    1.000
    N10      N        0.24780    0.26251    0.63074    1.000
    N11      N        0.33190    0.59693    0.76974    1.000
    N12      N        0.12420    0.50852    0.72928    1.000
    N13      N        0.00400    0.82474    0.90246    1.000
    N14      N        0.25220    0.76251    0.86926    1.000
    N15      N        0.16810    0.09693    0.73026    1.000
    N16      N        0.37580    0.00852    0.77072    1.000
    O1       O        0.11890    0.81543    0.39671    1.000
    O2       O        0.83900    0.94667    0.55131    1.000
    O3       O        0.24390    0.76070    0.68008    1.000
    O4       O        0.31020    0.88907    0.33256    1.000
    O5       O        0.53700    0.77009    0.73153    1.000
    O6       O        0.38110    0.31543    0.10329    1.000
    O7       O        0.66100    0.44667    0.94869    1.000
    O8       O        0.25610    0.26070    0.81992    1.000
    O9       O        0.18980    0.38907    0.16744    1.000
    O10      O        0.96300    0.27009    0.76847    1.000
    O11      O        0.88110    0.18457    0.60329    1.000
    O12      O        0.16100    0.05333    0.44869    1.000
    O13      O        0.75610    0.23930    0.31992    1.000
    O14      O        0.68980    0.11093    0.66744    1.000
    O15      O        0.46300    0.22991    0.26847    1.000
    O16      O        0.61890    0.68457    0.89671    1.000
    O17      O        0.33900    0.55333    0.05131    1.000
    O18      O        0.74390    0.73930    0.18008    1.000
    O19      O        0.81020    0.61093    0.83256    1.000
    O20      O        0.03700    0.72991    0.23153    1.000
