# CIF file generated by openbabel 3.1.0, see https://openbabel.org
data_I
_chemical_name_common 'WABTOK_clean'
_cell_length_a 10.274
_cell_length_b 10.274
_cell_length_c 11.5943
_cell_angle_alpha 80.5546
_cell_angle_beta 80.5546
_cell_angle_gamma 85.0381
_space_group_name_H-M_alt 'P 1'
_space_group_name_Hall 'P 1'
loop_
    _symmetry_equiv_pos_as_xyz
    x,y,z
loop_
    _atom_site_label
    _atom_site_type_symbol
    _atom_site_fract_x
    _atom_site_fract_y
    _atom_site_fract_z
    _atom_site_occupancy
    Cd1      Cd       0.85937    0.47968    0.42132    1.000
    Cd2      Cd       0.52032    0.14063    0.07868    1.000
    Cd3      Cd       0.14063    0.52032    0.57868    1.000
    Cd4      Cd       0.47968    0.85937    0.92132    1.000
    Cd5      Cd       0.77411    0.22589    0.25000    1.000
    Cd6      Cd       0.22589    0.77411    0.75000    1.000
    H1       H        0.58550    0.65210    0.34490    1.000
    H2       H        0.50170    0.68350    0.46420    1.000
    H3       H        0.47100    0.46600    0.35430    1.000
    H4       H        0.36990    0.58910    0.36130    1.000
    H5       H        0.34790    0.41450    0.15510    1.000
    H6       H        0.31650    0.49830    0.03580    1.000
    H7       H        0.53400    0.52900    0.14570    1.000
    H8       H        0.41090    0.63010    0.13870    1.000
    H9       H        0.41450    0.34790    0.65510    1.000
    H10      H        0.49830    0.31650    0.53580    1.000
    H11      H        0.52900    0.53400    0.64570    1.000
    H12      H        0.63010    0.41090    0.63870    1.000
    H13      H        0.65210    0.58550    0.84490    1.000
    H14      H        0.68350    0.50170    0.96420    1.000
    H15      H        0.46600    0.47100    0.85430    1.000
    H16      H        0.58910    0.36990    0.86130    1.000
    C1       C        0.54010    0.61270    0.42100    1.000
    C2       C        0.43330    0.53250    0.40280    1.000
    C3       C        0.38730    0.45990    0.07900    1.000
    C4       C        0.46750    0.56670    0.09720    1.000
    C5       C        0.45990    0.38730    0.57900    1.000
    C6       C        0.56670    0.46750    0.59720    1.000
    C7       C        0.61270    0.54010    0.92100    1.000
    C8       C        0.53250    0.43330    0.90280    1.000
    Cl1      Cl       0.80316    0.47706    0.20972    1.000
    Cl2      Cl       0.76786    0.18570    0.03346    1.000
    Cl3      Cl       0.88945    0.51041    0.63572    1.000
    Cl4      Cl       0.52294    0.19684    0.29028    1.000
    Cl5      Cl       0.81430    0.23214    0.46654    1.000
    Cl6      Cl       0.48959    0.11055    0.86428    1.000
    Cl7      Cl       0.19684    0.52294    0.79028    1.000
    Cl8      Cl       0.23214    0.81430    0.96654    1.000
    Cl9      Cl       0.11055    0.48959    0.36428    1.000
    Cl10     Cl       0.47706    0.80316    0.70972    1.000
    Cl11     Cl       0.18570    0.76786    0.53346    1.000
    Cl12     Cl       0.51041    0.88945    0.13572    1.000
    O1       O        0.63313    0.53129    0.48590    1.000
    O2       O        0.46871    0.36687    0.01410    1.000
    O3       O        0.36687    0.46871    0.51410    1.000
    O4       O        0.53129    0.63313    0.98590    1.000
