data_functionalizedCrystal
_audit_creation_method	'EQeq! by Chris Wilmer'
_symmetry_space_group_name_H-M	'P1'
_symmetry_Int_Tables_number	1
_symmetry_cell_setting	triclinic
loop_
_symmetry_equiv_pos_as_xyz
  x,y,z
_cell_length_a	7.8256
_cell_length_b	22.331
_cell_length_c	8.9976
_cell_angle_alpha	90
_cell_angle_beta	110.04
_cell_angle_gamma	90
loop_
_atom_site_label
_atom_site_type_symbol
_atom_site_fract_x
_atom_site_fract_y
_atom_site_fract_z
_atom_site_charge
Mof_Cu	Cu	0.4472	0.13211	0.83884	0.838
Mof_O 	O 	0.3072	0.1995	0.2004	-0.219
Mof_N 	N 	0.5958	0.1988	0.9695	-0.214
Mof_N 	N 	0.7658	0.2933	0.1646	-0.18
Mof_N 	N 	0.3109	0.1421	0.9844	-0.219
Mof_N 	N 	0.3255	0.943	0.2361	-0.258
Mof_C 	C 	0.7378	0.2255	0.951	0.026
Mof_H 	H 	0.7839	0.212	0.872	-0.007
Mof_C 	C 	0.8206	0.2742	0.0483	-0.017
Mof_H 	H 	0.9191	0.294	0.0304	0.003
Mof_C 	C 	0.6208	0.2647	0.1831	0.012
Mof_H 	H 	0.5771	0.2774	0.2644	0.025
Mof_C 	C 	0.5351	0.2174	0.0852	-0.026
Mof_C 	C 	0.3707	0.1848	0.0932	0.145
Mof_C 	C 	0.1512	0.1078	0.9801	-0.108
Mof_H 	H 	0.0774	0.0987	0.8689	0.053
Mof_H 	H 	0.0757	0.132	0.0262	0.072
Mof_C 	C 	0.2058	0.0497	0.0721	0.113
Mof_C 	C 	0.136	0.9955	0.0059	-0.193
Mof_H 	H 	0.0425	0.9939	0.9053	0.102
Mof_C 	C 	0.2044	0.9429	0.0884	0.085
Mof_H 	H 	0.1638	0.9056	0.0381	-0.016
Mof_C 	C 	0.3872	0.9964	0.3001	0.084
Mof_H 	H 	0.4747	0.9972	0.4039	-0.044
Mof_C 	C 	0.331	0.0503	0.2239	-0.183
Mof_H 	H 	0.3775	0.0871	0.2748	0.089
Mof_Cu	Cu	0.4472	0.86789	0.33884	0.836
Mof_O 	O 	0.3072	0.8005	0.7004	-0.217
Mof_N 	N 	0.5958	0.8012	0.4695	-0.218
Mof_N 	N 	0.7658	0.7067	0.6646	-0.182
Mof_N 	N 	0.3109	0.8579	0.4844	-0.222
Mof_N 	N 	0.3255	0.057	0.7361	-0.257
Mof_C 	C 	0.7378	0.7745	0.451	0.007
Mof_H 	H 	0.7839	0.788	0.372	-0.004
Mof_C 	C 	0.8206	0.7258	0.5483	0
Mof_H 	H 	0.9191	0.706	0.5304	0.001
Mof_C 	C 	0.6208	0.7353	0.6831	0.013
Mof_H 	H 	0.5771	0.7226	0.7644	0.027
Mof_C 	C 	0.5351	0.7826	0.5852	-0.018
Mof_C 	C 	0.3707	0.8152	0.5932	0.153
Mof_C 	C 	0.1512	0.8922	0.4801	-0.143
Mof_H 	H 	0.0774	0.9013	0.3689	0.06
Mof_H 	H 	0.0757	0.868	0.5262	0.09
Mof_C 	C 	0.2058	0.9503	0.5721	0.127
Mof_C 	C 	0.136	0.0045	0.5059	-0.177
Mof_H 	H 	0.0425	0.0061	0.4053	0.089
Mof_C 	C 	0.2044	0.0571	0.5884	0.08
Mof_H 	H 	0.1638	0.0944	0.5381	-0.011
Mof_C 	C 	0.3872	0.0036	0.8001	0.087
Mof_H 	H 	0.4747	0.0028	0.9039	-0.041
Mof_C 	C 	0.331	0.9497	0.7239	-0.187
Mof_H 	H 	0.3775	0.9129	0.7748	0.094
Mof_Cu	Cu	0.9472	0.63211	0.83884	0.824
Mof_O 	O 	0.8072	0.6995	0.2004	-0.225
Mof_N 	N 	0.0958	0.6988	0.9695	-0.201
Mof_N 	N 	0.2658	0.7933	0.1646	-0.168
Mof_N 	N 	0.8109	0.6421	0.9844	-0.217
Mof_N 	N 	0.8255	0.443	0.2361	-0.259
Mof_C 	C 	0.2378	0.7255	0.951	0.039
Mof_H 	H 	0.2839	0.712	0.872	0.015
Mof_C 	C 	0.3206	0.7742	0.0483	-0.01
Mof_H 	H 	0.4191	0.794	0.0304	0.014
Mof_C 	C 	0.1208	0.7647	0.1831	-0.007
Mof_H 	H 	0.0771	0.7774	0.2644	0.051
Mof_C 	C 	0.0351	0.7174	0.0852	0.053
Mof_C 	C 	0.8707	0.6848	0.0932	0.081
Mof_C 	C 	0.6512	0.6078	0.9801	-0.104
Mof_H 	H 	0.5774	0.5987	0.8689	0.047
Mof_H 	H 	0.5757	0.632	0.0262	0.062
Mof_C 	C 	0.7058	0.5497	0.0721	0.109
Mof_C 	C 	0.636	0.4955	0.0059	-0.192
Mof_H 	H 	0.5425	0.4939	0.9053	0.098
Mof_C 	C 	0.7044	0.4429	0.0884	0.083
Mof_H 	H 	0.6638	0.4056	0.0381	-0.019
Mof_C 	C 	0.8872	0.4964	0.3001	0.081
Mof_H 	H 	0.9747	0.4972	0.4039	-0.047
Mof_C 	C 	0.831	0.5503	0.2239	-0.182
Mof_H 	H 	0.8775	0.5871	0.2748	0.085
Mof_Cu	Cu	0.9472	0.36789	0.33884	0.823
Mof_O 	O 	0.8072	0.3005	0.7004	-0.222
Mof_N 	N 	0.0958	0.3012	0.4695	-0.205
Mof_N 	N 	0.2658	0.2067	0.6646	-0.17
Mof_N 	N 	0.8109	0.3579	0.4844	-0.219
Mof_N 	N 	0.8255	0.557	0.7361	-0.258
Mof_C 	C 	0.2378	0.2745	0.451	0.021
Mof_H 	H 	0.2839	0.288	0.372	0.019
Mof_C 	C 	0.3206	0.2258	0.5483	0.008
Mof_H 	H 	0.4191	0.206	0.5304	0.012
Mof_C 	C 	0.1208	0.2353	0.6831	-0.007
Mof_H 	H 	0.0771	0.2226	0.7644	0.053
Mof_C 	C 	0.0351	0.2826	0.5852	0.063
Mof_C 	C 	0.8707	0.3152	0.5932	0.086
Mof_C 	C 	0.6512	0.3922	0.4801	-0.137
Mof_H 	H 	0.5774	0.4013	0.3689	0.053
Mof_H 	H 	0.5757	0.368	0.5262	0.079
Mof_C 	C 	0.7058	0.4503	0.5721	0.122
Mof_C 	C 	0.636	0.5045	0.5059	-0.175
Mof_H 	H 	0.5425	0.5061	0.4053	0.085
Mof_C 	C 	0.7044	0.5571	0.5884	0.077
Mof_H 	H 	0.6638	0.5944	0.5381	-0.014
Mof_C 	C 	0.8872	0.5036	0.8001	0.085
Mof_H 	H 	0.9747	0.5028	0.9039	-0.044
Mof_C 	C 	0.831	0.4497	0.7239	-0.186
Mof_H 	H 	0.8775	0.4129	0.7748	0.09
_end
