# CIF file generated by openbabel 3.1.0, see https://openbabel.org
data_I
_chemical_name_common 'XACFEN_charged'
_cell_length_a 11.63
_cell_length_b 11.63
_cell_length_c 15.731
_cell_angle_alpha 90
_cell_angle_beta 90
_cell_angle_gamma 120
_space_group_name_H-M_alt 'P 1'
_space_group_name_Hall 'P 1'
loop_
    _symmetry_equiv_pos_as_xyz
    x,y,z
loop_
    _atom_site_label
    _atom_site_type_symbol
    _atom_site_fract_x
    _atom_site_fract_y
    _atom_site_fract_z
    _atom_site_occupancy
    Cd1      Cd       0.33333    0.66666    0.27420    1.000
    Cd2      Cd       0.66667    0.33334    0.77420    1.000
    Cd3      Cd       0.00000    0.00000    0.52760    1.000
    Cd4      Cd       0.00000    0.00000    0.02760    1.000
    P1       P        0.33333    0.66666    0.11610    1.000
    P2       P        0.66667    0.33334    0.61610    1.000
    P3       P        0.00000    0.00000    0.36620    1.000
    P4       P        0.00000    0.00000    0.86620    1.000
    H1       H        0.84630    0.93780    0.25590    1.000
    H2       H        0.80080    0.81960    0.32000    1.000
    H3       H        0.77560    0.04270    0.34530    1.000
    H4       H        0.74040    0.93360    0.41510    1.000
    H5       H        0.28170    0.76150    0.01020    1.000
    H6       H        0.16190    0.68730    0.07100    1.000
    H7       H        0.35050    0.93670    0.06920    1.000
    H8       H        0.27780    0.87350    0.15410    1.000
    H9       H        0.09150    0.15370    0.25590    1.000
    H10      H        0.01880    0.19920    0.32000    1.000
    H11      H        0.26710    0.22440    0.34530    1.000
    H12      H        0.19320    0.25960    0.41510    1.000
    H13      H        0.47980    0.71830    0.01020    1.000
    H14      H        0.52540    0.83810    0.07100    1.000
    H15      H        0.58620    0.64950    0.06920    1.000
    H16      H        0.59570    0.72220    0.15410    1.000
    H17      H        0.06220    0.90850    0.25590    1.000
    H18      H        0.18040    0.98120    0.32000    1.000
    H19      H        0.95730    0.73290    0.34530    1.000
    H20      H        0.06640    0.80680    0.41510    1.000
    H21      H        0.23850    0.52020    0.01020    1.000
    H22      H        0.31270    0.47460    0.07100    1.000
    H23      H        0.06330    0.41380    0.06920    1.000
    H24      H        0.12650    0.40430    0.15410    1.000
    H25      H        0.15370    0.06220    0.75590    1.000
    H26      H        0.19920    0.18040    0.82000    1.000
    H27      H        0.22440    0.95730    0.84530    1.000
    H28      H        0.25960    0.06640    0.91510    1.000
    H29      H        0.71830    0.23850    0.51020    1.000
    H30      H        0.83810    0.31270    0.57100    1.000
    H31      H        0.64950    0.06330    0.56920    1.000
    H32      H        0.72220    0.12650    0.65410    1.000
    H33      H        0.90850    0.84630    0.75590    1.000
    H34      H        0.98120    0.80080    0.82000    1.000
    H35      H        0.73290    0.77560    0.84530    1.000
    H36      H        0.80680    0.74040    0.91510    1.000
    H37      H        0.52020    0.28170    0.51020    1.000
    H38      H        0.47460    0.16190    0.57100    1.000
    H39      H        0.41380    0.35050    0.56920    1.000
    H40      H        0.40430    0.27780    0.65410    1.000
    H41      H        0.93780    0.09150    0.75590    1.000
    H42      H        0.81960    0.01880    0.82000    1.000
    H43      H        0.04270    0.26710    0.84530    1.000
    H44      H        0.93360    0.19320    0.91510    1.000
    H45      H        0.76150    0.47980    0.51020    1.000
    H46      H        0.68730    0.52540    0.57100    1.000
    H47      H        0.93670    0.58620    0.56920    1.000
    H48      H        0.87350    0.59570    0.65410    1.000
    C1       C        0.83670    0.91470    0.31570    1.000
    C2       C        0.74390    0.94890    0.35430    1.000
    C3       C        0.60700    0.86890    0.31770    1.000
    C4       C        0.25640    0.75090    0.06970    1.000
    C5       C        0.26730    0.86770    0.09280    1.000
    C6       C        0.16710    0.90500    0.07270    1.000
    C7       C        0.07800    0.16330    0.31570    1.000
    C8       C        0.20500    0.25610    0.35430    1.000
    C9       C        0.26190    0.39300    0.31770    1.000
    C10      C        0.49450    0.74360    0.06970    1.000
    C11      C        0.60040    0.73270    0.09280    1.000
    C12      C        0.73790    0.83290    0.07270    1.000
    C13      C        0.08530    0.92200    0.31570    1.000
    C14      C        0.05110    0.79500    0.35430    1.000
    C15      C        0.13110    0.73810    0.31770    1.000
    C16      C        0.24910    0.50550    0.06970    1.000
    C17      C        0.13230    0.39960    0.09280    1.000
    C18      C        0.09500    0.26210    0.07270    1.000
    C19      C        0.16330    0.08530    0.81570    1.000
    C20      C        0.25610    0.05110    0.85430    1.000
    C21      C        0.39300    0.13110    0.81770    1.000
    C22      C        0.74360    0.24910    0.56970    1.000
    C23      C        0.73270    0.13230    0.59280    1.000
    C24      C        0.83290    0.09500    0.57270    1.000
    C25      C        0.92200    0.83670    0.81570    1.000
    C26      C        0.79500    0.74390    0.85430    1.000
    C27      C        0.73810    0.60700    0.81770    1.000
    C28      C        0.50550    0.25640    0.56970    1.000
    C29      C        0.39960    0.26730    0.59280    1.000
    C30      C        0.26210    0.16710    0.57270    1.000
    C31      C        0.91470    0.07800    0.81570    1.000
    C32      C        0.94890    0.20500    0.85430    1.000
    C33      C        0.86890    0.26190    0.81770    1.000
    C34      C        0.75090    0.49450    0.56970    1.000
    C35      C        0.86770    0.60040    0.59280    1.000
    C36      C        0.90500    0.73790    0.57270    1.000
    O1       O        0.52150    0.76050    0.34710    1.000
    O2       O        0.56740    0.92070    0.25400    1.000
    O3       O        0.16800    0.00340    0.10530    1.000
    O4       O        0.07750    0.83090    0.01940    1.000
    O5       O        0.23900    0.47850    0.34710    1.000
    O6       O        0.35330    0.43260    0.25400    1.000
    O7       O        0.83540    0.83200    0.10530    1.000
    O8       O        0.75340    0.92250    0.01940    1.000
    O9       O        0.23950    0.76100    0.34710    1.000
    O10      O        0.07930    0.64670    0.25400    1.000
    O11      O        0.99660    0.16460    0.10530    1.000
    O12      O        0.16910    0.24660    0.01940    1.000
    O13      O        0.47850    0.23950    0.84710    1.000
    O14      O        0.43260    0.07930    0.75400    1.000
    O15      O        0.83200    0.99660    0.60530    1.000
    O16      O        0.92250    0.16910    0.51940    1.000
    O17      O        0.76100    0.52150    0.84710    1.000
    O18      O        0.64670    0.56740    0.75400    1.000
    O19      O        0.16460    0.16800    0.60530    1.000
    O20      O        0.24660    0.07750    0.51940    1.000
    O21      O        0.76050    0.23900    0.84710    1.000
    O22      O        0.92070    0.35330    0.75400    1.000
    O23      O        0.00340    0.83540    0.60530    1.000
    O24      O        0.83090    0.75340    0.51940    1.000
    H49      H        0.28100    0.91160    0.70480    1.000
    H50      H        0.14450    0.83930    0.65100    1.000
    H51      H        0.18480    0.76180    0.71270    1.000
    H52      H        0.25870    0.81370    0.63070    1.000
    N1       N        0.21730    0.83110    0.67480    1.000
    H53      H        0.63060    0.71900    0.70480    1.000
    H54      H        0.69480    0.85550    0.65100    1.000
    H55      H        0.57700    0.81520    0.71270    1.000
    H56      H        0.55500    0.74130    0.63070    1.000
    N2       N        0.61380    0.78270    0.67480    1.000
    H57      H        0.08840    0.36940    0.70480    1.000
    H58      H        0.16070    0.30520    0.65100    1.000
    H59      H        0.23820    0.42300    0.71270    1.000
    H60      H        0.18630    0.44500    0.63070    1.000
    N3       N        0.16890    0.38620    0.67480    1.000
    H61      H        0.71900    0.08840    0.20480    1.000
    H62      H        0.85550    0.16070    0.15100    1.000
    H63      H        0.81520    0.23820    0.21270    1.000
    H64      H        0.74130    0.18630    0.13070    1.000
    N4       N        0.78270    0.16890    0.17480    1.000
    H65      H        0.36940    0.28100    0.20480    1.000
    H66      H        0.30520    0.14450    0.15100    1.000
    H67      H        0.42300    0.18480    0.21270    1.000
    H68      H        0.44500    0.25870    0.13070    1.000
    N5       N        0.38620    0.21730    0.17480    1.000
    H69      H        0.91160    0.63060    0.20480    1.000
    H70      H        0.83930    0.69480    0.15100    1.000
    H71      H        0.76180    0.57700    0.21270    1.000
    H72      H        0.81370    0.55500    0.13070    1.000
    N6       N        0.83110    0.61380    0.17480    1.000
