data_functionalizedCrystal
_audit_creation_method	'EQeq! by Chris Wilmer'
_symmetry_space_group_name_H-M	'P1'
_symmetry_Int_Tables_number	1
_symmetry_cell_setting	triclinic
loop_
_symmetry_equiv_pos_as_xyz
  x,y,z
_cell_length_a	9.3228
_cell_length_b	11.252
_cell_length_c	18.825
_cell_angle_alpha	79.409
_cell_angle_beta	79.479
_cell_angle_gamma	66.275
loop_
_atom_site_label
_atom_site_type_symbol
_atom_site_fract_x
_atom_site_fract_y
_atom_site_fract_z
_atom_site_charge
Mof_Ni	Ni	0.60585	0.31314	0.21663	1.037
Mof_O 	O 	0.5188	0.2731	0.1338	-0.411
Mof_O 	O 	0.1535	0.412	0.5777	-0.388
Mof_N 	N 	0.4324	0.5091	0.2128	-0.252
Mof_N 	N 	0.0014	0.6837	0.503	-0.233
Mof_N 	N 	0.7488	0.386	0.136	-0.236
Mof_O 	O 	0.5003	0.3387	0.5642	-0.23
Mof_N 	N 	0.7882	0.1218	0.2183	-0.224
Mof_C 	C 	0.0003	0.9334	0.5007	-0.025
Mof_O 	O 	0.8054	0.5388	0.5816	-0.562
Mof_O 	O 	0.4841	0.1529	0.5504	-0.242
Mof_C 	C 	0.962	0.9273	0.2808	-0.048
Mof_H 	H 	0.9905	0.8777	0.325	0.061
Mof_C 	C 	0.4223	0.1138	0.7869	-0.271
Mof_H 	H 	0.4825	0.0448	0.8181	0.141
Mof_C 	C 	0.4467	0.2362	0.0014	0.179
Mof_H 	H 	0.5261	0.2675	0.9987	-0.02
Mof_C 	C 	0.4075	0.2314	0.1384	0.352
Mof_C 	C 	0.4616	0.2428	0.5867	0.317
Mof_C 	C 	0.9925	0.9609	0.1515	-0.004
Mof_H 	H 	0.0426	0.9345	0.1064	0.02
Mof_C 	C 	0.2167	0.6801	0.1583	-0.185
Mof_H 	H 	0.1578	0.7119	0.1192	0.095
Mof_O 	O 	0.3243	0.2112	0.196	-0.291
Mof_C 	C 	0.3908	0.2299	0.6654	-0.115
Mof_C 	C 	0.0469	0.882	0.2159	-0.049
Mof_C 	C 	0.2411	0.3163	0.6931	0.045
Mof_C 	C 	0.7379	0.4002	0.0649	0.073
Mof_H 	H 	0.6615	0.3786	0.051	0.009
Mof_O 	O 	0.2154	0.1763	0.8838	-0.319
Mof_C 	C 	0.3745	0.2058	0.0686	-0.201
Mof_C 	C 	0.1809	0.7536	0.2152	0.12
Mof_C 	C 	0.1322	0.7019	0.5015	0.056
Mof_H 	H 	0.2266	0.6291	0.501	0.03
Mof_C 	C 	0.9472	0.4767	0.0277	0.057
Mof_C 	C 	0.867	0.0753	0.1559	0.027
Mof_H 	H 	0.833	0.1253	0.1125	0.02
Mof_C 	C 	0.4788	0.1289	0.7128	0.113
Mof_H 	H 	0.5769	0.0702	0.6954	0.005
Mof_C 	C 	0.138	0.8234	0.5005	-0.093
Mof_H 	H 	0.2341	0.8307	0.4997	0.078
Mof_O 	O 	0.009	0.5042	0.6752	-0.294
Mof_C 	C 	0.1272	0.4202	0.6436	0.292
Mof_C 	C 	0.8347	0.0464	0.2798	0.041
Mof_H 	H 	0.7795	0.0748	0.3239	-0.003
Mof_C 	C 	0.2827	0.1805	0.9427	0.323
Mof_C 	C 	0.1908	0.2988	0.7672	-0.222
Mof_H 	H 	0.0934	0.3565	0.7861	0.125
Mof_C 	C 	0.9579	0.4661	0.1001	-0.085
Mof_H 	H 	0.0324	0.4886	0.1151	0.052
Mof_C 	C 	0.4051	0.2217	0.9378	-0.313
Mof_H 	H 	0.4583	0.2393	0.8928	0.146
Mof_C 	C 	0.8318	0.4446	0.0106	-0.125
Mof_H 	H 	0.8166	0.4529	0.9622	0.075
Mof_C 	C 	0.2783	0.7042	0.2681	-0.183
Mof_H 	H 	0.2626	0.7513	0.3065	0.101
Mof_C 	C 	0.2821	0.1983	0.8127	0.288
Mof_C 	C 	0.3389	0.5608	0.1596	0.105
Mof_H 	H 	0.3583	0.5125	0.1214	-0.012
Mof_C 	C 	0.2563	0.1555	0.0709	0.162
Mof_H 	H 	0.2086	0.1306	0.1157	-0.015
Mof_C 	C 	0.4004	0.5839	0.2646	0.11
Mof_H 	H 	0.4653	0.5531	0.3015	-0.017
Mof_C 	C 	0.8648	0.9138	0.5034	-0.072
Mof_H 	H 	0.7683	0.9843	0.5059	0.073
Mof_C 	C 	0.8569	0.4215	0.1517	0.061
Mof_H 	H 	0.8665	0.4165	0.2006	-0.003
Mof_C 	C 	0.2113	0.1431	0.008	-0.301
Mof_H 	H 	0.1338	0.11	0.0098	0.142
Mof_C 	C 	0.8693	0.7894	0.5025	0.073
Mof_H 	H 	0.7752	0.7798	0.5016	0.034
Mof_H 	H 	0.8648	0.5324	0.6125	0.272
Mof_H 	H 	0.8545	0.477	0.5555	0.139
Mof_Ni	Ni	0.39415	0.68686	0.78337	1.036
Mof_O 	O 	0.4812	0.7269	0.8662	-0.411
Mof_O 	O 	0.8465	0.588	0.4223	-0.379
Mof_N 	N 	0.5676	0.4909	0.7872	-0.243
Mof_N 	N 	0.9986	0.3163	0.497	-0.231
Mof_N 	N 	0.2512	0.614	0.864	-0.247
Mof_O 	O 	0.4997	0.6613	0.4358	-0.232
Mof_N 	N 	0.2118	0.8782	0.7817	-0.255
Mof_C 	C 	0.9997	0.0666	0.4993	0.15
Mof_O 	O 	0.1946	0.4612	0.4184	-0.556
Mof_O 	O 	0.5159	0.8471	0.4496	-0.245
Mof_C 	C 	0.038	0.0727	0.7192	-0.176
Mof_H 	H 	0.0095	0.1223	0.675	0.093
Mof_C 	C 	0.5777	0.8862	0.2131	-0.275
Mof_H 	H 	0.5175	0.9552	0.1819	0.14
Mof_C 	C 	0.5533	0.7638	0.9986	0.181
Mof_H 	H 	0.4739	0.7325	0.0013	-0.021
Mof_C 	C 	0.5925	0.7686	0.8616	0.351
Mof_C 	C 	0.5384	0.7572	0.4133	0.319
Mof_C 	C 	0.0075	0.0391	0.8485	-0.21
Mof_H 	H 	0.9574	0.0655	0.8936	0.116
Mof_C 	C 	0.7833	0.3199	0.8417	-0.133
Mof_H 	H 	0.8422	0.2881	0.8808	0.081
Mof_O 	O 	0.6757	0.7888	0.804	-0.285
Mof_C 	C 	0.6092	0.7701	0.3346	-0.12
Mof_C 	C 	0.9531	0.118	0.7841	0.122
Mof_C 	C 	0.7589	0.6837	0.3069	0.051
Mof_C 	C 	0.2621	0.5998	0.9351	0.082
Mof_H 	H 	0.3385	0.6214	0.949	0.006
Mof_O 	O 	0.7846	0.8237	0.1162	-0.315
Mof_C 	C 	0.6255	0.7942	0.9314	-0.199
Mof_C 	C 	0.8191	0.2464	0.7848	0.046
Mof_C 	C 	0.8678	0.2981	0.4985	0.114
Mof_H 	H 	0.7734	0.3709	0.499	0.011
Mof_C 	C 	0.0528	0.5233	0.9723	0.07
Mof_C 	C 	0.133	0.9247	0.8441	0.125
Mof_H 	H 	0.167	0.8747	0.8875	-0.02
Mof_C 	C 	0.5212	0.8711	0.2872	0.117
Mof_H 	H 	0.4231	0.9298	0.3046	-0
Mof_C 	C 	0.862	0.1766	0.4995	-0.189
Mof_H 	H 	0.7659	0.1693	0.5003	0.117
Mof_O 	O 	0.991	0.4958	0.3248	-0.274
Mof_C 	C 	0.8728	0.5798	0.3564	0.29
Mof_C 	C 	0.1653	0.9536	0.7202	0.097
Mof_H 	H 	0.2205	0.9252	0.6761	-0.026
Mof_C 	C 	0.7173	0.8195	0.0573	0.324
Mof_C 	C 	0.8092	0.7012	0.2328	-0.226
Mof_H 	H 	0.9066	0.6435	0.2139	0.136
Mof_C 	C 	0.0421	0.5339	0.8999	-0.176
Mof_H 	H 	0.9676	0.5114	0.8849	0.108
Mof_C 	C 	0.5949	0.7783	0.0622	-0.314
Mof_H 	H 	0.5417	0.7607	0.1072	0.146
Mof_C 	C 	0.1682	0.5554	0.9894	-0.141
Mof_H 	H 	0.1834	0.5471	0.0378	0.077
Mof_C 	C 	0.7217	0.2958	0.7319	-0.129
Mof_H 	H 	0.7374	0.2487	0.6935	0.086
Mof_C 	C 	0.7179	0.8017	0.1873	0.293
Mof_C 	C 	0.6611	0.4392	0.8404	0.081
Mof_H 	H 	0.6417	0.4875	0.8786	-0.003
Mof_C 	C 	0.7437	0.8445	0.9291	0.164
Mof_H 	H 	0.7914	0.8694	0.8843	-0.009
Mof_C 	C 	0.5996	0.4161	0.7354	0.084
Mof_H 	H 	0.5347	0.4469	0.6985	-0.008
Mof_C 	C 	0.1352	0.0862	0.4966	-0.205
Mof_H 	H 	0.2317	0.0157	0.4941	0.121
Mof_C 	C 	0.1431	0.5785	0.8483	0.1
Mof_H 	H 	0.1335	0.5835	0.7994	-0.023
Mof_C 	C 	0.7887	0.8569	0.992	-0.297
Mof_H 	H 	0.8662	0.89	0.9902	0.149
Mof_C 	C 	0.1307	0.2106	0.4975	0.097
Mof_H 	H 	0.2248	0.2202	0.4984	0.022
Mof_H 	H 	0.1352	0.4676	0.3875	0.255
Mof_H 	H 	0.1455	0.523	0.4445	0.13
Mof_Ni	Ni	-8.05578e-18	0.5	0.5	1.08
_end
