# CIF file generated by openbabel 3.1.0, see https://openbabel.org
data_I
_chemical_name_common 'image0'
_cell_length_a 13.209
_cell_length_b 13.926
_cell_length_c 12.243
_cell_angle_alpha 90
_cell_angle_beta 90
_cell_angle_gamma 90
_space_group_name_H-M_alt 'P 1'
_space_group_name_Hall 'P 1'
loop_
    _symmetry_equiv_pos_as_xyz
    x,y,z
loop_
    _atom_site_label
    _atom_site_type_symbol
    _atom_site_fract_x
    _atom_site_fract_y
    _atom_site_fract_z
    _atom_site_occupancy
    C1       C        0.40060    0.07340    0.15730    1.000
    C2       C        0.47690    0.12470    0.09000    1.000
    H1       H        0.51630    0.08990    0.04100    1.000
    C3       C        0.49030    0.21780    0.09780    1.000
    H2       H        0.45200    0.24950    0.15030    1.000
    C4       C        0.55920    0.27700    0.03260    1.000
    C5       C        0.62370    0.24140    0.95290    1.000
    H3       H        0.62740    0.17570    0.93990    1.000
    C6       C        0.68210    0.30410    0.89320    1.000
    H4       H        0.72550    0.27880    0.84070    1.000
    C7       C        0.62250    0.43320    0.98770    1.000
    H5       H        0.62350    0.49880    0.00180    1.000
    C8       C        0.56230    0.37550    0.05110    1.000
    H6       H        0.52340    0.40230    0.10660    1.000
    N1       N        0.68000    0.39918    0.90660    1.000
    O1       O        0.35460    0.11981    0.23000    1.000
    O2       O        0.38210    0.98755    0.13910    1.000
    C9       C        0.09940    0.92660    0.15730    1.000
    C10      C        0.02310    0.87530    0.09000    1.000
    H7       H        0.98370    0.91010    0.04100    1.000
    C11      C        0.00970    0.78220    0.09780    1.000
    H8       H        0.04800    0.75050    0.15030    1.000
    C12      C        0.94080    0.72300    0.03260    1.000
    C13      C        0.87630    0.75860    0.95290    1.000
    H9       H        0.87260    0.82430    0.93990    1.000
    C14      C        0.81790    0.69590    0.89320    1.000
    H10      H        0.77450    0.72120    0.84070    1.000
    C15      C        0.87750    0.56680    0.98770    1.000
    H11      H        0.87650    0.50120    0.00180    1.000
    C16      C        0.93770    0.62450    0.05110    1.000
    H12      H        0.97660    0.59770    0.10660    1.000
    N2       N        0.82000    0.60082    0.90660    1.000
    O3       O        0.14540    0.88019    0.23000    1.000
    O4       O        0.11790    0.01245    0.13910    1.000
    C17      C        0.90060    0.42660    0.65730    1.000
    C18      C        0.97690    0.37530    0.59000    1.000
    H13      H        0.01630    0.41010    0.54100    1.000
    C19      C        0.99030    0.28220    0.59780    1.000
    H14      H        0.95200    0.25050    0.65030    1.000
    C20      C        0.05920    0.22300    0.53260    1.000
    C21      C        0.12370    0.25860    0.45290    1.000
    H15      H        0.12740    0.32430    0.43990    1.000
    C22      C        0.18210    0.19590    0.39320    1.000
    H16      H        0.22550    0.22120    0.34070    1.000
    C23      C        0.12250    0.06680    0.48770    1.000
    H17      H        0.12350    0.00120    0.50180    1.000
    C24      C        0.06230    0.12450    0.55110    1.000
    H18      H        0.02340    0.09770    0.60660    1.000
    N3       N        0.18000    0.10082    0.40660    1.000
    O5       O        0.85460    0.38019    0.73000    1.000
    O6       O        0.88210    0.51245    0.63910    1.000
    C25      C        0.59940    0.57340    0.65730    1.000
    C26      C        0.52310    0.62470    0.59000    1.000
    H19      H        0.48370    0.58990    0.54100    1.000
    C27      C        0.50970    0.71780    0.59780    1.000
    H20      H        0.54800    0.74950    0.65030    1.000
    C28      C        0.44080    0.77700    0.53260    1.000
    C29      C        0.37630    0.74140    0.45290    1.000
    H21      H        0.37260    0.67570    0.43990    1.000
    C30      C        0.31790    0.80410    0.39320    1.000
    H22      H        0.27450    0.77880    0.34070    1.000
    C31      C        0.37750    0.93320    0.48770    1.000
    H23      H        0.37650    0.99880    0.50180    1.000
    C32      C        0.43770    0.87550    0.55110    1.000
    H24      H        0.47660    0.90230    0.60660    1.000
    N4       N        0.32000    0.89918    0.40660    1.000
    O7       O        0.64540    0.61981    0.73000    1.000
    O8       O        0.61790    0.48755    0.63910    1.000
    Cd1      Cd       0.25000    0.00000    0.27918    1.000
    Cd2      Cd       0.75000    0.50000    0.77918    1.000
    C33      C        0.09940    0.57340    0.34270    1.000
    C34      C        0.02310    0.62470    0.41000    1.000
    H25      H        0.98370    0.58990    0.45900    1.000
    C35      C        0.00970    0.71780    0.40220    1.000
    H26      H        0.04800    0.74950    0.34970    1.000
    C36      C        0.94080    0.77700    0.46740    1.000
    C37      C        0.87630    0.74140    0.54710    1.000
    H27      H        0.87260    0.67570    0.56010    1.000
    C38      C        0.81790    0.80410    0.60680    1.000
    H28      H        0.77450    0.77880    0.65930    1.000
    C39      C        0.87750    0.93320    0.51230    1.000
    H29      H        0.87650    0.99880    0.49820    1.000
    C40      C        0.93770    0.87550    0.44890    1.000
    H30      H        0.97660    0.90230    0.39340    1.000
    N5       N        0.82000    0.89918    0.59340    1.000
    O9       O        0.14540    0.61981    0.27000    1.000
    O10      O        0.11790    0.48755    0.36090    1.000
    C41      C        0.40060    0.42660    0.34270    1.000
    C42      C        0.47690    0.37530    0.41000    1.000
    H31      H        0.51630    0.41010    0.45900    1.000
    C43      C        0.49030    0.28220    0.40220    1.000
    H32      H        0.45200    0.25050    0.34970    1.000
    C44      C        0.55920    0.22300    0.46740    1.000
    C45      C        0.62370    0.25860    0.54710    1.000
    H33      H        0.62740    0.32430    0.56010    1.000
    C46      C        0.68210    0.19590    0.60680    1.000
    H34      H        0.72550    0.22120    0.65930    1.000
    C47      C        0.62250    0.06680    0.51230    1.000
    H35      H        0.62350    0.00120    0.49820    1.000
    C48      C        0.56230    0.12450    0.44890    1.000
    H36      H        0.52340    0.09770    0.39340    1.000
    N6       N        0.68000    0.10082    0.59340    1.000
    O11      O        0.35460    0.38019    0.27000    1.000
    O12      O        0.38210    0.51245    0.36090    1.000
    C49      C        0.59940    0.92660    0.84270    1.000
    C50      C        0.52310    0.87530    0.91000    1.000
    H37      H        0.48370    0.91010    0.95900    1.000
    C51      C        0.50970    0.78220    0.90220    1.000
    H38      H        0.54800    0.75050    0.84970    1.000
    C52      C        0.44080    0.72300    0.96740    1.000
    C53      C        0.37630    0.75860    0.04710    1.000
    H39      H        0.37260    0.82430    0.06010    1.000
    C54      C        0.31790    0.69590    0.10680    1.000
    H40      H        0.27450    0.72120    0.15930    1.000
    C55      C        0.37750    0.56680    0.01230    1.000
    H41      H        0.37650    0.50120    0.99820    1.000
    C56      C        0.43770    0.62450    0.94890    1.000
    H42      H        0.47660    0.59770    0.89340    1.000
    N7       N        0.32000    0.60082    0.09340    1.000
    O13      O        0.64540    0.88019    0.77000    1.000
    O14      O        0.61790    0.01245    0.86090    1.000
    C57      C        0.90060    0.07340    0.84270    1.000
    C58      C        0.97690    0.12470    0.91000    1.000
    H43      H        0.01630    0.08990    0.95900    1.000
    C59      C        0.99030    0.21780    0.90220    1.000
    H44      H        0.95200    0.24950    0.84970    1.000
    C60      C        0.05920    0.27700    0.96740    1.000
    C61      C        0.12370    0.24140    0.04710    1.000
    H45      H        0.12740    0.17570    0.06010    1.000
    C62      C        0.18210    0.30410    0.10680    1.000
    H46      H        0.22550    0.27880    0.15930    1.000
    C63      C        0.12250    0.43320    0.01230    1.000
    H47      H        0.12350    0.49880    0.99820    1.000
    C64      C        0.06230    0.37550    0.94890    1.000
    H48      H        0.02340    0.40230    0.89340    1.000
    N8       N        0.18000    0.39918    0.09340    1.000
    O15      O        0.85460    0.11981    0.77000    1.000
    O16      O        0.88210    0.98755    0.86090    1.000
    Cd3      Cd       0.25000    0.50000    0.22082    1.000
    Cd4      Cd       0.75000    0.00000    0.72082    1.000
