data_functionalizedCrystal
_audit_creation_method	'EQeq! by Chris Wilmer'
_symmetry_space_group_name_H-M	'P1'
_symmetry_Int_Tables_number	1
_symmetry_cell_setting	triclinic
loop_
_symmetry_equiv_pos_as_xyz
  x,y,z
_cell_length_a	9.7893
_cell_length_b	10.3641
_cell_length_c	10.6649
_cell_angle_alpha	111.801
_cell_angle_beta	100.498
_cell_angle_gamma	109.257
loop_
_atom_site_label
_atom_site_type_symbol
_atom_site_fract_x
_atom_site_fract_y
_atom_site_fract_z
_atom_site_charge
Mof_Zn	Zn	0.59102	0.46809	0.79701	1.189
Mof_O 	O 	0.5534	0.706	0.72	-0.788
Mof_O 	O 	0.5491	0.6447	0.899	-0.544
Mof_O 	O 	0.3246	0.346	0.5606	-0.824
Mof_O 	O 	0.4059	0.2685	0.714	-0.537
Mof_O 	O 	0.6919	0.4596	0.653	-0.794
Mof_O 	O 	0.9088	0.647	0.8285	-0.364
Mof_N 	N 	0.7009	0.4443	0.9649	-0.204
Mof_H 	H 	0.6297	0.3985	0.991	0.1
Mof_C 	C 	0.5425	0.7297	0.8384	0.506
Mof_C 	C 	0.5199	0.8695	0.9231	-0.132
Mof_C 	C 	0.4778	0.9489	0.8546	0.013
Mof_H 	H 	0.4632	0.9147	0.7572	0.014
Mof_C 	C 	0.5425	0.9221	0.07	-0.028
Mof_H 	H 	0.5711	0.8703	0.1168	0.047
Mof_C 	C 	0.3034	0.256	0.6121	0.511
Mof_C 	C 	0.1461	0.1213	0.5529	-0.143
Mof_C 	C 	0.0188	0.1272	0.479	0.003
Mof_H 	H 	0.0311	0.2126	0.464	0.026
Mof_C 	C 	0.1269	0.993	0.5731	-0.014
Mof_H 	H 	0.2121	0.9873	0.6218	0.033
Mof_C 	C 	0.8376	0.5484	0.7029	0.394
Mof_C 	C 	0.9209	0.5225	0.5965	-0.139
Mof_C 	C 	0.8412	0.4176	0.4516	0.014
Mof_H 	H 	0.7345	0.3623	0.4187	-0.037
Mof_C 	C 	0.0806	0.6048	0.6438	-0.028
Mof_H 	H 	0.135	0.6755	0.7405	0.036
Mof_C 	C 	0.7748	0.3415	0.9174	-0.379
Mof_H 	H 	0.7019	0.2478	0.8332	0.117
Mof_H 	H 	0.8092	0.318	0.9929	0.151
Mof_H 	H 	0.8616	0.3917	0.8952	0.131
Mof_C 	C 	0.8095	0.5905	0.0944	-0.384
Mof_H 	H 	0.7582	0.6551	0.1234	0.131
Mof_H 	H 	0.8961	0.6424	0.073	0.139
Mof_H 	H 	0.8448	0.5689	0.1711	0.141
Mof_Zn	Zn	0.40898	0.53191	0.20299	1.188
Mof_O 	O 	0.4466	0.294	0.28	-0.789
Mof_O 	O 	0.4509	0.3553	0.101	-0.545
Mof_O 	O 	0.6754	0.654	0.4394	-0.825
Mof_O 	O 	0.5941	0.7315	0.286	-0.538
Mof_O 	O 	0.3081	0.5404	0.347	-0.794
Mof_O 	O 	0.0912	0.353	0.1715	-0.364
Mof_N 	N 	0.2991	0.5557	0.0351	-0.204
Mof_H 	H 	0.3703	0.6015	0.009	0.1
Mof_C 	C 	0.4575	0.2703	0.1616	0.506
Mof_C 	C 	0.4801	0.1305	0.0769	-0.132
Mof_C 	C 	0.5222	0.0511	0.1454	0.013
Mof_H 	H 	0.5368	0.0853	0.2428	0.014
Mof_C 	C 	0.4575	0.0779	0.93	-0.028
Mof_H 	H 	0.4289	0.1297	0.8832	0.047
Mof_C 	C 	0.6966	0.744	0.3879	0.511
Mof_C 	C 	0.8539	0.8787	0.4471	-0.143
Mof_C 	C 	0.9812	0.8728	0.521	0.003
Mof_H 	H 	0.9689	0.7874	0.536	0.026
Mof_C 	C 	0.8731	0.007	0.4269	-0.014
Mof_H 	H 	0.7879	0.0127	0.3782	0.033
Mof_C 	C 	0.1624	0.4516	0.2971	0.394
Mof_C 	C 	0.0791	0.4775	0.4035	-0.139
Mof_C 	C 	0.1588	0.5824	0.5484	0.014
Mof_H 	H 	0.2655	0.6377	0.5813	-0.037
Mof_C 	C 	0.9194	0.3952	0.3562	-0.028
Mof_H 	H 	0.865	0.3245	0.2595	0.036
Mof_C 	C 	0.2252	0.6585	0.0826	-0.379
Mof_H 	H 	0.2981	0.7522	0.1668	0.117
Mof_H 	H 	0.1908	0.682	0.0071	0.151
Mof_H 	H 	0.1384	0.6083	0.1048	0.131
Mof_C 	C 	0.1905	0.4095	0.9056	-0.384
Mof_H 	H 	0.2418	0.3449	0.8766	0.131
Mof_H 	H 	0.1039	0.3576	0.927	0.139
Mof_H 	H 	0.1552	0.4311	0.8289	0.141
Mof_Na	Na	0.5	0.5	0.5	3.291
_end
