data_functionalizedCrystal
_audit_creation_method	'EQeq! by Chris Wilmer'
_symmetry_space_group_name_H-M	'P1'
_symmetry_Int_Tables_number	1
_symmetry_cell_setting	triclinic
loop_
_symmetry_equiv_pos_as_xyz
  x,y,z
_cell_length_a	15.0488
_cell_length_b	15.0488
_cell_length_c	15.0488
_cell_angle_alpha	77.2864
_cell_angle_beta	77.2864
_cell_angle_gamma	77.2864
loop_
_atom_site_label
_atom_site_type_symbol
_atom_site_fract_x
_atom_site_fract_y
_atom_site_fract_z
_atom_site_charge
Mof_Cu	Cu	0.5805	0.01294	0.01284	0.898
Mof_Cu	Cu	0.01284	0.5805	0.01294	0.898
Mof_Cu	Cu	0.01294	0.01284	0.5805	0.898
Mof_Cu	Cu	0.4195	0.98706	0.98716	0.898
Mof_Cu	Cu	0.98716	0.4195	0.98706	0.898
Mof_Cu	Cu	0.98706	0.98716	0.4195	0.898
Mof_H 	H 	0.2892	0.9762	0.2528	0.065
Mof_H 	H 	0.2974	0.9879	0.5107	0.07
Mof_H 	H 	0.5185	0.9923	0.3257	0.06
Mof_H 	H 	0.4607	0.9853	0.5717	0.06
Mof_H 	H 	0.2528	0.2892	0.9762	0.065
Mof_H 	H 	0.5107	0.2974	0.9879	0.07
Mof_H 	H 	0.3257	0.5185	0.9923	0.059
Mof_H 	H 	0.5717	0.4607	0.9853	0.059
Mof_H 	H 	0.9762	0.2528	0.2892	0.064
Mof_H 	H 	0.9879	0.5107	0.2974	0.069
Mof_H 	H 	0.9923	0.3257	0.5185	0.059
Mof_H 	H 	0.9853	0.5717	0.4607	0.059
Mof_H 	H 	0.7108	0.0238	0.7472	0.064
Mof_H 	H 	0.7026	0.0121	0.4893	0.069
Mof_H 	H 	0.4815	0.0077	0.6743	0.059
Mof_H 	H 	0.5393	0.0147	0.4283	0.059
Mof_H 	H 	0.7472	0.7108	0.0238	0.064
Mof_H 	H 	0.4893	0.7026	0.0121	0.069
Mof_H 	H 	0.6743	0.4815	0.0077	0.059
Mof_H 	H 	0.4283	0.5393	0.0147	0.059
Mof_H 	H 	0.0238	0.7472	0.7108	0.064
Mof_H 	H 	0.0121	0.4893	0.7026	0.069
Mof_H 	H 	0.0077	0.6743	0.4815	0.059
Mof_H 	H 	0.0147	0.4283	0.5393	0.059
Mof_C 	C 	0.4393	0.9822	0.1693	0.342
Mof_C 	C 	0.3217	0.9802	0.2973	-0.007
Mof_C 	C 	0.4132	0.9843	0.2746	-0.046
Mof_C 	C 	0.3292	0.9871	0.4503	-0.055
Mof_C 	C 	0.4558	0.9896	0.344	-0.049
Mof_C 	C 	0.4225	0.9915	0.4351	0.04
Mof_C 	C 	0.4909	0.0007	0.4763	-0.064
Mof_C 	C 	0.278	0.9818	0.3871	-0.062
Mof_C 	C 	0.8244	0.016	0.5676	0.379
Mof_C 	C 	0.1693	0.4393	0.9822	0.342
Mof_C 	C 	0.2973	0.3217	0.9802	-0.007
Mof_C 	C 	0.2746	0.4132	0.9843	-0.046
Mof_C 	C 	0.4503	0.3292	0.9871	-0.055
Mof_C 	C 	0.344	0.4558	0.9896	-0.049
Mof_C 	C 	0.4351	0.4225	0.9915	0.04
Mof_C 	C 	0.4763	0.4909	0.0007	-0.064
Mof_C 	C 	0.3871	0.278	0.9818	-0.062
Mof_C 	C 	0.5676	0.8244	0.016	0.379
Mof_C 	C 	0.9822	0.1693	0.4393	0.342
Mof_C 	C 	0.9802	0.2973	0.3217	-0.007
Mof_C 	C 	0.9843	0.2746	0.4132	-0.046
Mof_C 	C 	0.9871	0.4503	0.3292	-0.055
Mof_C 	C 	0.9896	0.344	0.4558	-0.049
Mof_C 	C 	0.9915	0.4351	0.4225	0.04
Mof_C 	C 	0.0007	0.4763	0.4909	-0.064
Mof_C 	C 	0.9818	0.3871	0.278	-0.062
Mof_C 	C 	0.016	0.5676	0.8244	0.379
Mof_C 	C 	0.5607	0.0178	0.8307	0.342
Mof_C 	C 	0.6783	0.0198	0.7027	-0.007
Mof_C 	C 	0.5868	0.0157	0.7254	-0.046
Mof_C 	C 	0.6708	0.0129	0.5497	-0.055
Mof_C 	C 	0.5442	0.0104	0.656	-0.049
Mof_C 	C 	0.5775	0.0085	0.5649	0.04
Mof_C 	C 	0.5091	0.9993	0.5237	-0.064
Mof_C 	C 	0.722	0.0182	0.6129	-0.062
Mof_C 	C 	0.1756	0.984	0.4324	0.379
Mof_C 	C 	0.8307	0.5607	0.0178	0.342
Mof_C 	C 	0.7027	0.6783	0.0198	-0.007
Mof_C 	C 	0.7254	0.5868	0.0157	-0.046
Mof_C 	C 	0.5497	0.6708	0.0129	-0.055
Mof_C 	C 	0.656	0.5442	0.0104	-0.049
Mof_C 	C 	0.5649	0.5775	0.0085	0.04
Mof_C 	C 	0.5237	0.5091	0.9993	-0.064
Mof_C 	C 	0.6129	0.722	0.0182	-0.062
Mof_C 	C 	0.4324	0.1756	0.984	0.379
Mof_C 	C 	0.0178	0.8307	0.5607	0.342
Mof_C 	C 	0.0198	0.7027	0.6783	-0.007
Mof_C 	C 	0.0157	0.7254	0.5868	-0.046
Mof_C 	C 	0.0129	0.5497	0.6708	-0.055
Mof_C 	C 	0.0104	0.656	0.5442	-0.049
Mof_C 	C 	0.0085	0.5649	0.5775	0.04
Mof_C 	C 	0.9993	0.5237	0.5091	-0.064
Mof_C 	C 	0.0182	0.6129	0.722	-0.062
Mof_C 	C 	0.984	0.4324	0.1756	0.379
Mof_O 	O 	0.382	0.9775	0.123	-0.403
Mof_O 	O 	0.5207	0.9978	0.1422	-0.404
Mof_O 	O 	0.8776	0.0241	0.6146	-0.415
Mof_O 	O 	0.8534	0.0043	0.4858	-0.406
Mof_O 	O 	0.123	0.382	0.9775	-0.403
Mof_O 	O 	0.1422	0.5207	0.9978	-0.404
Mof_O 	O 	0.6146	0.8776	0.0241	-0.415
Mof_O 	O 	0.4858	0.8534	0.0043	-0.406
Mof_O 	O 	0.9775	0.123	0.382	-0.403
Mof_O 	O 	0.9978	0.1422	0.5207	-0.404
Mof_O 	O 	0.0241	0.6146	0.8776	-0.415
Mof_O 	O 	0.0043	0.4858	0.8534	-0.406
Mof_O 	O 	0.618	0.0225	0.877	-0.403
Mof_O 	O 	0.4793	0.0022	0.8578	-0.404
Mof_O 	O 	0.1224	0.9759	0.3854	-0.415
Mof_O 	O 	0.1466	0.9957	0.5142	-0.406
Mof_O 	O 	0.877	0.618	0.0225	-0.403
Mof_O 	O 	0.8578	0.4793	0.0022	-0.404
Mof_O 	O 	0.3854	0.1224	0.9759	-0.415
Mof_O 	O 	0.5142	0.1466	0.9957	-0.406
Mof_O 	O 	0.0225	0.877	0.618	-0.403
Mof_O 	O 	0.0022	0.8578	0.4793	-0.404
Mof_O 	O 	0.9759	0.3854	0.1224	-0.415
Mof_O 	O 	0.9957	0.5142	0.1466	-0.406
_end
