# CIF file generated by openbabel 3.1.0, see https://openbabel.org
data_I
_chemical_name_common 'WAHREE_clean'
_cell_length_a 7.1992
_cell_length_b 18.9503
_cell_length_c 20.4043
_cell_angle_alpha 106.648
_cell_angle_beta 90
_cell_angle_gamma 90
_space_group_name_H-M_alt 'P 1'
_space_group_name_Hall 'P 1'
loop_
    _symmetry_equiv_pos_as_xyz
    x,y,z
loop_
    _atom_site_label
    _atom_site_type_symbol
    _atom_site_fract_x
    _atom_site_fract_y
    _atom_site_fract_z
    _atom_site_occupancy
    Co1      Co       0.66867    0.02618    0.47548    1.000
    Co2      Co       0.66867    0.47382    0.02452    1.000
    Co3      Co       0.33133    0.97382    0.52452    1.000
    Co4      Co       0.33133    0.52618    0.97548    1.000
    H1       H        0.98520    0.16970    0.58310    1.000
    H2       H        0.43850    0.25400    0.52080    1.000
    H3       H        0.97140    0.41160    0.83420    1.000
    H4       H        0.85540    0.28580    0.61700    1.000
    H5       H        0.31050    0.37090    0.55770    1.000
    H6       H        0.49930    0.48170    0.76930    1.000
    H7       H        0.09500    0.38970    0.72710    1.000
    H8       H        0.14140    0.08890    0.36690    1.000
    H9       H        0.83040    0.26940    0.38990    1.000
    H10      H        0.03070    0.30860    0.32140    1.000
    H11      H        0.34250    0.13080    0.29860    1.000
    H12      H        0.62750    0.46170    0.66200    1.000
    H13      H        0.61970    0.17030    0.46880    1.000
    H14      H        0.98520    0.33030    0.91690    1.000
    H15      H        0.43850    0.24600    0.97920    1.000
    H16      H        0.97140    0.08840    0.66580    1.000
    H17      H        0.85540    0.21420    0.88300    1.000
    H18      H        0.31050    0.12910    0.94230    1.000
    H19      H        0.49930    0.01830    0.73070    1.000
    H20      H        0.09500    0.11030    0.77290    1.000
    H21      H        0.14140    0.41110    0.13310    1.000
    H22      H        0.83040    0.23060    0.11010    1.000
    H23      H        0.03070    0.19140    0.17860    1.000
    H24      H        0.34250    0.36920    0.20140    1.000
    H25      H        0.62750    0.03830    0.83800    1.000
    H26      H        0.61970    0.32970    0.03120    1.000
    H27      H        0.01480    0.83030    0.41690    1.000
    H28      H        0.56150    0.74600    0.47920    1.000
    H29      H        0.02860    0.58840    0.16580    1.000
    H30      H        0.14460    0.71420    0.38300    1.000
    H31      H        0.68950    0.62910    0.44230    1.000
    H32      H        0.50070    0.51830    0.23070    1.000
    H33      H        0.90500    0.61030    0.27290    1.000
    H34      H        0.85860    0.91110    0.63310    1.000
    H35      H        0.16960    0.73060    0.61010    1.000
    H36      H        0.96930    0.69140    0.67860    1.000
    H37      H        0.65750    0.86920    0.70140    1.000
    H38      H        0.37250    0.53830    0.33800    1.000
    H39      H        0.38030    0.82970    0.53120    1.000
    H40      H        0.01480    0.66970    0.08310    1.000
    H41      H        0.56150    0.75400    0.02080    1.000
    H42      H        0.02860    0.91160    0.33420    1.000
    H43      H        0.14460    0.78580    0.11700    1.000
    H44      H        0.68950    0.87090    0.05770    1.000
    H45      H        0.50070    0.98170    0.26930    1.000
    H46      H        0.90500    0.88970    0.22710    1.000
    H47      H        0.85860    0.58890    0.86690    1.000
    H48      H        0.16960    0.76940    0.88990    1.000
    H49      H        0.96930    0.80860    0.82140    1.000
    H50      H        0.65750    0.63080    0.79860    1.000
    H51      H        0.37250    0.96170    0.16200    1.000
    H52      H        0.38030    0.67030    0.96880    1.000
    C1       C        0.63910    0.46311    0.88201    1.000
    C2       C        0.31460    0.12620    0.53140    1.000
    C3       C        0.05140    0.21001    0.57821    1.000
    C4       C        0.23160    0.20100    0.55030    1.000
    C5       C        0.32220    0.26030    0.54150    1.000
    C6       C        0.82760    0.14500    0.42330    1.000
    C7       C        0.83990    0.41830    0.55650    1.000
    C8       C        0.11360    0.48060    0.62570    1.000
    C9       C        0.44770    0.31060    0.29550    1.000
    C10      C        0.72160    0.44758    0.81218    1.000
    C11      C        0.90160    0.42120    0.79940    1.000
    C12      C        0.97580    0.41577    0.61457    1.000
    C13      C        0.06880    0.34043    0.59163    1.000
    C14      C        0.87530    0.42594    0.68324    1.000
    C15      C        0.97430    0.27970    0.59840    1.000
    C16      C        0.24440    0.33060    0.56280    1.000
    C17      C        0.61950    0.46340    0.76080    1.000
    C18      C        0.97600    0.40920    0.73580    1.000
    C19      C        0.11730    0.13300    0.35710    1.000
    C20      C        0.96090    0.17410    0.38400    1.000
    C21      C        0.93180    0.24040    0.37070    1.000
    C22      C        0.05110    0.26350    0.32960    1.000
    C23      C        0.20270    0.22140    0.29950    1.000
    C24      C        0.23660    0.15800    0.31570    1.000
    C25      C        0.69720    0.45173    0.69673    1.000
    C26      C        0.63910    0.03689    0.61799    1.000
    C27      C        0.31460    0.37380    0.96860    1.000
    C28      C        0.05140    0.28999    0.92179    1.000
    C29      C        0.23160    0.29900    0.94970    1.000
    C30      C        0.32220    0.23970    0.95850    1.000
    C31      C        0.82760    0.35500    0.07670    1.000
    C32      C        0.83990    0.08170    0.94350    1.000
    C33      C        0.11360    0.01940    0.87430    1.000
    C34      C        0.44770    0.18940    0.20450    1.000
    C35      C        0.72160    0.05242    0.68782    1.000
    C36      C        0.90160    0.07880    0.70060    1.000
    C37      C        0.97580    0.08423    0.88543    1.000
    C38      C        0.06880    0.15957    0.90837    1.000
    C39      C        0.87530    0.07406    0.81676    1.000
    C40      C        0.97430    0.22030    0.90160    1.000
    C41      C        0.24440    0.16940    0.93720    1.000
    C42      C        0.61950    0.03660    0.73920    1.000
    C43      C        0.97600    0.09080    0.76420    1.000
    C44      C        0.11730    0.36700    0.14290    1.000
    C45      C        0.96090    0.32590    0.11600    1.000
    C46      C        0.93180    0.25960    0.12930    1.000
    C47      C        0.05110    0.23650    0.17040    1.000
    C48      C        0.20270    0.27860    0.20050    1.000
    C49      C        0.23660    0.34200    0.18430    1.000
    C50      C        0.69720    0.04827    0.80327    1.000
    C51      C        0.36090    0.53689    0.11799    1.000
    C52      C        0.68540    0.87380    0.46860    1.000
    C53      C        0.94860    0.78999    0.42179    1.000
    C54      C        0.76840    0.79900    0.44970    1.000
    C55      C        0.67780    0.73970    0.45850    1.000
    C56      C        0.17240    0.85500    0.57670    1.000
    C57      C        0.16010    0.58170    0.44350    1.000
    C58      C        0.88640    0.51940    0.37430    1.000
    C59      C        0.55230    0.68940    0.70450    1.000
    C60      C        0.27840    0.55242    0.18782    1.000
    C61      C        0.09840    0.57880    0.20060    1.000
    C62      C        0.02420    0.58423    0.38543    1.000
    C63      C        0.93120    0.65957    0.40837    1.000
    C64      C        0.12470    0.57406    0.31676    1.000
    C65      C        0.02570    0.72030    0.40160    1.000
    C66      C        0.75560    0.66940    0.43720    1.000
    C67      C        0.38050    0.53660    0.23920    1.000
    C68      C        0.02400    0.59080    0.26420    1.000
    C69      C        0.88270    0.86700    0.64290    1.000
    C70      C        0.03910    0.82590    0.61600    1.000
    C71      C        0.06820    0.75960    0.62930    1.000
    C72      C        0.94890    0.73650    0.67040    1.000
    C73      C        0.79730    0.77860    0.70050    1.000
    C74      C        0.76340    0.84200    0.68430    1.000
    C75      C        0.30280    0.54827    0.30327    1.000
    C76      C        0.36090    0.96311    0.38201    1.000
    C77      C        0.68540    0.62620    0.03140    1.000
    C78      C        0.94860    0.71001    0.07821    1.000
    C79      C        0.76840    0.70100    0.05030    1.000
    C80      C        0.67780    0.76030    0.04150    1.000
    C81      C        0.17240    0.64500    0.92330    1.000
    C82      C        0.16010    0.91830    0.05650    1.000
    C83      C        0.88640    0.98060    0.12570    1.000
    C84      C        0.55230    0.81060    0.79550    1.000
    C85      C        0.27840    0.94758    0.31218    1.000
    C86      C        0.09840    0.92120    0.29940    1.000
    C87      C        0.02420    0.91577    0.11457    1.000
    C88      C        0.93120    0.84043    0.09163    1.000
    C89      C        0.12470    0.92594    0.18324    1.000
    C90      C        0.02570    0.77970    0.09840    1.000
    C91      C        0.75560    0.83060    0.06280    1.000
    C92      C        0.38050    0.96340    0.26080    1.000
    C93      C        0.02400    0.90920    0.23580    1.000
    C94      C        0.88270    0.63300    0.85710    1.000
    C95      C        0.03910    0.67410    0.88400    1.000
    C96      C        0.06820    0.74040    0.87070    1.000
    C97      C        0.94890    0.76350    0.82960    1.000
    C98      C        0.79730    0.72140    0.79950    1.000
    C99      C        0.76340    0.65800    0.81570    1.000
    C100     C        0.30280    0.95173    0.19673    1.000
    C101     C        0.32440    0.25000    0.25000    1.000
    C102     C        0.67560    0.75000    0.75000    1.000
    O1       O        0.73450    0.44594    0.92714    1.000
    O2       O        0.48440    0.49449    0.89179    1.000
    O3       O        0.47340    0.11728    0.50362    1.000
    O4       O        0.22680    0.07541    0.54324    1.000
    O5       O        0.68350    0.18713    0.44353    1.000
    O6       O        0.84750    0.08651    0.43569    1.000
    O7       O        0.73450    0.05406    0.57286    1.000
    O8       O        0.48440    0.00551    0.60821    1.000
    O9       O        0.47340    0.38272    0.99638    1.000
    O10      O        0.22680    0.42459    0.95676    1.000
    O11      O        0.68350    0.31287    0.05647    1.000
    O12      O        0.84750    0.41349    0.06431    1.000
    O13      O        0.26550    0.55406    0.07286    1.000
    O14      O        0.51560    0.50551    0.10821    1.000
    O15      O        0.52660    0.88272    0.49638    1.000
    O16      O        0.77320    0.92459    0.45676    1.000
    O17      O        0.31650    0.81287    0.55647    1.000
    O18      O        0.15250    0.91349    0.56431    1.000
    O19      O        0.26550    0.94594    0.42714    1.000
    O20      O        0.51560    0.99449    0.39179    1.000
    O21      O        0.52660    0.61728    0.00362    1.000
    O22      O        0.77320    0.57541    0.04324    1.000
    O23      O        0.31650    0.68713    0.94353    1.000
    O24      O        0.15250    0.58651    0.93569    1.000
    F1       F        0.70100    0.37194    0.55159    1.000
    F2       F        0.92490    0.40026    0.49645    1.000
    F3       F        0.76500    0.48416    0.56467    1.000
    F4       F        0.18470    0.48673    0.56777    1.000
    F5       F        0.25140    0.47458    0.66558    1.000
    F6       F        0.02970    0.54436    0.65618    1.000
    F7       F        0.35380    0.37103    0.32523    1.000
    F8       F        0.58850    0.33043    0.25998    1.000
    F9       F        0.52550    0.28896    0.34651    1.000
    F10      F        0.70100    0.12806    0.94841    1.000
    F11      F        0.92490    0.09974    0.00355    1.000
    F12      F        0.76500    0.01584    0.93533    1.000
    F13      F        0.18470    0.01327    0.93223    1.000
    F14      F        0.25140    0.02542    0.83442    1.000
    F15      F        0.02970    0.95564    0.84382    1.000
    F16      F        0.35380    0.12897    0.17477    1.000
    F17      F        0.58850    0.16957    0.24002    1.000
    F18      F        0.52550    0.21104    0.15349    1.000
    F19      F        0.29900    0.62806    0.44841    1.000
    F20      F        0.07510    0.59974    0.50355    1.000
    F21      F        0.23500    0.51584    0.43533    1.000
    F22      F        0.81530    0.51327    0.43223    1.000
    F23      F        0.74860    0.52542    0.33442    1.000
    F24      F        0.97030    0.45564    0.34382    1.000
    F25      F        0.64620    0.62897    0.67477    1.000
    F26      F        0.41150    0.66957    0.74002    1.000
    F27      F        0.47450    0.71104    0.65349    1.000
    F28      F        0.29900    0.87194    0.05159    1.000
    F29      F        0.07510    0.90026    0.99645    1.000
    F30      F        0.23500    0.98416    0.06467    1.000
    F31      F        0.81530    0.98673    0.06777    1.000
    F32      F        0.74860    0.97458    0.16558    1.000
    F33      F        0.97030    0.04436    0.15618    1.000
    F34      F        0.64620    0.87103    0.82523    1.000
    F35      F        0.41150    0.83043    0.75998    1.000
    F36      F        0.47450    0.78896    0.84651    1.000
