data_functionalizedCrystal
_audit_creation_method	'EQeq! by Chris Wilmer'
_symmetry_space_group_name_H-M	'P1'
_symmetry_Int_Tables_number	1
_symmetry_cell_setting	triclinic
loop_
_symmetry_equiv_pos_as_xyz
  x,y,z
_cell_length_a	11.0711
_cell_length_b	11.0711
_cell_length_c	11.6224
_cell_angle_alpha	117.998
_cell_angle_beta	117.998
_cell_angle_gamma	90.8234
loop_
_atom_site_label
_atom_site_type_symbol
_atom_site_fract_x
_atom_site_fract_y
_atom_site_fract_z
_atom_site_charge
Mof_Sr	Sr	0.73354	0.26646	-0	1.138
Mof_Sr	Sr	0.98354	0.01646	0.5	1.331
Mof_H 	H 	0.7487	0.8605	0.6064	-0.188
Mof_H 	H 	0.8069	0.8665	0.8748	0.315
Mof_H 	H 	0.9255	0.8783	0.8356	0.301
Mof_H 	H 	0.7952	0.7336	0.7264	0.29
Mof_H 	H 	0.5412	0.7494	0.574	0.264
Mof_H 	H 	0.5308	0.8942	0.5758	0.268
Mof_H 	H 	0.5699	0.8923	0.726	0.288
Mof_H 	H 	0.1395	0.2513	0.3936	-0.169
Mof_H 	H 	0.1335	0.1931	0.1252	0.234
Mof_H 	H 	0.1217	0.0745	0.1644	0.252
Mof_H 	H 	0.2664	0.2048	0.2736	0.247
Mof_H 	H 	0.2506	0.4588	0.426	0.255
Mof_H 	H 	0.1058	0.4692	0.4242	0.268
Mof_H 	H 	0.1077	0.4301	0.274	0.264
Mof_H 	H 	0.9959	0.6077	0.1064	-0.189
Mof_H 	H 	0.2583	0.8179	0.3748	0.255
Mof_H 	H 	0.2073	0.6601	0.3356	0.258
Mof_H 	H 	0.2428	0.6812	0.2264	0.238
Mof_H 	H 	0.0746	0.7828	0.074	0.213
Mof_H 	H 	0.9316	0.795	0.0758	0.225
Mof_H 	H 	0.0837	0.9061	0.226	0.243
Mof_H 	H 	0.3923	0.0041	0.8936	-0.133
Mof_H 	H 	0.1821	0.7417	0.6252	0.277
Mof_H 	H 	0.3399	0.7927	0.6644	0.276
Mof_H 	H 	0.3188	0.7572	0.7736	0.28
Mof_H 	H 	0.2172	0.9254	0.926	0.307
Mof_H 	H 	0.205	0.0684	0.9242	0.338
Mof_H 	H 	0.0939	0.9163	0.774	0.303
Mof_C 	C 	0.879	0.117	0.2178	0.374
Mof_C 	C 	0.737	0.8944	0.6958	0.69
Mof_C 	C 	0.8235	0.8385	0.7912	-0.994
Mof_C 	C 	0.5814	0.854	0.638	-0.95
Mof_C 	C 	0.883	0.121	0.7822	0.353
Mof_C 	C 	0.1056	0.263	0.3042	0.664
Mof_C 	C 	0.1615	0.1765	0.2088	-0.901
Mof_C 	C 	0.146	0.4186	0.362	-0.917
Mof_C 	C 	0.3508	0.0888	0.7178	0.354
Mof_C 	C 	0.0514	0.7088	0.1958	0.647
Mof_C 	C 	0.2027	0.7177	0.2912	-0.903
Mof_C 	C 	0.034	0.8066	0.138	-0.867
Mof_C 	C 	0.9112	0.6492	0.2822	0.362
Mof_C 	C 	0.2912	0.9486	0.8042	0.662
Mof_C 	C 	0.2823	0.7973	0.7088	-0.948
Mof_C 	C 	0.1934	0.966	0.862	-1.038
Mof_S 	S 	0.69835	0.05391	0.08846	-0.358
Mof_S 	S 	0.94609	0.30165	0.91154	-0.206
Mof_S 	S 	0.28455	0.14011	0.58846	-0.279
Mof_S 	S 	0.85989	0.71545	0.41154	-0.327
Mof_O 	O 	0.9477	0.0885	0.3142	-0.469
Mof_O 	O 	0.9472	0.2114	0.2066	-0.486
Mof_O 	O 	0.9115	0.0523	0.6858	-0.454
Mof_O 	O 	0.7886	0.0528	0.7934	-0.438
Mof_O 	O 	0.4757	0.1165	0.8142	-0.406
Mof_O 	O 	0.2452	0.0094	0.7066	-0.459
Mof_O 	O 	0.8835	0.5243	0.1858	-0.467
Mof_O 	O 	0.9906	0.7548	0.2934	-0.488
_end
