data_functionalizedCrystal
_audit_creation_method	'EQeq! by Chris Wilmer'
_symmetry_space_group_name_H-M	'P1'
_symmetry_Int_Tables_number	1
_symmetry_cell_setting	triclinic
loop_
_symmetry_equiv_pos_as_xyz
  x,y,z
_cell_length_a	12.7424
_cell_length_b	12.7678
_cell_length_c	13.2813
_cell_angle_alpha	90
_cell_angle_beta	90
_cell_angle_gamma	90
loop_
_atom_site_label
_atom_site_type_symbol
_atom_site_fract_x
_atom_site_fract_y
_atom_site_fract_z
_atom_site_charge
Mof_Eu	Eu	0.54259	0.21075	0.25423	1.851
Mof_Eu	Eu	0.5397	0.7081	0.09479	1.843
Mof_Eu	Eu	0.04259	0.78925	0.24577	1.839
Mof_Eu	Eu	0.0397	0.2919	0.40521	1.845
Mof_Eu	Eu	0.95741	0.71075	0.74577	1.843
Mof_Eu	Eu	0.9603	0.2081	0.90521	1.831
Mof_Eu	Eu	0.45741	0.28925	0.75423	1.851
Mof_Eu	Eu	0.4603	0.7919	0.59479	1.85
Mof_C 	C 	0.7	0.25	0.947	-0.064
Mof_C 	C 	0.619	0.254	0.01	-0.073
Mof_C 	C 	0.714	0.264	0.836	0.399
Mof_C 	C 	0.502	0.264	0.011	0.413
Mof_C 	C 	0.492	0.752	0.343	0.407
Mof_C 	C 	0.526	0.965	0.178	0.411
Mof_C 	C 	0.509	0.947	0.287	-0.077
Mof_C 	C 	0.496	0.864	0.351	-0.073
Mof_C 	C 	0.2	0.75	0.553	-0.062
Mof_C 	C 	0.119	0.746	0.49	-0.075
Mof_C 	C 	0.214	0.736	0.664	0.398
Mof_C 	C 	0.002	0.736	0.489	0.414
Mof_C 	C 	0.992	0.248	0.157	0.404
Mof_C 	C 	0.026	0.035	0.322	0.417
Mof_C 	C 	0.009	0.053	0.213	-0.086
Mof_C 	C 	0.996	0.136	0.149	-0.063
Mof_C 	C 	0.8	0.75	0.053	-0.058
Mof_C 	C 	0.881	0.754	0.99	-0.078
Mof_C 	C 	0.786	0.764	0.164	0.396
Mof_C 	C 	0.998	0.764	0.989	0.413
Mof_C 	C 	0.008	0.252	0.657	0.405
Mof_C 	C 	0.974	0.465	0.822	0.414
Mof_C 	C 	0.991	0.447	0.713	-0.081
Mof_C 	C 	0.004	0.364	0.649	-0.067
Mof_C 	C 	0.3	0.25	0.447	-0.062
Mof_C 	C 	0.381	0.246	0.51	-0.076
Mof_C 	C 	0.286	0.236	0.336	0.399
Mof_C 	C 	0.498	0.236	0.511	0.418
Mof_C 	C 	0.508	0.748	0.843	0.407
Mof_C 	C 	0.474	0.535	0.678	0.414
Mof_C 	C 	0.491	0.553	0.787	-0.077
Mof_C 	C 	0.504	0.636	0.851	-0.073
Mof_N 	N 	0.793	0.231	0.997	-0.206
Mof_N 	N 	0.765	0.228	0.098	-0.09
Mof_N 	N 	0.663	0.241	0.107	-0.216
Mof_N 	N 	0.508	0.038	0.345	-0.182
Mof_N 	N 	0.494	0.014	0.439	-0.099
Mof_N 	N 	0.491	0.909	0.441	-0.212
Mof_N 	N 	0.293	0.769	0.503	-0.205
Mof_N 	N 	0.265	0.772	0.402	-0.092
Mof_N 	N 	0.163	0.759	0.393	-0.216
Mof_N 	N 	0.008	0.962	0.155	-0.187
Mof_N 	N 	0.994	0.986	0.061	-0.095
Mof_N 	N 	0.991	0.091	0.059	-0.209
Mof_N 	N 	0.707	0.731	0.003	-0.205
Mof_N 	N 	0.735	0.728	0.902	-0.091
Mof_N 	N 	0.837	0.741	0.893	-0.216
Mof_N 	N 	0.992	0.538	0.655	-0.182
Mof_N 	N 	0.006	0.514	0.561	-0.098
Mof_N 	N 	0.009	0.409	0.559	-0.213
Mof_N 	N 	0.207	0.269	0.497	-0.204
Mof_N 	N 	0.235	0.272	0.598	-0.091
Mof_N 	N 	0.337	0.259	0.607	-0.216
Mof_N 	N 	0.492	0.462	0.845	-0.182
Mof_N 	N 	0.506	0.486	0.939	-0.098
Mof_N 	N 	0.509	0.591	0.941	-0.211
Mof_O 	O 	0.804	0.243	0.8	-0.47
Mof_O 	O 	0.637	0.29	0.785	-0.517
Mof_O 	O 	0.459	0.267	0.095	-0.487
Mof_O 	O 	0.453	0.255	0.928	-0.548
Mof_O 	O 	0.532	0.057	0.147	-0.481
Mof_O 	O 	0.527	0.886	0.121	-0.514
Mof_O 	O 	0.492	0.704	0.431	-0.456
Mof_O 	O 	0.486	0.706	0.262	-0.564
Mof_O 	O 	0.304	0.757	0.7	-0.47
Mof_O 	O 	0.137	0.71	0.715	-0.513
Mof_O 	O 	0.959	0.733	0.405	-0.482
Mof_O 	O 	0.953	0.745	0.572	-0.548
Mof_O 	O 	0.032	0.943	0.353	-0.484
Mof_O 	O 	0.027	0.114	0.379	-0.515
Mof_O 	O 	0.992	0.296	0.069	-0.448
Mof_O 	O 	0.986	0.294	0.238	-0.56
Mof_O 	O 	0.696	0.743	0.2	-0.47
Mof_O 	O 	0.863	0.79	0.215	-0.511
Mof_O 	O 	0.041	0.767	0.905	-0.475
Mof_O 	O 	0.047	0.755	0.072	-0.556
Mof_O 	O 	0.968	0.557	0.853	-0.484
Mof_O 	O 	0.973	0.386	0.879	-0.514
Mof_O 	O 	0.008	0.204	0.569	-0.454
Mof_O 	O 	0.014	0.206	0.738	-0.558
Mof_O 	O 	0.196	0.257	0.3	-0.473
Mof_O 	O 	0.363	0.21	0.285	-0.517
Mof_O 	O 	0.541	0.233	0.595	-0.487
Mof_O 	O 	0.547	0.245	0.428	-0.551
Mof_O 	O 	0.468	0.443	0.647	-0.483
Mof_O 	O 	0.473	0.614	0.621	-0.514
Mof_O 	O 	0.508	0.796	0.931	-0.453
Mof_O 	O 	0.514	0.794	0.762	-0.564
_end
