data_functionalizedCrystal
_audit_creation_method	'EQeq! by Chris Wilmer'
_symmetry_space_group_name_H-M	'P1'
_symmetry_Int_Tables_number	1
_symmetry_cell_setting	triclinic
loop_
_symmetry_equiv_pos_as_xyz
  x,y,z
_cell_length_a	8.7362
_cell_length_b	8.9023
_cell_length_c	24.059
_cell_angle_alpha	93.75
_cell_angle_beta	90
_cell_angle_gamma	90
loop_
_atom_site_label
_atom_site_type_symbol
_atom_site_fract_x
_atom_site_fract_y
_atom_site_fract_z
_atom_site_charge
Mof_Cu	Cu	0.71266	0.75	0.75	0.909
Mof_Cu	Cu	0.28734	0.25	0.25	0.904
Mof_Cu	Cu	-1.35201e-32	0.5	0.5	0.885
Mof_Cu	Cu	-0	0	-0	0.865
Mof_H 	H 	0.0006	0.5505	0.6297	0.009
Mof_H 	H 	0.2156	0.2337	0.5401	0.02
Mof_H 	H 	0.2796	0.2025	0.638	0.033
Mof_H 	H 	0.1173	0.5216	0.7243	0.121
Mof_H 	H 	0.2559	0.4114	0.7267	0.122
Mof_H 	H 	0.0855	0.3522	0.7893	-0.062
Mof_H 	H 	0.9528	0.3499	0.7464	-0.037
Mof_H 	H 	0.6538	0.6643	0.6237	0.008
Mof_H 	H 	0.6479	0.3965	0.7451	0.026
Mof_H 	H 	0.586	0.2438	0.6592	0.034
Mof_H 	H 	0.5194	0.3127	0.557	0.051
Mof_H 	H 	0.6833	0.3724	0.5437	0.058
Mof_H 	H 	0.5842	0.6122	0.5316	0.069
Mof_H 	H 	0.42	0.5582	0.5481	0.072
Mof_H 	H 	0.018	0.003	0.5501	0.078
Mof_H 	H 	0.0978	0.945	0.6027	0.115
Mof_H 	H 	0.8548	0.0598	0.6194	0.066
Mof_H 	H 	0.7807	0.9207	0.5866	0.093
Mof_H 	H 	0.0006	0.9495	0.8703	0.027
Mof_H 	H 	0.2156	0.2663	0.9599	0.034
Mof_H 	H 	0.2796	0.2975	0.862	0.029
Mof_H 	H 	0.1173	0.9784	0.7757	-0.003
Mof_H 	H 	0.2559	0.0886	0.7733	-0.016
Mof_H 	H 	0.0855	0.1478	0.7107	0.189
Mof_H 	H 	0.9528	0.1501	0.7536	0.225
Mof_H 	H 	0.6538	0.8357	0.8763	0.005
Mof_H 	H 	0.6479	0.1035	0.7549	0.027
Mof_H 	H 	0.586	0.2562	0.8408	0.036
Mof_H 	H 	0.5194	0.1873	0.943	0.092
Mof_H 	H 	0.6833	0.1276	0.9563	0.099
Mof_H 	H 	0.5842	0.8878	0.9684	0.02
Mof_H 	H 	0.42	0.9418	0.9519	0.024
Mof_H 	H 	0.018	0.497	0.9499	0.104
Mof_H 	H 	0.0978	0.555	0.8973	0.119
Mof_H 	H 	0.8548	0.4402	0.8806	0.098
Mof_H 	H 	0.7807	0.5793	0.9134	0.105
Mof_H 	H 	0.9994	0.4495	0.3703	0.033
Mof_H 	H 	0.7844	0.7663	0.4599	0.036
Mof_H 	H 	0.7204	0.7975	0.362	0.032
Mof_H 	H 	0.8827	0.4784	0.2757	0.003
Mof_H 	H 	0.7441	0.5886	0.2733	-0.015
Mof_H 	H 	0.9145	0.6478	0.2107	0.185
Mof_H 	H 	0.0472	0.6501	0.2536	0.15
Mof_H 	H 	0.3462	0.3357	0.3763	0.006
Mof_H 	H 	0.3521	0.6035	0.2549	0.022
Mof_H 	H 	0.414	0.7562	0.3408	0.039
Mof_H 	H 	0.4806	0.6873	0.443	0.054
Mof_H 	H 	0.3167	0.6276	0.4563	0.051
Mof_H 	H 	0.4158	0.3878	0.4684	0.065
Mof_H 	H 	0.58	0.4418	0.4519	0.072
Mof_H 	H 	0.982	0.997	0.4499	0.124
Mof_H 	H 	0.9022	0.055	0.3973	0.109
Mof_H 	H 	0.1452	0.9402	0.3806	0.133
Mof_H 	H 	0.2193	0.0793	0.4134	0.131
Mof_H 	H 	0.9994	0.0505	0.1297	0.012
Mof_H 	H 	0.7844	0.7337	0.0401	0.023
Mof_H 	H 	0.7204	0.7025	0.138	0.037
Mof_H 	H 	0.8827	0.0216	0.2243	0.126
Mof_H 	H 	0.7441	0.9114	0.2267	0.124
Mof_H 	H 	0.9145	0.8522	0.2893	-0.068
Mof_H 	H 	0.0472	0.8499	0.2464	-0.117
Mof_H 	H 	0.3462	0.1643	0.1237	0.008
Mof_H 	H 	0.3521	0.8965	0.2451	0.021
Mof_H 	H 	0.414	0.7438	0.1592	0.037
Mof_H 	H 	0.4806	0.8127	0.057	0.014
Mof_H 	H 	0.3167	0.8724	0.0437	0.012
Mof_H 	H 	0.4158	0.1122	0.0316	0.114
Mof_H 	H 	0.58	0.0582	0.0481	0.121
Mof_H 	H 	0.982	0.503	0.0501	0.091
Mof_H 	H 	0.9022	0.445	0.1027	0.1
Mof_H 	H 	0.1452	0.5598	0.1194	0.107
Mof_H 	H 	0.2193	0.4207	0.0866	0.124
Mof_C 	C 	0.0614	0.4678	0.6191	0.072
Mof_C 	C 	0.1798	0.2936	0.5704	0.007
Mof_C 	C 	0.216	0.2756	0.6244	-0.029
Mof_C 	C 	0.1493	0.4183	0.7158	-0.289
Mof_C 	C 	0.0587	0.3207	0.7512	0.311
Mof_C 	C 	0.6451	0.5785	0.64347	0.096
Mof_C 	C 	0.6419	0.4323	0.70966	0.017
Mof_C 	C 	0.6071	0.3463	0.66235	-0.01
Mof_C 	C 	0.5858	0.4001	0.56073	-0.052
Mof_C 	C 	0.5152	0.5266	0.53017	-0.11
Mof_C 	C 	0.0347	0.7752	0.54705	0.309
Mof_C 	C 	0.0125	0.9274	0.57733	-0.251
Mof_C 	C 	0.8663	0.9527	0.61014	-0.121
Mof_C 	C 	0.858	0.8716	0.66308	0.328
Mof_C 	C 	0.0614	0.0322	0.8809	0.054
Mof_C 	C 	0.1798	0.2064	0.9296	-0.008
Mof_C 	C 	0.216	0.2244	0.8756	0.008
Mof_C 	C 	0.1493	0.0817	0.7842	0.154
Mof_C 	C 	0.0587	0.1793	0.7488	-0.576
Mof_C 	C 	0.6451	0.9215	0.85653	0.117
Mof_C 	C 	0.6419	0.0677	0.79034	-0.011
Mof_C 	C 	0.6071	0.1537	0.83765	-0.005
Mof_C 	C 	0.5858	0.0999	0.93927	-0.171
Mof_C 	C 	0.5152	0.9734	0.96983	0.096
Mof_C 	C 	0.0347	0.7248	0.95295	0.311
Mof_C 	C 	0.0125	0.5726	0.92267	-0.267
Mof_C 	C 	0.8663	0.5473	0.88986	-0.163
Mof_C 	C 	0.858	0.6284	0.83692	0.343
Mof_C 	C 	0.9386	0.5322	0.3809	0.104
Mof_C 	C 	0.8202	0.7064	0.4296	-0.001
Mof_C 	C 	0.784	0.7244	0.3756	0.016
Mof_C 	C 	0.8507	0.5817	0.2842	0.164
Mof_C 	C 	0.9413	0.6793	0.2488	-0.488
Mof_C 	C 	0.3549	0.4215	0.35653	0.089
Mof_C 	C 	0.3581	0.5677	0.29034	0.013
Mof_C 	C 	0.3929	0.6537	0.33765	-0.016
Mof_C 	C 	0.4142	0.5999	0.43927	-0.053
Mof_C 	C 	0.4848	0.4734	0.46983	-0.108
Mof_C 	C 	0.9653	0.2248	0.45295	0.406
Mof_C 	C 	0.9875	0.0726	0.42267	-0.204
Mof_C 	C 	0.1337	0.0473	0.38986	-0.315
Mof_C 	C 	0.142	0.1284	0.33692	0.38
Mof_C 	C 	0.9386	0.9678	0.1191	0.127
Mof_C 	C 	0.8202	0.7936	0.0704	0.014
Mof_C 	C 	0.784	0.7756	0.1244	-0.021
Mof_C 	C 	0.8507	0.9183	0.2158	-0.28
Mof_C 	C 	0.9413	0.8207	0.2512	0.411
Mof_C 	C 	0.3549	0.0785	0.14347	0.069
Mof_C 	C 	0.3581	0.9323	0.20966	0.04
Mof_C 	C 	0.3929	0.8463	0.16235	-0.02
Mof_C 	C 	0.4142	0.9001	0.06073	0.067
Mof_C 	C 	0.4848	0.0266	0.03017	-0.314
Mof_C 	C 	0.9653	0.2752	0.04705	0.398
Mof_C 	C 	0.9875	0.4274	0.07733	-0.17
Mof_C 	C 	0.1337	0.4527	0.11014	-0.291
Mof_C 	C 	0.142	0.3716	0.16308	0.37
Mof_N 	N 	0.0817	0.4147	0.56747	-0.219
Mof_N 	N 	0.1399	0.3868	0.65481	-0.085
Mof_N 	N 	0.6661	0.5759	0.69797	-0.216
Mof_N 	N 	0.6101	0.4428	0.62073	-0.115
Mof_N 	N 	0.0817	0.0853	0.93253	-0.209
Mof_N 	N 	0.1399	0.1132	0.84519	-0.141
Mof_N 	N 	0.6661	0.9241	0.80203	-0.206
Mof_N 	N 	0.6101	0.0572	0.87927	-0.114
Mof_N 	N 	0.9183	0.5853	0.43253	-0.201
Mof_N 	N 	0.8601	0.6132	0.34519	-0.14
Mof_N 	N 	0.3339	0.4241	0.30203	-0.219
Mof_N 	N 	0.3899	0.5572	0.37927	-0.117
Mof_N 	N 	0.9183	0.9147	0.06747	-0.205
Mof_N 	N 	0.8601	0.8868	0.15481	-0.084
Mof_N 	N 	0.3339	0.0759	0.19797	-0.228
Mof_N 	N 	0.3899	0.9428	0.12073	-0.119
Mof_O 	O 	0.9657	0.7987	0.68006	-0.271
Mof_O 	O 	0.7285	0.8822	0.68844	-0.388
Mof_O 	O 	0.9259	0.6803	0.54627	-0.342
Mof_O 	O 	0.1575	0.7503	0.52305	-0.324
Mof_O 	O 	0.9657	0.7013	0.81994	-0.275
Mof_O 	O 	0.7285	0.6178	0.81156	-0.396
Mof_O 	O 	0.9259	0.8197	0.95373	-0.324
Mof_O 	O 	0.1575	0.7497	0.97695	-0.306
Mof_O 	O 	0.0343	0.2013	0.31994	-0.34
Mof_O 	O 	0.2715	0.1178	0.31156	-0.418
Mof_O 	O 	0.0741	0.3197	0.45373	-0.432
Mof_O 	O 	0.8425	0.2497	0.47695	-0.339
Mof_O 	O 	0.0343	0.2987	0.18006	-0.338
Mof_O 	O 	0.2715	0.3822	0.18844	-0.412
Mof_O 	O 	0.0741	0.1803	0.04627	-0.441
Mof_O 	O 	0.8425	0.2503	0.02305	-0.352
_end
