data_functionalizedCrystal
_audit_creation_method	'EQeq! by Chris Wilmer'
_symmetry_space_group_name_H-M	'P1'
_symmetry_Int_Tables_number	1
_symmetry_cell_setting	triclinic
loop_
_symmetry_equiv_pos_as_xyz
  x,y,z
_cell_length_a	20.838
_cell_length_b	7.245
_cell_length_c	15.52
_cell_angle_alpha	90
_cell_angle_beta	90
_cell_angle_gamma	90
loop_
_atom_site_label
_atom_site_type_symbol
_atom_site_fract_x
_atom_site_fract_y
_atom_site_fract_z
_atom_site_charge
Mof_N 	N 	0.0674	0.6466	0.4409	-0.21
Mof_C 	C 	0.1125	0.408	0.6035	0.119
Mof_H 	H 	0.1239	0.5299	0.6133	-0.006
Mof_C 	C 	0.26	0.144	0.673	-0.029
Mof_C 	C 	0.204	0.394	0.755	-0.075
Mof_H 	H 	0.2531	0.0517	0.6296	0.031
Mof_H 	H 	0.1728	0.4895	0.7623	0.071
Mof_N 	N 	0.5674	0.1466	0.9409	-0.169
Mof_C 	C 	0.6125	0.908	0.1035	0.196
Mof_H 	H 	0.6239	0.0299	0.1133	-0.076
Mof_C 	C 	0.76	0.644	0.173	-0.03
Mof_C 	C 	0.704	0.894	0.255	-0.077
Mof_H 	H 	0.7531	0.5517	0.1296	0.027
Mof_H 	H 	0.6728	0.9895	0.2623	0.076
Mof_N 	N 	0.9326	0.8534	0.4409	-0.199
Mof_C 	C 	0.8875	0.092	0.6035	0.044
Mof_H 	H 	0.8761	0.9701	0.6133	0.056
Mof_C 	C 	0.74	0.356	0.673	-0.036
Mof_C 	C 	0.796	0.106	0.755	-0.084
Mof_H 	H 	0.7469	0.4483	0.6296	0.047
Mof_H 	H 	0.8272	0.0105	0.7623	0.065
Mof_N 	N 	0.4326	0.3534	0.9409	-0.18
Mof_C 	C 	0.3875	0.592	0.1035	0.114
Mof_H 	H 	0.3761	0.4701	0.1133	-0.02
Mof_C 	C 	0.24	0.856	0.173	-0.039
Mof_C 	C 	0.296	0.606	0.255	-0.085
Mof_H 	H 	0.2469	0.9483	0.1296	0.041
Mof_H 	H 	0.3272	0.5105	0.2623	0.063
Mof_N 	N 	0.9326	0.1466	0.5591	-0.182
Mof_C 	C 	0.8875	0.908	0.3965	0.205
Mof_H 	H 	0.8761	0.0299	0.3867	-0.062
Mof_C 	C 	0.74	0.644	0.327	-0.029
Mof_C 	C 	0.796	0.894	0.245	-0.081
Mof_H 	H 	0.7469	0.5517	0.3704	0.04
Mof_H 	H 	0.8272	0.9895	0.2377	0.076
Mof_N 	N 	0.4326	0.6466	0.0591	-0.219
Mof_C 	C 	0.3875	0.408	0.8965	0.128
Mof_H 	H 	0.3761	0.5299	0.8867	0.005
Mof_C 	C 	0.24	0.144	0.827	-0.026
Mof_C 	C 	0.296	0.394	0.745	-0.077
Mof_H 	H 	0.2469	0.0517	0.8704	0.044
Mof_H 	H 	0.3272	0.4895	0.7377	0.068
Mof_N 	N 	0.0674	0.3534	0.5591	-0.209
Mof_C 	C 	0.1125	0.592	0.3965	0.12
Mof_H 	H 	0.1239	0.4701	0.3867	-0.012
Mof_C 	C 	0.26	0.856	0.327	-0.032
Mof_C 	C 	0.204	0.606	0.245	-0.085
Mof_H 	H 	0.2531	0.9483	0.3704	0.055
Mof_H 	H 	0.1728	0.5105	0.2377	0.054
Mof_N 	N 	0.5674	0.8534	0.0591	-0.226
Mof_C 	C 	0.6125	0.092	0.8965	0.049
Mof_H 	H 	0.6239	0.9701	0.8867	0.061
Mof_C 	C 	0.76	0.356	0.827	-0.027
Mof_C 	C 	0.704	0.106	0.745	-0.082
Mof_H 	H 	0.7531	0.4483	0.8704	0.061
Mof_H 	H 	0.6728	0.0105	0.7377	0.054
Mof_N 	N 	0.9326	0.3534	0.5591	-0.193
Mof_C 	C 	0.8875	0.592	0.3965	0.125
Mof_H 	H 	0.8761	0.4701	0.3867	-0.006
Mof_C 	C 	0.74	0.856	0.327	-0.034
Mof_C 	C 	0.796	0.606	0.245	-0.087
Mof_H 	H 	0.7469	0.9483	0.3704	0.055
Mof_H 	H 	0.8272	0.5105	0.2377	0.062
Mof_N 	N 	0.4326	0.8534	0.0591	-0.226
Mof_C 	C 	0.3875	0.092	0.8965	0.048
Mof_H 	H 	0.3761	0.9701	0.8867	0.061
Mof_C 	C 	0.24	0.356	0.827	-0.032
Mof_C 	C 	0.296	0.106	0.745	-0.084
Mof_H 	H 	0.2469	0.4483	0.8704	0.059
Mof_H 	H 	0.3272	0.0105	0.7377	0.054
Mof_N 	N 	0.0674	0.1466	0.5591	-0.198
Mof_C 	C 	0.1125	0.908	0.3965	0.203
Mof_H 	H 	0.1239	0.0299	0.3867	-0.069
Mof_C 	C 	0.26	0.644	0.327	-0.027
Mof_C 	C 	0.204	0.894	0.245	-0.078
Mof_H 	H 	0.2531	0.5517	0.3704	0.04
Mof_H 	H 	0.1728	0.9895	0.2377	0.069
Mof_N 	N 	0.5674	0.6466	0.0591	-0.219
Mof_C 	C 	0.6125	0.408	0.8965	0.128
Mof_H 	H 	0.6239	0.5299	0.8867	0.006
Mof_C 	C 	0.76	0.144	0.827	-0.022
Mof_C 	C 	0.704	0.394	0.745	-0.076
Mof_H 	H 	0.7531	0.0517	0.8704	0.046
Mof_H 	H 	0.6728	0.4895	0.7377	0.068
Mof_N 	N 	0.0674	0.8534	0.4409	-0.216
Mof_C 	C 	0.1125	0.092	0.6035	0.038
Mof_H 	H 	0.1239	0.9701	0.6133	0.052
Mof_C 	C 	0.26	0.356	0.673	-0.034
Mof_C 	C 	0.204	0.106	0.755	-0.082
Mof_H 	H 	0.2531	0.4483	0.6296	0.046
Mof_H 	H 	0.1728	0.0105	0.7623	0.057
Mof_N 	N 	0.5674	0.3534	0.9409	-0.18
Mof_C 	C 	0.6125	0.592	0.1035	0.114
Mof_H 	H 	0.6239	0.4701	0.1133	-0.02
Mof_C 	C 	0.76	0.856	0.173	-0.035
Mof_C 	C 	0.704	0.606	0.255	-0.083
Mof_H 	H 	0.7531	0.9483	0.1296	0.043
Mof_H 	H 	0.6728	0.5105	0.2623	0.062
Mof_N 	N 	0.9326	0.6466	0.4409	-0.193
Mof_C 	C 	0.8875	0.408	0.6035	0.124
Mof_H 	H 	0.8761	0.5299	0.6133	-0
Mof_C 	C 	0.74	0.144	0.673	-0.031
Mof_C 	C 	0.796	0.394	0.755	-0.078
Mof_H 	H 	0.7469	0.0517	0.6296	0.032
Mof_H 	H 	0.8272	0.4895	0.7623	0.079
Mof_N 	N 	0.4326	0.1466	0.9409	-0.169
Mof_C 	C 	0.3875	0.908	0.1035	0.197
Mof_H 	H 	0.3761	0.0299	0.1133	-0.077
Mof_C 	C 	0.24	0.644	0.173	-0.034
Mof_C 	C 	0.296	0.894	0.255	-0.079
Mof_H 	H 	0.2469	0.5517	0.1296	0.025
Mof_H 	H 	0.3272	0.9895	0.2623	0.077
Mof_Br	Br	-3.6027e-33	0.75	0.6389	-0.411
Mof_Br	Br	0.5	0.25	0.1389	-0.451
Mof_Br	Br	-7.07188e-33	0.25	0.3611	-0.471
Mof_Br	Br	0.5	0.75	0.8611	-0.349
Mof_Cu	Cu	-6.684e-33	0.5	0.5	0.874
Mof_Cu	Cu	0.5	0	-0	0.829
Mof_Cu	Cu	-3.99058e-33	0	0.5	0.855
Mof_Cu	Cu	0.5	0.5	-0	0.848
Mof_N 	N 	0.1438	0.25	0.6369	-0.138
Mof_C 	C 	0.1972	0.25	0.699	0.102
Mof_N 	N 	0.6438	0.75	0.1369	-0.163
Mof_C 	C 	0.6972	0.75	0.199	0.109
Mof_N 	N 	0.8562	0.25	0.6369	-0.138
Mof_C 	C 	0.8028	0.25	0.699	0.108
Mof_N 	N 	0.3562	0.75	0.1369	-0.164
Mof_C 	C 	0.3028	0.75	0.199	0.112
Mof_N 	N 	0.8562	0.75	0.3631	-0.161
Mof_C 	C 	0.8028	0.75	0.301	0.115
Mof_N 	N 	0.3562	0.25	0.8631	-0.137
Mof_C 	C 	0.3028	0.25	0.801	0.104
Mof_N 	N 	0.1438	0.75	0.3631	-0.162
Mof_C 	C 	0.1972	0.75	0.301	0.109
Mof_N 	N 	0.6438	0.25	0.8631	-0.136
Mof_C 	C 	0.6972	0.25	0.801	0.102
_end
