# CIF file generated by openbabel 3.1.0, see https://openbabel.org
data_I
_chemical_name_common 'image0'
_cell_length_a 18.8345
_cell_length_b 18.8345
_cell_length_c 18.8345
_cell_angle_alpha 90
_cell_angle_beta 90
_cell_angle_gamma 90
_space_group_name_H-M_alt 'P 1'
_space_group_name_Hall 'P 1'
loop_
    _symmetry_equiv_pos_as_xyz
    x,y,z
loop_
    _atom_site_label
    _atom_site_type_symbol
    _atom_site_fract_x
    _atom_site_fract_y
    _atom_site_fract_z
    _atom_site_occupancy
    N1       N        0.37154    0.07406    0.57762    1.000
    C1       C        0.32826    0.12903    0.58949    1.000
    H1       H        0.28800    0.14130    0.56170    1.000
    N2       N        0.62846    0.92594    0.57762    1.000
    C2       C        0.67174    0.87097    0.58949    1.000
    H2       H        0.71200    0.85870    0.56170    1.000
    N3       N        0.62846    0.07406    0.42238    1.000
    C3       C        0.67174    0.12903    0.41051    1.000
    H3       H        0.71200    0.14130    0.43830    1.000
    N4       N        0.37154    0.92594    0.42238    1.000
    C4       C        0.32826    0.87097    0.41051    1.000
    H4       H        0.28800    0.85870    0.43830    1.000
    N5       N        0.57762    0.37154    0.07406    1.000
    C5       C        0.58949    0.32826    0.12903    1.000
    H5       H        0.56170    0.28800    0.14130    1.000
    N6       N        0.57762    0.62846    0.92594    1.000
    C6       C        0.58949    0.67174    0.87097    1.000
    H6       H        0.56170    0.71200    0.85870    1.000
    N7       N        0.42238    0.62846    0.07406    1.000
    C7       C        0.41051    0.67174    0.12903    1.000
    H7       H        0.43830    0.71200    0.14130    1.000
    N8       N        0.42238    0.37154    0.92594    1.000
    C8       C        0.41051    0.32826    0.87097    1.000
    H8       H        0.43830    0.28800    0.85870    1.000
    N9       N        0.07406    0.57762    0.37154    1.000
    C9       C        0.12903    0.58949    0.32826    1.000
    H9       H        0.14130    0.56170    0.28800    1.000
    N10      N        0.92594    0.57762    0.62846    1.000
    C10      C        0.87097    0.58949    0.67174    1.000
    H10      H        0.85870    0.56170    0.71200    1.000
    N11      N        0.07406    0.42238    0.62846    1.000
    C11      C        0.12903    0.41051    0.67174    1.000
    H11      H        0.14130    0.43830    0.71200    1.000
    N12      N        0.92594    0.42238    0.37154    1.000
    C12      C        0.87097    0.41051    0.32826    1.000
    H12      H        0.85870    0.43830    0.28800    1.000
    N13      N        0.07406    0.37154    0.42238    1.000
    C13      C        0.12903    0.32826    0.41051    1.000
    H13      H        0.14130    0.28800    0.43830    1.000
    N14      N        0.92594    0.62846    0.42238    1.000
    C14      C        0.87097    0.67174    0.41051    1.000
    H14      H        0.85870    0.71200    0.43830    1.000
    N15      N        0.07406    0.62846    0.57762    1.000
    C15      C        0.12903    0.67174    0.58949    1.000
    H15      H        0.14130    0.71200    0.56170    1.000
    N16      N        0.92594    0.37154    0.57762    1.000
    C16      C        0.87097    0.32826    0.58949    1.000
    H16      H        0.85870    0.28800    0.56170    1.000
    N17      N        0.37154    0.57762    0.92594    1.000
    C17      C        0.32826    0.58949    0.87097    1.000
    H17      H        0.28800    0.56170    0.85870    1.000
    N18      N        0.62846    0.57762    0.07406    1.000
    C18      C        0.67174    0.58949    0.12903    1.000
    H18      H        0.71200    0.56170    0.14130    1.000
    N19      N        0.62846    0.42238    0.92594    1.000
    C19      C        0.67174    0.41051    0.87097    1.000
    H19      H        0.71200    0.43830    0.85870    1.000
    N20      N        0.37154    0.42238    0.07406    1.000
    C20      C        0.32826    0.41051    0.12903    1.000
    H20      H        0.28800    0.43830    0.14130    1.000
    N21      N        0.57762    0.07406    0.62846    1.000
    C21      C        0.58949    0.12903    0.67174    1.000
    H21      H        0.56170    0.14130    0.71200    1.000
    N22      N        0.57762    0.92594    0.37154    1.000
    C22      C        0.58949    0.87097    0.32826    1.000
    H22      H        0.56170    0.85870    0.28800    1.000
    N23      N        0.42238    0.07406    0.37154    1.000
    C23      C        0.41051    0.12903    0.32826    1.000
    H23      H        0.43830    0.14130    0.28800    1.000
    N24      N        0.42238    0.92594    0.62846    1.000
    C24      C        0.41051    0.87097    0.67174    1.000
    H24      H        0.43830    0.85870    0.71200    1.000
    N25      N        0.62846    0.92594    0.42238    1.000
    C25      C        0.67174    0.87097    0.41051    1.000
    H25      H        0.71200    0.85870    0.43830    1.000
    N26      N        0.37154    0.07406    0.42238    1.000
    C26      C        0.32826    0.12903    0.41051    1.000
    H26      H        0.28800    0.14130    0.43830    1.000
    N27      N        0.37154    0.92594    0.57762    1.000
    C27      C        0.32826    0.87097    0.58949    1.000
    H27      H        0.28800    0.85870    0.56170    1.000
    N28      N        0.62846    0.07406    0.57762    1.000
    C28      C        0.67174    0.12903    0.58949    1.000
    H28      H        0.71200    0.14130    0.56170    1.000
    N29      N        0.42238    0.62846    0.92594    1.000
    C29      C        0.41051    0.67174    0.87097    1.000
    H29      H        0.43830    0.71200    0.85870    1.000
    N30      N        0.42238    0.37154    0.07406    1.000
    C30      C        0.41051    0.32826    0.12903    1.000
    H30      H        0.43830    0.28800    0.14130    1.000
    N31      N        0.57762    0.37154    0.92594    1.000
    C31      C        0.58949    0.32826    0.87097    1.000
    H31      H        0.56170    0.28800    0.85870    1.000
    N32      N        0.57762    0.62846    0.07406    1.000
    C32      C        0.58949    0.67174    0.12903    1.000
    H32      H        0.56170    0.71200    0.14130    1.000
    N33      N        0.92594    0.42238    0.62846    1.000
    C33      C        0.87097    0.41051    0.67174    1.000
    H33      H        0.85870    0.43830    0.71200    1.000
    N34      N        0.07406    0.42238    0.37154    1.000
    C34      C        0.12903    0.41051    0.32826    1.000
    H34      H        0.14130    0.43830    0.28800    1.000
    N35      N        0.92594    0.57762    0.37154    1.000
    C35      C        0.87097    0.58949    0.32826    1.000
    H35      H        0.85870    0.56170    0.28800    1.000
    N36      N        0.07406    0.57762    0.62846    1.000
    C36      C        0.12903    0.58949    0.67174    1.000
    H36      H        0.14130    0.56170    0.71200    1.000
    N37      N        0.92594    0.62846    0.57762    1.000
    C37      C        0.87097    0.67174    0.58949    1.000
    H37      H        0.85870    0.71200    0.56170    1.000
    N38      N        0.07406    0.37154    0.57762    1.000
    C38      C        0.12903    0.32826    0.58949    1.000
    H38      H        0.14130    0.28800    0.56170    1.000
    N39      N        0.92594    0.37154    0.42238    1.000
    C39      C        0.87097    0.32826    0.41051    1.000
    H39      H        0.85870    0.28800    0.43830    1.000
    N40      N        0.07406    0.62846    0.42238    1.000
    C40      C        0.12903    0.67174    0.41051    1.000
    H40      H        0.14130    0.71200    0.43830    1.000
    N41      N        0.62846    0.42238    0.07406    1.000
    C41      C        0.67174    0.41051    0.12903    1.000
    H41      H        0.71200    0.43830    0.14130    1.000
    N42      N        0.37154    0.42238    0.92594    1.000
    C42      C        0.32826    0.41051    0.87097    1.000
    H42      H        0.28800    0.43830    0.85870    1.000
    N43      N        0.37154    0.57762    0.07406    1.000
    C43      C        0.32826    0.58949    0.12903    1.000
    H43      H        0.28800    0.56170    0.14130    1.000
    N44      N        0.62846    0.57762    0.92594    1.000
    C44      C        0.67174    0.58949    0.87097    1.000
    H44      H        0.71200    0.56170    0.85870    1.000
    N45      N        0.42238    0.92594    0.37154    1.000
    C45      C        0.41051    0.87097    0.32826    1.000
    H45      H        0.43830    0.85870    0.28800    1.000
    N46      N        0.42238    0.07406    0.62846    1.000
    C46      C        0.41051    0.12903    0.67174    1.000
    H46      H        0.43830    0.14130    0.71200    1.000
    N47      N        0.57762    0.92594    0.62846    1.000
    C47      C        0.58949    0.87097    0.67174    1.000
    H47      H        0.56170    0.85870    0.71200    1.000
    N48      N        0.57762    0.07406    0.37154    1.000
    C48      C        0.58949    0.12903    0.32826    1.000
    H48      H        0.56170    0.14130    0.28800    1.000
    Co1      Co       0.36808    0.00000    0.50000    1.000
    Co2      Co       0.63192    0.00000    0.50000    1.000
    Co3      Co       0.50000    0.36808    0.00000    1.000
    Co4      Co       0.50000    0.63192    0.00000    1.000
    Co5      Co       0.00000    0.50000    0.36808    1.000
    Co6      Co       0.00000    0.50000    0.63192    1.000
    Co7      Co       0.00000    0.36808    0.50000    1.000
    Co8      Co       0.00000    0.63192    0.50000    1.000
    Co9      Co       0.36808    0.50000    0.00000    1.000
    Co10     Co       0.63192    0.50000    0.00000    1.000
    Co11     Co       0.50000    0.00000    0.63192    1.000
    Co12     Co       0.50000    0.00000    0.36808    1.000
    Cl1      Cl       0.50000    0.00000    0.50000    1.000
    Cl2      Cl       0.50000    0.50000    0.00000    1.000
    Cl3      Cl       0.00000    0.50000    0.50000    1.000
    C49      C        0.35155    0.16474    0.64845    1.000
    C50      C        0.32005    0.22839    0.67995    1.000
    C51      C        0.64845    0.83526    0.64845    1.000
    C52      C        0.67995    0.77161    0.67995    1.000
    C53      C        0.64845    0.16474    0.35155    1.000
    C54      C        0.67995    0.22839    0.32005    1.000
    C55      C        0.35155    0.83526    0.35155    1.000
    C56      C        0.32005    0.77161    0.32005    1.000
    C57      C        0.64845    0.35155    0.16474    1.000
    C58      C        0.67995    0.32005    0.22839    1.000
    C59      C        0.64845    0.64845    0.83526    1.000
    C60      C        0.67995    0.67995    0.77161    1.000
    C61      C        0.35155    0.64845    0.16474    1.000
    C62      C        0.32005    0.67995    0.22839    1.000
    C63      C        0.35155    0.35155    0.83526    1.000
    C64      C        0.32005    0.32005    0.77161    1.000
    C65      C        0.16474    0.64845    0.35155    1.000
    C66      C        0.22839    0.67995    0.32005    1.000
    C67      C        0.83526    0.64845    0.64845    1.000
    C68      C        0.77161    0.67995    0.67995    1.000
    C69      C        0.16474    0.35155    0.64845    1.000
    C70      C        0.22839    0.32005    0.67995    1.000
    C71      C        0.83526    0.35155    0.35155    1.000
    C72      C        0.77161    0.32005    0.32005    1.000
    C73      C        0.16474    0.35155    0.35155    1.000
    C74      C        0.22839    0.32005    0.32005    1.000
    C75      C        0.83526    0.64845    0.35155    1.000
    C76      C        0.77161    0.67995    0.32005    1.000
    C77      C        0.16474    0.64845    0.64845    1.000
    C78      C        0.22839    0.67995    0.67995    1.000
    C79      C        0.83526    0.35155    0.64845    1.000
    C80      C        0.77161    0.32005    0.67995    1.000
    C81      C        0.35155    0.64845    0.83526    1.000
    C82      C        0.32005    0.67995    0.77161    1.000
    C83      C        0.64845    0.64845    0.16474    1.000
    C84      C        0.67995    0.67995    0.22839    1.000
    C85      C        0.64845    0.35155    0.83526    1.000
    C86      C        0.67995    0.32005    0.77161    1.000
    C87      C        0.35155    0.35155    0.16474    1.000
    C88      C        0.32005    0.32005    0.22839    1.000
    C89      C        0.64845    0.16474    0.64845    1.000
    C90      C        0.67995    0.22839    0.67995    1.000
    C91      C        0.64845    0.83526    0.35155    1.000
    C92      C        0.67995    0.77161    0.32005    1.000
    C93      C        0.35155    0.16474    0.35155    1.000
    C94      C        0.32005    0.22839    0.32005    1.000
    C95      C        0.35155    0.83526    0.64845    1.000
    C96      C        0.32005    0.77161    0.67995    1.000
    C97      C        0.34951    0.25930    0.74070    1.000
    H49      H        0.39050    0.23850    0.76150    1.000
    C98      C        0.65049    0.74070    0.74070    1.000
    H50      H        0.60950    0.76150    0.76150    1.000
    C99      C        0.65049    0.25930    0.25930    1.000
    H51      H        0.60950    0.23850    0.23850    1.000
    C100     C        0.34951    0.74070    0.25930    1.000
    H52      H        0.39050    0.76150    0.23850    1.000
    C101     C        0.74070    0.34951    0.25930    1.000
    H53      H        0.76150    0.39050    0.23850    1.000
    C102     C        0.74070    0.65049    0.74070    1.000
    H54      H        0.76150    0.60950    0.76150    1.000
    C103     C        0.25930    0.65049    0.25930    1.000
    H55      H        0.23850    0.60950    0.23850    1.000
    C104     C        0.25930    0.34951    0.74070    1.000
    H56      H        0.23850    0.39050    0.76150    1.000
    C105     C        0.25930    0.74070    0.34951    1.000
    H57      H        0.23850    0.76150    0.39050    1.000
    C106     C        0.74070    0.74070    0.65049    1.000
    H58      H        0.76150    0.76150    0.60950    1.000
    C107     C        0.25930    0.25930    0.65049    1.000
    H59      H        0.23850    0.23850    0.60950    1.000
    C108     C        0.74070    0.25930    0.34951    1.000
    H60      H        0.76150    0.23850    0.39050    1.000
    C109     C        0.25930    0.34951    0.25930    1.000
    H61      H        0.23850    0.39050    0.23850    1.000
    C110     C        0.74070    0.65049    0.25930    1.000
    H62      H        0.76150    0.60950    0.23850    1.000
    C111     C        0.25930    0.65049    0.74070    1.000
    H63      H        0.23850    0.60950    0.76150    1.000
    C112     C        0.74070    0.34951    0.74070    1.000
    H64      H        0.76150    0.39050    0.76150    1.000
    C113     C        0.34951    0.74070    0.74070    1.000
    H65      H        0.39050    0.76150    0.76150    1.000
    C114     C        0.65049    0.74070    0.25930    1.000
    H66      H        0.60950    0.76150    0.23850    1.000
    C115     C        0.65049    0.25930    0.74070    1.000
    H67      H        0.60950    0.23850    0.76150    1.000
    C116     C        0.34951    0.25930    0.25930    1.000
    H68      H        0.39050    0.23850    0.23850    1.000
    C117     C        0.74070    0.25930    0.65049    1.000
    H69      H        0.76150    0.23850    0.60950    1.000
    C118     C        0.74070    0.74070    0.34951    1.000
    H70      H        0.76150    0.76150    0.39050    1.000
    C119     C        0.25930    0.25930    0.34951    1.000
    H71      H        0.23850    0.23850    0.39050    1.000
    C120     C        0.25930    0.74070    0.65049    1.000
    H72      H        0.23850    0.76150    0.60950    1.000
    Co13     Co       0.28080    0.15670    0.50000    1.000
    Co14     Co       0.71920    0.84330    0.50000    1.000
    Co15     Co       0.71920    0.15670    0.50000    1.000
    Co16     Co       0.28080    0.84330    0.50000    1.000
    Co17     Co       0.50000    0.28080    0.15670    1.000
    Co18     Co       0.50000    0.71920    0.84330    1.000
    Co19     Co       0.50000    0.71920    0.15670    1.000
    Co20     Co       0.50000    0.28080    0.84330    1.000
    Co21     Co       0.15670    0.50000    0.28080    1.000
    Co22     Co       0.84330    0.50000    0.71920    1.000
    Co23     Co       0.15670    0.50000    0.71920    1.000
    Co24     Co       0.84330    0.50000    0.28080    1.000
    Co25     Co       0.15670    0.28080    0.50000    1.000
    Co26     Co       0.84330    0.71920    0.50000    1.000
    Co27     Co       0.15670    0.71920    0.50000    1.000
    Co28     Co       0.84330    0.28080    0.50000    1.000
    Co29     Co       0.28080    0.50000    0.84330    1.000
    Co30     Co       0.71920    0.50000    0.15670    1.000
    Co31     Co       0.71920    0.50000    0.84330    1.000
    Co32     Co       0.28080    0.50000    0.15670    1.000
    Co33     Co       0.50000    0.15670    0.71920    1.000
    Co34     Co       0.50000    0.84330    0.28080    1.000
    Co35     Co       0.50000    0.15670    0.28080    1.000
    Co36     Co       0.50000    0.84330    0.71920    1.000
    O1       O        0.17360    0.17360    0.50000    1.000
    O2       O        0.82640    0.82640    0.50000    1.000
    O3       O        0.82640    0.17360    0.50000    1.000
    O4       O        0.17360    0.82640    0.50000    1.000
    O5       O        0.50000    0.17360    0.17360    1.000
    O6       O        0.50000    0.82640    0.82640    1.000
    O7       O        0.50000    0.82640    0.17360    1.000
    O8       O        0.50000    0.17360    0.82640    1.000
    O9       O        0.17360    0.50000    0.17360    1.000
    O10      O        0.82640    0.50000    0.82640    1.000
    O11      O        0.17360    0.50000    0.82640    1.000
    O12      O        0.82640    0.50000    0.17360    1.000
