data_functionalizedCrystal
_audit_creation_method	'EQeq! by Chris Wilmer'
_symmetry_space_group_name_H-M	'P1'
_symmetry_Int_Tables_number	1
_symmetry_cell_setting	triclinic
loop_
_symmetry_equiv_pos_as_xyz
  x,y,z
_cell_length_a	12.5583
_cell_length_b	14.5949
_cell_length_c	25.741
_cell_angle_alpha	100.093
_cell_angle_beta	90
_cell_angle_gamma	90
loop_
_atom_site_label
_atom_site_type_symbol
_atom_site_fract_x
_atom_site_fract_y
_atom_site_fract_z
_atom_site_charge
Mof_Zn	Zn	0.10479	0.88344	0.8766	1.233
Mof_Zn	Zn	0.72139	0.01732	0.19449	1.197
Mof_Zn	Zn	0.92478	0.93005	0.47016	1.221
Mof_Zn	Zn	0.60479	0.61656	0.6234	1.234
Mof_Zn	Zn	0.22139	0.48268	0.30551	1.199
Mof_Zn	Zn	0.42478	0.56995	0.02984	1.221
Mof_Zn	Zn	0.89521	0.11656	0.1234	1.234
Mof_Zn	Zn	0.27861	0.98268	0.80551	1.198
Mof_Zn	Zn	0.07522	0.06995	0.52984	1.221
Mof_Zn	Zn	0.39521	0.38344	0.3766	1.234
Mof_Zn	Zn	0.77861	0.51732	0.69449	1.199
Mof_Zn	Zn	0.57522	0.43005	0.97016	1.221
Mof_H 	H 	0.8194	0.7014	0.3126	0.079
Mof_H 	H 	0.5903	0.5091	0.4515	0.063
Mof_H 	H 	0.0471	0.9868	0.6835	0.024
Mof_H 	H 	0.774	0.7874	0.4932	0.014
Mof_H 	H 	0.6118	0.8446	0.2094	0.002
Mof_H 	H 	0.7099	0.0602	0.3129	0.004
Mof_H 	H 	0.8897	0.8352	0.3586	0.008
Mof_H 	H 	0.5179	0.7124	0.2384	0.041
Mof_H 	H 	0.7172	0.5494	0.3129	0.071
Mof_H 	H 	0.4515	0.6444	0.3061	0.061
Mof_H 	H 	0.6268	0.4572	0.3626	0.026
Mof_H 	H 	0.6483	0.9963	0.3821	0.09
Mof_H 	H 	0.6622	0.6471	0.4955	0.042
Mof_H 	H 	0.4715	0.7196	0.3942	0.035
Mof_H 	H 	0.5565	0.8604	0.4149	0.075
Mof_H 	H 	0.9278	0.8888	0.0091	0.026
Mof_H 	H 	0.9093	0.7855	0.7506	0.031
Mof_H 	H 	0.6847	0.7712	0.0769	0.019
Mof_H 	H 	0.8314	0.8117	0.6011	0.028
Mof_H 	H 	0.8053	0.6425	0.9371	0.022
Mof_H 	H 	0.3194	0.7986	0.1874	0.08
Mof_H 	H 	0.0903	0.9909	0.0485	0.064
Mof_H 	H 	0.5471	0.5132	0.8165	0.025
Mof_H 	H 	0.274	0.7126	0.0068	0.014
Mof_H 	H 	0.1118	0.6554	0.2906	0.001
Mof_H 	H 	0.2099	0.4398	0.1871	0.004
Mof_H 	H 	0.3897	0.6648	0.1414	0.008
Mof_H 	H 	0.0179	0.7876	0.2616	0.041
Mof_H 	H 	0.2172	0.9506	0.1871	0.072
Mof_H 	H 	0.9515	0.8556	0.1939	0.062
Mof_H 	H 	0.1268	0.0428	0.1374	0.024
Mof_H 	H 	0.1483	0.5037	0.1179	0.091
Mof_H 	H 	0.1622	0.8529	0.0045	0.041
Mof_H 	H 	0.9715	0.7804	0.1058	0.034
Mof_H 	H 	0.0565	0.6396	0.0851	0.075
Mof_H 	H 	0.4278	0.6112	0.4909	0.026
Mof_H 	H 	0.4093	0.7145	0.7494	0.031
Mof_H 	H 	0.1847	0.7288	0.4231	0.019
Mof_H 	H 	0.3314	0.6883	0.8989	0.028
Mof_H 	H 	0.3053	0.8575	0.5629	0.022
Mof_H 	H 	0.1806	0.2986	0.6874	0.079
Mof_H 	H 	0.4097	0.4909	0.5485	0.063
Mof_H 	H 	0.9529	0.0132	0.3165	0.024
Mof_H 	H 	0.226	0.2126	0.5068	0.014
Mof_H 	H 	0.3882	0.1554	0.7906	0.002
Mof_H 	H 	0.2901	0.9398	0.6871	0.004
Mof_H 	H 	0.1103	0.1648	0.6414	0.008
Mof_H 	H 	0.4821	0.2876	0.7616	0.041
Mof_H 	H 	0.2828	0.4506	0.6871	0.071
Mof_H 	H 	0.5485	0.3556	0.6939	0.061
Mof_H 	H 	0.3732	0.5428	0.6374	0.026
Mof_H 	H 	0.3517	0.0037	0.6179	0.09
Mof_H 	H 	0.3378	0.3529	0.5045	0.042
Mof_H 	H 	0.5285	0.2804	0.6058	0.035
Mof_H 	H 	0.4435	0.1396	0.5851	0.075
Mof_H 	H 	0.0722	0.1112	0.9909	0.026
Mof_H 	H 	0.0907	0.2145	0.2494	0.031
Mof_H 	H 	0.3153	0.2288	0.9231	0.019
Mof_H 	H 	0.1686	0.1883	0.3989	0.028
Mof_H 	H 	0.1947	0.3575	0.0629	0.022
Mof_H 	H 	0.6806	0.2014	0.8126	0.08
Mof_H 	H 	0.9097	0.0091	0.9515	0.064
Mof_H 	H 	0.4529	0.4868	0.1835	0.025
Mof_H 	H 	0.726	0.2874	0.9932	0.014
Mof_H 	H 	0.8882	0.3446	0.7094	0.001
Mof_H 	H 	0.7901	0.5602	0.8129	0.004
Mof_H 	H 	0.6103	0.3352	0.8586	0.008
Mof_H 	H 	0.9821	0.2124	0.7384	0.041
Mof_H 	H 	0.7828	0.0494	0.8129	0.072
Mof_H 	H 	0.0485	0.1444	0.8061	0.062
Mof_H 	H 	0.8732	0.9572	0.8626	0.024
Mof_H 	H 	0.8517	0.4963	0.8821	0.091
Mof_H 	H 	0.8378	0.1471	0.9955	0.041
Mof_H 	H 	0.0285	0.2196	0.8942	0.034
Mof_H 	H 	0.9435	0.3604	0.9149	0.075
Mof_H 	H 	0.5722	0.3888	0.5091	0.026
Mof_H 	H 	0.5907	0.2855	0.2506	0.031
Mof_H 	H 	0.8153	0.2712	0.5769	0.019
Mof_H 	H 	0.6686	0.3117	0.1011	0.028
Mof_H 	H 	0.6947	0.1425	0.4371	0.022
Mof_C 	C 	0.5765	0.8315	0.2855	-0.037
Mof_C 	C 	0.8093	0.7167	0.3497	-0.14
Mof_C 	C 	0.0546	0.9173	0.77227	0.406
Mof_C 	C 	0.633	0.5462	0.4329	-0.072
Mof_C 	C 	0.7338	0.6949	0.00713	-0.166
Mof_C 	C 	0.9565	0.9511	0.58771	0.432
Mof_C 	C 	0.6544	0.6181	0.00626	0.438
Mof_C 	C 	0.986	0.8914	0.72435	-0.157
Mof_C 	C 	0.9988	0.9362	0.68147	0.094
Mof_C 	C 	0.9406	0.907	0.63529	-0.162
Mof_C 	C 	0.7516	0.6577	0.3763	0.084
Mof_C 	C 	0.7836	0.7689	0.4562	0.038
Mof_C 	C 	0.618	0.8755	0.24499	0.028
Mof_C 	C 	0.6757	0.0013	0.30586	0.078
Mof_C 	C 	0.8507	0.7955	0.3772	0.069
Mof_C 	C 	0.5251	0.7431	0.2739	-0.022
Mof_C 	C 	0.7077	0.5694	0.3498	-0.11
Mof_C 	C 	0.7349	0.683	0.4306	-0.039
Mof_C 	C 	0.4865	0.7029	0.3137	-0.067
Mof_C 	C 	0.6526	0.5163	0.3792	0.01
Mof_C 	C 	0.6393	0.9638	0.347	-0.138
Mof_C 	C 	0.5882	0.8767	0.3379	0.088
Mof_C 	C 	0.6743	0.6278	0.4588	-0.016
Mof_C 	C 	0.4988	0.7484	0.3666	0.016
Mof_C 	C 	0.5483	0.8319	0.379	-0.11
Mof_C 	C 	0.8779	0.8396	0.00826	0.095
Mof_C 	C 	0.9172	0.8163	0.7212	0.088
Mof_C 	C 	0.8771	0.7672	0.96556	-0.148
Mof_C 	C 	0.8074	0.8416	0.04967	-0.173
Mof_C 	C 	0.7343	0.7694	0.04882	0.103
Mof_C 	C 	0.8596	0.7856	0.67497	-0.16
Mof_C 	C 	0.8711	0.8317	0.63242	0.093
Mof_C 	C 	0.8053	0.6936	0.96559	0.09
Mof_C 	C 	0.9513	0.7686	0.91977	0.373
Mof_C 	C 	0.8096	0.9232	0.09397	0.432
Mof_C 	C 	0.7916	0.7018	0.6699	0.386
Mof_C 	C 	0.0765	0.6685	0.2145	-0.038
Mof_C 	C 	0.3093	0.7833	0.1503	-0.141
Mof_C 	C 	0.5546	0.5827	0.72773	0.406
Mof_C 	C 	0.133	0.9538	0.0671	-0.075
Mof_C 	C 	0.2338	0.8051	0.49287	-0.167
Mof_C 	C 	0.4565	0.5489	0.91229	0.433
Mof_C 	C 	0.1544	0.8819	0.49374	0.438
Mof_C 	C 	0.486	0.6086	0.77565	-0.157
Mof_C 	C 	0.4988	0.5638	0.81853	0.094
Mof_C 	C 	0.4406	0.593	0.86471	-0.162
Mof_C 	C 	0.2516	0.8423	0.1237	0.086
Mof_C 	C 	0.2836	0.7311	0.0438	0.039
Mof_C 	C 	0.118	0.6245	0.25501	0.029
Mof_C 	C 	0.1757	0.4987	0.19414	0.081
Mof_C 	C 	0.3507	0.7045	0.1228	0.07
Mof_C 	C 	0.0251	0.7569	0.2261	-0.022
Mof_C 	C 	0.2077	0.9306	0.1502	-0.113
Mof_C 	C 	0.2349	0.817	0.0694	-0.04
Mof_C 	C 	0.9865	0.7971	0.1863	-0.067
Mof_C 	C 	0.1526	0.9837	0.1208	0.015
Mof_C 	C 	0.1393	0.5362	0.153	-0.141
Mof_C 	C 	0.0882	0.6233	0.1621	0.089
Mof_C 	C 	0.1743	0.8722	0.0412	-0.014
Mof_C 	C 	0.9988	0.7516	0.1334	0.017
Mof_C 	C 	0.0483	0.6681	0.121	-0.112
Mof_C 	C 	0.3779	0.6604	0.49174	0.093
Mof_C 	C 	0.4172	0.6837	0.7788	0.088
Mof_C 	C 	0.3771	0.7328	0.53444	-0.146
Mof_C 	C 	0.3074	0.6584	0.45033	-0.172
Mof_C 	C 	0.2343	0.7306	0.45118	0.103
Mof_C 	C 	0.3596	0.7144	0.82503	-0.16
Mof_C 	C 	0.3711	0.6683	0.86758	0.093
Mof_C 	C 	0.3053	0.8064	0.53441	0.091
Mof_C 	C 	0.4513	0.7314	0.58023	0.373
Mof_C 	C 	0.3096	0.5768	0.40603	0.432
Mof_C 	C 	0.2916	0.7982	0.8301	0.386
Mof_C 	C 	0.4235	0.1685	0.7145	-0.037
Mof_C 	C 	0.1907	0.2833	0.6503	-0.14
Mof_C 	C 	0.9454	0.0827	0.22773	0.406
Mof_C 	C 	0.367	0.4538	0.5671	-0.072
Mof_C 	C 	0.2662	0.3051	0.99287	-0.166
Mof_C 	C 	0.0435	0.0489	0.41229	0.432
Mof_C 	C 	0.3456	0.3819	0.99374	0.438
Mof_C 	C 	0.014	0.1086	0.27565	-0.157
Mof_C 	C 	0.0012	0.0638	0.31853	0.094
Mof_C 	C 	0.0594	0.093	0.36471	-0.162
Mof_C 	C 	0.2484	0.3423	0.6237	0.084
Mof_C 	C 	0.2164	0.2311	0.5438	0.038
Mof_C 	C 	0.382	0.1245	0.75501	0.028
Mof_C 	C 	0.3243	0.9987	0.69414	0.078
Mof_C 	C 	0.1493	0.2045	0.6228	0.069
Mof_C 	C 	0.4749	0.2569	0.7261	-0.022
Mof_C 	C 	0.2923	0.4306	0.6502	-0.11
Mof_C 	C 	0.2651	0.317	0.5694	-0.039
Mof_C 	C 	0.5135	0.2971	0.6863	-0.067
Mof_C 	C 	0.3474	0.4837	0.6208	0.01
Mof_C 	C 	0.3607	0.0362	0.653	-0.138
Mof_C 	C 	0.4118	0.1233	0.6621	0.088
Mof_C 	C 	0.3257	0.3722	0.5412	-0.016
Mof_C 	C 	0.5012	0.2516	0.6334	0.016
Mof_C 	C 	0.4517	0.1681	0.621	-0.11
Mof_C 	C 	0.1221	0.1604	0.99174	0.095
Mof_C 	C 	0.0828	0.1837	0.2788	0.088
Mof_C 	C 	0.1229	0.2328	0.03444	-0.148
Mof_C 	C 	0.1926	0.1584	0.95033	-0.173
Mof_C 	C 	0.2657	0.2306	0.95118	0.103
Mof_C 	C 	0.1404	0.2144	0.32503	-0.16
Mof_C 	C 	0.1289	0.1683	0.36758	0.093
Mof_C 	C 	0.1947	0.3064	0.03441	0.09
Mof_C 	C 	0.0487	0.2314	0.08023	0.373
Mof_C 	C 	0.1904	0.0768	0.90603	0.432
Mof_C 	C 	0.2084	0.2982	0.3301	0.386
Mof_C 	C 	0.9235	0.3315	0.7855	-0.038
Mof_C 	C 	0.6907	0.2167	0.8497	-0.141
Mof_C 	C 	0.4454	0.4173	0.27227	0.406
Mof_C 	C 	0.867	0.0462	0.9329	-0.075
Mof_C 	C 	0.7662	0.1949	0.50713	-0.167
Mof_C 	C 	0.5435	0.4511	0.08771	0.433
Mof_C 	C 	0.8456	0.1181	0.50626	0.438
Mof_C 	C 	0.514	0.3914	0.22435	-0.157
Mof_C 	C 	0.5012	0.4362	0.18147	0.094
Mof_C 	C 	0.5594	0.407	0.13529	-0.162
Mof_C 	C 	0.7484	0.1577	0.8763	0.086
Mof_C 	C 	0.7164	0.2689	0.9562	0.039
Mof_C 	C 	0.882	0.3755	0.74499	0.029
Mof_C 	C 	0.8243	0.5013	0.80586	0.081
Mof_C 	C 	0.6493	0.2955	0.8772	0.07
Mof_C 	C 	0.9749	0.2431	0.7739	-0.022
Mof_C 	C 	0.7923	0.0694	0.8498	-0.113
Mof_C 	C 	0.7651	0.183	0.9306	-0.04
Mof_C 	C 	0.0135	0.2029	0.8137	-0.067
Mof_C 	C 	0.8474	0.0163	0.8792	0.015
Mof_C 	C 	0.8607	0.4638	0.847	-0.141
Mof_C 	C 	0.9118	0.3767	0.8379	0.089
Mof_C 	C 	0.8257	0.1278	0.9588	-0.014
Mof_C 	C 	0.0012	0.2484	0.8666	0.017
Mof_C 	C 	0.9517	0.3319	0.879	-0.112
Mof_C 	C 	0.6221	0.3396	0.50826	0.093
Mof_C 	C 	0.5828	0.3163	0.2212	0.088
Mof_C 	C 	0.6229	0.2672	0.46556	-0.146
Mof_C 	C 	0.6926	0.3416	0.54967	-0.172
Mof_C 	C 	0.7657	0.2694	0.54882	0.103
Mof_C 	C 	0.6404	0.2856	0.17497	-0.16
Mof_C 	C 	0.6289	0.3317	0.13242	0.093
Mof_C 	C 	0.6947	0.1936	0.46559	0.091
Mof_C 	C 	0.5487	0.2686	0.41977	0.373
Mof_C 	C 	0.6904	0.4232	0.59397	0.432
Mof_C 	C 	0.7084	0.2018	0.1699	0.386
Mof_N 	N 	0.6651	0.9576	0.2546	-0.257
Mof_N 	N 	0.8395	0.8216	0.43126	-0.244
Mof_N 	N 	0.1651	0.5424	0.2454	-0.258
Mof_N 	N 	0.3395	0.6784	0.06874	-0.244
Mof_N 	N 	0.3349	0.0424	0.7454	-0.257
Mof_N 	N 	0.1605	0.1784	0.56874	-0.244
Mof_N 	N 	0.8349	0.4576	0.7546	-0.258
Mof_N 	N 	0.6605	0.3216	0.93126	-0.244
Mof_O 	O 	0.7533	0.919	0.13359	-0.516
Mof_O 	O 	0.7905	0.6554	0.70675	-0.501
Mof_O 	O 	0.0133	0.8394	0.92633	-0.461
Mof_O 	O 	0.0318	0.875	0.80991	-0.489
Mof_O 	O 	0.1274	0.9756	0.77198	-0.471
Mof_O 	O 	0.9096	0.9155	0.54635	-0.485
Mof_O 	O 	0.57	0.6369	0.03033	-0.474
Mof_O 	O 	0.0178	0.0185	0.59228	-0.468
Mof_O 	O 	0.6761	0.5402	0.98038	-0.472
Mof_O 	O 	0.7392	0.6812	0.62721	-0.501
Mof_O 	O 	0.8681	0.99	0.08732	-0.508
Mof_O 	O 	0.9476	0.7071	0.88105	-0.293
Mof_O 	O 	0.2533	0.581	0.36641	-0.516
Mof_O 	O 	0.2905	0.8446	0.79325	-0.501
Mof_O 	O 	0.5133	0.6606	0.57367	-0.46
Mof_O 	O 	0.5318	0.625	0.69009	-0.489
Mof_O 	O 	0.6274	0.5244	0.72802	-0.47
Mof_O 	O 	0.4096	0.5845	0.95365	-0.485
Mof_O 	O 	0.07	0.8631	0.46967	-0.474
Mof_O 	O 	0.5178	0.4815	0.90772	-0.469
Mof_O 	O 	0.1761	0.9598	0.51962	-0.472
Mof_O 	O 	0.2392	0.8188	0.87279	-0.502
Mof_O 	O 	0.3681	0.51	0.41268	-0.509
Mof_O 	O 	0.4476	0.7929	0.61895	-0.293
Mof_O 	O 	0.2467	0.081	0.86641	-0.516
Mof_O 	O 	0.2095	0.3446	0.29325	-0.501
Mof_O 	O 	0.9867	0.1606	0.07367	-0.461
Mof_O 	O 	0.9682	0.125	0.19009	-0.489
Mof_O 	O 	0.8726	0.0244	0.22802	-0.471
Mof_O 	O 	0.0904	0.0845	0.45365	-0.485
Mof_O 	O 	0.43	0.3631	0.96967	-0.474
Mof_O 	O 	0.9822	0.9815	0.40772	-0.468
Mof_O 	O 	0.3239	0.4598	0.01962	-0.472
Mof_O 	O 	0.2608	0.3188	0.37279	-0.501
Mof_O 	O 	0.1319	0.01	0.91268	-0.508
Mof_O 	O 	0.0524	0.2929	0.11895	-0.293
Mof_O 	O 	0.7467	0.419	0.63359	-0.516
Mof_O 	O 	0.7095	0.1554	0.20675	-0.501
Mof_O 	O 	0.4867	0.3394	0.42633	-0.46
Mof_O 	O 	0.4682	0.375	0.30991	-0.489
Mof_O 	O 	0.3726	0.4756	0.27198	-0.47
Mof_O 	O 	0.5904	0.4155	0.04635	-0.485
Mof_O 	O 	0.93	0.1369	0.53033	-0.474
Mof_O 	O 	0.4822	0.5185	0.09228	-0.469
Mof_O 	O 	0.8239	0.0402	0.48038	-0.472
Mof_O 	O 	0.7608	0.1812	0.12721	-0.502
Mof_O 	O 	0.6319	0.49	0.58732	-0.509
Mof_O 	O 	0.5524	0.2071	0.38105	-0.293
_end
