# CIF file generated by openbabel 3.1.0, see https://openbabel.org
data_I
_chemical_name_common 'image0'
_cell_length_a 33.182
_cell_length_b 10.296
_cell_length_c 27.814
_cell_angle_alpha 90
_cell_angle_beta 107.238
_cell_angle_gamma 90
_space_group_name_H-M_alt 'P 1'
_space_group_name_Hall 'P 1'
loop_
    _symmetry_equiv_pos_as_xyz
    x,y,z
loop_
    _atom_site_label
    _atom_site_type_symbol
    _atom_site_fract_x
    _atom_site_fract_y
    _atom_site_fract_z
    _atom_site_occupancy
    Tb1      Tb       0.55538    0.10622    0.00947    1.000
    O1       O        0.12006    0.64930    0.07696    1.000
    O2       O        0.12437    0.49150    0.02684    1.000
    O3       O        0.44338    0.95090    0.42876    1.000
    O4       O        0.49648    0.80750    0.44841    1.000
    O5       O        0.47439    0.07560    0.03539    1.000
    O6       O        0.52464    0.22030    0.06367    1.000
    C1       C        0.14046    0.56170    0.06430    1.000
    C2       C        0.18552    0.54200    0.09373    1.000
    C3       C        0.20706    0.64410    0.12294    1.000
    H1       H        0.19290    0.72050    0.12540    1.000
    C4       C        0.24977    0.63190    0.14844    1.000
    H2       H        0.26420    0.70030    0.16800    1.000
    C5       C        0.27096    0.51770    0.14472    1.000
    C6       C        0.24943    0.41560    0.11551    1.000
    H3       H        0.26360    0.33910    0.11300    1.000
    C7       C        0.20671    0.42770    0.09001    1.000
    H4       H        0.19230    0.35940    0.07050    1.000
    C8       C        0.31884    0.51150    0.16921    1.000
    C9       C        0.33748    0.57550    0.21432    1.000
    H5       H        0.32060    0.62210    0.22960    1.000
    C10      C        0.38087    0.57100    0.23700    1.000
    C11      C        0.40547    0.50190    0.21288    1.000
    H6       H        0.43460    0.49890    0.22740    1.000
    C12      C        0.38753    0.43720    0.16743    1.000
    C13      C        0.34408    0.44270    0.14625    1.000
    H7       H        0.33160    0.39950    0.11610    1.000
    C14      C        0.40082    0.63900    0.28543    1.000
    C15      C        0.38274    0.74900    0.29880    1.000
    H8       H        0.35710    0.77840    0.27770    1.000
    C16      C        0.40185    0.81610    0.34250    1.000
    H9       H        0.38900    0.88980    0.35060    1.000
    C17      C        0.44003    0.77430    0.37443    1.000
    C18      C        0.45839    0.66580    0.36154    1.000
    H10      H        0.48420    0.63720    0.38240    1.000
    C19      C        0.43895    0.59840    0.31789    1.000
    H11      H        0.45180    0.52420    0.31020    1.000
    C20      C        0.46159    0.85040    0.42111    1.000
    C21      C        0.41435    0.36740    0.14175    1.000
    C22      C        0.45439    0.41230    0.14380    1.000
    H12      H        0.46510    0.48600    0.16260    1.000
    C23      C        0.47840    0.34880    0.11831    1.000
    H13      H        0.50510    0.38020    0.12010    1.000
    C24      C        0.46332    0.23890    0.09018    1.000
    C25      C        0.42385    0.19330    0.08810    1.000
    H14      H        0.41330    0.11960    0.06920    1.000
    C26      C        0.39964    0.25600    0.11390    1.000
    H15      H        0.37320    0.22310    0.11260    1.000
    C27      C        0.48928    0.17420    0.06131    1.000
    O7       O        0.57482    0.32950    0.00366    1.000
    S1       S        0.57011    0.44580    0.03530    1.000
    C28      C        0.60440    0.57350    0.03280    1.000
    H16      H        0.63310    0.54520    0.04670    1.000
    H17      H        0.59910    0.64580    0.05190    1.000
    H18      H        0.59970    0.59940    0.99840    1.000
    S2       S        0.60840    0.41870    0.03290    1.000
    C29      C        0.61340    0.45100    0.09650    1.000
    H19      H        0.61740    0.37090    0.11500    1.000
    H20      H        0.58820    0.49300    0.09900    1.000
    H21      H        0.63720    0.50670    0.11020    1.000
    C30      C        0.60090    0.56910    0.00220    1.000
    H22      H        0.59850    0.55680    0.96730    1.000
    H23      H        0.62450    0.62460    0.01740    1.000
    H24      H        0.57550    0.60850    0.00520    1.000
    H25      H        0.53180    0.42670    0.02070    1.000
    H26      H        0.52710    0.57550    0.02970    1.000
    H27      H        0.52710    0.52560    0.97640    1.000
    C31      C        0.51870    0.50600    0.00580    1.000
    Tb2      Tb       0.05538    0.60622    0.00947    1.000
    O8       O        0.62006    0.14930    0.07696    1.000
    O9       O        0.62437    0.99150    0.02684    1.000
    O10      O        0.94338    0.45090    0.42876    1.000
    O11      O        0.99648    0.30750    0.44841    1.000
    O12      O        0.97439    0.57560    0.03539    1.000
    O13      O        0.02464    0.72030    0.06367    1.000
    C32      C        0.64046    0.06170    0.06430    1.000
    C33      C        0.68552    0.04200    0.09373    1.000
    C34      C        0.70706    0.14410    0.12294    1.000
    H28      H        0.69290    0.22050    0.12540    1.000
    C35      C        0.74977    0.13190    0.14844    1.000
    H29      H        0.76420    0.20030    0.16800    1.000
    C36      C        0.77096    0.01770    0.14472    1.000
    C37      C        0.74943    0.91560    0.11551    1.000
    H30      H        0.76360    0.83910    0.11300    1.000
    C38      C        0.70671    0.92770    0.09001    1.000
    H31      H        0.69230    0.85940    0.07050    1.000
    C39      C        0.81884    0.01150    0.16921    1.000
    C40      C        0.83748    0.07550    0.21432    1.000
    H32      H        0.82060    0.12210    0.22960    1.000
    C41      C        0.88087    0.07100    0.23700    1.000
    C42      C        0.90547    0.00190    0.21288    1.000
    H33      H        0.93460    0.99890    0.22740    1.000
    C43      C        0.88753    0.93720    0.16743    1.000
    C44      C        0.84408    0.94270    0.14625    1.000
    H34      H        0.83160    0.89950    0.11610    1.000
    C45      C        0.90082    0.13900    0.28543    1.000
    C46      C        0.88274    0.24900    0.29880    1.000
    H35      H        0.85710    0.27840    0.27770    1.000
    C47      C        0.90185    0.31610    0.34250    1.000
    H36      H        0.88900    0.38980    0.35060    1.000
    C48      C        0.94003    0.27430    0.37443    1.000
    C49      C        0.95839    0.16580    0.36154    1.000
    H37      H        0.98420    0.13720    0.38240    1.000
    C50      C        0.93895    0.09840    0.31789    1.000
    H38      H        0.95180    0.02420    0.31020    1.000
    C51      C        0.96159    0.35040    0.42111    1.000
    C52      C        0.91435    0.86740    0.14175    1.000
    C53      C        0.95439    0.91230    0.14380    1.000
    H39      H        0.96510    0.98600    0.16260    1.000
    C54      C        0.97840    0.84880    0.11831    1.000
    H40      H        0.00510    0.88020    0.12010    1.000
    C55      C        0.96332    0.73890    0.09018    1.000
    C56      C        0.92385    0.69330    0.08810    1.000
    H41      H        0.91330    0.61960    0.06920    1.000
    C57      C        0.89964    0.75600    0.11390    1.000
    H42      H        0.87320    0.72310    0.11260    1.000
    C58      C        0.98928    0.67420    0.06131    1.000
    O14      O        0.07482    0.82950    0.00366    1.000
    S3       S        0.07011    0.94580    0.03530    1.000
    C59      C        0.10440    0.07350    0.03280    1.000
    H43      H        0.13310    0.04520    0.04670    1.000
    H44      H        0.09910    0.14580    0.05190    1.000
    H45      H        0.09970    0.09940    0.99840    1.000
    S4       S        0.10840    0.91870    0.03290    1.000
    C60      C        0.11340    0.95100    0.09650    1.000
    H46      H        0.11740    0.87090    0.11500    1.000
    H47      H        0.08820    0.99300    0.09900    1.000
    H48      H        0.13720    0.00670    0.11020    1.000
    C61      C        0.10090    0.06910    0.00220    1.000
    H49      H        0.09850    0.05680    0.96730    1.000
    H50      H        0.12450    0.12460    0.01740    1.000
    H51      H        0.07550    0.10850    0.00520    1.000
    H52      H        0.03180    0.92670    0.02070    1.000
    H53      H        0.02710    0.07550    0.02970    1.000
    H54      H        0.02710    0.02560    0.97640    1.000
    C62      C        0.01870    0.00600    0.00580    1.000
    Tb3      Tb       0.44462    0.10622    0.49053    1.000
    O15      O        0.87994    0.64930    0.42304    1.000
    O16      O        0.87563    0.49150    0.47316    1.000
    O17      O        0.55662    0.95090    0.07124    1.000
    O18      O        0.50352    0.80750    0.05159    1.000
    O19      O        0.52561    0.07560    0.46461    1.000
    O20      O        0.47536    0.22030    0.43633    1.000
    C63      C        0.85954    0.56170    0.43570    1.000
    C64      C        0.81448    0.54200    0.40627    1.000
    C65      C        0.79294    0.64410    0.37706    1.000
    H55      H        0.80710    0.72050    0.37460    1.000
    C66      C        0.75023    0.63190    0.35156    1.000
    H56      H        0.73580    0.70030    0.33200    1.000
    C67      C        0.72904    0.51770    0.35528    1.000
    C68      C        0.75057    0.41560    0.38449    1.000
    H57      H        0.73640    0.33910    0.38700    1.000
    C69      C        0.79329    0.42770    0.40999    1.000
    H58      H        0.80770    0.35940    0.42950    1.000
    C70      C        0.68116    0.51150    0.33079    1.000
    C71      C        0.66252    0.57550    0.28568    1.000
    H59      H        0.67940    0.62210    0.27040    1.000
    C72      C        0.61913    0.57100    0.26300    1.000
    C73      C        0.59453    0.50190    0.28712    1.000
    H60      H        0.56540    0.49890    0.27260    1.000
    C74      C        0.61247    0.43720    0.33257    1.000
    C75      C        0.65592    0.44270    0.35375    1.000
    H61      H        0.66840    0.39950    0.38390    1.000
    C76      C        0.59918    0.63900    0.21457    1.000
    C77      C        0.61726    0.74900    0.20120    1.000
    H62      H        0.64290    0.77840    0.22230    1.000
    C78      C        0.59815    0.81610    0.15750    1.000
    H63      H        0.61100    0.88980    0.14940    1.000
    C79      C        0.55997    0.77430    0.12557    1.000
    C80      C        0.54161    0.66580    0.13846    1.000
    H64      H        0.51580    0.63720    0.11760    1.000
    C81      C        0.56105    0.59840    0.18211    1.000
    H65      H        0.54820    0.52420    0.18980    1.000
    C82      C        0.53841    0.85040    0.07889    1.000
    C83      C        0.58565    0.36740    0.35825    1.000
    C84      C        0.54561    0.41230    0.35620    1.000
    H66      H        0.53490    0.48600    0.33740    1.000
    C85      C        0.52160    0.34880    0.38169    1.000
    H67      H        0.49490    0.38020    0.37990    1.000
    C86      C        0.53668    0.23890    0.40982    1.000
    C87      C        0.57615    0.19330    0.41190    1.000
    H68      H        0.58670    0.11960    0.43080    1.000
    C88      C        0.60036    0.25600    0.38610    1.000
    H69      H        0.62680    0.22310    0.38740    1.000
    C89      C        0.51072    0.17420    0.43869    1.000
    O21      O        0.42518    0.32950    0.49634    1.000
    S5       S        0.42989    0.44580    0.46470    1.000
    C90      C        0.39560    0.57350    0.46720    1.000
    H70      H        0.36690    0.54520    0.45330    1.000
    H71      H        0.40090    0.64580    0.44810    1.000
    H72      H        0.40030    0.59940    0.50160    1.000
    S6       S        0.39160    0.41870    0.46710    1.000
    C91      C        0.38660    0.45100    0.40350    1.000
    H73      H        0.38260    0.37090    0.38500    1.000
    H74      H        0.41180    0.49300    0.40100    1.000
    H75      H        0.36280    0.50670    0.38980    1.000
    C92      C        0.39910    0.56910    0.49780    1.000
    H76      H        0.40150    0.55680    0.53270    1.000
    H77      H        0.37550    0.62460    0.48260    1.000
    H78      H        0.42450    0.60850    0.49480    1.000
    H79      H        0.46820    0.42670    0.47930    1.000
    H80      H        0.47290    0.57550    0.47030    1.000
    H81      H        0.47290    0.52560    0.52360    1.000
    C93      C        0.48130    0.50600    0.49420    1.000
    Tb4      Tb       0.94462    0.60622    0.49053    1.000
    O22      O        0.37994    0.14930    0.42304    1.000
    O23      O        0.37563    0.99150    0.47316    1.000
    O24      O        0.05662    0.45090    0.07124    1.000
    O25      O        0.00352    0.30750    0.05159    1.000
    O26      O        0.02561    0.57560    0.46461    1.000
    O27      O        0.97536    0.72030    0.43633    1.000
    C94      C        0.35954    0.06170    0.43570    1.000
    C95      C        0.31448    0.04200    0.40627    1.000
    C96      C        0.29294    0.14410    0.37706    1.000
    H82      H        0.30710    0.22050    0.37460    1.000
    C97      C        0.25023    0.13190    0.35156    1.000
    H83      H        0.23580    0.20030    0.33200    1.000
    C98      C        0.22904    0.01770    0.35528    1.000
    C99      C        0.25057    0.91560    0.38449    1.000
    H84      H        0.23640    0.83910    0.38700    1.000
    C100     C        0.29329    0.92770    0.40999    1.000
    H85      H        0.30770    0.85940    0.42950    1.000
    C101     C        0.18116    0.01150    0.33079    1.000
    C102     C        0.16252    0.07550    0.28568    1.000
    H86      H        0.17940    0.12210    0.27040    1.000
    C103     C        0.11913    0.07100    0.26300    1.000
    C104     C        0.09453    0.00190    0.28712    1.000
    H87      H        0.06540    0.99890    0.27260    1.000
    C105     C        0.11247    0.93720    0.33257    1.000
    C106     C        0.15592    0.94270    0.35375    1.000
    H88      H        0.16840    0.89950    0.38390    1.000
    C107     C        0.09918    0.13900    0.21457    1.000
    C108     C        0.11726    0.24900    0.20120    1.000
    H89      H        0.14290    0.27840    0.22230    1.000
    C109     C        0.09815    0.31610    0.15750    1.000
    H90      H        0.11100    0.38980    0.14940    1.000
    C110     C        0.05997    0.27430    0.12557    1.000
    C111     C        0.04161    0.16580    0.13846    1.000
    H91      H        0.01580    0.13720    0.11760    1.000
    C112     C        0.06105    0.09840    0.18211    1.000
    H92      H        0.04820    0.02420    0.18980    1.000
    C113     C        0.03841    0.35040    0.07889    1.000
    C114     C        0.08565    0.86740    0.35825    1.000
    C115     C        0.04561    0.91230    0.35620    1.000
    H93      H        0.03490    0.98600    0.33740    1.000
    C116     C        0.02160    0.84880    0.38169    1.000
    H94      H        0.99490    0.88020    0.37990    1.000
    C117     C        0.03668    0.73890    0.40982    1.000
    C118     C        0.07615    0.69330    0.41190    1.000
    H95      H        0.08670    0.61960    0.43080    1.000
    C119     C        0.10036    0.75600    0.38610    1.000
    H96      H        0.12680    0.72310    0.38740    1.000
    C120     C        0.01072    0.67420    0.43869    1.000
    O28      O        0.92518    0.82950    0.49634    1.000
    S7       S        0.92989    0.94580    0.46470    1.000
    C121     C        0.89560    0.07350    0.46720    1.000
    H97      H        0.86690    0.04520    0.45330    1.000
    H98      H        0.90090    0.14580    0.44810    1.000
    H99      H        0.90030    0.09940    0.50160    1.000
    S8       S        0.89160    0.91870    0.46710    1.000
    C122     C        0.88660    0.95100    0.40350    1.000
    H100     H        0.88260    0.87090    0.38500    1.000
    H101     H        0.91180    0.99300    0.40100    1.000
    H102     H        0.86280    0.00670    0.38980    1.000
    C123     C        0.89910    0.06910    0.49780    1.000
    H103     H        0.90150    0.05680    0.53270    1.000
    H104     H        0.87550    0.12460    0.48260    1.000
    H105     H        0.92450    0.10850    0.49480    1.000
    H106     H        0.96820    0.92670    0.47930    1.000
    H107     H        0.97290    0.07550    0.47030    1.000
    H108     H        0.97290    0.02560    0.52360    1.000
    C124     C        0.98130    0.00600    0.49420    1.000
    Tb5      Tb       0.44462    0.89378    0.99053    1.000
    O29      O        0.87994    0.35070    0.92304    1.000
    O30      O        0.87563    0.50850    0.97316    1.000
    O31      O        0.55662    0.04910    0.57124    1.000
    O32      O        0.50352    0.19250    0.55159    1.000
    O33      O        0.52561    0.92440    0.96461    1.000
    O34      O        0.47536    0.77970    0.93633    1.000
    C125     C        0.85954    0.43830    0.93570    1.000
    C126     C        0.81448    0.45800    0.90627    1.000
    C127     C        0.79294    0.35590    0.87706    1.000
    H109     H        0.80710    0.27950    0.87460    1.000
    C128     C        0.75023    0.36810    0.85156    1.000
    H110     H        0.73580    0.29970    0.83200    1.000
    C129     C        0.72904    0.48230    0.85528    1.000
    C130     C        0.75057    0.58440    0.88449    1.000
    H111     H        0.73640    0.66090    0.88700    1.000
    C131     C        0.79329    0.57230    0.90999    1.000
    H112     H        0.80770    0.64060    0.92950    1.000
    C132     C        0.68116    0.48850    0.83079    1.000
    C133     C        0.66252    0.42450    0.78568    1.000
    H113     H        0.67940    0.37790    0.77040    1.000
    C134     C        0.61913    0.42900    0.76300    1.000
    C135     C        0.59453    0.49810    0.78712    1.000
    H114     H        0.56540    0.50110    0.77260    1.000
    C136     C        0.61247    0.56280    0.83257    1.000
    C137     C        0.65592    0.55730    0.85375    1.000
    H115     H        0.66840    0.60050    0.88390    1.000
    C138     C        0.59918    0.36100    0.71457    1.000
    C139     C        0.61726    0.25100    0.70120    1.000
    H116     H        0.64290    0.22160    0.72230    1.000
    C140     C        0.59815    0.18390    0.65750    1.000
    H117     H        0.61100    0.11020    0.64940    1.000
    C141     C        0.55997    0.22570    0.62557    1.000
    C142     C        0.54161    0.33420    0.63846    1.000
    H118     H        0.51580    0.36280    0.61760    1.000
    C143     C        0.56105    0.40160    0.68211    1.000
    H119     H        0.54820    0.47580    0.68980    1.000
    C144     C        0.53841    0.14960    0.57889    1.000
    C145     C        0.58565    0.63260    0.85825    1.000
    C146     C        0.54561    0.58770    0.85620    1.000
    H120     H        0.53490    0.51400    0.83740    1.000
    C147     C        0.52160    0.65120    0.88169    1.000
    H121     H        0.49490    0.61980    0.87990    1.000
    C148     C        0.53668    0.76110    0.90982    1.000
    C149     C        0.57615    0.80670    0.91190    1.000
    H122     H        0.58670    0.88040    0.93080    1.000
    C150     C        0.60036    0.74400    0.88610    1.000
    H123     H        0.62680    0.77690    0.88740    1.000
    C151     C        0.51072    0.82580    0.93869    1.000
    O35      O        0.42518    0.67050    0.99634    1.000
    S9       S        0.42989    0.55420    0.96470    1.000
    C152     C        0.39560    0.42650    0.96720    1.000
    H124     H        0.36690    0.45480    0.95330    1.000
    H125     H        0.40090    0.35420    0.94810    1.000
    H126     H        0.40030    0.40060    0.00160    1.000
    S10      S        0.39160    0.58130    0.96710    1.000
    C153     C        0.38660    0.54900    0.90350    1.000
    H127     H        0.38260    0.62910    0.88500    1.000
    H128     H        0.41180    0.50700    0.90100    1.000
    H129     H        0.36280    0.49330    0.88980    1.000
    C154     C        0.39910    0.43090    0.99780    1.000
    H130     H        0.40150    0.44320    0.03270    1.000
    H131     H        0.37550    0.37540    0.98260    1.000
    H132     H        0.42450    0.39150    0.99480    1.000
    H133     H        0.46820    0.57330    0.97930    1.000
    H134     H        0.47290    0.42450    0.97030    1.000
    H135     H        0.47290    0.47440    0.02360    1.000
    C155     C        0.48130    0.49400    0.99420    1.000
    Tb6      Tb       0.94462    0.39378    0.99053    1.000
    O36      O        0.37994    0.85070    0.92304    1.000
    O37      O        0.37563    0.00850    0.97316    1.000
    O38      O        0.05662    0.54910    0.57124    1.000
    O39      O        0.00352    0.69250    0.55159    1.000
    O40      O        0.02561    0.42440    0.96461    1.000
    O41      O        0.97536    0.27970    0.93633    1.000
    C156     C        0.35954    0.93830    0.93570    1.000
    C157     C        0.31448    0.95800    0.90627    1.000
    C158     C        0.29294    0.85590    0.87706    1.000
    H136     H        0.30710    0.77950    0.87460    1.000
    C159     C        0.25023    0.86810    0.85156    1.000
    H137     H        0.23580    0.79970    0.83200    1.000
    C160     C        0.22904    0.98230    0.85528    1.000
    C161     C        0.25057    0.08440    0.88449    1.000
    H138     H        0.23640    0.16090    0.88700    1.000
    C162     C        0.29329    0.07230    0.90999    1.000
    H139     H        0.30770    0.14060    0.92950    1.000
    C163     C        0.18116    0.98850    0.83079    1.000
    C164     C        0.16252    0.92450    0.78568    1.000
    H140     H        0.17940    0.87790    0.77040    1.000
    C165     C        0.11913    0.92900    0.76300    1.000
    C166     C        0.09453    0.99810    0.78712    1.000
    H141     H        0.06540    0.00110    0.77260    1.000
    C167     C        0.11247    0.06280    0.83257    1.000
    C168     C        0.15592    0.05730    0.85375    1.000
    H142     H        0.16840    0.10050    0.88390    1.000
    C169     C        0.09918    0.86100    0.71457    1.000
    C170     C        0.11726    0.75100    0.70120    1.000
    H143     H        0.14290    0.72160    0.72230    1.000
    C171     C        0.09815    0.68390    0.65750    1.000
    H144     H        0.11100    0.61020    0.64940    1.000
    C172     C        0.05997    0.72570    0.62557    1.000
    C173     C        0.04161    0.83420    0.63846    1.000
    H145     H        0.01580    0.86280    0.61760    1.000
    C174     C        0.06105    0.90160    0.68211    1.000
    H146     H        0.04820    0.97580    0.68980    1.000
    C175     C        0.03841    0.64960    0.57889    1.000
    C176     C        0.08565    0.13260    0.85825    1.000
    C177     C        0.04561    0.08770    0.85620    1.000
    H147     H        0.03490    0.01400    0.83740    1.000
    C178     C        0.02160    0.15120    0.88169    1.000
    H148     H        0.99490    0.11980    0.87990    1.000
    C179     C        0.03668    0.26110    0.90982    1.000
    C180     C        0.07615    0.30670    0.91190    1.000
    H149     H        0.08670    0.38040    0.93080    1.000
    C181     C        0.10036    0.24400    0.88610    1.000
    H150     H        0.12680    0.27690    0.88740    1.000
    C182     C        0.01072    0.32580    0.93869    1.000
    O42      O        0.92518    0.17050    0.99634    1.000
    S11      S        0.92989    0.05420    0.96470    1.000
    C183     C        0.89560    0.92650    0.96720    1.000
    H151     H        0.86690    0.95480    0.95330    1.000
    H152     H        0.90090    0.85420    0.94810    1.000
    H153     H        0.90030    0.90060    0.00160    1.000
    S12      S        0.89160    0.08130    0.96710    1.000
    C184     C        0.88660    0.04900    0.90350    1.000
    H154     H        0.88260    0.12910    0.88500    1.000
    H155     H        0.91180    0.00700    0.90100    1.000
    H156     H        0.86280    0.99330    0.88980    1.000
    C185     C        0.89910    0.93090    0.99780    1.000
    H157     H        0.90150    0.94320    0.03270    1.000
    H158     H        0.87550    0.87540    0.98260    1.000
    H159     H        0.92450    0.89150    0.99480    1.000
    H160     H        0.96820    0.07330    0.97930    1.000
    H161     H        0.97290    0.92450    0.97030    1.000
    H162     H        0.97290    0.97440    0.02360    1.000
    C186     C        0.98130    0.99400    0.99420    1.000
    Tb7      Tb       0.55538    0.89378    0.50947    1.000
    O43      O        0.12006    0.35070    0.57696    1.000
    O44      O        0.12437    0.50850    0.52684    1.000
    O45      O        0.44338    0.04910    0.92876    1.000
    O46      O        0.49648    0.19250    0.94841    1.000
    O47      O        0.47439    0.92440    0.53539    1.000
    O48      O        0.52464    0.77970    0.56367    1.000
    C187     C        0.14046    0.43830    0.56430    1.000
    C188     C        0.18552    0.45800    0.59373    1.000
    C189     C        0.20706    0.35590    0.62294    1.000
    H163     H        0.19290    0.27950    0.62540    1.000
    C190     C        0.24977    0.36810    0.64844    1.000
    H164     H        0.26420    0.29970    0.66800    1.000
    C191     C        0.27096    0.48230    0.64472    1.000
    C192     C        0.24943    0.58440    0.61551    1.000
    H165     H        0.26360    0.66090    0.61300    1.000
    C193     C        0.20671    0.57230    0.59001    1.000
    H166     H        0.19230    0.64060    0.57050    1.000
    C194     C        0.31884    0.48850    0.66921    1.000
    C195     C        0.33748    0.42450    0.71432    1.000
    H167     H        0.32060    0.37790    0.72960    1.000
    C196     C        0.38087    0.42900    0.73700    1.000
    C197     C        0.40547    0.49810    0.71288    1.000
    H168     H        0.43460    0.50110    0.72740    1.000
    C198     C        0.38753    0.56280    0.66743    1.000
    C199     C        0.34408    0.55730    0.64625    1.000
    H169     H        0.33160    0.60050    0.61610    1.000
    C200     C        0.40082    0.36100    0.78543    1.000
    C201     C        0.38274    0.25100    0.79880    1.000
    H170     H        0.35710    0.22160    0.77770    1.000
    C202     C        0.40185    0.18390    0.84250    1.000
    H171     H        0.38900    0.11020    0.85060    1.000
    C203     C        0.44003    0.22570    0.87443    1.000
    C204     C        0.45839    0.33420    0.86154    1.000
    H172     H        0.48420    0.36280    0.88240    1.000
    C205     C        0.43895    0.40160    0.81789    1.000
    H173     H        0.45180    0.47580    0.81020    1.000
    C206     C        0.46159    0.14960    0.92111    1.000
    C207     C        0.41435    0.63260    0.64175    1.000
    C208     C        0.45439    0.58770    0.64380    1.000
    H174     H        0.46510    0.51400    0.66260    1.000
    C209     C        0.47840    0.65120    0.61831    1.000
    H175     H        0.50510    0.61980    0.62010    1.000
    C210     C        0.46332    0.76110    0.59018    1.000
    C211     C        0.42385    0.80670    0.58810    1.000
    H176     H        0.41330    0.88040    0.56920    1.000
    C212     C        0.39964    0.74400    0.61390    1.000
    H177     H        0.37320    0.77690    0.61260    1.000
    C213     C        0.48928    0.82580    0.56131    1.000
    O49      O        0.57482    0.67050    0.50366    1.000
    S13      S        0.57011    0.55420    0.53530    1.000
    C214     C        0.60440    0.42650    0.53280    1.000
    H178     H        0.63310    0.45480    0.54670    1.000
    H179     H        0.59910    0.35420    0.55190    1.000
    H180     H        0.59970    0.40060    0.49840    1.000
    S14      S        0.60840    0.58130    0.53290    1.000
    C215     C        0.61340    0.54900    0.59650    1.000
    H181     H        0.61740    0.62910    0.61500    1.000
    H182     H        0.58820    0.50700    0.59900    1.000
    H183     H        0.63720    0.49330    0.61020    1.000
    C216     C        0.60090    0.43090    0.50220    1.000
    H184     H        0.59850    0.44320    0.46730    1.000
    H185     H        0.62450    0.37540    0.51740    1.000
    H186     H        0.57550    0.39150    0.50520    1.000
    H187     H        0.53180    0.57330    0.52070    1.000
    H188     H        0.52710    0.42450    0.52970    1.000
    H189     H        0.52710    0.47440    0.47640    1.000
    C217     C        0.51870    0.49400    0.50580    1.000
    Tb8      Tb       0.05538    0.39378    0.50947    1.000
    O50      O        0.62006    0.85070    0.57696    1.000
    O51      O        0.62437    0.00850    0.52684    1.000
    O52      O        0.94338    0.54910    0.92876    1.000
    O53      O        0.99648    0.69250    0.94841    1.000
    O54      O        0.97439    0.42440    0.53539    1.000
    O55      O        0.02464    0.27970    0.56367    1.000
    C218     C        0.64046    0.93830    0.56430    1.000
    C219     C        0.68552    0.95800    0.59373    1.000
    C220     C        0.70706    0.85590    0.62294    1.000
    H190     H        0.69290    0.77950    0.62540    1.000
    C221     C        0.74977    0.86810    0.64844    1.000
    H191     H        0.76420    0.79970    0.66800    1.000
    C222     C        0.77096    0.98230    0.64472    1.000
    C223     C        0.74943    0.08440    0.61551    1.000
    H192     H        0.76360    0.16090    0.61300    1.000
    C224     C        0.70671    0.07230    0.59001    1.000
    H193     H        0.69230    0.14060    0.57050    1.000
    C225     C        0.81884    0.98850    0.66921    1.000
    C226     C        0.83748    0.92450    0.71432    1.000
    H194     H        0.82060    0.87790    0.72960    1.000
    C227     C        0.88087    0.92900    0.73700    1.000
    C228     C        0.90547    0.99810    0.71288    1.000
    H195     H        0.93460    0.00110    0.72740    1.000
    C229     C        0.88753    0.06280    0.66743    1.000
    C230     C        0.84408    0.05730    0.64625    1.000
    H196     H        0.83160    0.10050    0.61610    1.000
    C231     C        0.90082    0.86100    0.78543    1.000
    C232     C        0.88274    0.75100    0.79880    1.000
    H197     H        0.85710    0.72160    0.77770    1.000
    C233     C        0.90185    0.68390    0.84250    1.000
    H198     H        0.88900    0.61020    0.85060    1.000
    C234     C        0.94003    0.72570    0.87443    1.000
    C235     C        0.95839    0.83420    0.86154    1.000
    H199     H        0.98420    0.86280    0.88240    1.000
    C236     C        0.93895    0.90160    0.81789    1.000
    H200     H        0.95180    0.97580    0.81020    1.000
    C237     C        0.96159    0.64960    0.92111    1.000
    C238     C        0.91435    0.13260    0.64175    1.000
    C239     C        0.95439    0.08770    0.64380    1.000
    H201     H        0.96510    0.01400    0.66260    1.000
    C240     C        0.97840    0.15120    0.61831    1.000
    H202     H        0.00510    0.11980    0.62010    1.000
    C241     C        0.96332    0.26110    0.59018    1.000
    C242     C        0.92385    0.30670    0.58810    1.000
    H203     H        0.91330    0.38040    0.56920    1.000
    C243     C        0.89964    0.24400    0.61390    1.000
    H204     H        0.87320    0.27690    0.61260    1.000
    C244     C        0.98928    0.32580    0.56131    1.000
    O56      O        0.07482    0.17050    0.50366    1.000
    S15      S        0.07011    0.05420    0.53530    1.000
    C245     C        0.10440    0.92650    0.53280    1.000
    H205     H        0.13310    0.95480    0.54670    1.000
    H206     H        0.09910    0.85420    0.55190    1.000
    H207     H        0.09970    0.90060    0.49840    1.000
    S16      S        0.10840    0.08130    0.53290    1.000
    C246     C        0.11340    0.04900    0.59650    1.000
    H208     H        0.11740    0.12910    0.61500    1.000
    H209     H        0.08820    0.00700    0.59900    1.000
    H210     H        0.13720    0.99330    0.61020    1.000
    C247     C        0.10090    0.93090    0.50220    1.000
    H211     H        0.09850    0.94320    0.46730    1.000
    H212     H        0.12450    0.87540    0.51740    1.000
    H213     H        0.07550    0.89150    0.50520    1.000
    H214     H        0.03180    0.07330    0.52070    1.000
    H215     H        0.02710    0.92450    0.52970    1.000
    H216     H        0.02710    0.97440    0.47640    1.000
    C248     C        0.01870    0.99400    0.50580    1.000
