data_functionalizedCrystal
_audit_creation_method	'EQeq! by Chris Wilmer'
_symmetry_space_group_name_H-M	'P1'
_symmetry_Int_Tables_number	1
_symmetry_cell_setting	triclinic
loop_
_symmetry_equiv_pos_as_xyz
  x,y,z
_cell_length_a	11.46
_cell_length_b	19.968
_cell_length_c	14.949
_cell_angle_alpha	90
_cell_angle_beta	99.628
_cell_angle_gamma	90
loop_
_atom_site_label
_atom_site_type_symbol
_atom_site_fract_x
_atom_site_fract_y
_atom_site_fract_z
_atom_site_charge
Mof_U 	U 	0.73295	0.53271	0.85591	0.008
Mof_U 	U 	0.24552	0.61347	0.5871	-0.004
Mof_C 	C 	0.6719	0.5632	0.6678	0.341
Mof_C 	C 	0.8449	0.5097	0.4907	0.362
Mof_C 	C 	0.0719	0.7336	0.4697	0.476
Mof_C 	C 	0.8865	0.9311	0.5605	0.356
Mof_C 	C 	0.4308	0.9071	0.4657	0.362
Mof_C 	C 	0.4208	0.7523	0.6257	0.479
Mof_C 	C 	0.6547	0.5725	0.5666	-0.262
Mof_H 	H 	0.6482	0.5289	0.5375	0.149
Mof_H 	H 	0.5812	0.5964	0.5468	0.146
Mof_C 	C 	0.8631	0.5737	0.5428	-0.29
Mof_H 	H 	0.8956	0.5642	0.6057	0.167
Mof_H 	H 	0.9192	0.6016	0.518	0.158
Mof_C 	C 	0.0556	0.7736	0.5531	-0.332
Mof_H 	H 	0.0594	0.743	0.6038	0.171
Mof_H 	H 	0.1214	0.8045	0.5672	0.161
Mof_C 	C 	0.9422	0.8792	0.5082	-0.28
Mof_H 	H 	0.8988	0.8779	0.4467	0.162
Mof_H 	H 	0.0225	0.8932	0.505	0.156
Mof_C 	C 	0.5307	0.8764	0.5286	-0.301
Mof_H 	H 	0.6042	0.8966	0.5182	0.173
Mof_H 	H 	0.5214	0.8862	0.5906	0.175
Mof_C 	C 	0.4346	0.765	0.5282	-0.328
Mof_H 	H 	0.4384	0.7222	0.4981	0.171
Mof_H 	H 	0.3648	0.7883	0.4978	0.168
Mof_C 	C 	0.7505	0.6779	0.5398	0.186
Mof_C 	C 	0.8429	0.7763	0.539	0.182
Mof_C 	C 	0.6456	0.7734	0.5292	0.189
Mof_N 	N 	0.8533	0.7091	0.5431	-0.154
Mof_N 	N 	0.7419	0.8115	0.53	-0.146
Mof_N 	N 	0.6441	0.7066	0.5365	-0.148
Mof_N 	N 	0.7511	0.6093	0.5381	-0.045
Mof_N 	N 	0.9462	0.8115	0.5454	-0.036
Mof_N 	N 	0.5381	0.8038	0.5176	-0.031
Mof_O 	O 	0.604	0.52415	0.7023	-0.188
Mof_O 	O 	0.7554	0.593	0.7177	-0.188
Mof_O 	O 	0.8857	0.45555	0.5264	-0.218
Mof_O 	O 	0.7847	0.5092	0.4126	-0.209
Mof_O 	O 	0.1492	0.68658	0.4836	-0.244
Mof_O 	O 	0.0173	0.7481	0.396	-0.519
Mof_H 	H 	0.9775	0.7159	0.3749	0.297
Mof_O 	O 	0.8162	0.9721	0.5154	-0.206
Mof_O 	O 	0.9114	0.93766	0.6445	-0.193
Mof_O 	O 	0.3732	0.9529	0.4956	-0.208
Mof_O 	O 	0.4026	0.8888	0.3842	-0.196
Mof_O 	O 	0.4815	0.7818	0.6868	-0.524
Mof_H 	H 	0.4502	0.7803	0.7323	0.312
Mof_O 	O 	0.338	0.7103	0.6368	-0.258
Mof_U 	U 	0.76705	0.03271	0.64409	0.009
Mof_U 	U 	0.25448	0.11347	0.91291	-0.002
Mof_C 	C 	0.8281	0.0632	0.8322	0.341
Mof_C 	C 	0.6551	0.0097	0.0093	0.361
Mof_C 	C 	0.4281	0.2336	0.0303	0.475
Mof_C 	C 	0.6135	0.4311	0.9395	0.356
Mof_C 	C 	0.0692	0.4071	0.0343	0.361
Mof_C 	C 	0.0792	0.2523	0.8743	0.477
Mof_C 	C 	0.8453	0.0725	0.9334	-0.263
Mof_H 	H 	0.8518	0.0289	0.9625	0.15
Mof_H 	H 	0.9188	0.0964	0.9532	0.146
Mof_C 	C 	0.6369	0.0737	0.9572	-0.288
Mof_H 	H 	0.6044	0.0642	0.8943	0.167
Mof_H 	H 	0.5808	0.1016	0.982	0.158
Mof_C 	C 	0.4444	0.2736	0.9469	-0.331
Mof_H 	H 	0.4406	0.243	0.8962	0.17
Mof_H 	H 	0.3786	0.3045	0.9328	0.161
Mof_C 	C 	0.5578	0.3792	0.9918	-0.279
Mof_H 	H 	0.6012	0.3779	0.0533	0.162
Mof_H 	H 	0.4775	0.3932	0.995	0.156
Mof_C 	C 	0.9693	0.3764	0.9714	-0.3
Mof_H 	H 	0.8958	0.3966	0.9818	0.173
Mof_H 	H 	0.9786	0.3862	0.9094	0.175
Mof_C 	C 	0.0654	0.265	0.9718	-0.322
Mof_H 	H 	0.0616	0.2222	0.0019	0.168
Mof_H 	H 	0.1352	0.2883	0.0022	0.165
Mof_C 	C 	0.7495	0.1779	0.9602	0.187
Mof_C 	C 	0.6571	0.2763	0.961	0.183
Mof_C 	C 	0.8544	0.2734	0.9708	0.189
Mof_N 	N 	0.6467	0.2091	0.9569	-0.154
Mof_N 	N 	0.7581	0.3115	0.97	-0.146
Mof_N 	N 	0.8559	0.2066	0.9635	-0.148
Mof_N 	N 	0.7489	0.1093	0.9619	-0.045
Mof_N 	N 	0.5538	0.3115	0.9546	-0.036
Mof_N 	N 	0.9619	0.3038	0.9824	-0.032
Mof_O 	O 	0.896	0.02415	0.7977	-0.188
Mof_O 	O 	0.7446	0.093	0.7823	-0.188
Mof_O 	O 	0.6143	0.95555	0.9736	-0.218
Mof_O 	O 	0.7153	0.0092	0.0874	-0.21
Mof_O 	O 	0.3508	0.18658	0.0164	-0.244
Mof_O 	O 	0.4827	0.2481	0.104	-0.519
Mof_H 	H 	0.5225	0.2159	0.1251	0.296
Mof_O 	O 	0.6838	0.4721	0.9846	-0.206
Mof_O 	O 	0.5886	0.43766	0.8555	-0.193
Mof_O 	O 	0.1268	0.4529	0.0044	-0.208
Mof_O 	O 	0.0974	0.3888	0.1158	-0.196
Mof_O 	O 	0.0185	0.2818	0.8132	-0.524
Mof_H 	H 	0.0498	0.2803	0.7677	0.311
Mof_O 	O 	0.162	0.2103	0.8632	-0.257
Mof_U 	U 	0.26705	0.46729	0.14409	0.009
Mof_U 	U 	0.75448	0.38653	0.4129	-0.003
Mof_C 	C 	0.3281	0.4368	0.3322	0.341
Mof_C 	C 	0.1551	0.4903	0.5093	0.362
Mof_C 	C 	0.9281	0.2664	0.5303	0.476
Mof_C 	C 	0.1135	0.0689	0.4395	0.356
Mof_C 	C 	0.5692	0.0929	0.5343	0.362
Mof_C 	C 	0.5792	0.2477	0.3743	0.479
Mof_C 	C 	0.3453	0.4275	0.4334	-0.262
Mof_H 	H 	0.3518	0.4711	0.4625	0.149
Mof_H 	H 	0.4188	0.4036	0.4532	0.146
Mof_C 	C 	0.1369	0.4263	0.4572	-0.29
Mof_H 	H 	0.1044	0.4358	0.3943	0.167
Mof_H 	H 	0.0808	0.3984	0.482	0.158
Mof_C 	C 	0.9444	0.2264	0.4469	-0.332
Mof_H 	H 	0.9406	0.257	0.3962	0.171
Mof_H 	H 	0.8786	0.1955	0.4328	0.161
Mof_C 	C 	0.0578	0.1208	0.4918	-0.28
Mof_H 	H 	0.1012	0.1221	0.5533	0.162
Mof_H 	H 	0.9775	0.1068	0.495	0.156
Mof_C 	C 	0.4693	0.1236	0.4714	-0.301
Mof_H 	H 	0.3958	0.1034	0.4818	0.173
Mof_H 	H 	0.4786	0.1138	0.4094	0.175
Mof_C 	C 	0.5654	0.235	0.4718	-0.328
Mof_H 	H 	0.5616	0.2778	0.5019	0.171
Mof_H 	H 	0.6352	0.2117	0.5022	0.168
Mof_C 	C 	0.2495	0.3221	0.4602	0.186
Mof_C 	C 	0.1571	0.2237	0.461	0.182
Mof_C 	C 	0.3544	0.2266	0.4708	0.189
Mof_N 	N 	0.1467	0.2909	0.4569	-0.154
Mof_N 	N 	0.2581	0.1885	0.47	-0.146
Mof_N 	N 	0.3559	0.2934	0.4635	-0.148
Mof_N 	N 	0.2489	0.3907	0.4619	-0.045
Mof_N 	N 	0.0538	0.1885	0.4546	-0.036
Mof_N 	N 	0.4619	0.1962	0.4824	-0.031
Mof_O 	O 	0.396	0.47585	0.2977	-0.188
Mof_O 	O 	0.2446	0.407	0.2823	-0.188
Mof_O 	O 	0.1143	0.54445	0.4736	-0.218
Mof_O 	O 	0.2153	0.4908	0.5874	-0.209
Mof_O 	O 	0.8508	0.31342	0.5164	-0.244
Mof_O 	O 	0.9827	0.2519	0.604	-0.519
Mof_H 	H 	0.0225	0.2841	0.6251	0.297
Mof_O 	O 	0.1838	0.0279	0.4846	-0.206
Mof_O 	O 	0.0886	0.06234	0.3555	-0.193
Mof_O 	O 	0.6268	0.0471	0.5044	-0.208
Mof_O 	O 	0.5974	0.1112	0.6158	-0.196
Mof_O 	O 	0.5185	0.2182	0.3132	-0.524
Mof_H 	H 	0.5498	0.2197	0.2677	0.312
Mof_O 	O 	0.662	0.2897	0.3632	-0.258
Mof_U 	U 	0.23295	0.96729	0.35591	0.009
Mof_U 	U 	0.74552	0.88653	0.0871	-0.002
Mof_C 	C 	0.1719	0.9368	0.1678	0.341
Mof_C 	C 	0.3449	0.9903	0.9907	0.361
Mof_C 	C 	0.5719	0.7664	0.9697	0.475
Mof_C 	C 	0.3865	0.5689	0.0605	0.356
Mof_C 	C 	0.9308	0.5929	0.9657	0.361
Mof_C 	C 	0.9208	0.7477	0.1257	0.477
Mof_C 	C 	0.1547	0.9275	0.0666	-0.263
Mof_H 	H 	0.1482	0.9711	0.0375	0.15
Mof_H 	H 	0.0812	0.9036	0.0468	0.146
Mof_C 	C 	0.3631	0.9263	0.0428	-0.288
Mof_H 	H 	0.3956	0.9358	0.1057	0.167
Mof_H 	H 	0.4192	0.8984	0.018	0.158
Mof_C 	C 	0.5556	0.7264	0.0531	-0.331
Mof_H 	H 	0.5594	0.757	0.1038	0.17
Mof_H 	H 	0.6214	0.6955	0.0672	0.161
Mof_C 	C 	0.4422	0.6208	0.0082	-0.279
Mof_H 	H 	0.3988	0.6221	0.9467	0.162
Mof_H 	H 	0.5225	0.6068	0.005	0.156
Mof_C 	C 	0.0307	0.6236	0.0286	-0.3
Mof_H 	H 	0.1042	0.6034	0.0182	0.173
Mof_H 	H 	0.0214	0.6138	0.0906	0.175
Mof_C 	C 	0.9346	0.735	0.0282	-0.322
Mof_H 	H 	0.9384	0.7778	0.9981	0.168
Mof_H 	H 	0.8648	0.7117	0.9978	0.165
Mof_C 	C 	0.2505	0.8221	0.0398	0.187
Mof_C 	C 	0.3429	0.7237	0.039	0.183
Mof_C 	C 	0.1456	0.7266	0.0292	0.189
Mof_N 	N 	0.3533	0.7909	0.0431	-0.154
Mof_N 	N 	0.2419	0.6885	0.03	-0.146
Mof_N 	N 	0.1441	0.7934	0.0365	-0.148
Mof_N 	N 	0.2511	0.8907	0.0381	-0.045
Mof_N 	N 	0.4462	0.6885	0.0454	-0.036
Mof_N 	N 	0.0381	0.6962	0.0176	-0.032
Mof_O 	O 	0.104	0.97585	0.2023	-0.188
Mof_O 	O 	0.2554	0.907	0.2177	-0.188
Mof_O 	O 	0.3857	0.04445	0.0264	-0.218
Mof_O 	O 	0.2847	0.9908	0.9126	-0.21
Mof_O 	O 	0.6492	0.81342	0.9836	-0.244
Mof_O 	O 	0.5173	0.7519	0.896	-0.519
Mof_H 	H 	0.4775	0.7841	0.8749	0.296
Mof_O 	O 	0.3162	0.5279	0.0154	-0.206
Mof_O 	O 	0.4114	0.56234	0.1445	-0.193
Mof_O 	O 	0.8732	0.5471	0.9956	-0.208
Mof_O 	O 	0.9026	0.6112	0.8842	-0.196
Mof_O 	O 	0.9815	0.7182	0.1868	-0.524
Mof_H 	H 	0.9502	0.7197	0.2323	0.311
Mof_O 	O 	0.838	0.7897	0.1368	-0.257
_end
