data_functionalizedCrystal
_audit_creation_method	'EQeq! by Chris Wilmer'
_symmetry_space_group_name_H-M	'P1'
_symmetry_Int_Tables_number	1
_symmetry_cell_setting	triclinic
loop_
_symmetry_equiv_pos_as_xyz
  x,y,z
_cell_length_a	19.75
_cell_length_b	22.1947
_cell_length_c	11.6334
_cell_angle_alpha	90
_cell_angle_beta	116.797
_cell_angle_gamma	90
loop_
_atom_site_label
_atom_site_type_symbol
_atom_site_fract_x
_atom_site_fract_y
_atom_site_fract_z
_atom_site_charge
Mof_Ni	Ni	0.1873	0.12067	0.88351	1.102
Mof_O 	O 	0.18829	0.12079	0.699	-0.351
Mof_O 	O 	0.26629	0.177	0.8602	-0.363
Mof_O 	O 	0.26418	0.05031	0.935	-0.336
Mof_O 	O 	0.11417	0.05005	0.8597	-0.351
Mof_N 	N 	0.21753	0.13819	0.0728	-0.242
Mof_N 	N 	0.3591	0.20858	0.5277	-0.121
Mof_N 	N 	0.59612	0.32094	0.8119	-0.233
Mof_C 	C 	0.1722	0.129	0.1282	0.088
Mof_H 	H 	0.1239	0.1137	0.0783	-0.003
Mof_C 	C 	0.194	0.1412	0.2567	-0.143
Mof_H 	H 	0.1606	0.1343	0.2914	0.085
Mof_C 	C 	0.2666	0.1641	0.3343	0.077
Mof_C 	C 	0.3124	0.1743	0.2749	-0.139
Mof_H 	H 	0.3607	0.1904	0.3214	0.094
Mof_C 	C 	0.2861	0.1604	0.1461	0.09
Mof_H 	H 	0.3182	0.167	0.1085	0
Mof_C 	C 	0.2938	0.178	0.4725	0.057
Mof_C 	C 	0.2545	0.1596	0.5408	-0.078
Mof_H 	H 	0.2093	0.1382	0.5002	0.073
Mof_C 	C 	0.2843	0.1741	0.6702	-0.004
Mof_C 	C 	0.3525	0.2047	0.7284	-0.08
Mof_H 	H 	0.3739	0.2142	0.8155	0.073
Mof_C 	C 	0.3889	0.2211	0.6541	0.054
Mof_C 	C 	0.4612	0.2543	0.7095	0.069
Mof_C 	C 	0.5197	0.2417	0.8304	-0.141
Mof_H 	H 	0.5144	0.2108	0.88	0.084
Mof_C 	C 	0.5854	0.275	0.8765	0.082
Mof_H 	H 	0.6244	0.2651	0.9567	0.001
Mof_C 	C 	0.5396	0.3333	0.6941	0.078
Mof_H 	H 	0.546	0.3649	0.6475	0.008
Mof_C 	C 	0.4726	0.301	0.6395	-0.135
Mof_H 	H 	0.4355	0.3103	0.5571	0.092
Mof_C 	C 	0.2436	0.15593	0.7477	0.274
Mof_Ni	Ni	0.6873	0.62067	0.88351	1.101
Mof_O 	O 	0.68829	0.62079	0.699	-0.35
Mof_O 	O 	0.76629	0.677	0.8602	-0.363
Mof_O 	O 	0.76418	0.55031	0.935	-0.337
Mof_O 	O 	0.61417	0.55005	0.8597	-0.352
Mof_N 	N 	0.71753	0.63819	0.0728	-0.241
Mof_N 	N 	0.8591	0.70858	0.5277	-0.121
Mof_N 	N 	0.09612	0.82094	0.8119	-0.233
Mof_C 	C 	0.6722	0.629	0.1282	0.089
Mof_H 	H 	0.6239	0.6137	0.0783	-0.001
Mof_C 	C 	0.694	0.6412	0.2567	-0.142
Mof_H 	H 	0.6606	0.6343	0.2914	0.087
Mof_C 	C 	0.7666	0.6641	0.3343	0.078
Mof_C 	C 	0.8124	0.6743	0.2749	-0.138
Mof_H 	H 	0.8607	0.6904	0.3214	0.095
Mof_C 	C 	0.7861	0.6604	0.1461	0.091
Mof_H 	H 	0.8182	0.667	0.1085	0.001
Mof_C 	C 	0.7938	0.678	0.4725	0.058
Mof_C 	C 	0.7545	0.6596	0.5408	-0.078
Mof_H 	H 	0.7093	0.6382	0.5002	0.074
Mof_C 	C 	0.7843	0.6741	0.6702	-0.002
Mof_C 	C 	0.8525	0.7047	0.7284	-0.08
Mof_H 	H 	0.8739	0.7142	0.8155	0.074
Mof_C 	C 	0.8889	0.7211	0.6541	0.055
Mof_C 	C 	0.9612	0.7543	0.7095	0.07
Mof_C 	C 	0.0197	0.7417	0.8304	-0.141
Mof_H 	H 	0.0144	0.7108	0.88	0.085
Mof_C 	C 	0.0854	0.775	0.8765	0.083
Mof_H 	H 	0.1244	0.7651	0.9567	0
Mof_C 	C 	0.0396	0.8333	0.6941	0.078
Mof_H 	H 	0.046	0.8649	0.6475	0.01
Mof_C 	C 	0.9726	0.801	0.6395	-0.134
Mof_H 	H 	0.9355	0.8103	0.5571	0.092
Mof_C 	C 	0.7436	0.65593	0.7477	0.274
Mof_Ni	Ni	0.1873	0.87933	0.88351	1.101
Mof_O 	O 	0.18829	0.87921	0.699	-0.346
Mof_O 	O 	0.26629	0.823	0.8602	-0.362
Mof_O 	O 	0.26418	0.94969	0.935	-0.315
Mof_O 	O 	0.11417	0.94995	0.8597	-0.331
Mof_N 	N 	0.21753	0.86181	0.0728	-0.241
Mof_N 	N 	0.3591	0.79142	0.5277	-0.12
Mof_N 	N 	0.59612	0.67906	0.8119	-0.233
Mof_C 	C 	0.1722	0.871	0.1282	0.091
Mof_H 	H 	0.1239	0.8863	0.0783	0.001
Mof_C 	C 	0.194	0.8588	0.2567	-0.14
Mof_H 	H 	0.1606	0.8657	0.2914	0.089
Mof_C 	C 	0.2666	0.8359	0.3343	0.079
Mof_C 	C 	0.3124	0.8257	0.2749	-0.138
Mof_H 	H 	0.3607	0.8096	0.3214	0.096
Mof_C 	C 	0.2861	0.8396	0.1461	0.092
Mof_H 	H 	0.3182	0.833	0.1085	0.001
Mof_C 	C 	0.2938	0.822	0.4725	0.06
Mof_C 	C 	0.2545	0.8404	0.5408	-0.078
Mof_H 	H 	0.2093	0.8618	0.5002	0.077
Mof_C 	C 	0.2843	0.8259	0.6702	-0
Mof_C 	C 	0.3525	0.7953	0.7284	-0.08
Mof_H 	H 	0.3739	0.7858	0.8155	0.075
Mof_C 	C 	0.3889	0.7789	0.6541	0.056
Mof_C 	C 	0.4612	0.7457	0.7095	0.07
Mof_C 	C 	0.5197	0.7583	0.8304	-0.141
Mof_H 	H 	0.5144	0.7892	0.88	0.086
Mof_C 	C 	0.5854	0.725	0.8765	0.083
Mof_H 	H 	0.6244	0.7349	0.9567	0.001
Mof_C 	C 	0.5396	0.6667	0.6941	0.079
Mof_H 	H 	0.546	0.6351	0.6475	0.008
Mof_C 	C 	0.4726	0.699	0.6395	-0.135
Mof_H 	H 	0.4355	0.6897	0.5571	0.092
Mof_C 	C 	0.2436	0.84407	0.7477	0.274
Mof_Ni	Ni	0.6873	0.37933	0.88351	1.101
Mof_O 	O 	0.68829	0.37921	0.699	-0.35
Mof_O 	O 	0.76629	0.323	0.8602	-0.362
Mof_O 	O 	0.76418	0.44969	0.935	-0.337
Mof_O 	O 	0.61417	0.44995	0.8597	-0.352
Mof_N 	N 	0.71753	0.36181	0.0728	-0.241
Mof_N 	N 	0.8591	0.29142	0.5277	-0.121
Mof_N 	N 	0.09612	0.17906	0.8119	-0.234
Mof_C 	C 	0.6722	0.371	0.1282	0.089
Mof_H 	H 	0.6239	0.3863	0.0783	-0.001
Mof_C 	C 	0.694	0.3588	0.2567	-0.142
Mof_H 	H 	0.6606	0.3657	0.2914	0.087
Mof_C 	C 	0.7666	0.3359	0.3343	0.078
Mof_C 	C 	0.8124	0.3257	0.2749	-0.138
Mof_H 	H 	0.8607	0.3096	0.3214	0.095
Mof_C 	C 	0.7861	0.3396	0.1461	0.091
Mof_H 	H 	0.8182	0.333	0.1085	0.001
Mof_C 	C 	0.7938	0.322	0.4725	0.058
Mof_C 	C 	0.7545	0.3404	0.5408	-0.078
Mof_H 	H 	0.7093	0.3618	0.5002	0.075
Mof_C 	C 	0.7843	0.3259	0.6702	-0.002
Mof_C 	C 	0.8525	0.2953	0.7284	-0.08
Mof_H 	H 	0.8739	0.2858	0.8155	0.074
Mof_C 	C 	0.8889	0.2789	0.6541	0.055
Mof_C 	C 	0.9612	0.2457	0.7095	0.07
Mof_C 	C 	0.0197	0.2583	0.8304	-0.142
Mof_H 	H 	0.0144	0.2892	0.88	0.085
Mof_C 	C 	0.0854	0.225	0.8765	0.083
Mof_H 	H 	0.1244	0.2349	0.9567	0.001
Mof_C 	C 	0.0396	0.1667	0.6941	0.078
Mof_H 	H 	0.046	0.1351	0.6475	0.006
Mof_C 	C 	0.9726	0.199	0.6395	-0.136
Mof_H 	H 	0.9355	0.1897	0.5571	0.091
Mof_C 	C 	0.7436	0.34407	0.7477	0.274
Mof_C 	C 	0.1461	-5.54582e-33	0.8758	0.197
Mof_C 	C 	0.2332	0	0.9195	0.194
Mof_C 	C 	0.6461	0.5	0.8758	0.221
Mof_C 	C 	0.7332	0.5	0.9195	0.219
Mof_Ni	Ni	0.8127	0.12067	0.11649	1.101
Mof_O 	O 	0.81171	0.12079	0.301	-0.352
Mof_O 	O 	0.73371	0.177	0.1398	-0.363
Mof_O 	O 	0.73582	0.05031	0.065	-0.336
Mof_O 	O 	0.88583	0.05005	0.1403	-0.351
Mof_N 	N 	0.78247	0.13819	0.9272	-0.242
Mof_N 	N 	0.6409	0.20858	0.4723	-0.121
Mof_N 	N 	0.40388	0.32094	0.1881	-0.233
Mof_C 	C 	0.8278	0.129	0.8718	0.088
Mof_H 	H 	0.8761	0.1137	0.9217	-0.003
Mof_C 	C 	0.806	0.1412	0.7433	-0.143
Mof_H 	H 	0.8394	0.1343	0.7086	0.085
Mof_C 	C 	0.7334	0.1641	0.6657	0.077
Mof_C 	C 	0.6876	0.1743	0.7251	-0.139
Mof_H 	H 	0.6393	0.1904	0.6786	0.094
Mof_C 	C 	0.7139	0.1604	0.8539	0.09
Mof_H 	H 	0.6818	0.167	0.8915	0
Mof_C 	C 	0.7062	0.178	0.5275	0.057
Mof_C 	C 	0.7455	0.1596	0.4592	-0.078
Mof_H 	H 	0.7907	0.1382	0.4998	0.073
Mof_C 	C 	0.7157	0.1741	0.3298	-0.004
Mof_C 	C 	0.6475	0.2047	0.2716	-0.08
Mof_H 	H 	0.6261	0.2142	0.1845	0.073
Mof_C 	C 	0.6111	0.2211	0.3459	0.054
Mof_C 	C 	0.5388	0.2543	0.2905	0.069
Mof_C 	C 	0.4803	0.2417	0.1696	-0.141
Mof_H 	H 	0.4856	0.2108	0.12	0.084
Mof_C 	C 	0.4146	0.275	0.1235	0.082
Mof_H 	H 	0.3756	0.2651	0.0433	0.001
Mof_C 	C 	0.4604	0.3333	0.3059	0.078
Mof_H 	H 	0.454	0.3649	0.3525	0.008
Mof_C 	C 	0.5274	0.301	0.3605	-0.135
Mof_H 	H 	0.5645	0.3103	0.4429	0.092
Mof_C 	C 	0.7564	0.15593	0.2523	0.274
Mof_Ni	Ni	0.3127	0.62067	0.11649	1.101
Mof_O 	O 	0.31171	0.62079	0.301	-0.35
Mof_O 	O 	0.23371	0.677	0.1398	-0.363
Mof_O 	O 	0.23582	0.55031	0.065	-0.337
Mof_O 	O 	0.38583	0.55005	0.1403	-0.352
Mof_N 	N 	0.28247	0.63819	0.9272	-0.241
Mof_N 	N 	0.1409	0.70858	0.4723	-0.121
Mof_N 	N 	0.90388	0.82094	0.1881	-0.233
Mof_C 	C 	0.3278	0.629	0.8718	0.089
Mof_H 	H 	0.3761	0.6137	0.9217	-0.001
Mof_C 	C 	0.306	0.6412	0.7433	-0.142
Mof_H 	H 	0.3394	0.6343	0.7086	0.087
Mof_C 	C 	0.2334	0.6641	0.6657	0.078
Mof_C 	C 	0.1876	0.6743	0.7251	-0.138
Mof_H 	H 	0.1393	0.6904	0.6786	0.095
Mof_C 	C 	0.2139	0.6604	0.8539	0.091
Mof_H 	H 	0.1818	0.667	0.8915	0.001
Mof_C 	C 	0.2062	0.678	0.5275	0.058
Mof_C 	C 	0.2455	0.6596	0.4592	-0.078
Mof_H 	H 	0.2907	0.6382	0.4998	0.074
Mof_C 	C 	0.2157	0.6741	0.3298	-0.002
Mof_C 	C 	0.1475	0.7047	0.2716	-0.08
Mof_H 	H 	0.1261	0.7142	0.1845	0.074
Mof_C 	C 	0.1111	0.7211	0.3459	0.055
Mof_C 	C 	0.0388	0.7543	0.2905	0.07
Mof_C 	C 	0.9803	0.7417	0.1696	-0.141
Mof_H 	H 	0.9856	0.7108	0.12	0.085
Mof_C 	C 	0.9146	0.775	0.1235	0.083
Mof_H 	H 	0.8756	0.7651	0.0433	0
Mof_C 	C 	0.9604	0.8333	0.3059	0.078
Mof_H 	H 	0.954	0.8649	0.3525	0.01
Mof_C 	C 	0.0274	0.801	0.3605	-0.134
Mof_H 	H 	0.0645	0.8103	0.4429	0.092
Mof_C 	C 	0.2564	0.65593	0.2523	0.274
Mof_Ni	Ni	0.8127	0.87933	0.11649	1.101
Mof_O 	O 	0.81171	0.87921	0.301	-0.346
Mof_O 	O 	0.73371	0.823	0.1398	-0.362
Mof_O 	O 	0.73582	0.94969	0.065	-0.315
Mof_O 	O 	0.88583	0.94995	0.1403	-0.331
Mof_N 	N 	0.78247	0.86181	0.9272	-0.241
Mof_N 	N 	0.6409	0.79142	0.4723	-0.12
Mof_N 	N 	0.40388	0.67906	0.1881	-0.233
Mof_C 	C 	0.8278	0.871	0.8718	0.091
Mof_H 	H 	0.8761	0.8863	0.9217	0.001
Mof_C 	C 	0.806	0.8588	0.7433	-0.14
Mof_H 	H 	0.8394	0.8657	0.7086	0.089
Mof_C 	C 	0.7334	0.8359	0.6657	0.079
Mof_C 	C 	0.6876	0.8257	0.7251	-0.138
Mof_H 	H 	0.6393	0.8096	0.6786	0.096
Mof_C 	C 	0.7139	0.8396	0.8539	0.092
Mof_H 	H 	0.6818	0.833	0.8915	0.001
Mof_C 	C 	0.7062	0.822	0.5275	0.06
Mof_C 	C 	0.7455	0.8404	0.4592	-0.078
Mof_H 	H 	0.7907	0.8618	0.4998	0.077
Mof_C 	C 	0.7157	0.8259	0.3298	-0
Mof_C 	C 	0.6475	0.7953	0.2716	-0.08
Mof_H 	H 	0.6261	0.7858	0.1845	0.075
Mof_C 	C 	0.6111	0.7789	0.3459	0.056
Mof_C 	C 	0.5388	0.7457	0.2905	0.07
Mof_C 	C 	0.4803	0.7583	0.1696	-0.141
Mof_H 	H 	0.4856	0.7892	0.12	0.086
Mof_C 	C 	0.4146	0.725	0.1235	0.083
Mof_H 	H 	0.3756	0.7349	0.0433	0.001
Mof_C 	C 	0.4604	0.6667	0.3059	0.079
Mof_H 	H 	0.454	0.6351	0.3525	0.008
Mof_C 	C 	0.5274	0.699	0.3605	-0.135
Mof_H 	H 	0.5645	0.6897	0.4429	0.092
Mof_C 	C 	0.7564	0.84407	0.2523	0.274
Mof_Ni	Ni	0.3127	0.37933	0.11649	1.101
Mof_O 	O 	0.31171	0.37921	0.301	-0.35
Mof_O 	O 	0.23371	0.323	0.1398	-0.362
Mof_O 	O 	0.23582	0.44969	0.065	-0.337
Mof_O 	O 	0.38583	0.44995	0.1403	-0.352
Mof_N 	N 	0.28247	0.36181	0.9272	-0.241
Mof_N 	N 	0.1409	0.29142	0.4723	-0.121
Mof_N 	N 	0.90388	0.17906	0.1881	-0.234
Mof_C 	C 	0.3278	0.371	0.8718	0.089
Mof_H 	H 	0.3761	0.3863	0.9217	-0.001
Mof_C 	C 	0.306	0.3588	0.7433	-0.142
Mof_H 	H 	0.3394	0.3657	0.7086	0.087
Mof_C 	C 	0.2334	0.3359	0.6657	0.078
Mof_C 	C 	0.1876	0.3257	0.7251	-0.138
Mof_H 	H 	0.1393	0.3096	0.6786	0.095
Mof_C 	C 	0.2139	0.3396	0.8539	0.091
Mof_H 	H 	0.1818	0.333	0.8915	0.001
Mof_C 	C 	0.2062	0.322	0.5275	0.058
Mof_C 	C 	0.2455	0.3404	0.4592	-0.078
Mof_H 	H 	0.2907	0.3618	0.4998	0.075
Mof_C 	C 	0.2157	0.3259	0.3298	-0.002
Mof_C 	C 	0.1475	0.2953	0.2716	-0.08
Mof_H 	H 	0.1261	0.2858	0.1845	0.074
Mof_C 	C 	0.1111	0.2789	0.3459	0.055
Mof_C 	C 	0.0388	0.2457	0.2905	0.07
Mof_C 	C 	0.9803	0.2583	0.1696	-0.142
Mof_H 	H 	0.9856	0.2892	0.12	0.085
Mof_C 	C 	0.9146	0.225	0.1235	0.083
Mof_H 	H 	0.8756	0.2349	0.0433	0.001
Mof_C 	C 	0.9604	0.1667	0.3059	0.078
Mof_H 	H 	0.954	0.1351	0.3525	0.006
Mof_C 	C 	0.0274	0.199	0.3605	-0.136
Mof_H 	H 	0.0645	0.1897	0.4429	0.091
Mof_C 	C 	0.2564	0.34407	0.2523	0.274
Mof_C 	C 	0.8539	0	0.1242	0.197
Mof_C 	C 	0.7668	0	0.0805	0.194
Mof_C 	C 	0.3539	0.5	0.1242	0.221
Mof_C 	C 	0.2668	0.5	0.0805	0.219
_end
