data_functionalizedCrystal
_audit_creation_method	'EQeq! by Chris Wilmer'
_symmetry_space_group_name_H-M	'P1'
_symmetry_Int_Tables_number	1
_symmetry_cell_setting	triclinic
loop_
_symmetry_equiv_pos_as_xyz
  x,y,z
_cell_length_a	7.753
_cell_length_b	10.458
_cell_length_c	11.2386
_cell_angle_alpha	62.2721
_cell_angle_beta	85.3336
_cell_angle_gamma	79.9299
loop_
_atom_site_label
_atom_site_type_symbol
_atom_site_fract_x
_atom_site_fract_y
_atom_site_fract_z
_atom_site_charge
Mof_Zn	Zn	0.1124	0.60011	-0	1.169
Mof_Zn	Zn	0.8876	0.39989	-0	1.169
Mof_H 	H 	0.7716	0.1459	0.4268	0.075
Mof_H 	H 	0.8997	0.9718	0.6204	0.051
Mof_H 	H 	0.4934	0.7471	0.7222	0.088
Mof_H 	H 	0.2284	0.4273	0.4268	0.068
Mof_H 	H 	0.1003	0.4078	0.6204	0.056
Mof_H 	H 	0.5066	0.5307	0.7222	0.091
Mof_H 	H 	0.2284	0.8541	0.5732	0.075
Mof_H 	H 	0.1003	0.0282	0.3796	0.034
Mof_H 	H 	0.5066	0.2529	0.2778	0.057
Mof_H 	H 	0.7716	0.5727	0.5732	0.082
Mof_H 	H 	0.8997	0.5922	0.3796	0.03
Mof_H 	H 	0.4934	0.4693	0.2778	0.054
Mof_H 	H 	0.0361	0.9032	-0	-0.005
Mof_H 	H 	0.1973	0.0715	-0	0.042
Mof_H 	H 	0.6462	0.8096	-0	0.046
Mof_H 	H 	0.4851	0.6413	-0	-0.02
Mof_H 	H 	0.9639	0.0968	-0	-0.014
Mof_H 	H 	0.8027	0.9285	-0	0.066
Mof_H 	H 	0.3538	0.1904	-0	0.046
Mof_H 	H 	0.5149	0.3587	-0	-0.02
Mof_C 	C 	0.5393	0.063	0.453	0.022
Mof_C 	C 	0.7124	0.0685	0.4852	-0.098
Mof_C 	C 	0.7892	0.9626	0.599	0.039
Mof_C 	C 	0.5476	0.8273	0.6628	-0.037
Mof_C 	C 	0.715	0.8376	0.6894	-0.06
Mof_C 	C 	0.807	0.7154	0.8092	0.375
Mof_C 	C 	0.4607	0.484	0.453	0.019
Mof_C 	C 	0.2876	0.4463	0.4852	-0.072
Mof_C 	C 	0.2108	0.4384	0.599	0.013
Mof_C 	C 	0.4524	0.5099	0.6628	-0.045
Mof_C 	C 	0.285	0.473	0.6894	-0.051
Mof_C 	C 	0.193	0.4754	0.8092	0.371
Mof_C 	C 	0.4607	0.937	0.547	0.053
Mof_C 	C 	0.2876	0.9315	0.5148	-0.084
Mof_C 	C 	0.2108	0.0374	0.401	0.022
Mof_C 	C 	0.4524	0.1727	0.3372	-0.025
Mof_C 	C 	0.285	0.1624	0.3106	-0.1
Mof_C 	C 	0.193	0.2846	0.1908	0.395
Mof_C 	C 	0.5393	0.516	0.547	0.056
Mof_C 	C 	0.7124	0.5537	0.5148	-0.107
Mof_C 	C 	0.7892	0.5616	0.401	0.047
Mof_C 	C 	0.5476	0.4901	0.3372	-0.016
Mof_C 	C 	0.715	0.527	0.3106	-0.109
Mof_C 	C 	0.807	0.5246	0.1908	0.399
Mof_C 	C 	0.1592	0.8843	-0	0.025
Mof_C 	C 	0.2553	0.9848	-0	-0.1
Mof_C 	C 	0.4373	0.9568	-0	0.03
Mof_C 	C 	0.5231	0.8285	-0	-0.114
Mof_C 	C 	0.427	0.7281	-0	0.016
Mof_C 	C 	0.8408	0.1157	-0	0.04
Mof_C 	C 	0.7447	0.0152	-0	-0.14
Mof_C 	C 	0.5627	0.0432	-0	0.031
Mof_C 	C 	0.4769	0.1715	-0	-0.119
Mof_C 	C 	0.573	0.2719	-0	0.018
Mof_N 	N 	0.245	0.756	-0	-0.256
Mof_N 	N 	0.755	0.244	-0	-0.259
Mof_O 	O 	0.9329	0.7414	0.8538	-0.361
Mof_O 	O 	0.7608	0.5916	0.8594	-0.369
Mof_O 	O 	0.0671	0.4048	0.8538	-0.362
Mof_O 	O 	0.2392	0.549	0.8594	-0.368
Mof_O 	O 	0.0671	0.2586	0.1462	-0.486
Mof_O 	O 	0.2392	0.4084	0.1406	-0.493
Mof_O 	O 	0.9329	0.5952	0.1462	-0.486
Mof_O 	O 	0.7608	0.451	0.1406	-0.494
_end
