# CIF file generated by openbabel 3.1.0, see https://openbabel.org
data_I
_chemical_name_common 'ICAGOK_clean'
_cell_length_a 15.2793
_cell_length_b 19.3066
_cell_length_c 20.7718
_cell_angle_alpha 90
_cell_angle_beta 99.01
_cell_angle_gamma 90
_space_group_name_H-M_alt 'P 1'
_space_group_name_Hall 'P 1'
loop_
    _symmetry_equiv_pos_as_xyz
    x,y,z
loop_
    _atom_site_label
    _atom_site_type_symbol
    _atom_site_fract_x
    _atom_site_fract_y
    _atom_site_fract_z
    _atom_site_occupancy
    Cu1      Cu       0.67891    0.53711    0.76301    1.000
    Cu2      Cu       0.54312    0.45931    0.83146    1.000
    Cu3      Cu       0.67891    0.96289    0.26301    1.000
    Cu4      Cu       0.54312    0.04069    0.33146    1.000
    H1       H        0.63470    0.94170    0.11510    1.000
    H2       H        0.64530    0.86180    0.03600    1.000
    H3       H        0.69320    0.71800    0.17520    1.000
    H4       H        0.70130    0.79970    0.24860    1.000
    H5       H        0.65410    0.79350    0.96690    1.000
    H6       H        0.65700    0.71430    0.88490    1.000
    H7       H        0.64620    0.56350    0.00810    1.000
    H8       H        0.67520    0.63960    0.10040    1.000
    H9       H        0.84130    0.61560    0.80420    1.000
    H10      H        0.99650    0.60610    0.82030    1.000
    H11      H        0.96170    0.40870    0.76620    1.000
    H12      H        0.81150    0.42360    0.75680    1.000
    H13      H        0.12090    0.57670    0.86750    1.000
    H14      H        0.27020    0.56600    0.88570    1.000
    H15      H        0.25380    0.40340    0.76400    1.000
    H16      H        0.09700    0.41420    0.74630    1.000
    H17      H        0.55590    0.04600    0.47290    1.000
    H18      H        0.57380    0.12280    0.55660    1.000
    H19      H        0.56740    0.27560    0.42650    1.000
    H20      H        0.55860    0.19430    0.34580    1.000
    H21      H        0.53390    0.20440    0.62120    1.000
    H22      H        0.55760    0.28100    0.70550    1.000
    H23      H        0.66790    0.41170    0.59460    1.000
    H24      H        0.64620    0.33270    0.50940    1.000
    H25      H        0.63470    0.55830    0.61510    1.000
    H26      H        0.64530    0.63820    0.53600    1.000
    H27      H        0.69320    0.78200    0.67520    1.000
    H28      H        0.70130    0.70030    0.74860    1.000
    H29      H        0.65410    0.70650    0.46690    1.000
    H30      H        0.65700    0.78570    0.38490    1.000
    H31      H        0.64620    0.93650    0.50810    1.000
    H32      H        0.67520    0.86040    0.60040    1.000
    H33      H        0.84130    0.88440    0.30420    1.000
    H34      H        0.99650    0.89390    0.32030    1.000
    H35      H        0.96170    0.09130    0.26620    1.000
    H36      H        0.81150    0.07640    0.25680    1.000
    H37      H        0.12090    0.92330    0.36750    1.000
    H38      H        0.27020    0.93400    0.38570    1.000
    H39      H        0.25380    0.09660    0.26400    1.000
    H40      H        0.09700    0.08580    0.24630    1.000
    H41      H        0.55590    0.45400    0.97290    1.000
    H42      H        0.57380    0.37720    0.05660    1.000
    H43      H        0.56740    0.22440    0.92650    1.000
    H44      H        0.55860    0.30570    0.84580    1.000
    H45      H        0.53390    0.29560    0.12120    1.000
    H46      H        0.55760    0.21900    0.20550    1.000
    H47      H        0.66790    0.08830    0.09460    1.000
    H48      H        0.64620    0.16730    0.00940    1.000
    C1       C        0.65110    0.89650    0.12690    1.000
    C2       C        0.65310    0.84750    0.07930    1.000
    C3       C        0.66500    0.78410    0.09140    1.000
    C4       C        0.68420    0.76400    0.16270    1.000
    C5       C        0.68760    0.81200    0.20490    1.000
    C6       C        0.66600    0.72360    0.03710    1.000
    C7       C        0.65970    0.74650    0.97610    1.000
    C8       C        0.66170    0.69990    0.92800    1.000
    C9       C        0.67160    0.62540    0.94490    1.000
    C10      C        0.66090    0.60940    0.00140    1.000
    C11      C        0.66900    0.65440    0.05720    1.000
    C12      C        0.86620    0.57300    0.79690    1.000
    C13      C        0.96050    0.56820    0.80740    1.000
    C14      C        0.99570    0.50260    0.79720    1.000
    C15      C        0.93950    0.45160    0.77610    1.000
    C16      C        0.84840    0.46130    0.76860    1.000
    C17      C        0.09460    0.49570    0.80510    1.000
    C18      C        0.14760    0.54160    0.84670    1.000
    C19      C        0.23640    0.53570    0.85720    1.000
    C20      C        0.27700    0.48590    0.82650    1.000
    C21      C        0.22630    0.43830    0.78440    1.000
    C22      C        0.13210    0.44460    0.77400    1.000
    C23      C        0.38440    0.48460    0.84220    1.000
    C24      C        0.66810    0.57784    0.88759    1.000
    C25      C        0.56020    0.09283    0.46362    1.000
    C26      C        0.57000    0.13874    0.51404    1.000
    C27      C        0.57410    0.20986    0.50196    1.000
    C28      C        0.56740    0.22887    0.43740    1.000
    C29      C        0.56050    0.17983    0.38870    1.000
    C30      C        0.58800    0.25974    0.55511    1.000
    C31      C        0.56170    0.24624    0.61529    1.000
    C32      C        0.57530    0.29254    0.66599    1.000
    C33      C        0.61330    0.35339    0.65974    1.000
    C34      C        0.64080    0.36941    0.60004    1.000
    C35      C        0.62750    0.32167    0.54865    1.000
    C36      C        0.62870    0.40638    0.71355    1.000
    C37      C        0.65110    0.60350    0.62690    1.000
    C38      C        0.65310    0.65250    0.57930    1.000
    C39      C        0.66500    0.71590    0.59140    1.000
    C40      C        0.68420    0.73600    0.66270    1.000
    C41      C        0.68760    0.68800    0.70490    1.000
    C42      C        0.66600    0.77640    0.53710    1.000
    C43      C        0.65970    0.75350    0.47610    1.000
    C44      C        0.66170    0.80010    0.42800    1.000
    C45      C        0.67160    0.87460    0.44490    1.000
    C46      C        0.66090    0.89060    0.50140    1.000
    C47      C        0.66900    0.84560    0.55720    1.000
    C48      C        0.86620    0.92700    0.29690    1.000
    C49      C        0.96050    0.93180    0.30740    1.000
    C50      C        0.99570    0.99740    0.29720    1.000
    C51      C        0.93950    0.04840    0.27610    1.000
    C52      C        0.84840    0.03870    0.26860    1.000
    C53      C        0.09460    0.00430    0.30510    1.000
    C54      C        0.14760    0.95840    0.34670    1.000
    C55      C        0.23640    0.96430    0.35720    1.000
    C56      C        0.27700    0.01410    0.32650    1.000
    C57      C        0.22630    0.06170    0.28440    1.000
    C58      C        0.13210    0.05540    0.27400    1.000
    C59      C        0.38440    0.01540    0.34220    1.000
    C60      C        0.66810    0.92216    0.38759    1.000
    C61      C        0.56020    0.40717    0.96362    1.000
    C62      C        0.57000    0.36126    0.01404    1.000
    C63      C        0.57410    0.29014    0.00196    1.000
    C64      C        0.56740    0.27113    0.93740    1.000
    C65      C        0.56050    0.32017    0.88870    1.000
    C66      C        0.58800    0.24026    0.05511    1.000
    C67      C        0.56170    0.25376    0.11529    1.000
    C68      C        0.57530    0.20746    0.16599    1.000
    C69      C        0.61330    0.14661    0.15974    1.000
    C70      C        0.64080    0.13059    0.10004    1.000
    C71      C        0.62750    0.17833    0.04865    1.000
    C72      C        0.62870    0.09362    0.21355    1.000
    N1       N        0.67259    0.87978    0.19080    1.000
    N2       N        0.81211    0.52182    0.77763    1.000
    N3       N        0.54625    0.53099    0.76553    1.000
    N4       N        0.50230    0.58135    0.76231    1.000
    N5       N        0.46140    0.63000    0.75950    1.000
    N6       N        0.55658    0.11194    0.40122    1.000
    N7       N        0.67259    0.62022    0.69080    1.000
    N8       N        0.81211    0.97818    0.27763    1.000
    N9       N        0.54625    0.96901    0.26553    1.000
    N10      N        0.50230    0.91865    0.26231    1.000
    N11      N        0.46140    0.87000    0.25950    1.000
    N12      N        0.55658    0.38806    0.90122    1.000
    O1       O        0.42280    0.52120    0.88340    1.000
    O2       O        0.41540    0.44470    0.80860    1.000
    O3       O        0.68889    0.60231    0.83528    1.000
    O4       O        0.64440    0.51670    0.89505    1.000
    O5       O        0.60503    0.39076    0.76732    1.000
    O6       O        0.66492    0.46259    0.70111    1.000
    O7       O        0.42280    0.97880    0.38340    1.000
    O8       O        0.41540    0.05530    0.30860    1.000
    O9       O        0.68889    0.89769    0.33528    1.000
    O10      O        0.64440    0.98330    0.39505    1.000
    O11      O        0.60503    0.10924    0.26732    1.000
    O12      O        0.66492    0.03741    0.20111    1.000
    Cu5      Cu       0.32109    0.03711    0.73699    1.000
    Cu6      Cu       0.45688    0.95931    0.66854    1.000
    Cu7      Cu       0.32109    0.46289    0.23699    1.000
    Cu8      Cu       0.45688    0.54069    0.16854    1.000
    H49      H        0.36530    0.44170    0.38490    1.000
    H50      H        0.35470    0.36180    0.46400    1.000
    H51      H        0.30680    0.21800    0.32480    1.000
    H52      H        0.29870    0.29970    0.25140    1.000
    H53      H        0.34590    0.29350    0.53310    1.000
    H54      H        0.34300    0.21430    0.61510    1.000
    H55      H        0.35380    0.06350    0.49190    1.000
    H56      H        0.32480    0.13960    0.39960    1.000
    H57      H        0.15870    0.11560    0.69580    1.000
    H58      H        0.00350    0.10610    0.67970    1.000
    H59      H        0.03830    0.90870    0.73380    1.000
    H60      H        0.18850    0.92360    0.74320    1.000
    H61      H        0.87910    0.07670    0.63250    1.000
    H62      H        0.72980    0.06600    0.61430    1.000
    H63      H        0.74620    0.90340    0.73600    1.000
    H64      H        0.90300    0.91420    0.75370    1.000
    H65      H        0.44410    0.54600    0.02710    1.000
    H66      H        0.42620    0.62280    0.94340    1.000
    H67      H        0.43260    0.77560    0.07350    1.000
    H68      H        0.44140    0.69430    0.15420    1.000
    H69      H        0.46610    0.70440    0.87880    1.000
    H70      H        0.44240    0.78100    0.79450    1.000
    H71      H        0.33210    0.91170    0.90540    1.000
    H72      H        0.35380    0.83270    0.99060    1.000
    H73      H        0.36530    0.05830    0.88490    1.000
    H74      H        0.35470    0.13820    0.96400    1.000
    H75      H        0.30680    0.28200    0.82480    1.000
    H76      H        0.29870    0.20030    0.75140    1.000
    H77      H        0.34590    0.20650    0.03310    1.000
    H78      H        0.34300    0.28570    0.11510    1.000
    H79      H        0.35380    0.43650    0.99190    1.000
    H80      H        0.32480    0.36040    0.89960    1.000
    H81      H        0.15870    0.38440    0.19580    1.000
    H82      H        0.00350    0.39390    0.17970    1.000
    H83      H        0.03830    0.59130    0.23380    1.000
    H84      H        0.18850    0.57640    0.24320    1.000
    H85      H        0.87910    0.42330    0.13250    1.000
    H86      H        0.72980    0.43400    0.11430    1.000
    H87      H        0.74620    0.59660    0.23600    1.000
    H88      H        0.90300    0.58580    0.25370    1.000
    H89      H        0.44410    0.95400    0.52710    1.000
    H90      H        0.42620    0.87720    0.44340    1.000
    H91      H        0.43260    0.72440    0.57350    1.000
    H92      H        0.44140    0.80570    0.65420    1.000
    H93      H        0.46610    0.79560    0.37880    1.000
    H94      H        0.44240    0.71900    0.29450    1.000
    H95      H        0.33210    0.58830    0.40540    1.000
    H96      H        0.35380    0.66730    0.49060    1.000
    C73      C        0.34890    0.39650    0.37310    1.000
    C74      C        0.34690    0.34750    0.42070    1.000
    C75      C        0.33500    0.28410    0.40860    1.000
    C76      C        0.31580    0.26400    0.33730    1.000
    C77      C        0.31240    0.31200    0.29510    1.000
    C78      C        0.33400    0.22360    0.46290    1.000
    C79      C        0.34030    0.24650    0.52390    1.000
    C80      C        0.33830    0.19990    0.57200    1.000
    C81      C        0.32840    0.12540    0.55510    1.000
    C82      C        0.33910    0.10940    0.49860    1.000
    C83      C        0.33100    0.15440    0.44280    1.000
    C84      C        0.13380    0.07300    0.70310    1.000
    C85      C        0.03950    0.06820    0.69260    1.000
    C86      C        0.00430    0.00260    0.70280    1.000
    C87      C        0.06050    0.95160    0.72390    1.000
    C88      C        0.15160    0.96130    0.73140    1.000
    C89      C        0.90540    0.99570    0.69490    1.000
    C90      C        0.85240    0.04160    0.65330    1.000
    C91      C        0.76360    0.03570    0.64280    1.000
    C92      C        0.72300    0.98590    0.67350    1.000
    C93      C        0.77370    0.93830    0.71560    1.000
    C94      C        0.86790    0.94460    0.72600    1.000
    C95      C        0.61560    0.98460    0.65780    1.000
    C96      C        0.33190    0.07784    0.61241    1.000
    C97      C        0.43980    0.59283    0.03638    1.000
    C98      C        0.43000    0.63874    0.98596    1.000
    C99      C        0.42590    0.70986    0.99804    1.000
    C100     C        0.43260    0.72887    0.06260    1.000
    C101     C        0.43950    0.67983    0.11130    1.000
    C102     C        0.41200    0.75974    0.94489    1.000
    C103     C        0.43830    0.74624    0.88471    1.000
    C104     C        0.42470    0.79254    0.83401    1.000
    C105     C        0.38670    0.85339    0.84026    1.000
    C106     C        0.35920    0.86941    0.89996    1.000
    C107     C        0.37250    0.82167    0.95135    1.000
    C108     C        0.37130    0.90638    0.78645    1.000
    C109     C        0.34890    0.10350    0.87310    1.000
    C110     C        0.34690    0.15250    0.92070    1.000
    C111     C        0.33500    0.21590    0.90860    1.000
    C112     C        0.31580    0.23600    0.83730    1.000
    C113     C        0.31240    0.18800    0.79510    1.000
    C114     C        0.33400    0.27640    0.96290    1.000
    C115     C        0.34030    0.25350    0.02390    1.000
    C116     C        0.33830    0.30010    0.07200    1.000
    C117     C        0.32840    0.37460    0.05510    1.000
    C118     C        0.33910    0.39060    0.99860    1.000
    C119     C        0.33100    0.34560    0.94280    1.000
    C120     C        0.13380    0.42700    0.20310    1.000
    C121     C        0.03950    0.43180    0.19260    1.000
    C122     C        0.00430    0.49740    0.20280    1.000
    C123     C        0.06050    0.54840    0.22390    1.000
    C124     C        0.15160    0.53870    0.23140    1.000
    C125     C        0.90540    0.50430    0.19490    1.000
    C126     C        0.85240    0.45840    0.15330    1.000
    C127     C        0.76360    0.46430    0.14280    1.000
    C128     C        0.72300    0.51410    0.17350    1.000
    C129     C        0.77370    0.56170    0.21560    1.000
    C130     C        0.86790    0.55540    0.22600    1.000
    C131     C        0.61560    0.51540    0.15780    1.000
    C132     C        0.33190    0.42216    0.11241    1.000
    C133     C        0.43980    0.90717    0.53638    1.000
    C134     C        0.43000    0.86126    0.48596    1.000
    C135     C        0.42590    0.79014    0.49804    1.000
    C136     C        0.43260    0.77113    0.56260    1.000
    C137     C        0.43950    0.82017    0.61130    1.000
    C138     C        0.41200    0.74026    0.44489    1.000
    C139     C        0.43830    0.75376    0.38471    1.000
    C140     C        0.42470    0.70746    0.33401    1.000
    C141     C        0.38670    0.64661    0.34026    1.000
    C142     C        0.35920    0.63059    0.39996    1.000
    C143     C        0.37250    0.67833    0.45135    1.000
    C144     C        0.37130    0.59362    0.28645    1.000
    N13      N        0.32741    0.37978    0.30920    1.000
    N14      N        0.18789    0.02182    0.72237    1.000
    N15      N        0.45375    0.03099    0.73447    1.000
    N16      N        0.49770    0.08135    0.73769    1.000
    N17      N        0.53860    0.13000    0.74050    1.000
    N18      N        0.44342    0.61194    0.09878    1.000
    N19      N        0.32741    0.12022    0.80920    1.000
    N20      N        0.18789    0.47818    0.22237    1.000
    N21      N        0.45375    0.46901    0.23447    1.000
    N22      N        0.49770    0.41865    0.23769    1.000
    N23      N        0.53860    0.37000    0.24050    1.000
    N24      N        0.44342    0.88806    0.59878    1.000
    O13      O        0.57720    0.02120    0.61660    1.000
    O14      O        0.58460    0.94470    0.69140    1.000
    O15      O        0.31111    0.10231    0.66472    1.000
    O16      O        0.35560    0.01670    0.60495    1.000
    O17      O        0.39497    0.89076    0.73268    1.000
    O18      O        0.33508    0.96259    0.79889    1.000
    O19      O        0.57720    0.47880    0.11660    1.000
    O20      O        0.58460    0.55530    0.19140    1.000
    O21      O        0.31111    0.39769    0.16472    1.000
    O22      O        0.35560    0.48330    0.10495    1.000
    O23      O        0.39497    0.60924    0.23268    1.000
    O24      O        0.33508    0.53741    0.29889    1.000
