# CIF file generated by openbabel 3.1.0, see https://openbabel.org
data_I
_chemical_name_common 'WAYMEQ_clean_h'
_cell_length_a 16.7807
_cell_length_b 6.6125
_cell_length_c 12.7143
_cell_angle_alpha 90
_cell_angle_beta 90
_cell_angle_gamma 90
_space_group_name_H-M_alt 'P 1'
_space_group_name_Hall 'P 1'
loop_
    _symmetry_equiv_pos_as_xyz
    x,y,z
loop_
    _atom_site_label
    _atom_site_type_symbol
    _atom_site_fract_x
    _atom_site_fract_y
    _atom_site_fract_z
    _atom_site_occupancy
    C1       C        0.29530    0.19800    0.98650    1.000
    C2       C        0.21810    0.19820    0.04760    1.000
    O3       O        0.42380    0.84860    0.84780    1.000
    O4       O        0.58820    0.33770    0.66520    1.000
    H5       H        0.32449    0.34723    0.96344    1.000
    H6       H        0.18901    0.34758    0.07062    1.000
    H7       H        0.50000    0.50000    0.88655    1.000
    H8       H        0.50000    0.00000    0.61405    1.000
    C9       C        0.79530    0.69800    0.48650    1.000
    C10      C        0.71810    0.69820    0.54760    1.000
    O11      O        0.92380    0.34860    0.34780    1.000
    O12      O        0.08820    0.83770    0.16520    1.000
    H13      H        0.82449    0.84723    0.46344    1.000
    H14      H        0.68901    0.84758    0.57062    1.000
    H15      H        0.00000    0.00000    0.38655    1.000
    H16      H        0.00000    0.50000    0.11405    1.000
    C17      C        0.70470    0.80200    0.98650    1.000
    C18      C        0.78190    0.80180    0.04760    1.000
    O19      O        0.57620    0.15140    0.84780    1.000
    O20      O        0.41180    0.66230    0.66520    1.000
    H21      H        0.67551    0.65277    0.96344    1.000
    H22      H        0.81099    0.65242    0.07062    1.000
    C25      C        0.20470    0.30200    0.48650    1.000
    C26      C        0.28190    0.30180    0.54760    1.000
    O27      O        0.07620    0.65140    0.34780    1.000
    O28      O        0.91180    0.16230    0.16520    1.000
    H29      H        0.17551    0.15277    0.46344    1.000
    H30      H        0.31099    0.15242    0.57062    1.000
    C33      C        0.29530    0.80200    0.98650    1.000
    C34      C        0.21810    0.80180    0.04760    1.000
    O35      O        0.42380    0.15140    0.84780    1.000
    O36      O        0.58820    0.66230    0.66520    1.000
    H37      H        0.32449    0.65277    0.96344    1.000
    H38      H        0.18901    0.65242    0.07062    1.000
    C41      C        0.79530    0.30200    0.48650    1.000
    C42      C        0.71810    0.30180    0.54760    1.000
    O43      O        0.92380    0.65140    0.34780    1.000
    O44      O        0.08820    0.16230    0.16520    1.000
    H45      H        0.82449    0.15277    0.46344    1.000
    H46      H        0.68901    0.15242    0.57062    1.000
    C49      C        0.70470    0.19800    0.98650    1.000
    C50      C        0.78190    0.19820    0.04760    1.000
    O51      O        0.57620    0.84860    0.84780    1.000
    O52      O        0.41180    0.33770    0.66520    1.000
    H53      H        0.67551    0.34723    0.96344    1.000
    H54      H        0.81099    0.34758    0.07062    1.000
    C57      C        0.20470    0.69800    0.48650    1.000
    C58      C        0.28190    0.69820    0.54760    1.000
    O59      O        0.07620    0.34860    0.34780    1.000
    O60      O        0.91180    0.83770    0.16520    1.000
    H61      H        0.17551    0.84723    0.46344    1.000
    H62      H        0.31099    0.84758    0.57062    1.000
    Al65     Al       0.50000    0.75000    0.75000    1.000
    Al66     Al       0.00000    0.25000    0.25000    1.000
    Al67     Al       0.50000    0.25000    0.75000    1.000
    Al68     Al       0.00000    0.75000    0.25000    1.000
    C69      C        0.19460    0.00000    0.06620    1.000
    C70      C        0.31860    0.00000    0.96800    1.000
    C71      C        0.38600    0.00000    0.89180    1.000
    C72      C        0.69460    0.50000    0.56620    1.000
    C73      C        0.81860    0.50000    0.46800    1.000
    C74      C        0.88600    0.50000    0.39180    1.000
    C75      C        0.80540    0.00000    0.06620    1.000
    C76      C        0.68140    0.00000    0.96800    1.000
    C77      C        0.61400    0.00000    0.89180    1.000
    C78      C        0.30540    0.50000    0.56620    1.000
    C79      C        0.18140    0.50000    0.46800    1.000
    C80      C        0.11400    0.50000    0.39180    1.000
    C81      C        0.62110    0.50000    0.63120    1.000
    C82      C        0.12110    0.00000    0.13120    1.000
    C83      C        0.37890    0.50000    0.63120    1.000
    C84      C        0.87890    0.00000    0.13120    1.000
    O85      O        0.50000    0.50000    0.80790    1.000
    O86      O        0.00000    0.00000    0.30790    1.000
    O87      O        0.50000    0.00000    0.69270    1.000
    O88      O        0.00000    0.50000    0.19270    1.000
