data_functionalizedCrystal
_audit_creation_method	'EQeq! by Chris Wilmer'
_symmetry_space_group_name_H-M	'P1'
_symmetry_Int_Tables_number	1
_symmetry_cell_setting	triclinic
loop_
_symmetry_equiv_pos_as_xyz
  x,y,z
_cell_length_a	15.88
_cell_length_b	15.88
_cell_length_c	21.505
_cell_angle_alpha	90
_cell_angle_beta	90
_cell_angle_gamma	90
loop_
_atom_site_label
_atom_site_type_symbol
_atom_site_fract_x
_atom_site_fract_y
_atom_site_fract_z
_atom_site_charge
Mof_Cd	Cd	0.44115	0.55885	0.25	0.384
Mof_Cd	Cd	0.55885	0.44115	0.75	0.384
Mof_Cd	Cd	0.94115	0.94115	0.5	0.383
Mof_Cd	Cd	0.05885	0.05885	-0	0.385
Mof_H 	H 	0.7683	0.86	0.4611	0.014
Mof_H 	H 	0.7107	0.7586	0.3967	0.084
Mof_H 	H 	0.9108	0.7853	0.2825	0.085
Mof_H 	H 	0.9597	0.8893	0.349	0.03
Mof_H 	H 	0.6949	0.6387	0.3626	0.078
Mof_H 	H 	0.7004	0.4933	0.2088	0.082
Mof_H 	H 	0.7977	0.5858	0.1644	0.038
Mof_H 	H 	0.8483	0.7002	0.2201	0.065
Mof_H 	H 	0.4504	0.3754	0.4585	0.067
Mof_H 	H 	0.4306	0.2628	0.5268	0.054
Mof_H 	H 	0.5329	0.159	0.5368	0.059
Mof_H 	H 	0.6743	0.2761	0.408	0.08
Mof_H 	H 	0.6512	0.0992	0.5642	0.08
Mof_H 	H 	0.763	0.0089	0.575	0.012
Mof_H 	H 	0.8404	0.0586	0.407	0.016
Mof_H 	H 	0.7317	0.1532	0.3917	0.095
Mof_H 	H 	0.7543	0.4735	0.394	0.127
Mof_H 	H 	0.7585	0.3977	0.3542	0.144
Mof_H 	H 	0.2317	0.14	0.9611	0.014
Mof_H 	H 	0.2893	0.2414	0.8967	0.085
Mof_H 	H 	0.0892	0.2147	0.7825	0.086
Mof_H 	H 	0.0403	0.1107	0.849	0.03
Mof_H 	H 	0.3051	0.3613	0.8626	0.078
Mof_H 	H 	0.2996	0.5067	0.7088	0.082
Mof_H 	H 	0.2023	0.4142	0.6644	0.038
Mof_H 	H 	0.1517	0.2998	0.7201	0.065
Mof_H 	H 	0.5496	0.6246	0.9585	0.068
Mof_H 	H 	0.5694	0.7372	0.0268	0.052
Mof_H 	H 	0.4671	0.841	0.0368	0.059
Mof_H 	H 	0.3257	0.7239	0.908	0.08
Mof_H 	H 	0.3488	0.9008	0.0642	0.079
Mof_H 	H 	0.237	0.9911	0.075	0.012
Mof_H 	H 	0.1596	0.9414	0.907	0.016
Mof_H 	H 	0.2683	0.8468	0.8917	0.094
Mof_H 	H 	0.2457	0.5265	0.894	0.126
Mof_H 	H 	0.2415	0.6023	0.8542	0.144
Mof_H 	H 	0.64	0.2683	0.7111	0.015
Mof_H 	H 	0.7414	0.2107	0.6467	0.085
Mof_H 	H 	0.7147	0.4108	0.5325	0.086
Mof_H 	H 	0.6107	0.4597	0.599	0.03
Mof_H 	H 	0.8613	0.1949	0.6126	0.078
Mof_H 	H 	0.0067	0.2004	0.4588	0.081
Mof_H 	H 	0.9142	0.2977	0.4144	0.038
Mof_H 	H 	0.7998	0.3483	0.4701	0.065
Mof_H 	H 	0.1246	0.9504	0.7085	0.067
Mof_H 	H 	0.2372	0.9306	0.7768	0.054
Mof_H 	H 	0.341	0.0329	0.7868	0.059
Mof_H 	H 	0.2239	0.1743	0.658	0.079
Mof_H 	H 	0.4008	0.1512	0.8142	0.08
Mof_H 	H 	0.4911	0.263	0.825	0.011
Mof_H 	H 	0.4414	0.3404	0.657	0.015
Mof_H 	H 	0.3468	0.2317	0.6417	0.095
Mof_H 	H 	0.0265	0.2543	0.644	0.126
Mof_H 	H 	0.1023	0.2585	0.6042	0.144
Mof_H 	H 	0.36	0.7317	0.2111	0.015
Mof_H 	H 	0.2586	0.7893	0.1467	0.085
Mof_H 	H 	0.2853	0.5892	0.0325	0.087
Mof_H 	H 	0.3893	0.5403	0.099	0.031
Mof_H 	H 	0.1387	0.8051	0.1126	0.08
Mof_H 	H 	0.9933	0.7996	0.9588	0.082
Mof_H 	H 	0.0858	0.7023	0.9144	0.036
Mof_H 	H 	0.2002	0.6517	0.9701	0.067
Mof_H 	H 	0.8754	0.0496	0.2085	0.067
Mof_H 	H 	0.7628	0.0694	0.2768	0.054
Mof_H 	H 	0.659	0.9671	0.2868	0.059
Mof_H 	H 	0.7761	0.8257	0.158	0.079
Mof_H 	H 	0.5992	0.8488	0.3142	0.08
Mof_H 	H 	0.5089	0.737	0.325	0.011
Mof_H 	H 	0.5586	0.6596	0.157	0.016
Mof_H 	H 	0.6532	0.7683	0.1417	0.095
Mof_H 	H 	0.9735	0.7457	0.144	0.127
Mof_H 	H 	0.8977	0.7415	0.1042	0.145
Mof_H 	H 	0.7317	0.36	0.7889	0.015
Mof_H 	H 	0.7893	0.2586	0.8533	0.086
Mof_H 	H 	0.5892	0.2853	0.9675	0.086
Mof_H 	H 	0.5403	0.3893	0.901	0.03
Mof_H 	H 	0.8051	0.1387	0.8874	0.076
Mof_H 	H 	0.7996	0.9933	0.0412	0.078
Mof_H 	H 	0.7023	0.0858	0.0856	0.042
Mof_H 	H 	0.6517	0.2002	0.0299	0.062
Mof_H 	H 	0.0496	0.8754	0.7915	0.067
Mof_H 	H 	0.0694	0.7628	0.7232	0.053
Mof_H 	H 	0.9671	0.659	0.7132	0.059
Mof_H 	H 	0.8257	0.7761	0.842	0.079
Mof_H 	H 	0.8488	0.5992	0.6858	0.08
Mof_H 	H 	0.737	0.5089	0.675	0.011
Mof_H 	H 	0.6596	0.5586	0.843	0.015
Mof_H 	H 	0.7683	0.6532	0.8583	0.095
Mof_H 	H 	0.7457	0.9735	0.856	0.126
Mof_H 	H 	0.7415	0.8977	0.8958	0.143
Mof_H 	H 	0.2683	0.64	0.2889	0.015
Mof_H 	H 	0.2107	0.7414	0.3533	0.085
Mof_H 	H 	0.4108	0.7147	0.4675	0.086
Mof_H 	H 	0.4597	0.6107	0.401	0.03
Mof_H 	H 	0.1949	0.8613	0.3874	0.078
Mof_H 	H 	0.2004	0.0067	0.5412	0.081
Mof_H 	H 	0.2977	0.9142	0.5856	0.038
Mof_H 	H 	0.3483	0.7998	0.5299	0.065
Mof_H 	H 	0.9504	0.1246	0.2915	0.067
Mof_H 	H 	0.9306	0.2372	0.2232	0.053
Mof_H 	H 	0.0329	0.341	0.2132	0.059
Mof_H 	H 	0.1743	0.2239	0.342	0.079
Mof_H 	H 	0.1512	0.4008	0.1858	0.08
Mof_H 	H 	0.263	0.4911	0.175	0.012
Mof_H 	H 	0.3404	0.4414	0.343	0.015
Mof_H 	H 	0.2317	0.3468	0.3583	0.095
Mof_H 	H 	0.2543	0.0265	0.356	0.126
Mof_H 	H 	0.2585	0.1023	0.3958	0.144
Mof_H 	H 	0.86	0.7683	0.5389	0.015
Mof_H 	H 	0.7586	0.7107	0.6033	0.085
Mof_H 	H 	0.7853	0.9108	0.7175	0.086
Mof_H 	H 	0.8893	0.9597	0.651	0.03
Mof_H 	H 	0.6387	0.6949	0.6374	0.078
Mof_H 	H 	0.4933	0.7004	0.7912	0.082
Mof_H 	H 	0.5858	0.7977	0.8356	0.037
Mof_H 	H 	0.7002	0.8483	0.7799	0.065
Mof_H 	H 	0.3754	0.4504	0.5415	0.067
Mof_H 	H 	0.2628	0.4306	0.4732	0.054
Mof_H 	H 	0.159	0.5329	0.4632	0.059
Mof_H 	H 	0.2761	0.6743	0.592	0.08
Mof_H 	H 	0.0992	0.6512	0.4358	0.08
Mof_H 	H 	0.0089	0.763	0.425	0.012
Mof_H 	H 	0.0586	0.8404	0.593	0.016
Mof_H 	H 	0.1532	0.7317	0.6083	0.095
Mof_H 	H 	0.4735	0.7543	0.606	0.127
Mof_H 	H 	0.3977	0.7585	0.6458	0.144
Mof_H 	H 	0.14	0.2317	0.0389	0.016
Mof_H 	H 	0.2414	0.2893	0.1033	0.085
Mof_H 	H 	0.2147	0.0892	0.2175	0.086
Mof_H 	H 	0.1107	0.0403	0.151	0.03
Mof_H 	H 	0.3613	0.3051	0.1374	0.079
Mof_H 	H 	0.5067	0.2996	0.2912	0.082
Mof_H 	H 	0.4142	0.2023	0.3356	0.038
Mof_H 	H 	0.2998	0.1517	0.2799	0.065
Mof_H 	H 	0.6246	0.5496	0.0415	0.066
Mof_H 	H 	0.7372	0.5694	0.9732	0.055
Mof_H 	H 	0.841	0.4671	0.9632	0.058
Mof_H 	H 	0.7239	0.3257	0.092	0.079
Mof_H 	H 	0.9008	0.3488	0.9358	0.081
Mof_H 	H 	0.9911	0.237	0.925	0.012
Mof_H 	H 	0.9414	0.1596	0.093	0.015
Mof_H 	H 	0.8468	0.2683	0.1083	0.095
Mof_H 	H 	0.5265	0.2457	0.106	0.127
Mof_H 	H 	0.6023	0.2415	0.1458	0.144
Mof_C 	C 	0.7984	0.8432	0.4251	0.07
Mof_C 	C 	0.7643	0.7817	0.387	-0.125
Mof_C 	C 	0.8075	0.7532	0.3347	0.062
Mof_C 	C 	0.8811	0.7975	0.3197	-0.124
Mof_C 	C 	0.91	0.8597	0.3602	0.076
Mof_C 	C 	0.7774	0.6814	0.2974	0.029
Mof_C 	C 	0.7165	0.6273	0.3223	-0.091
Mof_C 	C 	0.6871	0.5587	0.2908	0.029
Mof_C 	C 	0.7188	0.5415	0.2311	-0.077
Mof_C 	C 	0.7775	0.5959	0.2053	0.012
Mof_C 	C 	0.8072	0.6644	0.2383	-0.083
Mof_C 	C 	0.6243	0.5032	0.3207	0.108
Mof_C 	C 	0.5737	0.4071	0.3836	0.106
Mof_C 	C 	0.5656	0.3371	0.4272	0.027
Mof_C 	C 	0.4922	0.3328	0.4622	-0.067
Mof_C 	C 	0.4805	0.2659	0.5026	-0.002
Mof_C 	C 	0.5405	0.2036	0.508	-0.067
Mof_C 	C 	0.6129	0.2064	0.4708	0.019
Mof_C 	C 	0.6244	0.2732	0.4322	-0.08
Mof_C 	C 	0.6797	0.1399	0.4779	0.078
Mof_C 	C 	0.6903	0.0934	0.5311	-0.14
Mof_C 	C 	0.7569	0.0385	0.5369	0.086
Mof_C 	C 	0.8016	0.0677	0.4399	0.083
Mof_C 	C 	0.7369	0.1247	0.4304	-0.139
Mof_C 	C 	0.2016	0.1568	0.9251	0.07
Mof_C 	C 	0.2357	0.2183	0.887	-0.125
Mof_C 	C 	0.1925	0.2468	0.8347	0.062
Mof_C 	C 	0.1189	0.2025	0.8197	-0.124
Mof_C 	C 	0.09	0.1403	0.8602	0.076
Mof_C 	C 	0.2226	0.3186	0.7974	0.029
Mof_C 	C 	0.2835	0.3727	0.8223	-0.091
Mof_C 	C 	0.3129	0.4413	0.7908	0.029
Mof_C 	C 	0.2812	0.4585	0.7311	-0.077
Mof_C 	C 	0.2225	0.4041	0.7053	0.012
Mof_C 	C 	0.1928	0.3356	0.7383	-0.083
Mof_C 	C 	0.3757	0.4968	0.8207	0.108
Mof_C 	C 	0.4263	0.5929	0.8836	0.105
Mof_C 	C 	0.4344	0.6629	0.9272	0.029
Mof_C 	C 	0.5078	0.6672	0.9622	-0.073
Mof_C 	C 	0.5195	0.7341	0.0026	0.004
Mof_C 	C 	0.4595	0.7964	0.008	-0.065
Mof_C 	C 	0.3871	0.7936	0.9708	0.017
Mof_C 	C 	0.3756	0.7268	0.9322	-0.081
Mof_C 	C 	0.3203	0.8601	0.9779	0.074
Mof_C 	C 	0.3097	0.9066	0.0311	-0.135
Mof_C 	C 	0.2431	0.9615	0.0369	0.087
Mof_C 	C 	0.1984	0.9323	0.9399	0.081
Mof_C 	C 	0.2631	0.8753	0.9304	-0.138
Mof_C 	C 	0.6568	0.2984	0.6751	0.07
Mof_C 	C 	0.7183	0.2643	0.637	-0.125
Mof_C 	C 	0.7468	0.3075	0.5847	0.063
Mof_C 	C 	0.7025	0.3811	0.5697	-0.124
Mof_C 	C 	0.6403	0.41	0.6102	0.076
Mof_C 	C 	0.8186	0.2774	0.5474	0.028
Mof_C 	C 	0.8727	0.2165	0.5723	-0.09
Mof_C 	C 	0.9413	0.1871	0.5408	0.028
Mof_C 	C 	0.9585	0.2188	0.4811	-0.074
Mof_C 	C 	0.9041	0.2775	0.4553	0.01
Mof_C 	C 	0.8356	0.3072	0.4883	-0.082
Mof_C 	C 	0.9968	0.1243	0.5707	0.109
Mof_C 	C 	0.0929	0.0737	0.6336	0.106
Mof_C 	C 	0.1629	0.0656	0.6772	0.026
Mof_C 	C 	0.1672	0.9922	0.7122	-0.065
Mof_C 	C 	0.2341	0.9805	0.7526	-0.001
Mof_C 	C 	0.2964	0.0405	0.758	-0.067
Mof_C 	C 	0.2936	0.1129	0.7208	0.019
Mof_C 	C 	0.2268	0.1244	0.6822	-0.079
Mof_C 	C 	0.3601	0.1797	0.7279	0.078
Mof_C 	C 	0.4066	0.1903	0.7811	-0.14
Mof_C 	C 	0.4615	0.2569	0.7869	0.086
Mof_C 	C 	0.4323	0.3016	0.6899	0.083
Mof_C 	C 	0.3753	0.2369	0.6804	-0.14
Mof_C 	C 	0.3432	0.7016	0.1751	0.069
Mof_C 	C 	0.2817	0.7357	0.137	-0.123
Mof_C 	C 	0.2532	0.6925	0.0847	0.06
Mof_C 	C 	0.2975	0.6189	0.0697	-0.122
Mof_C 	C 	0.3597	0.59	0.1102	0.075
Mof_C 	C 	0.1814	0.7226	0.0474	0.037
Mof_C 	C 	0.1273	0.7835	0.0723	-0.096
Mof_C 	C 	0.0587	0.8129	0.0408	0.035
Mof_C 	C 	0.0415	0.7812	0.9811	-0.082
Mof_C 	C 	0.0959	0.7225	0.9553	0.017
Mof_C 	C 	0.1644	0.6928	0.9883	-0.092
Mof_C 	C 	0.0032	0.8757	0.0707	0.108
Mof_C 	C 	0.9071	0.9263	0.1336	0.106
Mof_C 	C 	0.8371	0.9344	0.1772	0.026
Mof_C 	C 	0.8328	0.0078	0.2122	-0.066
Mof_C 	C 	0.7659	0.0195	0.2526	-0.001
Mof_C 	C 	0.7036	0.9595	0.258	-0.067
Mof_C 	C 	0.7064	0.8871	0.2208	0.019
Mof_C 	C 	0.7732	0.8756	0.1822	-0.08
Mof_C 	C 	0.6399	0.8203	0.2279	0.078
Mof_C 	C 	0.5934	0.8097	0.2811	-0.14
Mof_C 	C 	0.5385	0.7431	0.2869	0.086
Mof_C 	C 	0.5677	0.6984	0.1899	0.083
Mof_C 	C 	0.6247	0.7631	0.1804	-0.14
Mof_C 	C 	0.7016	0.3432	0.8249	0.071
Mof_C 	C 	0.7357	0.2817	0.863	-0.128
Mof_C 	C 	0.6925	0.2532	0.9153	0.067
Mof_C 	C 	0.6189	0.2975	0.9303	-0.126
Mof_C 	C 	0.59	0.3597	0.8898	0.077
Mof_C 	C 	0.7226	0.1814	0.9526	0.018
Mof_C 	C 	0.7835	0.1273	0.9277	-0.082
Mof_C 	C 	0.8129	0.0587	0.9592	0.018
Mof_C 	C 	0.7812	0.0415	0.0189	-0.063
Mof_C 	C 	0.7225	0.0959	0.0447	0.001
Mof_C 	C 	0.6928	0.1644	0.0117	-0.069
Mof_C 	C 	0.8757	0.0032	0.9293	0.112
Mof_C 	C 	0.9263	0.9071	0.8664	0.106
Mof_C 	C 	0.9344	0.8371	0.8228	0.025
Mof_C 	C 	0.0078	0.8328	0.7878	-0.065
Mof_C 	C 	0.0195	0.7659	0.7474	-0.001
Mof_C 	C 	0.9595	0.7036	0.742	-0.068
Mof_C 	C 	0.8871	0.7064	0.7792	0.019
Mof_C 	C 	0.8756	0.7732	0.8178	-0.079
Mof_C 	C 	0.8203	0.6399	0.7721	0.078
Mof_C 	C 	0.8097	0.5934	0.7189	-0.14
Mof_C 	C 	0.7431	0.5385	0.7131	0.086
Mof_C 	C 	0.6984	0.5677	0.8101	0.083
Mof_C 	C 	0.7631	0.6247	0.8196	-0.14
Mof_C 	C 	0.2984	0.6568	0.3249	0.07
Mof_C 	C 	0.2643	0.7183	0.363	-0.125
Mof_C 	C 	0.3075	0.7468	0.4153	0.063
Mof_C 	C 	0.3811	0.7025	0.4303	-0.124
Mof_C 	C 	0.41	0.6403	0.3898	0.076
Mof_C 	C 	0.2774	0.8186	0.4526	0.028
Mof_C 	C 	0.2165	0.8727	0.4277	-0.09
Mof_C 	C 	0.1871	0.9413	0.4592	0.028
Mof_C 	C 	0.2188	0.9585	0.5189	-0.074
Mof_C 	C 	0.2775	0.9041	0.5447	0.01
Mof_C 	C 	0.3072	0.8356	0.5117	-0.081
Mof_C 	C 	0.1243	0.9968	0.4293	0.11
Mof_C 	C 	0.0737	0.0929	0.3664	0.106
Mof_C 	C 	0.0656	0.1629	0.3228	0.026
Mof_C 	C 	0.9922	0.1672	0.2878	-0.065
Mof_C 	C 	0.9805	0.2341	0.2474	-0.001
Mof_C 	C 	0.0405	0.2964	0.242	-0.068
Mof_C 	C 	0.1129	0.2936	0.2792	0.019
Mof_C 	C 	0.1244	0.2268	0.3178	-0.08
Mof_C 	C 	0.1797	0.3601	0.2721	0.078
Mof_C 	C 	0.1903	0.4066	0.2189	-0.14
Mof_C 	C 	0.2569	0.4615	0.2131	0.086
Mof_C 	C 	0.3016	0.4323	0.3101	0.083
Mof_C 	C 	0.2369	0.3753	0.3196	-0.14
Mof_C 	C 	0.8432	0.7984	0.5749	0.07
Mof_C 	C 	0.7817	0.7643	0.613	-0.125
Mof_C 	C 	0.7532	0.8075	0.6653	0.062
Mof_C 	C 	0.7975	0.8811	0.6803	-0.124
Mof_C 	C 	0.8597	0.91	0.6398	0.075
Mof_C 	C 	0.6814	0.7774	0.7026	0.029
Mof_C 	C 	0.6273	0.7165	0.6777	-0.091
Mof_C 	C 	0.5587	0.6871	0.7092	0.029
Mof_C 	C 	0.5415	0.7188	0.7689	-0.077
Mof_C 	C 	0.5959	0.7775	0.7947	0.012
Mof_C 	C 	0.6644	0.8072	0.7617	-0.083
Mof_C 	C 	0.5032	0.6243	0.6793	0.108
Mof_C 	C 	0.4071	0.5737	0.6164	0.106
Mof_C 	C 	0.3371	0.5656	0.5728	0.027
Mof_C 	C 	0.3328	0.4922	0.5378	-0.067
Mof_C 	C 	0.2659	0.4805	0.4974	-0.002
Mof_C 	C 	0.2036	0.5405	0.492	-0.067
Mof_C 	C 	0.2064	0.6129	0.5292	0.019
Mof_C 	C 	0.2732	0.6244	0.5678	-0.08
Mof_C 	C 	0.1399	0.6797	0.5221	0.078
Mof_C 	C 	0.0934	0.6903	0.4689	-0.14
Mof_C 	C 	0.0385	0.7569	0.4631	0.086
Mof_C 	C 	0.0677	0.8016	0.5601	0.083
Mof_C 	C 	0.1247	0.7369	0.5696	-0.139
Mof_C 	C 	0.1568	0.2016	0.0749	0.07
Mof_C 	C 	0.2183	0.2357	0.113	-0.125
Mof_C 	C 	0.2468	0.1925	0.1653	0.062
Mof_C 	C 	0.2025	0.1189	0.1803	-0.124
Mof_C 	C 	0.1403	0.09	0.1398	0.076
Mof_C 	C 	0.3186	0.2226	0.2026	0.029
Mof_C 	C 	0.3727	0.2835	0.1777	-0.091
Mof_C 	C 	0.4413	0.3129	0.2092	0.029
Mof_C 	C 	0.4585	0.2812	0.2689	-0.077
Mof_C 	C 	0.4041	0.2225	0.2947	0.012
Mof_C 	C 	0.3356	0.1928	0.2617	-0.083
Mof_C 	C 	0.4968	0.3757	0.1793	0.108
Mof_C 	C 	0.5929	0.4263	0.1164	0.107
Mof_C 	C 	0.6629	0.4344	0.0728	0.025
Mof_C 	C 	0.6672	0.5078	0.0378	-0.06
Mof_C 	C 	0.7341	0.5195	0.9974	-0.008
Mof_C 	C 	0.7964	0.4595	0.992	-0.068
Mof_C 	C 	0.7936	0.3871	0.0292	0.021
Mof_C 	C 	0.7268	0.3756	0.0678	-0.078
Mof_C 	C 	0.8601	0.3203	0.0221	0.083
Mof_C 	C 	0.9066	0.3097	0.9689	-0.145
Mof_C 	C 	0.9615	0.2431	0.9631	0.083
Mof_C 	C 	0.9323	0.1984	0.0601	0.085
Mof_C 	C 	0.8753	0.2631	0.0696	-0.141
Mof_N 	N 	0.8734	0.8801	0.4125	-0.151
Mof_N 	N 	0.5436	0.5062	0.3173	-0.116
Mof_N 	N 	0.5102	0.4447	0.3561	-0.098
Mof_N 	N 	0.6472	0.4433	0.3621	-0.097
Mof_N 	N 	0.7283	0.4243	0.3839	-0.216
Mof_N 	N 	0.8129	0.0246	0.4928	-0.152
Mof_N 	N 	0.1266	0.1199	0.9125	-0.152
Mof_N 	N 	0.4564	0.4938	0.8173	-0.116
Mof_N 	N 	0.4898	0.5553	0.8561	-0.098
Mof_N 	N 	0.3528	0.5567	0.8621	-0.097
Mof_N 	N 	0.2717	0.5757	0.8839	-0.217
Mof_N 	N 	0.1871	0.9754	0.9928	-0.155
Mof_N 	N 	0.6199	0.3734	0.6625	-0.151
Mof_N 	N 	0.9938	0.0436	0.5673	-0.115
Mof_N 	N 	0.0553	0.0102	0.6061	-0.099
Mof_N 	N 	0.0567	0.1472	0.6121	-0.097
Mof_N 	N 	0.0757	0.2283	0.6339	-0.216
Mof_N 	N 	0.4754	0.3129	0.7428	-0.153
Mof_N 	N 	0.3801	0.6266	0.1625	-0.151
Mof_N 	N 	0.0062	0.9564	0.0673	-0.115
Mof_N 	N 	0.9447	0.9898	0.1061	-0.099
Mof_N 	N 	0.9433	0.8528	0.1121	-0.097
Mof_N 	N 	0.9243	0.7717	0.1339	-0.217
Mof_N 	N 	0.5246	0.6871	0.2428	-0.153
Mof_N 	N 	0.6266	0.3801	0.8375	-0.151
Mof_N 	N 	0.9564	0.0062	0.9327	-0.117
Mof_N 	N 	0.9898	0.9447	0.8939	-0.099
Mof_N 	N 	0.8528	0.9433	0.8879	-0.098
Mof_N 	N 	0.7717	0.9243	0.8661	-0.216
Mof_N 	N 	0.6871	0.5246	0.7572	-0.153
Mof_N 	N 	0.3734	0.6199	0.3375	-0.151
Mof_N 	N 	0.0436	0.9938	0.4327	-0.115
Mof_N 	N 	0.0102	0.0553	0.3939	-0.099
Mof_N 	N 	0.1472	0.0567	0.3879	-0.098
Mof_N 	N 	0.2283	0.0757	0.3661	-0.216
Mof_N 	N 	0.3129	0.4754	0.2572	-0.153
Mof_N 	N 	0.8801	0.8734	0.5875	-0.151
Mof_N 	N 	0.5062	0.5436	0.6827	-0.116
Mof_N 	N 	0.4447	0.5102	0.6439	-0.098
Mof_N 	N 	0.4433	0.6472	0.6379	-0.097
Mof_N 	N 	0.4243	0.7283	0.6161	-0.216
Mof_N 	N 	0.0246	0.8129	0.5072	-0.152
Mof_N 	N 	0.1199	0.1266	0.0875	-0.151
Mof_N 	N 	0.4938	0.4564	0.1827	-0.116
Mof_N 	N 	0.5553	0.4898	0.1439	-0.098
Mof_N 	N 	0.5567	0.3528	0.1379	-0.097
Mof_N 	N 	0.5757	0.2717	0.1161	-0.216
Mof_N 	N 	0.9754	0.1871	0.0072	-0.15
Mof_Cl	Cl	0.88066	0.11934	0.75	-0.386
Mof_O 	O 	0.8958	0.1875	0.7779	0.005
Mof_O 	O 	0.8792	0.0662	0.7869	0.045
Mof_O 	O 	0.8125	0.1042	0.7221	0.005
Mof_O 	O 	0.9338	0.1208	0.7131	0.045
Mof_Cl	Cl	0.11934	0.88066	0.25	-0.386
Mof_O 	O 	0.1042	0.8125	0.2779	0.005
Mof_O 	O 	0.1208	0.9338	0.2869	0.045
Mof_O 	O 	0.1875	0.8958	0.2221	0.005
Mof_O 	O 	0.0662	0.8792	0.2131	0.045
Mof_Cl	Cl	0.38066	0.38066	-0	-0.369
Mof_O 	O 	0.3125	0.3958	0.0279	0.002
Mof_O 	O 	0.4338	0.3792	0.0369	0.04
Mof_O 	O 	0.3958	0.3125	0.9721	-0.002
Mof_O 	O 	0.3792	0.4338	0.9631	0.037
Mof_Cl	Cl	0.61934	0.61934	0.5	-0.385
Mof_O 	O 	0.6875	0.6042	0.5279	0.004
Mof_O 	O 	0.5662	0.6208	0.5369	0.044
Mof_O 	O 	0.6042	0.6875	0.4721	0.004
Mof_O 	O 	0.6208	0.5662	0.4631	0.044
Mof_Cl	Cl	0.77065	0.77065	-0	-0.214
Mof_O 	O 	0.7387	0.7369	0.0516	-0.036
Mof_O 	O 	0.7058	0.851	0.0095	-0.072
Mof_O 	O 	0.7369	0.7387	0.9484	-0.039
Mof_O 	O 	0.851	0.7058	0.9905	-0.076
Mof_Cl	Cl	0.22935	0.22935	0.5	-0.221
Mof_O 	O 	0.2613	0.2631	0.5516	-0.036
Mof_O 	O 	0.2942	0.149	0.5095	-0.073
Mof_O 	O 	0.2631	0.2613	0.4484	-0.036
Mof_O 	O 	0.149	0.2942	0.4905	-0.073
Mof_Cl	Cl	0.72935	0.27065	0.25	-0.221
Mof_O 	O 	0.7631	0.2387	0.3016	-0.036
Mof_O 	O 	0.649	0.2058	0.2595	-0.072
Mof_O 	O 	0.7613	0.2369	0.1984	-0.036
Mof_O 	O 	0.7942	0.351	0.2405	-0.072
Mof_Cl	Cl	0.27065	0.72935	0.75	-0.221
Mof_O 	O 	0.2369	0.7613	0.8016	-0.035
Mof_O 	O 	0.351	0.7942	0.7595	-0.072
Mof_O 	O 	0.2387	0.7631	0.6984	-0.036
Mof_O 	O 	0.2058	0.649	0.7405	-0.072
_end
