data_functionalizedCrystal
_audit_creation_method	'EQeq! by Chris Wilmer'
_symmetry_space_group_name_H-M	'P1'
_symmetry_Int_Tables_number	1
_symmetry_cell_setting	triclinic
loop_
_symmetry_equiv_pos_as_xyz
  x,y,z
_cell_length_a	6.9041
_cell_length_b	18.7425
_cell_length_c	22.4191
_cell_angle_alpha	90
_cell_angle_beta	97.687
_cell_angle_gamma	90
loop_
_atom_site_label
_atom_site_type_symbol
_atom_site_fract_x
_atom_site_fract_y
_atom_site_fract_z
_atom_site_charge
Mof_Ag	Ag	0.85167	0.86231	0.58521	0.44
Mof_Ag	Ag	0.57372	0.94743	0.64658	0.274
Mof_Ag	Ag	0.47708	0.92574	0.50706	0.271
Mof_Ag	Ag	0.13064	0.97516	0.55742	0.151
Mof_Ag	Ag	0.91701	0.13292	0.54856	0.499
Mof_Ag	Ag	0.9118	0.03499	0.67111	0.359
Mof_C 	C 	0.752	0.971	0.5754	-0.294
Mof_C 	C 	0.7998	0.0293	0.5556	-0.27
Mof_C 	C 	0.9183	0.7275	0.5	0.12
Mof_C 	C 	0.8638	0.6481	0.4919	0.897
Mof_C 	C 	0.3412	0.8183	0.5935	0.319
Mof_C 	C 	0.361	0.7533	0.6335	-0.142
Mof_C 	C 	0.3588	0.6853	0.6076	0.093
Mof_H 	H 	0.347	0.6801	0.566	0.082
Mof_C 	C 	0.3745	0.6255	0.6448	-0.139
Mof_H 	H 	0.3697	0.5801	0.6279	0.149
Mof_C 	C 	0.3972	0.6333	0.7066	0.106
Mof_H 	H 	0.4062	0.5931	0.731	-0.03
Mof_C 	C 	0.4068	0.7014	0.7328	-0.186
Mof_C 	C 	0.3825	0.7608	0.6955	0.086
Mof_H 	H 	0.3805	0.8061	0.7123	-0.01
Mof_C 	C 	0.441	0.7071	0.8001	0.384
Mof_F 	F 	0.738	0.6279	0.5248	-0.482
Mof_F 	F 	0.02	0.6078	0.5042	-0.445
Mof_F 	F 	0.7941	0.631	0.4367	-0.462
Mof_O 	O 	0.8949	0.7534	0.5489	-0.251
Mof_O 	O 	0.9834	0.756	0.4559	-0.223
Mof_O 	O 	0.2709	0.8745	0.6145	-0.403
Mof_O 	O 	0.3985	0.8138	0.543	-0.348
Mof_O 	O 	0.4118	0.7705	0.8242	-0.427
Mof_H 	H 	0.3106	0.7881	0.807	0.265
Mof_O 	O 	0.5009	0.6562	0.8324	-0.38
Mof_Ag	Ag	0.64833	0.36231	0.91479	0.442
Mof_Ag	Ag	0.92628	0.44743	0.85342	0.275
Mof_Ag	Ag	0.02292	0.42574	0.99294	0.281
Mof_Ag	Ag	0.36936	0.47516	0.94258	0.156
Mof_Ag	Ag	0.58299	0.63292	0.95144	0.504
Mof_Ag	Ag	0.5882	0.53499	0.82889	0.357
Mof_C 	C 	0.748	0.471	0.9246	-0.295
Mof_C 	C 	0.7002	0.5293	0.9444	-0.268
Mof_C 	C 	0.5817	0.2275	-0	0.113
Mof_C 	C 	0.6362	0.1481	0.0081	0.886
Mof_C 	C 	0.1588	0.3183	0.9065	0.318
Mof_C 	C 	0.139	0.2533	0.8665	-0.141
Mof_C 	C 	0.1412	0.1853	0.8924	0.092
Mof_H 	H 	0.153	0.1801	0.934	0.083
Mof_C 	C 	0.1255	0.1255	0.8552	-0.138
Mof_H 	H 	0.1303	0.0801	0.8721	0.149
Mof_C 	C 	0.1028	0.1333	0.7934	0.106
Mof_H 	H 	0.0938	0.0931	0.769	-0.03
Mof_C 	C 	0.0932	0.2014	0.7672	-0.186
Mof_C 	C 	0.1175	0.2608	0.8045	0.085
Mof_H 	H 	0.1195	0.3061	0.7877	-0.01
Mof_C 	C 	0.059	0.2071	0.6999	0.384
Mof_F 	F 	0.762	0.1279	0.9752	-0.476
Mof_F 	F 	0.48	0.1078	0.9958	-0.437
Mof_F 	F 	0.7059	0.131	0.0633	-0.462
Mof_O 	O 	0.6051	0.2534	0.9511	-0.245
Mof_O 	O 	0.5166	0.256	0.0441	-0.223
Mof_O 	O 	0.2291	0.3745	0.8855	-0.404
Mof_O 	O 	0.1015	0.3138	0.957	-0.347
Mof_O 	O 	0.0882	0.2705	0.6758	-0.428
Mof_H 	H 	0.1894	0.2881	0.693	0.265
Mof_O 	O 	0.9991	0.1562	0.6676	-0.38
Mof_Ag	Ag	0.14833	0.13769	0.41479	0.439
Mof_Ag	Ag	0.42628	0.05257	0.35342	0.273
Mof_Ag	Ag	0.52292	0.07426	0.49294	0.27
Mof_Ag	Ag	0.86936	0.02484	0.44258	0.152
Mof_Ag	Ag	0.08299	0.86708	0.45144	0.498
Mof_Ag	Ag	0.0882	0.96501	0.32889	0.359
Mof_C 	C 	0.248	0.029	0.4246	-0.294
Mof_C 	C 	0.2002	0.9707	0.4444	-0.27
Mof_C 	C 	0.0817	0.2725	0.5	0.12
Mof_C 	C 	0.1362	0.3519	0.5081	0.896
Mof_C 	C 	0.6588	0.1817	0.4065	0.319
Mof_C 	C 	0.639	0.2467	0.3665	-0.141
Mof_C 	C 	0.6412	0.3147	0.3924	0.093
Mof_H 	H 	0.653	0.3199	0.434	0.082
Mof_C 	C 	0.6255	0.3745	0.3552	-0.139
Mof_H 	H 	0.6303	0.4199	0.3721	0.149
Mof_C 	C 	0.6028	0.3667	0.2934	0.106
Mof_H 	H 	0.5938	0.4069	0.269	-0.03
Mof_C 	C 	0.5932	0.2986	0.2672	-0.186
Mof_C 	C 	0.6175	0.2392	0.3045	0.086
Mof_H 	H 	0.6195	0.1939	0.2877	-0.01
Mof_C 	C 	0.559	0.2929	0.1999	0.384
Mof_F 	F 	0.262	0.3721	0.4752	-0.482
Mof_F 	F 	0.98	0.3922	0.4958	-0.444
Mof_F 	F 	0.2059	0.369	0.5633	-0.462
Mof_O 	O 	0.1051	0.2466	0.4511	-0.252
Mof_O 	O 	0.0166	0.244	0.5441	-0.224
Mof_O 	O 	0.7291	0.1255	0.3855	-0.403
Mof_O 	O 	0.6015	0.1862	0.457	-0.348
Mof_O 	O 	0.5882	0.2295	0.1758	-0.428
Mof_H 	H 	0.6894	0.2119	0.193	0.265
Mof_O 	O 	0.4991	0.3438	0.1676	-0.38
Mof_Ag	Ag	0.35167	0.63769	0.08521	0.439
Mof_Ag	Ag	0.07372	0.55257	0.14658	0.274
Mof_Ag	Ag	0.97708	0.57426	0.00706	0.261
Mof_Ag	Ag	0.63064	0.52484	0.05742	0.147
Mof_Ag	Ag	0.41701	0.36708	0.04856	0.49
Mof_Ag	Ag	0.4118	0.46501	0.17111	0.358
Mof_C 	C 	0.252	0.529	0.0754	-0.293
Mof_C 	C 	0.2998	0.4707	0.0556	-0.273
Mof_C 	C 	0.4183	0.7725	-0	0.111
Mof_C 	C 	0.3638	0.8519	0.9919	0.907
Mof_C 	C 	0.8412	0.6817	0.0935	0.318
Mof_C 	C 	0.861	0.7467	0.1335	-0.142
Mof_C 	C 	0.8588	0.8147	0.1076	0.093
Mof_H 	H 	0.847	0.8199	0.066	0.081
Mof_C 	C 	0.8745	0.8745	0.1448	-0.139
Mof_H 	H 	0.8697	0.9199	0.1279	0.149
Mof_C 	C 	0.8972	0.8667	0.2066	0.107
Mof_H 	H 	0.9062	0.9069	0.231	-0.03
Mof_C 	C 	0.9068	0.7986	0.2328	-0.186
Mof_C 	C 	0.8825	0.7392	0.1955	0.086
Mof_H 	H 	0.8805	0.6939	0.2123	-0.01
Mof_C 	C 	0.941	0.7929	0.3001	0.385
Mof_F 	F 	0.238	0.8721	0.0248	-0.486
Mof_F 	F 	0.52	0.8922	0.0042	-0.448
Mof_F 	F 	0.2941	0.869	0.9367	-0.463
Mof_O 	O 	0.3949	0.7466	0.0489	-0.249
Mof_O 	O 	0.4834	0.744	0.9559	-0.219
Mof_O 	O 	0.7709	0.6255	0.1145	-0.403
Mof_O 	O 	0.8985	0.6862	0.043	-0.348
Mof_O 	O 	0.9118	0.7295	0.3242	-0.428
Mof_H 	H 	0.8106	0.7119	0.307	0.265
Mof_O 	O 	0.0009	0.8438	0.3324	-0.381
_end
