data_functionalizedCrystal
_audit_creation_method	'EQeq! by Chris Wilmer'
_symmetry_space_group_name_H-M	'P1'
_symmetry_Int_Tables_number	1
_symmetry_cell_setting	triclinic
loop_
_symmetry_equiv_pos_as_xyz
  x,y,z
_cell_length_a	12.3879
_cell_length_b	21.4074
_cell_length_c	27.1119
_cell_angle_alpha	90
_cell_angle_beta	90
_cell_angle_gamma	90
loop_
_atom_site_label
_atom_site_type_symbol
_atom_site_fract_x
_atom_site_fract_y
_atom_site_fract_z
_atom_site_charge
Mof_Cd	Cd	0.58995	0.58172	0.90244	0.434
Mof_Cd	Cd	0.5106	0.62703	0.61137	0.368
Mof_Cd	Cd	0.41005	0.08172	0.59756	0.434
Mof_Cd	Cd	0.4894	0.12703	0.88863	0.368
Mof_Cd	Cd	0.91005	0.08172	0.40244	0.433
Mof_Cd	Cd	0.9894	0.12703	0.11137	0.368
Mof_Cd	Cd	0.08995	0.58172	0.09756	0.434
Mof_Cd	Cd	0.0106	0.62703	0.38863	0.368
Mof_H 	H 	0.5489	0.5966	0.7262	0.013
Mof_H 	H 	0.8591	0.5695	0.7604	0.026
Mof_H 	H 	0.8974	0.5669	0.6772	0.086
Mof_H 	H 	0.7607	0.5832	0.6211	0.018
Mof_H 	H 	0.3892	0.5758	0.9806	0.039
Mof_H 	H 	0.102	0.5843	0.9135	0.03
Mof_H 	H 	0.1915	0.5851	0.839	0.079
Mof_H 	H 	0.377	0.5854	0.8372	0.022
Mof_H 	H 	0.3057	0.6094	0.5272	0.023
Mof_H 	H 	0.2205	0.7773	0.4767	0.03
Mof_H 	H 	0.3409	0.8217	0.5323	0.1
Mof_H 	H 	0.4453	0.7577	0.5804	0.015
Mof_H 	H 	0.4371	0.006	0.9546	0.029
Mof_H 	H 	0.458	0.9005	0.958	0.083
Mof_H 	H 	0.668	0.9125	0.8488	0.075
Mof_H 	H 	0.6414	0.0173	0.8474	-0.005
Mof_H 	H 	0.6971	0.8151	0.8543	0.07
Mof_H 	H 	0.7034	0.7088	0.853	0.02
Mof_H 	H 	0.4781	0.6983	0.9507	0.015
Mof_H 	H 	0.4616	0.8041	0.954	0.084
Mof_H 	H 	0.4511	0.0966	0.7738	0.012
Mof_H 	H 	0.1409	0.0695	0.7396	0.025
Mof_H 	H 	0.1026	0.0669	0.8228	0.086
Mof_H 	H 	0.2393	0.0832	0.8789	0.018
Mof_H 	H 	0.6108	0.0758	0.5194	0.039
Mof_H 	H 	0.898	0.0843	0.5865	0.03
Mof_H 	H 	0.8085	0.0851	0.661	0.079
Mof_H 	H 	0.623	0.0854	0.6628	0.022
Mof_H 	H 	0.6943	0.1094	0.9728	0.023
Mof_H 	H 	0.7795	0.2773	0.0233	0.03
Mof_H 	H 	0.6591	0.3217	0.9677	0.1
Mof_H 	H 	0.5547	0.2577	0.9196	0.015
Mof_H 	H 	0.5629	0.506	0.5454	0.029
Mof_H 	H 	0.542	0.4005	0.542	0.083
Mof_H 	H 	0.332	0.4125	0.6512	0.075
Mof_H 	H 	0.3586	0.5173	0.6526	-0.005
Mof_H 	H 	0.3029	0.3151	0.6457	0.07
Mof_H 	H 	0.2966	0.2088	0.647	0.02
Mof_H 	H 	0.5219	0.1983	0.5493	0.015
Mof_H 	H 	0.5384	0.3041	0.546	0.084
Mof_H 	H 	0.9511	0.0966	0.2262	0.012
Mof_H 	H 	0.6409	0.0695	0.2604	0.025
Mof_H 	H 	0.6026	0.0669	0.1772	0.086
Mof_H 	H 	0.7393	0.0832	0.1211	0.018
Mof_H 	H 	0.1108	0.0758	0.4806	0.04
Mof_H 	H 	0.398	0.0843	0.4135	0.03
Mof_H 	H 	0.3085	0.0851	0.339	0.079
Mof_H 	H 	0.123	0.0854	0.3372	0.022
Mof_H 	H 	0.1943	0.1094	0.0272	0.023
Mof_H 	H 	0.2795	0.2773	0.9767	0.03
Mof_H 	H 	0.1591	0.3217	0.0323	0.1
Mof_H 	H 	0.0547	0.2577	0.0804	0.015
Mof_H 	H 	0.0629	0.506	0.4546	0.029
Mof_H 	H 	0.042	0.4005	0.458	0.083
Mof_H 	H 	0.832	0.4125	0.3488	0.075
Mof_H 	H 	0.8586	0.5173	0.3474	-0.005
Mof_H 	H 	0.8029	0.3151	0.3543	0.07
Mof_H 	H 	0.7966	0.2088	0.353	0.02
Mof_H 	H 	0.0219	0.1983	0.4507	0.016
Mof_H 	H 	0.0384	0.3041	0.454	0.085
Mof_H 	H 	0.0489	0.5966	0.2738	0.012
Mof_H 	H 	0.3591	0.5695	0.2396	0.025
Mof_H 	H 	0.3974	0.5669	0.3228	0.086
Mof_H 	H 	0.2607	0.5832	0.3789	0.018
Mof_H 	H 	0.8892	0.5758	0.0194	0.039
Mof_H 	H 	0.602	0.5843	0.0865	0.03
Mof_H 	H 	0.6915	0.5851	0.161	0.08
Mof_H 	H 	0.877	0.5854	0.1628	0.022
Mof_H 	H 	0.8057	0.6094	0.4728	0.023
Mof_H 	H 	0.7205	0.7773	0.5233	0.03
Mof_H 	H 	0.8409	0.8217	0.4677	0.1
Mof_H 	H 	0.9453	0.7577	0.4196	0.015
Mof_H 	H 	0.9371	0.006	0.0454	0.028
Mof_H 	H 	0.958	0.9005	0.042	0.083
Mof_H 	H 	0.168	0.9125	0.1512	0.074
Mof_H 	H 	0.1414	0.0173	0.1526	-0.004
Mof_H 	H 	0.1971	0.8151	0.1457	0.07
Mof_H 	H 	0.2034	0.7088	0.147	0.02
Mof_H 	H 	0.9781	0.6983	0.0493	0.015
Mof_H 	H 	0.9616	0.8041	0.046	0.085
Mof_C 	C 	0.6203	0.59147	0.71641	0.078
Mof_C 	C 	0.6978	0.58273	0.75247	-0.123
Mof_C 	C 	0.8043	0.57445	0.73724	0.065
Mof_C 	C 	0.8273	0.57376	0.6881	-0.137
Mof_C 	C 	0.7443	0.58339	0.65458	0.085
Mof_C 	C 	0.6662	0.58155	0.80551	0.317
Mof_C 	C 	0.3488	0.57878	0.95177	0.068
Mof_C 	C 	0.2363	0.58106	0.95552	-0.114
Mof_C 	C 	0.177	0.58333	0.91248	0.058
Mof_C 	C 	0.2302	0.5842	0.86841	-0.128
Mof_C 	C 	0.342	0.58367	0.86753	0.075
Mof_C 	C 	0.1813	0.58112	0.00475	0.319
Mof_C 	C 	0.3143	0.65257	0.52738	0.069
Mof_C 	C 	0.2511	0.68788	0.49562	-0.118
Mof_C 	C 	0.2617	0.75216	0.49733	0.06
Mof_C 	C 	0.3339	0.77858	0.52996	-0.139
Mof_C 	C 	0.3954	0.73969	0.55908	0.081
Mof_C 	C 	0.1735	0.65779	0.45943	0.319
Mof_C 	C 	0.485	0.98705	0.93278	0.077
Mof_C 	C 	0.4969	0.92322	0.93482	-0.129
Mof_C 	C 	0.5653	0.89242	0.90317	0.063
Mof_C 	C 	0.6195	0.93018	0.87093	-0.142
Mof_C 	C 	0.6039	0.99363	0.87054	0.085
Mof_C 	C 	0.5748	0.82381	0.90276	0.055
Mof_C 	C 	0.6491	0.79244	0.87375	-0.125
Mof_C 	C 	0.653	0.72817	0.87331	0.078
Mof_C 	C 	0.5215	0.72211	0.93	0.085
Mof_C 	C 	0.5111	0.78622	0.93246	-0.13
Mof_C 	C 	0.3797	0.09147	0.78359	0.078
Mof_C 	C 	0.3022	0.08273	0.74753	-0.123
Mof_C 	C 	0.1957	0.07445	0.76276	0.065
Mof_C 	C 	0.1727	0.07376	0.8119	-0.137
Mof_C 	C 	0.2557	0.08339	0.84542	0.085
Mof_C 	C 	0.3338	0.08155	0.69449	0.317
Mof_C 	C 	0.6512	0.07878	0.54823	0.068
Mof_C 	C 	0.7637	0.08106	0.54448	-0.114
Mof_C 	C 	0.823	0.08333	0.58752	0.058
Mof_C 	C 	0.7698	0.0842	0.63159	-0.128
Mof_C 	C 	0.658	0.08367	0.63247	0.075
Mof_C 	C 	0.8187	0.08112	0.49525	0.319
Mof_C 	C 	0.6857	0.15257	0.97262	0.07
Mof_C 	C 	0.7489	0.18788	0.00438	-0.118
Mof_C 	C 	0.7383	0.25216	0.00267	0.06
Mof_C 	C 	0.6661	0.27858	0.97004	-0.139
Mof_C 	C 	0.6046	0.23969	0.94092	0.081
Mof_C 	C 	0.8265	0.15779	0.04057	0.319
Mof_C 	C 	0.515	0.48705	0.56722	0.077
Mof_C 	C 	0.5031	0.42322	0.56518	-0.129
Mof_C 	C 	0.4347	0.39242	0.59683	0.063
Mof_C 	C 	0.3805	0.43018	0.62907	-0.141
Mof_C 	C 	0.3961	0.49363	0.62946	0.085
Mof_C 	C 	0.4252	0.32381	0.59724	0.055
Mof_C 	C 	0.3509	0.29244	0.62625	-0.125
Mof_C 	C 	0.347	0.22817	0.62669	0.078
Mof_C 	C 	0.4785	0.22211	0.57	0.085
Mof_C 	C 	0.4889	0.28622	0.56754	-0.13
Mof_C 	C 	0.8797	0.09147	0.21641	0.078
Mof_C 	C 	0.8022	0.08273	0.25247	-0.123
Mof_C 	C 	0.6957	0.07445	0.23724	0.065
Mof_C 	C 	0.6727	0.07376	0.1881	-0.137
Mof_C 	C 	0.7557	0.08339	0.15458	0.085
Mof_C 	C 	0.8338	0.08155	0.30551	0.317
Mof_C 	C 	0.1512	0.07878	0.45177	0.068
Mof_C 	C 	0.2637	0.08106	0.45552	-0.114
Mof_C 	C 	0.323	0.08333	0.41248	0.058
Mof_C 	C 	0.2698	0.0842	0.36841	-0.128
Mof_C 	C 	0.158	0.08367	0.36753	0.075
Mof_C 	C 	0.3187	0.08112	0.50475	0.319
Mof_C 	C 	0.1857	0.15257	0.02738	0.07
Mof_C 	C 	0.2489	0.18788	0.99562	-0.118
Mof_C 	C 	0.2383	0.25216	0.99733	0.06
Mof_C 	C 	0.1661	0.27858	0.02996	-0.139
Mof_C 	C 	0.1046	0.23969	0.05908	0.081
Mof_C 	C 	0.3265	0.15779	0.95943	0.319
Mof_C 	C 	0.015	0.48705	0.43278	0.077
Mof_C 	C 	0.0031	0.42322	0.43482	-0.128
Mof_C 	C 	0.9347	0.39242	0.40317	0.063
Mof_C 	C 	0.8805	0.43018	0.37093	-0.141
Mof_C 	C 	0.8961	0.49363	0.37054	0.085
Mof_C 	C 	0.9252	0.32381	0.40276	0.055
Mof_C 	C 	0.8509	0.29244	0.37375	-0.125
Mof_C 	C 	0.847	0.22817	0.37331	0.078
Mof_C 	C 	0.9785	0.22211	0.43	0.085
Mof_C 	C 	0.9889	0.28622	0.43246	-0.13
Mof_C 	C 	0.1203	0.59147	0.28359	0.078
Mof_C 	C 	0.1978	0.58273	0.24753	-0.123
Mof_C 	C 	0.3043	0.57445	0.26276	0.065
Mof_C 	C 	0.3273	0.57376	0.3119	-0.137
Mof_C 	C 	0.2443	0.58339	0.34542	0.085
Mof_C 	C 	0.1662	0.58155	0.19449	0.317
Mof_C 	C 	0.8488	0.57878	0.04823	0.068
Mof_C 	C 	0.7363	0.58106	0.04448	-0.114
Mof_C 	C 	0.677	0.58333	0.08752	0.058
Mof_C 	C 	0.7302	0.5842	0.13159	-0.128
Mof_C 	C 	0.842	0.58367	0.13247	0.075
Mof_C 	C 	0.6813	0.58112	0.99525	0.319
Mof_C 	C 	0.8143	0.65257	0.47262	0.069
Mof_C 	C 	0.7511	0.68788	0.50438	-0.118
Mof_C 	C 	0.7617	0.75216	0.50267	0.06
Mof_C 	C 	0.8339	0.77858	0.47004	-0.139
Mof_C 	C 	0.8954	0.73969	0.44092	0.081
Mof_C 	C 	0.6735	0.65779	0.54057	0.319
Mof_C 	C 	0.985	0.98705	0.06722	0.078
Mof_C 	C 	0.9969	0.92322	0.06518	-0.128
Mof_C 	C 	0.0653	0.89242	0.09683	0.063
Mof_C 	C 	0.1195	0.93018	0.12907	-0.141
Mof_C 	C 	0.1039	0.99363	0.12946	0.083
Mof_C 	C 	0.0748	0.82381	0.09724	0.055
Mof_C 	C 	0.1491	0.79244	0.12625	-0.125
Mof_C 	C 	0.153	0.72817	0.12669	0.078
Mof_C 	C 	0.0215	0.72211	0.07	0.085
Mof_C 	C 	0.0111	0.78622	0.06754	-0.13
Mof_N 	N 	0.6425	0.59293	0.668	-0.155
Mof_N 	N 	0.4011	0.58075	0.90818	-0.147
Mof_N 	N 	0.387	0.67728	0.55822	-0.155
Mof_N 	N 	0.5384	0.0229	0.90132	-0.158
Mof_N 	N 	0.5883	0.6922	0.90048	-0.148
Mof_N 	N 	0.3575	0.09293	0.832	-0.155
Mof_N 	N 	0.5989	0.08075	0.59182	-0.147
Mof_N 	N 	0.613	0.17728	0.94178	-0.155
Mof_N 	N 	0.4616	0.5229	0.59868	-0.158
Mof_N 	N 	0.4117	0.1922	0.59952	-0.148
Mof_N 	N 	0.8575	0.09293	0.168	-0.155
Mof_N 	N 	0.0989	0.08075	0.40818	-0.146
Mof_N 	N 	0.113	0.17728	0.05822	-0.155
Mof_N 	N 	0.9616	0.5229	0.40132	-0.158
Mof_N 	N 	0.9117	0.1922	0.40048	-0.148
Mof_N 	N 	0.1425	0.59293	0.332	-0.155
Mof_N 	N 	0.9011	0.58075	0.09182	-0.147
Mof_N 	N 	0.887	0.67728	0.44178	-0.155
Mof_N 	N 	0.0384	0.0229	0.09868	-0.157
Mof_N 	N 	0.0883	0.6922	0.09952	-0.148
Mof_O 	O 	0.5684	0.57395	0.8162	-0.282
Mof_O 	O 	0.7368	0.58839	0.83793	-0.261
Mof_O 	O 	0.23874	0.57789	0.04309	-0.268
Mof_O 	O 	0.0824	0.58582	0.00674	-0.278
Mof_O 	O 	0.1555	0.60099	0.46308	-0.27
Mof_O 	O 	0.1323	0.69265	0.4274	-0.284
Mof_O 	O 	0.4316	0.07395	0.6838	-0.282
Mof_O 	O 	0.2632	0.08839	0.66207	-0.261
Mof_O 	O 	0.76126	0.07789	0.45691	-0.268
Mof_O 	O 	0.9176	0.08582	0.49326	-0.278
Mof_O 	O 	0.8445	0.10099	0.03692	-0.27
Mof_O 	O 	0.8677	0.19265	0.0726	-0.284
Mof_O 	O 	0.9316	0.07395	0.3162	-0.282
Mof_O 	O 	0.7632	0.08839	0.33793	-0.261
Mof_O 	O 	0.26126	0.07789	0.54309	-0.268
Mof_O 	O 	0.4176	0.08582	0.50674	-0.278
Mof_O 	O 	0.3445	0.10099	0.96308	-0.27
Mof_O 	O 	0.3677	0.19265	0.9274	-0.284
Mof_O 	O 	0.0684	0.57395	0.1838	-0.282
Mof_O 	O 	0.2368	0.58839	0.16207	-0.261
Mof_O 	O 	0.73874	0.57789	0.95691	-0.268
Mof_O 	O 	0.5824	0.58582	0.99326	-0.278
Mof_O 	O 	0.6555	0.60099	0.53692	-0.27
Mof_O 	O 	0.6323	0.69265	0.5726	-0.284
Mof_Cd	Cd	0.08995	0.91828	0.59756	0.432
Mof_Cd	Cd	0.0106	0.87297	0.88863	0.367
Mof_Cd	Cd	0.91005	0.41828	0.90244	0.433
Mof_Cd	Cd	0.9894	0.37297	0.61137	0.367
Mof_Cd	Cd	0.41005	0.41828	0.09756	0.433
Mof_Cd	Cd	0.4894	0.37297	0.38863	0.367
Mof_Cd	Cd	0.58995	0.91828	0.40244	0.433
Mof_Cd	Cd	0.5106	0.87297	0.11137	0.367
Mof_H 	H 	0.0489	0.9034	0.7738	0.012
Mof_H 	H 	0.3591	0.9305	0.7396	0.025
Mof_H 	H 	0.3974	0.9331	0.8228	0.086
Mof_H 	H 	0.2607	0.9168	0.8789	0.018
Mof_H 	H 	0.8892	0.9242	0.5194	0.04
Mof_H 	H 	0.602	0.9157	0.5865	0.03
Mof_H 	H 	0.6915	0.9149	0.661	0.079
Mof_H 	H 	0.877	0.9146	0.6628	0.022
Mof_H 	H 	0.8057	0.8906	0.9728	0.023
Mof_H 	H 	0.7205	0.7227	0.0233	0.03
Mof_H 	H 	0.8409	0.6783	0.9677	0.1
Mof_H 	H 	0.9453	0.7423	0.9196	0.015
Mof_H 	H 	0.9371	0.494	0.5454	0.029
Mof_H 	H 	0.958	0.5995	0.542	0.083
Mof_H 	H 	0.168	0.5875	0.6512	0.075
Mof_H 	H 	0.1414	0.4827	0.6526	-0.005
Mof_H 	H 	0.1971	0.6849	0.6457	0.07
Mof_H 	H 	0.2034	0.7912	0.647	0.02
Mof_H 	H 	0.9781	0.8017	0.5493	0.016
Mof_H 	H 	0.9616	0.6959	0.546	0.085
Mof_H 	H 	0.9511	0.4034	0.7262	0.012
Mof_H 	H 	0.6409	0.4305	0.7604	0.025
Mof_H 	H 	0.6026	0.4331	0.6772	0.086
Mof_H 	H 	0.7393	0.4168	0.6211	0.018
Mof_H 	H 	0.1108	0.4242	0.9806	0.039
Mof_H 	H 	0.398	0.4157	0.9135	0.03
Mof_H 	H 	0.3085	0.4149	0.839	0.08
Mof_H 	H 	0.123	0.4146	0.8372	0.022
Mof_H 	H 	0.1943	0.3906	0.5272	0.023
Mof_H 	H 	0.2795	0.2227	0.4767	0.03
Mof_H 	H 	0.1591	0.1783	0.5323	0.1
Mof_H 	H 	0.0547	0.2423	0.5804	0.015
Mof_H 	H 	0.0629	0.994	0.9546	0.028
Mof_H 	H 	0.042	0.0995	0.958	0.083
Mof_H 	H 	0.832	0.0875	0.8488	0.074
Mof_H 	H 	0.8586	0.9827	0.8474	-0.004
Mof_H 	H 	0.8029	0.1849	0.8543	0.07
Mof_H 	H 	0.7966	0.2912	0.853	0.02
Mof_H 	H 	0.0219	0.3017	0.9507	0.015
Mof_H 	H 	0.0384	0.1959	0.954	0.085
Mof_H 	H 	0.4511	0.4034	0.2738	0.012
Mof_H 	H 	0.1409	0.4305	0.2396	0.025
Mof_H 	H 	0.1026	0.4331	0.3228	0.086
Mof_H 	H 	0.2393	0.4168	0.3789	0.018
Mof_H 	H 	0.6108	0.4242	0.0194	0.039
Mof_H 	H 	0.898	0.4157	0.0865	0.03
Mof_H 	H 	0.8085	0.4149	0.161	0.079
Mof_H 	H 	0.623	0.4146	0.1628	0.022
Mof_H 	H 	0.6943	0.3906	0.4728	0.023
Mof_H 	H 	0.7795	0.2227	0.5233	0.03
Mof_H 	H 	0.6591	0.1783	0.4677	0.1
Mof_H 	H 	0.5547	0.2423	0.4196	0.015
Mof_H 	H 	0.5629	0.994	0.0454	0.029
Mof_H 	H 	0.542	0.0995	0.042	0.083
Mof_H 	H 	0.332	0.0875	0.1512	0.075
Mof_H 	H 	0.3586	0.9827	0.1526	-0.005
Mof_H 	H 	0.3029	0.1849	0.1457	0.07
Mof_H 	H 	0.2966	0.2912	0.147	0.02
Mof_H 	H 	0.5219	0.3017	0.0493	0.015
Mof_H 	H 	0.5384	0.1959	0.046	0.084
Mof_H 	H 	0.5489	0.9034	0.2262	0.012
Mof_H 	H 	0.8591	0.9305	0.2604	0.025
Mof_H 	H 	0.8974	0.9331	0.1772	0.086
Mof_H 	H 	0.7607	0.9168	0.1211	0.018
Mof_H 	H 	0.3892	0.9242	0.4806	0.039
Mof_H 	H 	0.102	0.9157	0.4135	0.03
Mof_H 	H 	0.1915	0.9149	0.339	0.079
Mof_H 	H 	0.377	0.9146	0.3372	0.022
Mof_H 	H 	0.3057	0.8906	0.0272	0.023
Mof_H 	H 	0.2205	0.7227	0.9767	0.03
Mof_H 	H 	0.3409	0.6783	0.0323	0.1
Mof_H 	H 	0.4453	0.7423	0.0804	0.015
Mof_H 	H 	0.4371	0.494	0.4546	0.029
Mof_H 	H 	0.458	0.5995	0.458	0.083
Mof_H 	H 	0.668	0.5875	0.3488	0.075
Mof_H 	H 	0.6414	0.4827	0.3474	-0.005
Mof_H 	H 	0.6971	0.6849	0.3543	0.07
Mof_H 	H 	0.7034	0.7912	0.353	0.02
Mof_H 	H 	0.4781	0.8017	0.4507	0.015
Mof_H 	H 	0.4616	0.6959	0.454	0.084
Mof_C 	C 	0.1203	0.90853	0.78359	0.078
Mof_C 	C 	0.1978	0.91727	0.74753	-0.123
Mof_C 	C 	0.3043	0.92555	0.76276	0.065
Mof_C 	C 	0.3273	0.92624	0.8119	-0.137
Mof_C 	C 	0.2443	0.91661	0.84542	0.085
Mof_C 	C 	0.1662	0.91845	0.69449	0.317
Mof_C 	C 	0.8488	0.92122	0.54823	0.068
Mof_C 	C 	0.7363	0.91894	0.54448	-0.114
Mof_C 	C 	0.677	0.91667	0.58752	0.058
Mof_C 	C 	0.7302	0.9158	0.63159	-0.128
Mof_C 	C 	0.842	0.91633	0.63247	0.075
Mof_C 	C 	0.6813	0.91888	0.49525	0.319
Mof_C 	C 	0.8143	0.84743	0.97262	0.07
Mof_C 	C 	0.7511	0.81212	0.00438	-0.118
Mof_C 	C 	0.7617	0.74784	0.00267	0.06
Mof_C 	C 	0.8339	0.72142	0.97004	-0.139
Mof_C 	C 	0.8954	0.76031	0.94092	0.081
Mof_C 	C 	0.6735	0.84221	0.04057	0.319
Mof_C 	C 	0.985	0.51295	0.56722	0.077
Mof_C 	C 	0.9969	0.57678	0.56518	-0.128
Mof_C 	C 	0.0653	0.60758	0.59683	0.063
Mof_C 	C 	0.1195	0.56982	0.62907	-0.141
Mof_C 	C 	0.1039	0.50637	0.62946	0.085
Mof_C 	C 	0.0748	0.67619	0.59724	0.055
Mof_C 	C 	0.1491	0.70756	0.62625	-0.125
Mof_C 	C 	0.153	0.77183	0.62669	0.078
Mof_C 	C 	0.0215	0.77789	0.57	0.085
Mof_C 	C 	0.0111	0.71378	0.56754	-0.13
Mof_C 	C 	0.8797	0.40853	0.71641	0.078
Mof_C 	C 	0.8022	0.41727	0.75247	-0.123
Mof_C 	C 	0.6957	0.42555	0.73724	0.065
Mof_C 	C 	0.6727	0.42624	0.6881	-0.137
Mof_C 	C 	0.7557	0.41661	0.65458	0.085
Mof_C 	C 	0.8338	0.41845	0.80551	0.317
Mof_C 	C 	0.1512	0.42122	0.95177	0.068
Mof_C 	C 	0.2637	0.41894	0.95552	-0.114
Mof_C 	C 	0.323	0.41667	0.91248	0.058
Mof_C 	C 	0.2698	0.4158	0.86841	-0.128
Mof_C 	C 	0.158	0.41633	0.86753	0.075
Mof_C 	C 	0.3187	0.41888	0.00475	0.319
Mof_C 	C 	0.1857	0.34743	0.52738	0.069
Mof_C 	C 	0.2489	0.31212	0.49562	-0.118
Mof_C 	C 	0.2383	0.24784	0.49733	0.06
Mof_C 	C 	0.1661	0.22142	0.52996	-0.139
Mof_C 	C 	0.1046	0.26031	0.55908	0.081
Mof_C 	C 	0.3265	0.34221	0.45943	0.319
Mof_C 	C 	0.015	0.01295	0.93278	0.078
Mof_C 	C 	0.0031	0.07678	0.93482	-0.128
Mof_C 	C 	0.9347	0.10758	0.90317	0.063
Mof_C 	C 	0.8805	0.06982	0.87093	-0.141
Mof_C 	C 	0.8961	0.00637	0.87054	0.083
Mof_C 	C 	0.9252	0.17619	0.90276	0.055
Mof_C 	C 	0.8509	0.20756	0.87375	-0.125
Mof_C 	C 	0.847	0.27183	0.87331	0.078
Mof_C 	C 	0.9785	0.27789	0.93	0.085
Mof_C 	C 	0.9889	0.21378	0.93246	-0.13
Mof_C 	C 	0.3797	0.40853	0.28359	0.078
Mof_C 	C 	0.3022	0.41727	0.24753	-0.123
Mof_C 	C 	0.1957	0.42555	0.26276	0.065
Mof_C 	C 	0.1727	0.42624	0.3119	-0.137
Mof_C 	C 	0.2557	0.41661	0.34542	0.085
Mof_C 	C 	0.3338	0.41845	0.19449	0.317
Mof_C 	C 	0.6512	0.42122	0.04823	0.068
Mof_C 	C 	0.7637	0.41894	0.04448	-0.114
Mof_C 	C 	0.823	0.41667	0.08752	0.058
Mof_C 	C 	0.7698	0.4158	0.13159	-0.128
Mof_C 	C 	0.658	0.41633	0.13247	0.075
Mof_C 	C 	0.8187	0.41888	0.99525	0.319
Mof_C 	C 	0.6857	0.34743	0.47262	0.069
Mof_C 	C 	0.7489	0.31212	0.50438	-0.118
Mof_C 	C 	0.7383	0.24784	0.50267	0.06
Mof_C 	C 	0.6661	0.22142	0.47004	-0.139
Mof_C 	C 	0.6046	0.26031	0.44092	0.081
Mof_C 	C 	0.8265	0.34221	0.54057	0.319
Mof_C 	C 	0.515	0.01295	0.06722	0.077
Mof_C 	C 	0.5031	0.07678	0.06518	-0.129
Mof_C 	C 	0.4347	0.10758	0.09683	0.063
Mof_C 	C 	0.3805	0.06982	0.12907	-0.142
Mof_C 	C 	0.3961	0.00637	0.12946	0.085
Mof_C 	C 	0.4252	0.17619	0.09724	0.055
Mof_C 	C 	0.3509	0.20756	0.12625	-0.125
Mof_C 	C 	0.347	0.27183	0.12669	0.078
Mof_C 	C 	0.4785	0.27789	0.07	0.085
Mof_C 	C 	0.4889	0.21378	0.06754	-0.13
Mof_C 	C 	0.6203	0.90853	0.21641	0.078
Mof_C 	C 	0.6978	0.91727	0.25247	-0.123
Mof_C 	C 	0.8043	0.92555	0.23724	0.065
Mof_C 	C 	0.8273	0.92624	0.1881	-0.137
Mof_C 	C 	0.7443	0.91661	0.15458	0.085
Mof_C 	C 	0.6662	0.91845	0.30551	0.317
Mof_C 	C 	0.3488	0.92122	0.45177	0.068
Mof_C 	C 	0.2363	0.91894	0.45552	-0.114
Mof_C 	C 	0.177	0.91667	0.41248	0.058
Mof_C 	C 	0.2302	0.9158	0.36841	-0.128
Mof_C 	C 	0.342	0.91633	0.36753	0.075
Mof_C 	C 	0.1813	0.91888	0.50475	0.319
Mof_C 	C 	0.3143	0.84743	0.02738	0.07
Mof_C 	C 	0.2511	0.81212	0.99562	-0.118
Mof_C 	C 	0.2617	0.74784	0.99733	0.06
Mof_C 	C 	0.3339	0.72142	0.02996	-0.139
Mof_C 	C 	0.3954	0.76031	0.05908	0.081
Mof_C 	C 	0.1735	0.84221	0.95943	0.319
Mof_C 	C 	0.485	0.51295	0.43278	0.077
Mof_C 	C 	0.4969	0.57678	0.43482	-0.129
Mof_C 	C 	0.5653	0.60758	0.40317	0.063
Mof_C 	C 	0.6195	0.56982	0.37093	-0.141
Mof_C 	C 	0.6039	0.50637	0.37054	0.085
Mof_C 	C 	0.5748	0.67619	0.40276	0.055
Mof_C 	C 	0.6491	0.70756	0.37375	-0.125
Mof_C 	C 	0.653	0.77183	0.37331	0.078
Mof_C 	C 	0.5215	0.77789	0.43	0.085
Mof_C 	C 	0.5111	0.71378	0.43246	-0.13
Mof_N 	N 	0.1425	0.90707	0.832	-0.155
Mof_N 	N 	0.9011	0.91925	0.59182	-0.146
Mof_N 	N 	0.887	0.82272	0.94178	-0.155
Mof_N 	N 	0.0384	0.4771	0.59868	-0.158
Mof_N 	N 	0.0883	0.8078	0.59952	-0.148
Mof_N 	N 	0.8575	0.40707	0.668	-0.155
Mof_N 	N 	0.0989	0.41925	0.90818	-0.147
Mof_N 	N 	0.113	0.32272	0.55822	-0.155
Mof_N 	N 	0.9616	0.9771	0.90132	-0.157
Mof_N 	N 	0.9117	0.3078	0.90048	-0.148
Mof_N 	N 	0.3575	0.40707	0.332	-0.155
Mof_N 	N 	0.5989	0.41925	0.09182	-0.147
Mof_N 	N 	0.613	0.32272	0.44178	-0.155
Mof_N 	N 	0.4616	0.9771	0.09868	-0.158
Mof_N 	N 	0.4117	0.3078	0.09952	-0.148
Mof_N 	N 	0.6425	0.90707	0.168	-0.155
Mof_N 	N 	0.4011	0.91925	0.40818	-0.147
Mof_N 	N 	0.387	0.82272	0.05822	-0.155
Mof_N 	N 	0.5384	0.4771	0.40132	-0.158
Mof_N 	N 	0.5883	0.8078	0.40048	-0.148
Mof_O 	O 	0.0684	0.92605	0.6838	-0.282
Mof_O 	O 	0.2368	0.91161	0.66207	-0.261
Mof_O 	O 	0.73874	0.92211	0.45691	-0.268
Mof_O 	O 	0.5824	0.91418	0.49326	-0.278
Mof_O 	O 	0.6555	0.89901	0.03692	-0.27
Mof_O 	O 	0.6323	0.80735	0.0726	-0.284
Mof_O 	O 	0.9316	0.42605	0.8162	-0.282
Mof_O 	O 	0.7632	0.41161	0.83793	-0.261
Mof_O 	O 	0.26126	0.42211	0.04309	-0.268
Mof_O 	O 	0.4176	0.41418	0.00674	-0.278
Mof_O 	O 	0.3445	0.39901	0.46308	-0.27
Mof_O 	O 	0.3677	0.30735	0.4274	-0.284
Mof_O 	O 	0.4316	0.42605	0.1838	-0.282
Mof_O 	O 	0.2632	0.41161	0.16207	-0.261
Mof_O 	O 	0.76126	0.42211	0.95691	-0.268
Mof_O 	O 	0.9176	0.41418	0.99326	-0.278
Mof_O 	O 	0.8445	0.39901	0.53692	-0.27
Mof_O 	O 	0.8677	0.30735	0.5726	-0.284
Mof_O 	O 	0.5684	0.92605	0.3162	-0.282
Mof_O 	O 	0.7368	0.91161	0.33793	-0.261
Mof_O 	O 	0.23874	0.92211	0.54309	-0.268
Mof_O 	O 	0.0824	0.91418	0.50674	-0.278
Mof_O 	O 	0.1555	0.89901	0.96308	-0.27
Mof_O 	O 	0.1323	0.80735	0.9274	-0.284
_end
