# CIF file generated by openbabel 3.1.0, see https://openbabel.org
data_I
_chemical_name_common 'image0'
_cell_length_a 31.019
_cell_length_b 7.1857
_cell_length_c 8.103
_cell_angle_alpha 90
_cell_angle_beta 96.038
_cell_angle_gamma 90
_space_group_name_H-M_alt 'P 1'
_space_group_name_Hall 'P 1'
loop_
    _symmetry_equiv_pos_as_xyz
    x,y,z
loop_
    _atom_site_label
    _atom_site_type_symbol
    _atom_site_fract_x
    _atom_site_fract_y
    _atom_site_fract_z
    _atom_site_occupancy
    Mo1      Mo       0.13035    0.98200    0.05151    1.000
    Mn1      Mn       0.14778    0.47970    0.55880    1.000
    C1       C        0.07530    0.81300    0.06700    1.000
    C2       C        0.07670    0.16400    0.99400    1.000
    C3       C        0.13930    0.18200    0.86100    1.000
    C4       C        0.13660    0.17900    0.25600    1.000
    C5       C        0.14770    0.79500    0.25800    1.000
    C6       C        0.14650    0.80300    0.85600    1.000
    C7       C        0.20070    0.01300    0.08300    1.000
    N1       N        0.04690    0.70500    0.06530    1.000
    N2       N        0.04890    0.26800    0.97600    1.000
    N3       N        0.14200    0.28600    0.75500    1.000
    N4       N        0.15620    0.27500    0.36650    1.000
    N5       N        0.13920    0.69100    0.36400    1.000
    N6       N        0.15720    0.70400    0.75570    1.000
    N7       N        0.23700    0.95100    0.10060    1.000
    K1       K        0.19472    0.48260    0.09130    1.000
    Mo2      Mo       0.63035    0.48200    0.05151    1.000
    Mn2      Mn       0.64778    0.97970    0.55880    1.000
    C8       C        0.57530    0.31300    0.06700    1.000
    C9       C        0.57670    0.66400    0.99400    1.000
    C10      C        0.63930    0.68200    0.86100    1.000
    C11      C        0.63660    0.67900    0.25600    1.000
    C12      C        0.64770    0.29500    0.25800    1.000
    C13      C        0.64650    0.30300    0.85600    1.000
    C14      C        0.70070    0.51300    0.08300    1.000
    N8       N        0.54690    0.20500    0.06530    1.000
    N9       N        0.54890    0.76800    0.97600    1.000
    N10      N        0.64200    0.78600    0.75500    1.000
    N11      N        0.65620    0.77500    0.36650    1.000
    N12      N        0.63920    0.19100    0.36400    1.000
    N13      N        0.65720    0.20400    0.75570    1.000
    N14      N        0.73700    0.45100    0.10060    1.000
    K2       K        0.69472    0.98260    0.09130    1.000
    Mo3      Mo       0.86965    0.98200    0.94849    1.000
    Mn3      Mn       0.85222    0.47970    0.44120    1.000
    C15      C        0.92470    0.81300    0.93300    1.000
    C16      C        0.92330    0.16400    0.00600    1.000
    C17      C        0.86070    0.18200    0.13900    1.000
    C18      C        0.86340    0.17900    0.74400    1.000
    C19      C        0.85230    0.79500    0.74200    1.000
    C20      C        0.85350    0.80300    0.14400    1.000
    C21      C        0.79930    0.01300    0.91700    1.000
    N15      N        0.95310    0.70500    0.93470    1.000
    N16      N        0.95110    0.26800    0.02400    1.000
    N17      N        0.85800    0.28600    0.24500    1.000
    N18      N        0.84380    0.27500    0.63350    1.000
    N19      N        0.86080    0.69100    0.63600    1.000
    N20      N        0.84280    0.70400    0.24430    1.000
    N21      N        0.76300    0.95100    0.89940    1.000
    K3       K        0.80528    0.48260    0.90870    1.000
    Mo4      Mo       0.36965    0.48200    0.94849    1.000
    Mn4      Mn       0.35222    0.97970    0.44120    1.000
    C22      C        0.42470    0.31300    0.93300    1.000
    C23      C        0.42330    0.66400    0.00600    1.000
    C24      C        0.36070    0.68200    0.13900    1.000
    C25      C        0.36340    0.67900    0.74400    1.000
    C26      C        0.35230    0.29500    0.74200    1.000
    C27      C        0.35350    0.30300    0.14400    1.000
    C28      C        0.29930    0.51300    0.91700    1.000
    N22      N        0.45310    0.20500    0.93470    1.000
    N23      N        0.45110    0.76800    0.02400    1.000
    N24      N        0.35800    0.78600    0.24500    1.000
    N25      N        0.34380    0.77500    0.63350    1.000
    N26      N        0.36080    0.19100    0.63600    1.000
    N27      N        0.34280    0.20400    0.24430    1.000
    N28      N        0.26300    0.45100    0.89940    1.000
    K4       K        0.30528    0.98260    0.90870    1.000
    Mn5      Mn       0.00000    0.48660    0.00000    1.000
    Mn6      Mn       0.50000    0.98660    0.00000    1.000
