data_functionalizedCrystal
_audit_creation_method	'EQeq! by Chris Wilmer'
_symmetry_space_group_name_H-M	'P1'
_symmetry_Int_Tables_number	1
_symmetry_cell_setting	triclinic
loop_
_symmetry_equiv_pos_as_xyz
  x,y,z
_cell_length_a	13.153
_cell_length_b	13.986
_cell_length_c	21.683
_cell_angle_alpha	90
_cell_angle_beta	121.056
_cell_angle_gamma	90
loop_
_atom_site_label
_atom_site_type_symbol
_atom_site_fract_x
_atom_site_fract_y
_atom_site_fract_z
_atom_site_charge
Mof_Mn	Mn	0.72526	0.54571	0.72526	0.947
Mof_Mn	Mn	0.77625	0.70394	0.8604	0.829
Mof_O 	O 	0.5907	0.6433	0.6614	-0.388
Mof_O 	O 	0.6365	0.7371	0.755	-0.402
Mof_O 	O 	0.3596	0.0023	0.72	-0.396
Mof_O 	O 	0.2681	0.0713	0.612	-0.387
Mof_O 	O 	0.3068	0.5588	0.3563	-0.332
Mof_O 	O 	0.1564	0.587	0.2483	-0.327
Mof_O 	O 	0.8776	0.8672	0.2212	-0.324
Mof_O 	O 	0.8716	0.8818	0.3201	-0.419
Mof_N 	N 	0.9385	0.7202	0.9713	-0.173
Mof_N 	N 	0.8703	0.8398	0.8581	-0.181
Mof_C 	C 	0.5732	0.7137	0.6895	0.387
Mof_C 	C 	0.4705	0.7779	0.6421	-0.11
Mof_C 	C 	0.4463	0.8577	0.6698	0.045
Mof_H 	H 	0.4918	0.8707	0.7188	0.033
Mof_C 	C 	0.3538	0.9188	0.6244	-0.108
Mof_C 	C 	0.3249	0.0039	0.6544	0.381
Mof_C 	C 	0.2868	0.8982	0.5507	-0.005
Mof_H 	H 	0.2286	0.9412	0.5199	0.045
Mof_C 	C 	0.3047	0.8162	0.5226	-0.011
Mof_C 	C 	0.4	0.7561	0.5698	-0.006
Mof_H 	H 	0.4154	0.701	0.5519	0.051
Mof_C 	C 	0.227	0.7894	0.4448	0.02
Mof_C 	C 	0.2578	0.7175	0.4136	-0.042
Mof_H 	H 	0.3297	0.6859	0.4415	0.064
Mof_C 	C 	0.1849	0.6911	0.342	-0.061
Mof_C 	C 	0.217	0.6094	0.3125	0.3
Mof_C 	C 	0.0772	0.7398	0.2994	0.003
Mof_H 	H 	0.0297	0.7256	0.2507	0.052
Mof_C 	C 	0.0427	0.8081	0.3298	-0.072
Mof_C 	C 	0.9235	0.8549	0.2866	0.32
Mof_C 	C 	0.1159	0.8338	0.4022	-0.038
Mof_H 	H 	0.0909	0.8803	0.4222	0.055
Mof_C 	C 	0.8383	0.8924	0.7999	0.053
Mof_H 	H 	0.7704	0.8773	0.7564	0.016
Mof_C 	C 	0.9111	0.9741	0.8052	-0.088
Mof_H 	H 	0.8903	0.0102	0.7643	0.071
Mof_C 	C 	0.0039	0.9973	0.8658	-0.012
Mof_H 	H 	0.049	0.0499	0.8682	0.048
Mof_C 	C 	0.0363	0.9448	0.9267	-0.007
Mof_C 	C 	0.1361	0.9664	0.994	-0.028
Mof_H 	H 	0.1819	0.0195	0.9985	0.041
Mof_C 	C 	0.1683	0.9098	0.0546	-0.078
Mof_H 	H 	0.2328	0.9277	0.0989	0.062
Mof_C 	C 	0.1031	0.8238	0.0497	0.034
Mof_C 	C 	0.1339	0.7727	0.1043	-0.058
Mof_H 	H 	0.1974	0.7908	0.149	0.058
Mof_C 	C 	0.0681	0.6836	0.0967	-0.068
Mof_H 	H 	0.0902	0.6434	0.1358	0.076
Mof_C 	C 	0.967	0.6609	0.0256	0.042
Mof_H 	H 	0.9232	0.6055	0.0184	0.021
Mof_C 	C 	0.0016	0.8018	0.9809	0.021
Mof_C 	C 	0.9677	0.8642	0.9183	0.049
Mof_Mn	Mn	0.27474	0.04571	0.77474	0.944
Mof_Mn	Mn	0.22375	0.20394	0.6396	0.827
Mof_O 	O 	0.4093	0.1433	0.8386	-0.388
Mof_O 	O 	0.3635	0.2371	0.745	-0.402
Mof_O 	O 	0.6404	0.5023	0.78	-0.396
Mof_O 	O 	0.7319	0.5713	0.888	-0.387
Mof_O 	O 	0.6932	0.0588	0.1437	-0.331
Mof_O 	O 	0.8436	0.087	0.2517	-0.326
Mof_O 	O 	0.1224	0.3672	0.2788	-0.324
Mof_O 	O 	0.1284	0.3818	0.1799	-0.419
Mof_N 	N 	0.0615	0.2202	0.5287	-0.175
Mof_N 	N 	0.1297	0.3398	0.6419	-0.178
Mof_C 	C 	0.4268	0.2137	0.8105	0.387
Mof_C 	C 	0.5295	0.2779	0.8579	-0.111
Mof_C 	C 	0.5537	0.3577	0.8302	0.046
Mof_H 	H 	0.5082	0.3707	0.7812	0.033
Mof_C 	C 	0.6462	0.4188	0.8756	-0.11
Mof_C 	C 	0.6751	0.5039	0.8456	0.382
Mof_C 	C 	0.7132	0.3982	0.9493	-0.003
Mof_H 	H 	0.7714	0.4412	0.9801	0.044
Mof_C 	C 	0.6953	0.3162	0.9774	-0.012
Mof_C 	C 	0.6	0.2561	0.9302	-0.005
Mof_H 	H 	0.5846	0.201	0.9481	0.05
Mof_C 	C 	0.773	0.2894	0.0552	0.021
Mof_C 	C 	0.7422	0.2175	0.0864	-0.043
Mof_H 	H 	0.6703	0.1859	0.0585	0.065
Mof_C 	C 	0.8151	0.1911	0.158	-0.061
Mof_C 	C 	0.783	0.1094	0.1875	0.299
Mof_C 	C 	0.9228	0.2398	0.2006	0.004
Mof_H 	H 	0.9703	0.2256	0.2493	0.051
Mof_C 	C 	0.9573	0.3081	0.1702	-0.073
Mof_C 	C 	0.0765	0.3549	0.2134	0.322
Mof_C 	C 	0.8841	0.3338	0.0978	-0.038
Mof_H 	H 	0.9091	0.3803	0.0778	0.054
Mof_C 	C 	0.1617	0.3924	0.7001	0.044
Mof_H 	H 	0.2296	0.3773	0.7436	0.019
Mof_C 	C 	0.0889	0.4741	0.6948	-0.069
Mof_H 	H 	0.1097	0.5102	0.7357	0.064
Mof_C 	C 	0.9961	0.4973	0.6342	-0.038
Mof_H 	H 	0.951	0.5499	0.6318	0.059
Mof_C 	C 	0.9637	0.4448	0.5733	0.009
Mof_C 	C 	0.8639	0.4664	0.506	-0.048
Mof_H 	H 	0.8181	0.5195	0.5015	0.051
Mof_C 	C 	0.8317	0.4098	0.4454	-0.065
Mof_H 	H 	0.7672	0.4277	0.4011	0.057
Mof_C 	C 	0.8969	0.3238	0.4503	0.027
Mof_C 	C 	0.8661	0.2727	0.3957	-0.053
Mof_H 	H 	0.8026	0.2908	0.351	0.057
Mof_C 	C 	0.9319	0.1836	0.4033	-0.071
Mof_H 	H 	0.9098	0.1434	0.3642	0.077
Mof_C 	C 	0.033	0.1609	0.4744	0.045
Mof_H 	H 	0.0768	0.1055	0.4816	0.02
Mof_C 	C 	0.9984	0.3018	0.5191	0.024
Mof_C 	C 	0.0323	0.3642	0.5817	0.042
Mof_Mn	Mn	0.27474	0.45429	0.27474	0.946
Mof_Mn	Mn	0.22375	0.29606	0.1396	0.828
Mof_O 	O 	0.4093	0.3567	0.3386	-0.388
Mof_O 	O 	0.3635	0.2629	0.245	-0.402
Mof_O 	O 	0.6404	0.9977	0.28	-0.396
Mof_O 	O 	0.7319	0.9287	0.388	-0.387
Mof_O 	O 	0.6932	0.4412	0.6437	-0.332
Mof_O 	O 	0.8436	0.413	0.7517	-0.327
Mof_O 	O 	0.1224	0.1328	0.7788	-0.324
Mof_O 	O 	0.1284	0.1182	0.6799	-0.419
Mof_N 	N 	0.0615	0.2798	0.0287	-0.173
Mof_N 	N 	0.1297	0.1602	0.1419	-0.181
Mof_C 	C 	0.4268	0.2863	0.3105	0.387
Mof_C 	C 	0.5295	0.2221	0.3579	-0.11
Mof_C 	C 	0.5537	0.1423	0.3302	0.045
Mof_H 	H 	0.5082	0.1293	0.2812	0.033
Mof_C 	C 	0.6462	0.0812	0.3756	-0.108
Mof_C 	C 	0.6751	0.9961	0.3456	0.381
Mof_C 	C 	0.7132	0.1018	0.4493	-0.005
Mof_H 	H 	0.7714	0.0588	0.4801	0.045
Mof_C 	C 	0.6953	0.1838	0.4774	-0.011
Mof_C 	C 	0.6	0.2439	0.4302	-0.006
Mof_H 	H 	0.5846	0.299	0.4481	0.051
Mof_C 	C 	0.773	0.2106	0.5552	0.02
Mof_C 	C 	0.7422	0.2825	0.5864	-0.042
Mof_H 	H 	0.6703	0.3141	0.5585	0.064
Mof_C 	C 	0.8151	0.3089	0.658	-0.061
Mof_C 	C 	0.783	0.3906	0.6875	0.3
Mof_C 	C 	0.9228	0.2602	0.7006	0.003
Mof_H 	H 	0.9703	0.2744	0.7493	0.052
Mof_C 	C 	0.9573	0.1919	0.6702	-0.072
Mof_C 	C 	0.0765	0.1451	0.7134	0.32
Mof_C 	C 	0.8841	0.1662	0.5978	-0.038
Mof_H 	H 	0.9091	0.1197	0.5778	0.055
Mof_C 	C 	0.1617	0.1076	0.2001	0.053
Mof_H 	H 	0.2296	0.1227	0.2436	0.016
Mof_C 	C 	0.0889	0.0259	0.1948	-0.088
Mof_H 	H 	0.1097	0.9898	0.2357	0.071
Mof_C 	C 	0.9961	0.0027	0.1342	-0.012
Mof_H 	H 	0.951	0.9501	0.1318	0.048
Mof_C 	C 	0.9637	0.0552	0.0733	-0.007
Mof_C 	C 	0.8639	0.0336	0.006	-0.028
Mof_H 	H 	0.8181	0.9805	0.0015	0.041
Mof_C 	C 	0.8317	0.0902	0.9454	-0.078
Mof_H 	H 	0.7672	0.0723	0.9011	0.062
Mof_C 	C 	0.8969	0.1762	0.9503	0.034
Mof_C 	C 	0.8661	0.2273	0.8957	-0.058
Mof_H 	H 	0.8026	0.2092	0.851	0.058
Mof_C 	C 	0.9319	0.3164	0.9033	-0.068
Mof_H 	H 	0.9098	0.3566	0.8642	0.076
Mof_C 	C 	0.033	0.3391	0.9744	0.042
Mof_H 	H 	0.0768	0.3945	0.9816	0.021
Mof_C 	C 	0.9984	0.1982	0.0191	0.021
Mof_C 	C 	0.0323	0.1358	0.0817	0.049
Mof_Mn	Mn	0.72526	0.95429	0.22526	0.944
Mof_Mn	Mn	0.77625	0.79606	0.3604	0.827
Mof_O 	O 	0.5907	0.8567	0.1614	-0.388
Mof_O 	O 	0.6365	0.7629	0.255	-0.402
Mof_O 	O 	0.3596	0.4977	0.22	-0.396
Mof_O 	O 	0.2681	0.4287	0.112	-0.387
Mof_O 	O 	0.3068	0.9412	0.8563	-0.331
Mof_O 	O 	0.1564	0.913	0.7483	-0.326
Mof_O 	O 	0.8776	0.6328	0.7212	-0.324
Mof_O 	O 	0.8716	0.6182	0.8201	-0.419
Mof_N 	N 	0.9385	0.7798	0.4713	-0.175
Mof_N 	N 	0.8703	0.6602	0.3581	-0.178
Mof_C 	C 	0.5732	0.7863	0.1895	0.387
Mof_C 	C 	0.4705	0.7221	0.1421	-0.111
Mof_C 	C 	0.4463	0.6423	0.1698	0.046
Mof_H 	H 	0.4918	0.6293	0.2188	0.033
Mof_C 	C 	0.3538	0.5812	0.1244	-0.11
Mof_C 	C 	0.3249	0.4961	0.1544	0.382
Mof_C 	C 	0.2868	0.6018	0.0507	-0.003
Mof_H 	H 	0.2286	0.5588	0.0199	0.044
Mof_C 	C 	0.3047	0.6838	0.0226	-0.012
Mof_C 	C 	0.4	0.7439	0.0698	-0.005
Mof_H 	H 	0.4154	0.799	0.0519	0.05
Mof_C 	C 	0.227	0.7106	0.9448	0.021
Mof_C 	C 	0.2578	0.7825	0.9136	-0.043
Mof_H 	H 	0.3297	0.8141	0.9415	0.065
Mof_C 	C 	0.1849	0.8089	0.842	-0.061
Mof_C 	C 	0.217	0.8906	0.8125	0.299
Mof_C 	C 	0.0772	0.7602	0.7994	0.004
Mof_H 	H 	0.0297	0.7744	0.7507	0.051
Mof_C 	C 	0.0427	0.6919	0.8298	-0.073
Mof_C 	C 	0.9235	0.6451	0.7866	0.322
Mof_C 	C 	0.1159	0.6662	0.9022	-0.038
Mof_H 	H 	0.0909	0.6197	0.9222	0.054
Mof_C 	C 	0.8383	0.6076	0.2999	0.044
Mof_H 	H 	0.7704	0.6227	0.2564	0.019
Mof_C 	C 	0.9111	0.5259	0.3052	-0.069
Mof_H 	H 	0.8903	0.4898	0.2643	0.064
Mof_C 	C 	0.0039	0.5027	0.3658	-0.038
Mof_H 	H 	0.049	0.4501	0.3682	0.059
Mof_C 	C 	0.0363	0.5552	0.4267	0.009
Mof_C 	C 	0.1361	0.5336	0.494	-0.048
Mof_H 	H 	0.1819	0.4805	0.4985	0.051
Mof_C 	C 	0.1683	0.5902	0.5546	-0.065
Mof_H 	H 	0.2328	0.5723	0.5989	0.057
Mof_C 	C 	0.1031	0.6762	0.5497	0.027
Mof_C 	C 	0.1339	0.7273	0.6043	-0.053
Mof_H 	H 	0.1974	0.7092	0.649	0.057
Mof_C 	C 	0.0681	0.8164	0.5967	-0.071
Mof_H 	H 	0.0902	0.8566	0.6358	0.077
Mof_C 	C 	0.967	0.8391	0.5256	0.045
Mof_H 	H 	0.9232	0.8945	0.5184	0.02
Mof_C 	C 	0.0016	0.6982	0.4809	0.024
Mof_C 	C 	0.9677	0.6358	0.4183	0.042
_end
