# CIF file generated by openbabel 3.1.0, see https://openbabel.org
data_I
_chemical_name_common 'image0'
_cell_length_a 13.6319
_cell_length_b 16.2211
_cell_length_c 15.7201
_cell_angle_alpha 90
_cell_angle_beta 96.607
_cell_angle_gamma 90
_space_group_name_H-M_alt 'P 1'
_space_group_name_Hall 'P 1'
loop_
    _symmetry_equiv_pos_as_xyz
    x,y,z
loop_
    _atom_site_label
    _atom_site_type_symbol
    _atom_site_fract_x
    _atom_site_fract_y
    _atom_site_fract_z
    _atom_site_occupancy
    Ag1      Ag       0.01942    0.37808    0.91976    1.000
    S1       S        0.09150    0.43818    0.08153    1.000
    S2       S        0.37324    0.12904    0.20654    1.000
    N1       N        0.18900    0.31443    0.97200    1.000
    N2       N        0.14180    0.59202    0.07290    1.000
    N3       N        0.34660    0.97220    0.18750    1.000
    C1       C        0.20930    0.29840    0.05530    1.000
    C2       C        0.27150    0.23410    0.08330    1.000
    C3       C        0.16310    0.34970    0.12040    1.000
    H1       H        0.21610    0.36890    0.16320    1.000
    H2       H        0.12040    0.31360    0.14990    1.000
    C4       C        0.18160    0.51650    0.07930    1.000
    C5       C        0.28210    0.50340    0.08440    1.000
    H3       H        0.30820    0.44970    0.08670    1.000
    C6       C        0.34330    0.57140    0.08610    1.000
    H4       H        0.41220    0.56450    0.09120    1.000
    C7       C        0.30330    0.64880    0.08030    1.000
    H5       H        0.34420    0.69560    0.08140    1.000
    C8       C        0.20390    0.65690    0.07310    1.000
    H6       H        0.17680    0.71020    0.06790    1.000
    C9       C        0.29620    0.21710    0.17860    1.000
    H7       H        0.23410    0.20990    0.20360    1.000
    H8       H        0.32900    0.26600    0.20530    1.000
    C10      C        0.29680    0.90180    0.16790    1.000
    H9       H        0.33170    0.85170    0.17220    1.000
    C11      C        0.19820    0.90020    0.14210    1.000
    H10      H        0.16530    0.84990    0.12960    1.000
    C12      C        0.14760    0.97370    0.13470    1.000
    H11      H        0.07920    0.97400    0.11740    1.000
    C13      C        0.19660    0.04680    0.15240    1.000
    H12      H        0.16310    0.09760    0.14660    1.000
    C14      C        0.29590    0.04330    0.17890    1.000
    Ag2      Ag       0.51942    0.87808    0.91976    1.000
    S3       S        0.59150    0.93818    0.08153    1.000
    S4       S        0.87324    0.62904    0.20654    1.000
    N4       N        0.68900    0.81443    0.97200    1.000
    N5       N        0.64180    0.09202    0.07290    1.000
    N6       N        0.84660    0.47220    0.18750    1.000
    C15      C        0.70930    0.79840    0.05530    1.000
    C16      C        0.77150    0.73410    0.08330    1.000
    C17      C        0.66310    0.84970    0.12040    1.000
    H13      H        0.71610    0.86890    0.16320    1.000
    H14      H        0.62040    0.81360    0.14990    1.000
    C18      C        0.68160    0.01650    0.07930    1.000
    C19      C        0.78210    0.00340    0.08440    1.000
    H15      H        0.80820    0.94970    0.08670    1.000
    C20      C        0.84330    0.07140    0.08610    1.000
    H16      H        0.91220    0.06450    0.09120    1.000
    C21      C        0.80330    0.14880    0.08030    1.000
    H17      H        0.84420    0.19560    0.08140    1.000
    C22      C        0.70390    0.15690    0.07310    1.000
    H18      H        0.67680    0.21020    0.06790    1.000
    C23      C        0.79620    0.71710    0.17860    1.000
    H19      H        0.73410    0.70990    0.20360    1.000
    H20      H        0.82900    0.76600    0.20530    1.000
    C24      C        0.79680    0.40180    0.16790    1.000
    H21      H        0.83170    0.35170    0.17220    1.000
    C25      C        0.69820    0.40020    0.14210    1.000
    H22      H        0.66530    0.34990    0.12960    1.000
    C26      C        0.64760    0.47370    0.13470    1.000
    H23      H        0.57920    0.47400    0.11740    1.000
    C27      C        0.69660    0.54680    0.15240    1.000
    H24      H        0.66310    0.59760    0.14660    1.000
    C28      C        0.79590    0.54330    0.17890    1.000
    Ag3      Ag       0.98058    0.37808    0.58024    1.000
    S5       S        0.90850    0.43818    0.41847    1.000
    S6       S        0.62676    0.12904    0.29346    1.000
    N7       N        0.81100    0.31443    0.52800    1.000
    N8       N        0.85820    0.59202    0.42710    1.000
    N9       N        0.65340    0.97220    0.31250    1.000
    C29      C        0.79070    0.29840    0.44470    1.000
    C30      C        0.72850    0.23410    0.41670    1.000
    C31      C        0.83690    0.34970    0.37960    1.000
    H25      H        0.78390    0.36890    0.33680    1.000
    H26      H        0.87960    0.31360    0.35010    1.000
    C32      C        0.81840    0.51650    0.42070    1.000
    C33      C        0.71790    0.50340    0.41560    1.000
    H27      H        0.69180    0.44970    0.41330    1.000
    C34      C        0.65670    0.57140    0.41390    1.000
    H28      H        0.58780    0.56450    0.40880    1.000
    C35      C        0.69670    0.64880    0.41970    1.000
    H29      H        0.65580    0.69560    0.41860    1.000
    C36      C        0.79610    0.65690    0.42690    1.000
    H30      H        0.82320    0.71020    0.43210    1.000
    C37      C        0.70380    0.21710    0.32140    1.000
    H31      H        0.76590    0.20990    0.29640    1.000
    H32      H        0.67100    0.26600    0.29470    1.000
    C38      C        0.70320    0.90180    0.33210    1.000
    H33      H        0.66830    0.85170    0.32780    1.000
    C39      C        0.80180    0.90020    0.35790    1.000
    H34      H        0.83470    0.84990    0.37040    1.000
    C40      C        0.85240    0.97370    0.36530    1.000
    H35      H        0.92080    0.97400    0.38260    1.000
    C41      C        0.80340    0.04680    0.34760    1.000
    H36      H        0.83690    0.09760    0.35340    1.000
    C42      C        0.70410    0.04330    0.32110    1.000
    Ag4      Ag       0.48058    0.87808    0.58024    1.000
    S7       S        0.40850    0.93818    0.41847    1.000
    S8       S        0.12676    0.62904    0.29346    1.000
    N10      N        0.31100    0.81443    0.52800    1.000
    N11      N        0.35820    0.09202    0.42710    1.000
    N12      N        0.15340    0.47220    0.31250    1.000
    C43      C        0.29070    0.79840    0.44470    1.000
    C44      C        0.22850    0.73410    0.41670    1.000
    C45      C        0.33690    0.84970    0.37960    1.000
    H37      H        0.28390    0.86890    0.33680    1.000
    H38      H        0.37960    0.81360    0.35010    1.000
    C46      C        0.31840    0.01650    0.42070    1.000
    C47      C        0.21790    0.00340    0.41560    1.000
    H39      H        0.19180    0.94970    0.41330    1.000
    C48      C        0.15670    0.07140    0.41390    1.000
    H40      H        0.08780    0.06450    0.40880    1.000
    C49      C        0.19670    0.14880    0.41970    1.000
    H41      H        0.15580    0.19560    0.41860    1.000
    C50      C        0.29610    0.15690    0.42690    1.000
    H42      H        0.32320    0.21020    0.43210    1.000
    C51      C        0.20380    0.71710    0.32140    1.000
    H43      H        0.26590    0.70990    0.29640    1.000
    H44      H        0.17100    0.76600    0.29470    1.000
    C52      C        0.20320    0.40180    0.33210    1.000
    H45      H        0.16830    0.35170    0.32780    1.000
    C53      C        0.30180    0.40020    0.35790    1.000
    H46      H        0.33470    0.34990    0.37040    1.000
    C54      C        0.35240    0.47370    0.36530    1.000
    H47      H        0.42080    0.47400    0.38260    1.000
    C55      C        0.30340    0.54680    0.34760    1.000
    H48      H        0.33690    0.59760    0.35340    1.000
    C56      C        0.20410    0.54330    0.32110    1.000
    Ag5      Ag       0.98058    0.62192    0.08024    1.000
    S9       S        0.90850    0.56182    0.91847    1.000
    S10      S        0.62676    0.87096    0.79346    1.000
    N13      N        0.81100    0.68557    0.02800    1.000
    N14      N        0.85820    0.40798    0.92710    1.000
    N15      N        0.65340    0.02780    0.81250    1.000
    C57      C        0.79070    0.70160    0.94470    1.000
    C58      C        0.72850    0.76590    0.91670    1.000
    C59      C        0.83690    0.65030    0.87960    1.000
    H49      H        0.78390    0.63110    0.83680    1.000
    H50      H        0.87960    0.68640    0.85010    1.000
    C60      C        0.81840    0.48350    0.92070    1.000
    C61      C        0.71790    0.49660    0.91560    1.000
    H51      H        0.69180    0.55030    0.91330    1.000
    C62      C        0.65670    0.42860    0.91390    1.000
    H52      H        0.58780    0.43550    0.90880    1.000
    C63      C        0.69670    0.35120    0.91970    1.000
    H53      H        0.65580    0.30440    0.91860    1.000
    C64      C        0.79610    0.34310    0.92690    1.000
    H54      H        0.82320    0.28980    0.93210    1.000
    C65      C        0.70380    0.78290    0.82140    1.000
    H55      H        0.76590    0.79010    0.79640    1.000
    H56      H        0.67100    0.73400    0.79470    1.000
    C66      C        0.70320    0.09820    0.83210    1.000
    H57      H        0.66830    0.14830    0.82780    1.000
    C67      C        0.80180    0.09980    0.85790    1.000
    H58      H        0.83470    0.15010    0.87040    1.000
    C68      C        0.85240    0.02630    0.86530    1.000
    H59      H        0.92080    0.02600    0.88260    1.000
    C69      C        0.80340    0.95320    0.84760    1.000
    H60      H        0.83690    0.90240    0.85340    1.000
    C70      C        0.70410    0.95670    0.82110    1.000
    Ag6      Ag       0.48058    0.12192    0.08024    1.000
    S11      S        0.40850    0.06182    0.91847    1.000
    S12      S        0.12676    0.37096    0.79346    1.000
    N16      N        0.31100    0.18557    0.02800    1.000
    N17      N        0.35820    0.90798    0.92710    1.000
    N18      N        0.15340    0.52780    0.81250    1.000
    C71      C        0.29070    0.20160    0.94470    1.000
    C72      C        0.22850    0.26590    0.91670    1.000
    C73      C        0.33690    0.15030    0.87960    1.000
    H61      H        0.28390    0.13110    0.83680    1.000
    H62      H        0.37960    0.18640    0.85010    1.000
    C74      C        0.31840    0.98350    0.92070    1.000
    C75      C        0.21790    0.99660    0.91560    1.000
    H63      H        0.19180    0.05030    0.91330    1.000
    C76      C        0.15670    0.92860    0.91390    1.000
    H64      H        0.08780    0.93550    0.90880    1.000
    C77      C        0.19670    0.85120    0.91970    1.000
    H65      H        0.15580    0.80440    0.91860    1.000
    C78      C        0.29610    0.84310    0.92690    1.000
    H66      H        0.32320    0.78980    0.93210    1.000
    C79      C        0.20380    0.28290    0.82140    1.000
    H67      H        0.26590    0.29010    0.79640    1.000
    H68      H        0.17100    0.23400    0.79470    1.000
    C80      C        0.20320    0.59820    0.83210    1.000
    H69      H        0.16830    0.64830    0.82780    1.000
    C81      C        0.30180    0.59980    0.85790    1.000
    H70      H        0.33470    0.65010    0.87040    1.000
    C82      C        0.35240    0.52630    0.86530    1.000
    H71      H        0.42080    0.52600    0.88260    1.000
    C83      C        0.30340    0.45320    0.84760    1.000
    H72      H        0.33690    0.40240    0.85340    1.000
    C84      C        0.20410    0.45670    0.82110    1.000
    Ag7      Ag       0.01942    0.62192    0.41976    1.000
    S13      S        0.09150    0.56182    0.58153    1.000
    S14      S        0.37324    0.87096    0.70654    1.000
    N19      N        0.18900    0.68557    0.47200    1.000
    N20      N        0.14180    0.40798    0.57290    1.000
    N21      N        0.34660    0.02780    0.68750    1.000
    C85      C        0.20930    0.70160    0.55530    1.000
    C86      C        0.27150    0.76590    0.58330    1.000
    C87      C        0.16310    0.65030    0.62040    1.000
    H73      H        0.21610    0.63110    0.66320    1.000
    H74      H        0.12040    0.68640    0.64990    1.000
    C88      C        0.18160    0.48350    0.57930    1.000
    C89      C        0.28210    0.49660    0.58440    1.000
    H75      H        0.30820    0.55030    0.58670    1.000
    C90      C        0.34330    0.42860    0.58610    1.000
    H76      H        0.41220    0.43550    0.59120    1.000
    C91      C        0.30330    0.35120    0.58030    1.000
    H77      H        0.34420    0.30440    0.58140    1.000
    C92      C        0.20390    0.34310    0.57310    1.000
    H78      H        0.17680    0.28980    0.56790    1.000
    C93      C        0.29620    0.78290    0.67860    1.000
    H79      H        0.23410    0.79010    0.70360    1.000
    H80      H        0.32900    0.73400    0.70530    1.000
    C94      C        0.29680    0.09820    0.66790    1.000
    H81      H        0.33170    0.14830    0.67220    1.000
    C95      C        0.19820    0.09980    0.64210    1.000
    H82      H        0.16530    0.15010    0.62960    1.000
    C96      C        0.14760    0.02630    0.63470    1.000
    H83      H        0.07920    0.02600    0.61740    1.000
    C97      C        0.19660    0.95320    0.65240    1.000
    H84      H        0.16310    0.90240    0.64660    1.000
    C98      C        0.29590    0.95670    0.67890    1.000
    Ag8      Ag       0.51942    0.12192    0.41976    1.000
    S15      S        0.59150    0.06182    0.58153    1.000
    S16      S        0.87324    0.37096    0.70654    1.000
    N22      N        0.68900    0.18557    0.47200    1.000
    N23      N        0.64180    0.90798    0.57290    1.000
    N24      N        0.84660    0.52780    0.68750    1.000
    C99      C        0.70930    0.20160    0.55530    1.000
    C100     C        0.77150    0.26590    0.58330    1.000
    C101     C        0.66310    0.15030    0.62040    1.000
    H85      H        0.71610    0.13110    0.66320    1.000
    H86      H        0.62040    0.18640    0.64990    1.000
    C102     C        0.68160    0.98350    0.57930    1.000
    C103     C        0.78210    0.99660    0.58440    1.000
    H87      H        0.80820    0.05030    0.58670    1.000
    C104     C        0.84330    0.92860    0.58610    1.000
    H88      H        0.91220    0.93550    0.59120    1.000
    C105     C        0.80330    0.85120    0.58030    1.000
    H89      H        0.84420    0.80440    0.58140    1.000
    C106     C        0.70390    0.84310    0.57310    1.000
    H90      H        0.67680    0.78980    0.56790    1.000
    C107     C        0.79620    0.28290    0.67860    1.000
    H91      H        0.73410    0.29010    0.70360    1.000
    H92      H        0.82900    0.23400    0.70530    1.000
    C108     C        0.79680    0.59820    0.66790    1.000
    H93      H        0.83170    0.64830    0.67220    1.000
    C109     C        0.69820    0.59980    0.64210    1.000
    H94      H        0.66530    0.65010    0.62960    1.000
    C110     C        0.64760    0.52630    0.63470    1.000
    H95      H        0.57920    0.52600    0.61740    1.000
    C111     C        0.69660    0.45320    0.65240    1.000
    H96      H        0.66310    0.40240    0.64660    1.000
    C112     C        0.79590    0.45670    0.67890    1.000
    Ag9      Ag       0.50000    0.96675    0.25000    1.000
    Ag10     Ag       0.00000    0.46675    0.25000    1.000
    Ag11     Ag       0.50000    0.03325    0.75000    1.000
    Ag12     Ag       0.00000    0.53325    0.75000    1.000
