# CIF file generated by openbabel 3.1.0, see https://openbabel.org
data_I
_chemical_name_common 'image0'
_cell_length_a 30.672
_cell_length_b 15.072
_cell_length_c 20.994
_cell_angle_alpha 90
_cell_angle_beta 129.553
_cell_angle_gamma 90
_space_group_name_H-M_alt 'P 1'
_space_group_name_Hall 'P 1'
loop_
    _symmetry_equiv_pos_as_xyz
    x,y,z
loop_
    _atom_site_label
    _atom_site_type_symbol
    _atom_site_fract_x
    _atom_site_fract_y
    _atom_site_fract_z
    _atom_site_occupancy
    Cd1      Cd       0.92684    0.54719    0.93213    1.000
    Cd2      Cd       0.76142    0.79494    0.59429    1.000
    O1       O        0.97992    0.28280    0.04580    1.000
    O2       O        0.93514    0.46590    0.83770    1.000
    O3       O        0.83356    0.55320    0.58110    1.000
    O4       O        0.78614    0.68070    0.54560    1.000
    N1       N        0.82245    0.70580    0.70230    1.000
    N2       N        0.86852    0.44400    0.92020    1.000
    C1       C        0.84970    0.69760    0.78390    1.000
    O5       O        0.89912    0.46250    0.70660    1.000
    H1       H        0.88150    0.49610    0.66680    1.000
    N3       N        0.88217    0.62470    0.81690    1.000
    O6       O        0.83220    0.92080    0.98210    1.000
    C2       C        0.84470    0.75960    0.83310    1.000
    C3       C        0.81480    0.43540    0.88920    1.000
    O7       O        0.98181    0.41950    0.00700    1.000
    C4       C        0.77000    0.50220    0.83670    1.000
    C5       C        0.90520    0.49870    0.76780    1.000
    C6       C        0.89570    0.36730    0.96380    1.000
    C7       C        0.73490    0.53010    0.85390    1.000
    H2       H        0.73960    0.50700    0.89900    1.000
    C8       C        0.81850    0.62110    0.59880    1.000
    C9       C        0.83930    0.63410    0.68300    1.000
    C10      C        0.87540    0.58300    0.75300    1.000
    C11      C        0.76220    0.53670    0.76870    1.000
    H3       H        0.78510    0.51750    0.75680    1.000
    C12      C        0.95660    0.35460    0.00900    1.000
    C13      C        0.78510    0.84690    0.84900    1.000
    H4       H        0.74960    0.86760    0.82810    1.000
    C14      C        0.79150    0.79320    0.80120    1.000
    H5       H        0.76000    0.77950    0.74730    1.000
    C15      C        0.89150    0.78200    0.91260    1.000
    H6       H        0.92660    0.75900    0.93430    1.000
    O8       O        0.64730    0.69190    0.68400    1.000
    C16      C        0.72020    0.60030    0.71810    1.000
    H7       H        0.71540    0.62400    0.67310    1.000
    C17      C        0.83380    0.86890    0.92990    1.000
    C18      C        0.68570    0.62760    0.73620    1.000
    C19      C        0.88730    0.83870    0.96160    1.000
    H8       H        0.91940    0.85570    0.01400    1.000
    C20      C        0.77870    0.95160    0.95380    1.000
    H9       H        0.76030    0.98360    0.90300    1.000
    H10      H        0.78380    0.99020    0.99450    1.000
    H11      H        0.75570    0.90190    0.94470    1.000
    C21      C        0.69270    0.59260    0.80290    1.000
    H12      H        0.66920    0.61090    0.81390    1.000
    C22      C        0.61260    0.72730    0.70160    1.000
    H13      H        0.58410    0.68480    0.68620    1.000
    H14      H        0.59490    0.78100    0.67080    1.000
    H15      H        0.63560    0.73980    0.75960    1.000
    N4       N        0.80525    0.35660    0.91020    1.000
    O9       O        0.90952    0.18480    0.03310    1.000
    H16      H        0.93450    0.22130    0.04970    1.000
    C23      C        0.85650    0.31260    0.95720    1.000
    C24      C        0.86120    0.22430    0.98980    1.000
    O10      O        0.81839    0.18940    0.97380    1.000
    O11      O        0.82490    0.88360    0.60210    1.000
    H17      H        0.79900    0.84370    0.57670    1.000
    H18      H        0.84130    0.86300    0.58390    1.000
    H19      H        0.85000    0.92100    0.02500    1.000
    Cd3      Cd       0.42684    0.04719    0.93213    1.000
    Cd4      Cd       0.26142    0.29494    0.59429    1.000
    O12      O        0.47992    0.78280    0.04580    1.000
    O13      O        0.43514    0.96590    0.83770    1.000
    O14      O        0.33356    0.05320    0.58110    1.000
    O15      O        0.28614    0.18070    0.54560    1.000
    N5       N        0.32245    0.20580    0.70230    1.000
    N6       N        0.36852    0.94400    0.92020    1.000
    C25      C        0.34970    0.19760    0.78390    1.000
    O16      O        0.39912    0.96250    0.70660    1.000
    H20      H        0.38150    0.99610    0.66680    1.000
    N7       N        0.38217    0.12470    0.81690    1.000
    O17      O        0.33220    0.42080    0.98210    1.000
    C26      C        0.34470    0.25960    0.83310    1.000
    C27      C        0.31480    0.93540    0.88920    1.000
    O18      O        0.48181    0.91950    0.00700    1.000
    C28      C        0.27000    0.00220    0.83670    1.000
    C29      C        0.40520    0.99870    0.76780    1.000
    C30      C        0.39570    0.86730    0.96380    1.000
    C31      C        0.23490    0.03010    0.85390    1.000
    H21      H        0.23960    0.00700    0.89900    1.000
    C32      C        0.31850    0.12110    0.59880    1.000
    C33      C        0.33930    0.13410    0.68300    1.000
    C34      C        0.37540    0.08300    0.75300    1.000
    C35      C        0.26220    0.03670    0.76870    1.000
    H22      H        0.28510    0.01750    0.75680    1.000
    C36      C        0.45660    0.85460    0.00900    1.000
    C37      C        0.28510    0.34690    0.84900    1.000
    H23      H        0.24960    0.36760    0.82810    1.000
    C38      C        0.29150    0.29320    0.80120    1.000
    H24      H        0.26000    0.27950    0.74730    1.000
    C39      C        0.39150    0.28200    0.91260    1.000
    H25      H        0.42660    0.25900    0.93430    1.000
    O19      O        0.14730    0.19190    0.68400    1.000
    C40      C        0.22020    0.10030    0.71810    1.000
    H26      H        0.21540    0.12400    0.67310    1.000
    C41      C        0.33380    0.36890    0.92990    1.000
    C42      C        0.18570    0.12760    0.73620    1.000
    C43      C        0.38730    0.33870    0.96160    1.000
    H27      H        0.41940    0.35570    0.01400    1.000
    C44      C        0.27870    0.45160    0.95380    1.000
    H28      H        0.26030    0.48360    0.90300    1.000
    H29      H        0.28380    0.49020    0.99450    1.000
    H30      H        0.25570    0.40190    0.94470    1.000
    C45      C        0.19270    0.09260    0.80290    1.000
    H31      H        0.16920    0.11090    0.81390    1.000
    C46      C        0.11260    0.22730    0.70160    1.000
    H32      H        0.08410    0.18480    0.68620    1.000
    H33      H        0.09490    0.28100    0.67080    1.000
    H34      H        0.13560    0.23980    0.75960    1.000
    N8       N        0.30525    0.85660    0.91020    1.000
    O20      O        0.40952    0.68480    0.03310    1.000
    H35      H        0.43450    0.72130    0.04970    1.000
    C47      C        0.35650    0.81260    0.95720    1.000
    C48      C        0.36120    0.72430    0.98980    1.000
    O21      O        0.31839    0.68940    0.97380    1.000
    O22      O        0.32490    0.38360    0.60210    1.000
    H36      H        0.29900    0.34370    0.57670    1.000
    H37      H        0.34130    0.36300    0.58390    1.000
    H38      H        0.35000    0.42100    0.02500    1.000
    Cd5      Cd       0.07316    0.54719    0.56787    1.000
    Cd6      Cd       0.23858    0.79494    0.90571    1.000
    O23      O        0.02008    0.28280    0.45420    1.000
    O24      O        0.06486    0.46590    0.66230    1.000
    O25      O        0.16644    0.55320    0.91890    1.000
    O26      O        0.21386    0.68070    0.95440    1.000
    N9       N        0.17755    0.70580    0.79770    1.000
    N10      N        0.13148    0.44400    0.57980    1.000
    C49      C        0.15030    0.69760    0.71610    1.000
    O27      O        0.10088    0.46250    0.79340    1.000
    H39      H        0.11850    0.49610    0.83320    1.000
    N11      N        0.11783    0.62470    0.68310    1.000
    O28      O        0.16780    0.92080    0.51790    1.000
    C50      C        0.15530    0.75960    0.66690    1.000
    C51      C        0.18520    0.43540    0.61080    1.000
    O29      O        0.01819    0.41950    0.49300    1.000
    C52      C        0.23000    0.50220    0.66330    1.000
    C53      C        0.09480    0.49870    0.73220    1.000
    C54      C        0.10430    0.36730    0.53620    1.000
    C55      C        0.26510    0.53010    0.64610    1.000
    H40      H        0.26040    0.50700    0.60100    1.000
    C56      C        0.18150    0.62110    0.90120    1.000
    C57      C        0.16070    0.63410    0.81700    1.000
    C58      C        0.12460    0.58300    0.74700    1.000
    C59      C        0.23780    0.53670    0.73130    1.000
    H41      H        0.21490    0.51750    0.74320    1.000
    C60      C        0.04340    0.35460    0.49100    1.000
    C61      C        0.21490    0.84690    0.65100    1.000
    H42      H        0.25040    0.86760    0.67190    1.000
    C62      C        0.20850    0.79320    0.69880    1.000
    H43      H        0.24000    0.77950    0.75270    1.000
    C63      C        0.10850    0.78200    0.58740    1.000
    H44      H        0.07340    0.75900    0.56570    1.000
    O30      O        0.35270    0.69190    0.81600    1.000
    C64      C        0.27980    0.60030    0.78190    1.000
    H45      H        0.28460    0.62400    0.82690    1.000
    C65      C        0.16620    0.86890    0.57010    1.000
    C66      C        0.31430    0.62760    0.76380    1.000
    C67      C        0.11270    0.83870    0.53840    1.000
    H46      H        0.08060    0.85570    0.48600    1.000
    C68      C        0.22130    0.95160    0.54620    1.000
    H47      H        0.23970    0.98360    0.59700    1.000
    H48      H        0.21620    0.99020    0.50550    1.000
    H49      H        0.24430    0.90190    0.55530    1.000
    C69      C        0.30730    0.59260    0.69710    1.000
    H50      H        0.33080    0.61090    0.68610    1.000
    C70      C        0.38740    0.72730    0.79840    1.000
    H51      H        0.41590    0.68480    0.81380    1.000
    H52      H        0.40510    0.78100    0.82920    1.000
    H53      H        0.36440    0.73980    0.74040    1.000
    N12      N        0.19475    0.35660    0.58980    1.000
    O31      O        0.09048    0.18480    0.46690    1.000
    H54      H        0.06550    0.22130    0.45030    1.000
    C71      C        0.14350    0.31260    0.54280    1.000
    C72      C        0.13880    0.22430    0.51020    1.000
    O32      O        0.18161    0.18940    0.52620    1.000
    O33      O        0.17510    0.88360    0.89790    1.000
    H55      H        0.20100    0.84370    0.92330    1.000
    H56      H        0.15870    0.86300    0.91610    1.000
    H57      H        0.15000    0.92100    0.47500    1.000
    Cd7      Cd       0.57316    0.04719    0.56787    1.000
    Cd8      Cd       0.73858    0.29494    0.90571    1.000
    O34      O        0.52008    0.78280    0.45420    1.000
    O35      O        0.56486    0.96590    0.66230    1.000
    O36      O        0.66644    0.05320    0.91890    1.000
    O37      O        0.71386    0.18070    0.95440    1.000
    N13      N        0.67755    0.20580    0.79770    1.000
    N14      N        0.63148    0.94400    0.57980    1.000
    C73      C        0.65030    0.19760    0.71610    1.000
    O38      O        0.60088    0.96250    0.79340    1.000
    H58      H        0.61850    0.99610    0.83320    1.000
    N15      N        0.61783    0.12470    0.68310    1.000
    O39      O        0.66780    0.42080    0.51790    1.000
    C74      C        0.65530    0.25960    0.66690    1.000
    C75      C        0.68520    0.93540    0.61080    1.000
    O40      O        0.51819    0.91950    0.49300    1.000
    C76      C        0.73000    0.00220    0.66330    1.000
    C77      C        0.59480    0.99870    0.73220    1.000
    C78      C        0.60430    0.86730    0.53620    1.000
    C79      C        0.76510    0.03010    0.64610    1.000
    H59      H        0.76040    0.00700    0.60100    1.000
    C80      C        0.68150    0.12110    0.90120    1.000
    C81      C        0.66070    0.13410    0.81700    1.000
    C82      C        0.62460    0.08300    0.74700    1.000
    C83      C        0.73780    0.03670    0.73130    1.000
    H60      H        0.71490    0.01750    0.74320    1.000
    C84      C        0.54340    0.85460    0.49100    1.000
    C85      C        0.71490    0.34690    0.65100    1.000
    H61      H        0.75040    0.36760    0.67190    1.000
    C86      C        0.70850    0.29320    0.69880    1.000
    H62      H        0.74000    0.27950    0.75270    1.000
    C87      C        0.60850    0.28200    0.58740    1.000
    H63      H        0.57340    0.25900    0.56570    1.000
    O41      O        0.85270    0.19190    0.81600    1.000
    C88      C        0.77980    0.10030    0.78190    1.000
    H64      H        0.78460    0.12400    0.82690    1.000
    C89      C        0.66620    0.36890    0.57010    1.000
    C90      C        0.81430    0.12760    0.76380    1.000
    C91      C        0.61270    0.33870    0.53840    1.000
    H65      H        0.58060    0.35570    0.48600    1.000
    C92      C        0.72130    0.45160    0.54620    1.000
    H66      H        0.73970    0.48360    0.59700    1.000
    H67      H        0.71620    0.49020    0.50550    1.000
    H68      H        0.74430    0.40190    0.55530    1.000
    C93      C        0.80730    0.09260    0.69710    1.000
    H69      H        0.83080    0.11090    0.68610    1.000
    C94      C        0.88740    0.22730    0.79840    1.000
    H70      H        0.91590    0.18480    0.81380    1.000
    H71      H        0.90510    0.28100    0.82920    1.000
    H72      H        0.86440    0.23980    0.74040    1.000
    N16      N        0.69475    0.85660    0.58980    1.000
    O42      O        0.59048    0.68480    0.46690    1.000
    H73      H        0.56550    0.72130    0.45030    1.000
    C95      C        0.64350    0.81260    0.54280    1.000
    C96      C        0.63880    0.72430    0.51020    1.000
    O43      O        0.68161    0.68940    0.52620    1.000
    O44      O        0.67510    0.38360    0.89790    1.000
    H74      H        0.70100    0.34370    0.92330    1.000
    H75      H        0.65870    0.36300    0.91610    1.000
    H76      H        0.65000    0.42100    0.47500    1.000
    Cd9      Cd       0.07316    0.45281    0.06787    1.000
    Cd10     Cd       0.23858    0.20506    0.40571    1.000
    O45      O        0.02008    0.71720    0.95420    1.000
    O46      O        0.06486    0.53410    0.16230    1.000
    O47      O        0.16644    0.44680    0.41890    1.000
    O48      O        0.21386    0.31930    0.45440    1.000
    N17      N        0.17755    0.29420    0.29770    1.000
    N18      N        0.13148    0.55600    0.07980    1.000
    C97      C        0.15030    0.30240    0.21610    1.000
    O49      O        0.10088    0.53750    0.29340    1.000
    H77      H        0.11850    0.50390    0.33320    1.000
    N19      N        0.11783    0.37530    0.18310    1.000
    O50      O        0.16780    0.07920    0.01790    1.000
    C98      C        0.15530    0.24040    0.16690    1.000
    C99      C        0.18520    0.56460    0.11080    1.000
    O51      O        0.01819    0.58050    0.99300    1.000
    C100     C        0.23000    0.49780    0.16330    1.000
    C101     C        0.09480    0.50130    0.23220    1.000
    C102     C        0.10430    0.63270    0.03620    1.000
    C103     C        0.26510    0.46990    0.14610    1.000
    H78      H        0.26040    0.49300    0.10100    1.000
    C104     C        0.18150    0.37890    0.40120    1.000
    C105     C        0.16070    0.36590    0.31700    1.000
    C106     C        0.12460    0.41700    0.24700    1.000
    C107     C        0.23780    0.46330    0.23130    1.000
    H79      H        0.21490    0.48250    0.24320    1.000
    C108     C        0.04340    0.64540    0.99100    1.000
    C109     C        0.21490    0.15310    0.15100    1.000
    H80      H        0.25040    0.13240    0.17190    1.000
    C110     C        0.20850    0.20680    0.19880    1.000
    H81      H        0.24000    0.22050    0.25270    1.000
    C111     C        0.10850    0.21800    0.08740    1.000
    H82      H        0.07340    0.24100    0.06570    1.000
    O52      O        0.35270    0.30810    0.31600    1.000
    C112     C        0.27980    0.39970    0.28190    1.000
    H83      H        0.28460    0.37600    0.32690    1.000
    C113     C        0.16620    0.13110    0.07010    1.000
    C114     C        0.31430    0.37240    0.26380    1.000
    C115     C        0.11270    0.16130    0.03840    1.000
    H84      H        0.08060    0.14430    0.98600    1.000
    C116     C        0.22130    0.04840    0.04620    1.000
    H85      H        0.23970    0.01640    0.09700    1.000
    H86      H        0.21620    0.00980    0.00550    1.000
    H87      H        0.24430    0.09810    0.05530    1.000
    C117     C        0.30730    0.40740    0.19710    1.000
    H88      H        0.33080    0.38910    0.18610    1.000
    C118     C        0.38740    0.27270    0.29840    1.000
    H89      H        0.41590    0.31520    0.31380    1.000
    H90      H        0.40510    0.21900    0.32920    1.000
    H91      H        0.36440    0.26020    0.24040    1.000
    N20      N        0.19475    0.64340    0.08980    1.000
    O53      O        0.09048    0.81520    0.96690    1.000
    H92      H        0.06550    0.77870    0.95030    1.000
    C119     C        0.14350    0.68740    0.04280    1.000
    C120     C        0.13880    0.77570    0.01020    1.000
    O54      O        0.18161    0.81060    0.02620    1.000
    O55      O        0.17510    0.11640    0.39790    1.000
    H93      H        0.20100    0.15630    0.42330    1.000
    H94      H        0.15870    0.13700    0.41610    1.000
    H95      H        0.15000    0.07900    0.97500    1.000
    Cd11     Cd       0.57316    0.95281    0.06787    1.000
    Cd12     Cd       0.73858    0.70506    0.40571    1.000
    O56      O        0.52008    0.21720    0.95420    1.000
    O57      O        0.56486    0.03410    0.16230    1.000
    O58      O        0.66644    0.94680    0.41890    1.000
    O59      O        0.71386    0.81930    0.45440    1.000
    N21      N        0.67755    0.79420    0.29770    1.000
    N22      N        0.63148    0.05600    0.07980    1.000
    C121     C        0.65030    0.80240    0.21610    1.000
    O60      O        0.60088    0.03750    0.29340    1.000
    H96      H        0.61850    0.00390    0.33320    1.000
    N23      N        0.61783    0.87530    0.18310    1.000
    O61      O        0.66780    0.57920    0.01790    1.000
    C122     C        0.65530    0.74040    0.16690    1.000
    C123     C        0.68520    0.06460    0.11080    1.000
    O62      O        0.51819    0.08050    0.99300    1.000
    C124     C        0.73000    0.99780    0.16330    1.000
    C125     C        0.59480    0.00130    0.23220    1.000
    C126     C        0.60430    0.13270    0.03620    1.000
    C127     C        0.76510    0.96990    0.14610    1.000
    H97      H        0.76040    0.99300    0.10100    1.000
    C128     C        0.68150    0.87890    0.40120    1.000
    C129     C        0.66070    0.86590    0.31700    1.000
    C130     C        0.62460    0.91700    0.24700    1.000
    C131     C        0.73780    0.96330    0.23130    1.000
    H98      H        0.71490    0.98250    0.24320    1.000
    C132     C        0.54340    0.14540    0.99100    1.000
    C133     C        0.71490    0.65310    0.15100    1.000
    H99      H        0.75040    0.63240    0.17190    1.000
    C134     C        0.70850    0.70680    0.19880    1.000
    H100     H        0.74000    0.72050    0.25270    1.000
    C135     C        0.60850    0.71800    0.08740    1.000
    H101     H        0.57340    0.74100    0.06570    1.000
    O63      O        0.85270    0.80810    0.31600    1.000
    C136     C        0.77980    0.89970    0.28190    1.000
    H102     H        0.78460    0.87600    0.32690    1.000
    C137     C        0.66620    0.63110    0.07010    1.000
    C138     C        0.81430    0.87240    0.26380    1.000
    C139     C        0.61270    0.66130    0.03840    1.000
    H103     H        0.58060    0.64430    0.98600    1.000
    C140     C        0.72130    0.54840    0.04620    1.000
    H104     H        0.73970    0.51640    0.09700    1.000
    H105     H        0.71620    0.50980    0.00550    1.000
    H106     H        0.74430    0.59810    0.05530    1.000
    C141     C        0.80730    0.90740    0.19710    1.000
    H107     H        0.83080    0.88910    0.18610    1.000
    C142     C        0.88740    0.77270    0.29840    1.000
    H108     H        0.91590    0.81520    0.31380    1.000
    H109     H        0.90510    0.71900    0.32920    1.000
    H110     H        0.86440    0.76020    0.24040    1.000
    N24      N        0.69475    0.14340    0.08980    1.000
    O64      O        0.59048    0.31520    0.96690    1.000
    H111     H        0.56550    0.27870    0.95030    1.000
    C143     C        0.64350    0.18740    0.04280    1.000
    C144     C        0.63880    0.27570    0.01020    1.000
    O65      O        0.68161    0.31060    0.02620    1.000
    O66      O        0.67510    0.61640    0.39790    1.000
    H112     H        0.70100    0.65630    0.42330    1.000
    H113     H        0.65870    0.63700    0.41610    1.000
    H114     H        0.65000    0.57900    0.97500    1.000
    Cd13     Cd       0.92684    0.45281    0.43213    1.000
    Cd14     Cd       0.76142    0.20506    0.09429    1.000
    O67      O        0.97992    0.71720    0.54580    1.000
    O68      O        0.93514    0.53410    0.33770    1.000
    O69      O        0.83356    0.44680    0.08110    1.000
    O70      O        0.78614    0.31930    0.04560    1.000
    N25      N        0.82245    0.29420    0.20230    1.000
    N26      N        0.86852    0.55600    0.42020    1.000
    C145     C        0.84970    0.30240    0.28390    1.000
    O71      O        0.89912    0.53750    0.20660    1.000
    H115     H        0.88150    0.50390    0.16680    1.000
    N27      N        0.88217    0.37530    0.31690    1.000
    O72      O        0.83220    0.07920    0.48210    1.000
    C146     C        0.84470    0.24040    0.33310    1.000
    C147     C        0.81480    0.56460    0.38920    1.000
    O73      O        0.98181    0.58050    0.50700    1.000
    C148     C        0.77000    0.49780    0.33670    1.000
    C149     C        0.90520    0.50130    0.26780    1.000
    C150     C        0.89570    0.63270    0.46380    1.000
    C151     C        0.73490    0.46990    0.35390    1.000
    H116     H        0.73960    0.49300    0.39900    1.000
    C152     C        0.81850    0.37890    0.09880    1.000
    C153     C        0.83930    0.36590    0.18300    1.000
    C154     C        0.87540    0.41700    0.25300    1.000
    C155     C        0.76220    0.46330    0.26870    1.000
    H117     H        0.78510    0.48250    0.25680    1.000
    C156     C        0.95660    0.64540    0.50900    1.000
    C157     C        0.78510    0.15310    0.34900    1.000
    H118     H        0.74960    0.13240    0.32810    1.000
    C158     C        0.79150    0.20680    0.30120    1.000
    H119     H        0.76000    0.22050    0.24730    1.000
    C159     C        0.89150    0.21800    0.41260    1.000
    H120     H        0.92660    0.24100    0.43430    1.000
    O74      O        0.64730    0.30810    0.18400    1.000
    C160     C        0.72020    0.39970    0.21810    1.000
    H121     H        0.71540    0.37600    0.17310    1.000
    C161     C        0.83380    0.13110    0.42990    1.000
    C162     C        0.68570    0.37240    0.23620    1.000
    C163     C        0.88730    0.16130    0.46160    1.000
    H122     H        0.91940    0.14430    0.51400    1.000
    C164     C        0.77870    0.04840    0.45380    1.000
    H123     H        0.76030    0.01640    0.40300    1.000
    H124     H        0.78380    0.00980    0.49450    1.000
    H125     H        0.75570    0.09810    0.44470    1.000
    C165     C        0.69270    0.40740    0.30290    1.000
    H126     H        0.66920    0.38910    0.31390    1.000
    C166     C        0.61260    0.27270    0.20160    1.000
    H127     H        0.58410    0.31520    0.18620    1.000
    H128     H        0.59490    0.21900    0.17080    1.000
    H129     H        0.63560    0.26020    0.25960    1.000
    N28      N        0.80525    0.64340    0.41020    1.000
    O75      O        0.90952    0.81520    0.53310    1.000
    H130     H        0.93450    0.77870    0.54970    1.000
    C167     C        0.85650    0.68740    0.45720    1.000
    C168     C        0.86120    0.77570    0.48980    1.000
    O76      O        0.81839    0.81060    0.47380    1.000
    O77      O        0.82490    0.11640    0.10210    1.000
    H131     H        0.79900    0.15630    0.07670    1.000
    H132     H        0.84130    0.13700    0.08390    1.000
    H133     H        0.85000    0.07900    0.52500    1.000
    Cd15     Cd       0.42684    0.95281    0.43213    1.000
    Cd16     Cd       0.26142    0.70506    0.09429    1.000
    O78      O        0.47992    0.21720    0.54580    1.000
    O79      O        0.43514    0.03410    0.33770    1.000
    O80      O        0.33356    0.94680    0.08110    1.000
    O81      O        0.28614    0.81930    0.04560    1.000
    N29      N        0.32245    0.79420    0.20230    1.000
    N30      N        0.36852    0.05600    0.42020    1.000
    C169     C        0.34970    0.80240    0.28390    1.000
    O82      O        0.39912    0.03750    0.20660    1.000
    H134     H        0.38150    0.00390    0.16680    1.000
    N31      N        0.38217    0.87530    0.31690    1.000
    O83      O        0.33220    0.57920    0.48210    1.000
    C170     C        0.34470    0.74040    0.33310    1.000
    C171     C        0.31480    0.06460    0.38920    1.000
    O84      O        0.48181    0.08050    0.50700    1.000
    C172     C        0.27000    0.99780    0.33670    1.000
    C173     C        0.40520    0.00130    0.26780    1.000
    C174     C        0.39570    0.13270    0.46380    1.000
    C175     C        0.23490    0.96990    0.35390    1.000
    H135     H        0.23960    0.99300    0.39900    1.000
    C176     C        0.31850    0.87890    0.09880    1.000
    C177     C        0.33930    0.86590    0.18300    1.000
    C178     C        0.37540    0.91700    0.25300    1.000
    C179     C        0.26220    0.96330    0.26870    1.000
    H136     H        0.28510    0.98250    0.25680    1.000
    C180     C        0.45660    0.14540    0.50900    1.000
    C181     C        0.28510    0.65310    0.34900    1.000
    H137     H        0.24960    0.63240    0.32810    1.000
    C182     C        0.29150    0.70680    0.30120    1.000
    H138     H        0.26000    0.72050    0.24730    1.000
    C183     C        0.39150    0.71800    0.41260    1.000
    H139     H        0.42660    0.74100    0.43430    1.000
    O85      O        0.14730    0.80810    0.18400    1.000
    C184     C        0.22020    0.89970    0.21810    1.000
    H140     H        0.21540    0.87600    0.17310    1.000
    C185     C        0.33380    0.63110    0.42990    1.000
    C186     C        0.18570    0.87240    0.23620    1.000
    C187     C        0.38730    0.66130    0.46160    1.000
    H141     H        0.41940    0.64430    0.51400    1.000
    C188     C        0.27870    0.54840    0.45380    1.000
    H142     H        0.26030    0.51640    0.40300    1.000
    H143     H        0.28380    0.50980    0.49450    1.000
    H144     H        0.25570    0.59810    0.44470    1.000
    C189     C        0.19270    0.90740    0.30290    1.000
    H145     H        0.16920    0.88910    0.31390    1.000
    C190     C        0.11260    0.77270    0.20160    1.000
    H146     H        0.08410    0.81520    0.18620    1.000
    H147     H        0.09490    0.71900    0.17080    1.000
    H148     H        0.13560    0.76020    0.25960    1.000
    N32      N        0.30525    0.14340    0.41020    1.000
    O86      O        0.40952    0.31520    0.53310    1.000
    H149     H        0.43450    0.27870    0.54970    1.000
    C191     C        0.35650    0.18740    0.45720    1.000
    C192     C        0.36120    0.27570    0.48980    1.000
    O87      O        0.31839    0.31060    0.47380    1.000
    O88      O        0.32490    0.61640    0.10210    1.000
    H150     H        0.29900    0.65630    0.07670    1.000
    H151     H        0.34130    0.63700    0.08390    1.000
    H152     H        0.35000    0.57900    0.52500    1.000
