# CIF file generated by openbabel 3.1.0, see https://openbabel.org
data_I
_chemical_name_common 'image0'
_cell_length_a 10.1
_cell_length_b 13.978
_cell_length_c 14.481
_cell_angle_alpha 63.119
_cell_angle_beta 71.811
_cell_angle_gamma 79.588
_space_group_name_H-M_alt 'P 1'
_space_group_name_Hall 'P 1'
loop_
    _symmetry_equiv_pos_as_xyz
    x,y,z
loop_
    _atom_site_label
    _atom_site_type_symbol
    _atom_site_fract_x
    _atom_site_fract_y
    _atom_site_fract_z
    _atom_site_occupancy
    Cd1      Cd       0.19568    0.03405    0.39392    1.000
    Cd2      Cd       0.76810    0.92863    0.02594    1.000
    O1       O        0.43370    0.03580    0.34570    1.000
    O2       O        0.38050    0.15610    0.19570    1.000
    O3       O        0.88990    0.04330    0.42090    1.000
    O4       O        0.06290    0.12330    0.27980    1.000
    O5       O        0.11230    0.22270    0.00300    1.000
    O6       O        0.01960    0.06630    0.11510    1.000
    O7       O        0.65300    0.04190    0.09920    1.000
    O8       O        0.81100    0.14870    0.96100    1.000
    N1       N        0.19490    0.86640    0.39730    1.000
    N2       N        0.19130    0.19070    0.41770    1.000
    N3       N        0.60730    0.80750    0.17250    1.000
    C1       C        0.19630    0.77280    0.48530    1.000
    H1       H        0.21260    0.77340    0.54480    1.000
    C2       C        0.17430    0.67810    0.48870    1.000
    H2       H        0.17830    0.61600    0.55060    1.000
    C3       C        0.14650    0.66850    0.40610    1.000
    C4       C        0.15730    0.76030    0.31620    1.000
    H3       H        0.15200    0.75770    0.25450    1.000
    C5       C        0.17660    0.86150    0.31070    1.000
    H4       H        0.17670    0.92370    0.24810    1.000
    C6       C        0.09400    0.56680    0.41480    1.000
    H5       H        0.04170    0.57570    0.36890    1.000
    C7       C        0.12100    0.46350    0.48620    1.000
    H6       H        0.11500    0.45140    0.55600    1.000
    C8       C        0.15880    0.37070    0.45790    1.000
    C9       C        0.17540    0.26960    0.54090    1.000
    H7       H        0.17700    0.26060    0.60830    1.000
    C10      C        0.18900    0.18540    0.51390    1.000
    H8       H        0.19750    0.11700    0.56760    1.000
    C11      C        0.18100    0.28730    0.34150    1.000
    H9       H        0.18460    0.29400    0.27390    1.000
    C12      C        0.16490    0.37870    0.35750    1.000
    H10      H        0.15820    0.44570    0.30140    1.000
    C13      C        0.58770    0.80220    0.26990    1.000
    H11      H        0.60210    0.86260    0.27620    1.000
    C14      C        0.54570    0.70790    0.36420    1.000
    H12      H        0.53350    0.70680    0.43110    1.000
    C15      C        0.52350    0.62020    0.35730    1.000
    C16      C        0.53620    0.62630    0.25960    1.000
    H13      H        0.51780    0.56700    0.25330    1.000
    C17      C        0.57640    0.72020    0.16820    1.000
    H14      H        0.58230    0.72280    0.10170    1.000
    C18      C        0.49510    0.51130    0.45240    1.000
    H15      H        0.46910    0.45740    0.44170    1.000
    C19      C        0.46430    0.11340    0.25010    1.000
    C20      C        0.60840    0.16240    0.21610    1.000
    H16      H        0.58570    0.22390    0.23450    1.000
    C21      C        0.71660    0.09520    0.27660    1.000
    H17      H        0.67210    0.06310    0.35290    1.000
    H18      H        0.75510    0.03760    0.25460    1.000
    C22      C        0.83330    0.16320    0.25480    1.000
    H19      H        0.78640    0.21800    0.28010    1.000
    C23      C        0.90340    0.22750    0.13570    1.000
    H20      H        0.94930    0.28550    0.13230    1.000
    C24      C        0.79520    0.28370    0.06830    1.000
    H21      H        0.75430    0.34690    0.08020    1.000
    H22      H        0.84380    0.30760    0.99290    1.000
    C25      C        0.67660    0.21250    0.09420    1.000
    H23      H        0.60520    0.26010    0.06000    1.000
    C26      C        0.93720    0.10350    0.32370    1.000
    C27      C        0.01920    0.16570    0.08310    1.000
    C28      C        0.71990    0.12790    0.04990    1.000
    Cd3      Cd       0.80432    0.96595    0.60608    1.000
    Cd4      Cd       0.23190    0.07137    0.97406    1.000
    O9       O        0.56630    0.96420    0.65430    1.000
    O10      O        0.61950    0.84390    0.80430    1.000
    O11      O        0.11010    0.95670    0.57910    1.000
    O12      O        0.93710    0.87670    0.72020    1.000
    O13      O        0.88770    0.77730    0.99700    1.000
    O14      O        0.98040    0.93370    0.88490    1.000
    O15      O        0.34700    0.95810    0.90080    1.000
    O16      O        0.18900    0.85130    0.03900    1.000
    N4       N        0.80510    0.13360    0.60270    1.000
    N5       N        0.80870    0.80930    0.58230    1.000
    N6       N        0.39270    0.19250    0.82750    1.000
    C29      C        0.80370    0.22720    0.51470    1.000
    H24      H        0.78740    0.22660    0.45520    1.000
    C30      C        0.82570    0.32190    0.51130    1.000
    H25      H        0.82170    0.38400    0.44940    1.000
    C31      C        0.85350    0.33150    0.59390    1.000
    C32      C        0.84270    0.23970    0.68380    1.000
    H26      H        0.84800    0.24230    0.74550    1.000
    C33      C        0.82340    0.13850    0.68930    1.000
    H27      H        0.82330    0.07630    0.75190    1.000
    C34      C        0.90600    0.43320    0.58520    1.000
    H28      H        0.95830    0.42430    0.63110    1.000
    C35      C        0.87900    0.53650    0.51380    1.000
    H29      H        0.88500    0.54860    0.44400    1.000
    C36      C        0.84120    0.62930    0.54210    1.000
    C37      C        0.82460    0.73040    0.45910    1.000
    H30      H        0.82300    0.73940    0.39170    1.000
    C38      C        0.81100    0.81460    0.48610    1.000
    H31      H        0.80250    0.88300    0.43240    1.000
    C39      C        0.81900    0.71270    0.65850    1.000
    H32      H        0.81540    0.70600    0.72610    1.000
    C40      C        0.83510    0.62130    0.64250    1.000
    H33      H        0.84180    0.55430    0.69860    1.000
    C41      C        0.41230    0.19780    0.73010    1.000
    H34      H        0.39790    0.13740    0.72380    1.000
    C42      C        0.45430    0.29210    0.63580    1.000
    H35      H        0.46650    0.29320    0.56890    1.000
    C43      C        0.47650    0.37980    0.64270    1.000
    C44      C        0.46380    0.37370    0.74040    1.000
    H36      H        0.48220    0.43300    0.74670    1.000
    C45      C        0.42360    0.27980    0.83180    1.000
    H37      H        0.41770    0.27720    0.89830    1.000
    C46      C        0.50490    0.48870    0.54760    1.000
    H38      H        0.53090    0.54260    0.55830    1.000
    C47      C        0.53570    0.88660    0.74990    1.000
    C48      C        0.39160    0.83760    0.78390    1.000
    H39      H        0.41430    0.77610    0.76550    1.000
    C49      C        0.28340    0.90480    0.72340    1.000
    H40      H        0.32790    0.93690    0.64710    1.000
    H41      H        0.24490    0.96240    0.74540    1.000
    C50      C        0.16670    0.83680    0.74520    1.000
    H42      H        0.21360    0.78200    0.71990    1.000
    C51      C        0.09660    0.77250    0.86430    1.000
    H43      H        0.05070    0.71450    0.86770    1.000
    C52      C        0.20480    0.71630    0.93170    1.000
    H44      H        0.24570    0.65310    0.91980    1.000
    H45      H        0.15620    0.69240    0.00710    1.000
    C53      C        0.32340    0.78750    0.90580    1.000
    H46      H        0.39480    0.73990    0.94000    1.000
    C54      C        0.06280    0.89650    0.67630    1.000
    C55      C        0.98080    0.83430    0.91690    1.000
    C56      C        0.28010    0.87210    0.95010    1.000
