data_functionalizedCrystal
_audit_creation_method	'EQeq! by Chris Wilmer'
_symmetry_space_group_name_H-M	'P1'
_symmetry_Int_Tables_number	1
_symmetry_cell_setting	triclinic
loop_
_symmetry_equiv_pos_as_xyz
  x,y,z
_cell_length_a	10.435
_cell_length_b	17.4807
_cell_length_c	17.4807
_cell_angle_alpha	120
_cell_angle_beta	90
_cell_angle_gamma	90
loop_
_atom_site_label
_atom_site_type_symbol
_atom_site_fract_x
_atom_site_fract_y
_atom_site_fract_z
_atom_site_charge
Mof_Zn	Zn	0.91201	0.53519	0.07126	1.18
Mof_Zn	Zn	0.57868	0.53607	0.46481	1.174
Mof_Zn	Zn	0.24534	0.92874	0.46393	1.172
Mof_Zn	Zn	0.41201	0.46481	0.92874	1.173
Mof_Zn	Zn	0.07868	0.46393	0.53519	1.167
Mof_Zn	Zn	0.74534	0.07126	0.53607	1.175
Mof_H 	H 	0.9258	0.3475	0.9264	0.216
Mof_H 	H 	0.009	0.47	0.9193	0.075
Mof_H 	H 	0.2037	0.4695	0.6924	-0.035
Mof_H 	H 	0.1664	0.5168	0.8386	0.085
Mof_H 	H 	0.8246	0.6075	0.8163	0.109
Mof_H 	H 	0.873	0.561	0.671	-0.025
Mof_H 	H 	0.0287	0.6207	0.9758	0.03
Mof_H 	H 	0.8821	0.6237	0.9572	0.056
Mof_H 	H 	0.8089	0.4736	0.8453	0.131
Mof_H 	H 	0.7819	0.3175	0.821	-0.126
Mof_H 	H 	0.901	0.3692	0.7266	0.257
Mof_H 	H 	0.8938	0.2693	0.7	0.251
Mof_H 	H 	0.0144	0.3257	0.75	0.252
Mof_H 	H 	0.59247	0.5789	0.6525	0.221
Mof_H 	H 	0.67567	0.4493	0.53	0.103
Mof_H 	H 	0.87037	0.2229	0.5305	-0.018
Mof_H 	H 	0.83307	0.3218	0.4832	0.071
Mof_H 	H 	0.49127	0.2088	0.3925	0.094
Mof_H 	H 	0.53967	0.11	0.439	-0.01
Mof_H 	H 	0.69537	0.3551	0.3793	0.066
Mof_H 	H 	0.54877	0.3335	0.3763	0.065
Mof_H 	H 	0.47557	0.3717	0.5264	0.139
Mof_H 	H 	0.44857	0.5035	0.6825	-0.149
Mof_H 	H 	0.56767	0.3574	0.6308	0.308
Mof_H 	H 	0.56047	0.4307	0.7307	0.303
Mof_H 	H 	0.68107	0.4243	0.6743	0.333
Mof_H 	H 	0.25913	0.0736	0.4211	0.218
Mof_H 	H 	0.34233	0.0807	0.5507	0.103
Mof_H 	H 	0.53703	0.3076	0.7771	-0.025
Mof_H 	H 	0.49973	0.1614	0.6782	0.066
Mof_H 	H 	0.15793	0.1837	0.7912	0.088
Mof_H 	H 	0.20633	0.329	0.89	-0.014
Mof_H 	H 	0.36203	0.0242	0.6449	0.063
Mof_H 	H 	0.21543	0.0428	0.6665	0.062
Mof_H 	H 	0.14223	0.1547	0.6283	0.132
Mof_H 	H 	0.11523	0.179	0.4965	-0.155
Mof_H 	H 	0.23433	0.2734	0.6426	0.304
Mof_H 	H 	0.22713	0.3	0.5693	0.298
Mof_H 	H 	0.34773	0.25	0.5757	0.328
Mof_H 	H 	0.4258	0.6525	0.0736	0.22
Mof_H 	H 	0.509	0.53	0.0807	0.102
Mof_H 	H 	0.7037	0.5305	0.3076	-0.025
Mof_H 	H 	0.6664	0.4832	0.1614	0.068
Mof_H 	H 	0.3246	0.3925	0.1837	0.092
Mof_H 	H 	0.373	0.439	0.329	-0.011
Mof_H 	H 	0.5287	0.3793	0.0242	0.064
Mof_H 	H 	0.3821	0.3763	0.0428	0.064
Mof_H 	H 	0.3089	0.5264	0.1547	0.139
Mof_H 	H 	0.2819	0.6825	0.179	-0.151
Mof_H 	H 	0.401	0.6308	0.2734	0.308
Mof_H 	H 	0.3938	0.7307	0.3	0.302
Mof_H 	H 	0.5144	0.6743	0.25	0.33
Mof_H 	H 	0.09247	0.4211	0.3475	0.199
Mof_H 	H 	0.17567	0.5507	0.47	0.105
Mof_H 	H 	0.37037	0.7771	0.4695	-0.03
Mof_H 	H 	0.33307	0.6782	0.5168	0.073
Mof_H 	H 	0.99127	0.7912	0.6075	0.146
Mof_H 	H 	0.03967	0.89	0.561	-0.033
Mof_H 	H 	0.19537	0.6449	0.6207	0.066
Mof_H 	H 	0.04877	0.6665	0.6237	0.057
Mof_H 	H 	0.97557	0.6283	0.4736	0.125
Mof_H 	H 	0.94857	0.4965	0.3175	-0.087
Mof_H 	H 	0.06767	0.6426	0.3692	0.255
Mof_H 	H 	0.06047	0.5693	0.2693	0.25
Mof_H 	H 	0.18107	0.5757	0.3257	0.284
Mof_H 	H 	0.75913	0.9264	0.5789	0.222
Mof_H 	H 	0.84233	0.9193	0.4493	0.107
Mof_H 	H 	0.03703	0.6924	0.2229	-0.067
Mof_H 	H 	0.99973	0.8386	0.3218	0.092
Mof_H 	H 	0.65793	0.8163	0.2088	0.101
Mof_H 	H 	0.70633	0.671	0.11	-0.014
Mof_H 	H 	0.86203	0.9758	0.3551	0.072
Mof_H 	H 	0.71543	0.9572	0.3335	0.069
Mof_H 	H 	0.64223	0.8453	0.3717	0.139
Mof_H 	H 	0.61523	0.821	0.5035	-0.15
Mof_H 	H 	0.73433	0.7266	0.3574	0.312
Mof_H 	H 	0.72713	0.7	0.4307	0.308
Mof_H 	H 	0.84773	0.75	0.4243	0.342
Mof_C 	C 	0.1264	0.4974	0.7175	0.099
Mof_C 	C 	0.1043	0.5252	0.8053	-0.257
Mof_C 	C 	0.9892	0.5657	0.844	0.195
Mof_C 	C 	0.9022	0.5794	0.7926	-0.244
Mof_C 	C 	0.9318	0.5507	0.7048	0.142
Mof_C 	C 	0.9586	0.5874	0.937	-0.151
Mof_C 	C 	0.8281	0.4529	0.8869	-0.344
Mof_C 	C 	0.7089	0.4689	0.9439	0.427
Mof_C 	C 	0.8603	0.3522	0.8312	0.476
Mof_C 	C 	0.9231	0.3268	0.7441	-0.804
Mof_C 	C 	0.79307	0.2201	0.5026	0.074
Mof_C 	C 	0.77097	0.2801	0.4748	-0.192
Mof_C 	C 	0.65587	0.2783	0.4343	0.146
Mof_C 	C 	0.56887	0.2132	0.4206	-0.207
Mof_C 	C 	0.59847	0.1541	0.4493	0.086
Mof_C 	C 	0.62527	0.3496	0.4126	-0.191
Mof_C 	C 	0.49477	0.434	0.5471	-0.37
Mof_C 	C 	0.37557	0.475	0.5311	0.434
Mof_C 	C 	0.52697	0.479	0.6478	0.547
Mof_C 	C 	0.58977	0.4173	0.6732	-0.995
Mof_C 	C 	0.45973	0.2825	0.7799	0.073
Mof_C 	C 	0.43763	0.1947	0.7199	-0.192
Mof_C 	C 	0.32253	0.156	0.7217	0.142
Mof_C 	C 	0.23553	0.2074	0.7868	-0.206
Mof_C 	C 	0.26513	0.2952	0.8459	0.084
Mof_C 	C 	0.29193	0.063	0.6504	-0.188
Mof_C 	C 	0.16143	0.1131	0.566	-0.359
Mof_C 	C 	0.04223	0.0561	0.525	0.394
Mof_C 	C 	0.19363	0.1688	0.521	0.54
Mof_C 	C 	0.25643	0.2559	0.5827	-0.986
Mof_C 	C 	0.6264	0.5026	0.2825	0.073
Mof_C 	C 	0.6043	0.4748	0.1947	-0.193
Mof_C 	C 	0.4892	0.4343	0.156	0.144
Mof_C 	C 	0.4022	0.4206	0.2074	-0.206
Mof_C 	C 	0.4318	0.4493	0.2952	0.085
Mof_C 	C 	0.4586	0.4126	0.063	-0.19
Mof_C 	C 	0.3281	0.5471	0.1131	-0.372
Mof_C 	C 	0.2089	0.5311	0.0561	0.436
Mof_C 	C 	0.3603	0.6478	0.1688	0.548
Mof_C 	C 	0.4231	0.6732	0.2559	-0.994
Mof_C 	C 	0.29307	0.7799	0.4974	0.087
Mof_C 	C 	0.27097	0.7199	0.5252	-0.215
Mof_C 	C 	0.15587	0.7217	0.5657	0.177
Mof_C 	C 	0.06887	0.7868	0.5794	-0.294
Mof_C 	C 	0.09847	0.8459	0.5507	0.124
Mof_C 	C 	0.12527	0.6504	0.5874	-0.206
Mof_C 	C 	0.99477	0.566	0.4529	-0.282
Mof_C 	C 	0.87557	0.525	0.4689	0.412
Mof_C 	C 	0.02697	0.521	0.3522	0.405
Mof_C 	C 	0.08977	0.5827	0.3268	-0.844
Mof_C 	C 	0.95973	0.7175	0.2201	0.147
Mof_C 	C 	0.93763	0.8053	0.2801	-0.236
Mof_C 	C 	0.82253	0.844	0.2783	0.169
Mof_C 	C 	0.73553	0.7926	0.2132	-0.225
Mof_C 	C 	0.76513	0.7048	0.1541	0.097
Mof_C 	C 	0.79193	0.937	0.3496	-0.204
Mof_C 	C 	0.66143	0.8869	0.434	-0.371
Mof_C 	C 	0.54223	0.9439	0.475	0.431
Mof_C 	C 	0.69363	0.8312	0.479	0.55
Mof_C 	C 	0.75643	0.7441	0.4173	-1.006
Mof_N 	N 	0.041	0.5088	0.6665	-0.309
Mof_N 	N 	0.9375	0.504	0.9406	-0.198
Mof_N 	N 	0.70767	0.1577	0.4912	-0.278
Mof_N 	N 	0.60417	0.4366	0.496	-0.214
Mof_N 	N 	0.37433	0.3335	0.8423	-0.279
Mof_N 	N 	0.27083	0.0594	0.5634	-0.215
Mof_N 	N 	0.541	0.4912	0.3335	-0.279
Mof_N 	N 	0.4375	0.496	0.0594	-0.214
Mof_N 	N 	0.20767	0.8423	0.5088	-0.29
Mof_N 	N 	0.10417	0.5634	0.504	-0.234
Mof_N 	N 	0.87433	0.6665	0.1577	-0.289
Mof_N 	N 	0.77083	0.9406	0.4366	-0.213
Mof_O 	O 	0.7191	0.5095	0.0259	-0.501
Mof_O 	O 	0.6069	0.4395	0.901	-0.502
Mof_O 	O 	0.9498	0.3293	0.8754	-0.471
Mof_O 	O 	0.38577	0.5164	0.4905	-0.504
Mof_O 	O 	0.27357	0.4615	0.5605	-0.506
Mof_O 	O 	0.61647	0.5461	0.6707	-0.507
Mof_O 	O 	0.05243	0.9741	0.4836	-0.506
Mof_O 	O 	0.94023	0.099	0.5385	-0.469
Mof_O 	O 	0.28313	0.1246	0.4539	-0.507
Mof_O 	O 	0.2191	0.4905	0.9741	-0.509
Mof_O 	O 	0.1069	0.5605	0.099	-0.513
Mof_O 	O 	0.4498	0.6707	0.1246	-0.508
Mof_O 	O 	0.88577	0.4836	0.5095	-0.486
Mof_O 	O 	0.77357	0.5385	0.4395	-0.496
Mof_O 	O 	0.11647	0.4539	0.3293	-0.471
Mof_O 	O 	0.55243	0.0259	0.5164	-0.501
Mof_O 	O 	0.44023	0.901	0.4615	-0.504
Mof_O 	O 	0.78313	0.8754	0.5461	-0.503
_end
