data_functionalizedCrystal
_audit_creation_method	'EQeq! by Chris Wilmer'
_symmetry_space_group_name_H-M	'P1'
_symmetry_Int_Tables_number	1
_symmetry_cell_setting	triclinic
loop_
_symmetry_equiv_pos_as_xyz
  x,y,z
_cell_length_a	7.8292
_cell_length_b	9.3621
_cell_length_c	15.1467
_cell_angle_alpha	94.703
_cell_angle_beta	102.889
_cell_angle_gamma	101.231
loop_
_atom_site_label
_atom_site_type_symbol
_atom_site_fract_x
_atom_site_fract_y
_atom_site_fract_z
_atom_site_charge
Mof_C 	C 	0.6747	0.5709	0.8957	0.3
Mof_C 	C 	0.5213	0.5391	0.8113	-0.02
Mof_C 	C 	0.4254	0.648	0.7884	-0.083
Mof_H 	H 	0.4606	0.7419	0.8241	0.089
Mof_C 	C 	0.279	0.6182	0.7135	0.094
Mof_C 	C 	0.2217	0.4811	0.6609	-0.081
Mof_H 	H 	0.1171	0.4611	0.6119	0.048
Mof_C 	C 	0.3193	0.3733	0.6808	-0.041
Mof_C 	C 	0.4698	0.4028	0.7556	-0.021
Mof_H 	H 	0.5374	0.3298	0.7686	0.071
Mof_C 	C 	0.2652	0.226	0.6218	0.299
Mof_C 	C 	0.1408	0.7719	0.6018	0.099
Mof_H 	H 	0.1563	0.7208	0.5484	-0.017
Mof_C 	C 	0.1388	0.8371	0.7431	0.12
Mof_C 	C 	0.1534	0.8362	0.8415	-0.054
Mof_C 	C 	0.2275	0.9635	0.9039	0.01
Mof_H 	H 	0.269	0.0543	0.8836	0.01
Mof_C 	C 	0.2396	0.955	0.9965	0.048
Mof_H 	H 	0.2879	0.0399	0.0405	-0.014
Mof_C 	C 	0.1786	0.8181	0.023	-0.048
Mof_H 	H 	0.1902	0.8111	0.0862	0.031
Mof_C 	C 	0.0922	0.7059	0.8739	0.025
Mof_H 	H 	0.0395	0.6199	0.8312	-0.008
Mof_N 	N 	0.1854	0.7347	0.6871	-0.152
Mof_N 	N 	0.0732	0.8889	0.6042	-0.189
Mof_N 	N 	0.0716	0.9323	0.6936	-0.102
Mof_N 	N 	0.1045	0.6965	0.9628	-0.193
Mof_O 	O 	0.693	0.6833	0.9503	-0.233
Mof_O 	O 	0.777	0.4781	0.90294	-0.324
Mof_O 	O 	0.3804	0.15	0.6196	-0.27
Mof_O 	O 	0.1003	0.1897	0.57684	-0.427
Mof_C 	C 	0.3253	0.4291	0.1043	0.295
Mof_C 	C 	0.4787	0.4609	0.1887	-0.037
Mof_C 	C 	0.5746	0.352	0.2116	-0.095
Mof_H 	H 	0.5394	0.2581	0.1759	0.072
Mof_C 	C 	0.721	0.3818	0.2865	0.111
Mof_C 	C 	0.7783	0.5189	0.3391	-0.096
Mof_H 	H 	0.8829	0.5389	0.3881	0.111
Mof_C 	C 	0.6807	0.6267	0.3192	-0.01
Mof_C 	C 	0.5302	0.5972	0.2444	-0.032
Mof_H 	H 	0.4626	0.6702	0.2314	0.062
Mof_C 	C 	0.7348	0.774	0.3782	0.284
Mof_C 	C 	0.8592	0.2281	0.3982	0.117
Mof_H 	H 	0.8437	0.2792	0.4516	0.026
Mof_C 	C 	0.8612	0.1629	0.2569	0.133
Mof_C 	C 	0.8466	0.1638	0.1585	-0.045
Mof_C 	C 	0.7725	0.0365	0.0961	0.01
Mof_H 	H 	0.731	0.9457	0.1164	0.073
Mof_C 	C 	0.7604	0.045	0.0035	-0.212
Mof_H 	H 	0.7121	0.9601	0.9595	0.169
Mof_C 	C 	0.8214	0.1819	0.977	0.155
Mof_H 	H 	0.8098	0.1889	0.9138	0.002
Mof_C 	C 	0.9078	0.2941	0.1261	0.063
Mof_H 	H 	0.9605	0.3801	0.1688	0.044
Mof_N 	N 	0.8146	0.2653	0.3129	-0.151
Mof_N 	N 	0.9268	0.1111	0.3958	-0.153
Mof_N 	N 	0.9284	0.0677	0.3064	-0.087
Mof_N 	N 	0.8955	0.3035	0.0372	-0.195
Mof_O 	O 	0.307	0.3167	0.0497	-0.302
Mof_O 	O 	0.223	0.5219	0.09706	-0.413
Mof_O 	O 	0.6196	0.85	0.3804	-0.239
Mof_O 	O 	0.8997	0.8103	0.42316	-0.295
Mof_Cu	Cu	-1.3504e-17	0.5	-0	0.834
Mof_Cu	Cu	-3.03839e-17	0	0.5	0.834
_end
