# CIF file generated by openbabel 3.1.0, see https://openbabel.org
data_I
_chemical_name_common 'image0'
_cell_length_a 12.7447
_cell_length_b 12.7447
_cell_length_c 10.7107
_cell_angle_alpha 90
_cell_angle_beta 90
_cell_angle_gamma 120
_space_group_name_H-M_alt 'P 1'
_space_group_name_Hall 'P 1'
loop_
    _symmetry_equiv_pos_as_xyz
    x,y,z
loop_
    _atom_site_label
    _atom_site_type_symbol
    _atom_site_fract_x
    _atom_site_fract_y
    _atom_site_fract_z
    _atom_site_occupancy
    N1       N        0.46840    0.66480    0.11550    1.000
    C1       C        0.45880    0.56640    0.43580    1.000
    H1       H        0.42960    0.61200    0.39300    1.000
    C2       C        0.50710    0.61430    0.16990    1.000
    N2       N        0.33520    0.80360    0.11550    1.000
    C3       C        0.43360    0.89240    0.43580    1.000
    H2       H        0.38800    0.81760    0.39300    1.000
    C4       C        0.38570    0.89280    0.16990    1.000
    N3       N        0.19640    0.53160    0.11550    1.000
    C5       C        0.10760    0.54120    0.43580    1.000
    H3       H        0.18240    0.57040    0.39300    1.000
    C6       C        0.10720    0.49290    0.16990    1.000
    N4       N        0.33520    0.53160    0.88450    1.000
    C7       C        0.43360    0.54120    0.56420    1.000
    H4       H        0.38800    0.57040    0.60700    1.000
    C8       C        0.38570    0.49290    0.83010    1.000
    N5       N        0.19640    0.66480    0.88450    1.000
    C9       C        0.10760    0.56640    0.56420    1.000
    H5       H        0.18240    0.61200    0.60700    1.000
    C10      C        0.10720    0.61430    0.83010    1.000
    N6       N        0.46840    0.80360    0.88450    1.000
    C11      C        0.45880    0.89240    0.56420    1.000
    H6       H        0.42960    0.81760    0.60700    1.000
    C12      C        0.50710    0.89280    0.83010    1.000
    N7       N        0.53160    0.33520    0.88450    1.000
    C13      C        0.54120    0.43360    0.56420    1.000
    H7       H        0.57040    0.38800    0.60700    1.000
    C14      C        0.49290    0.38570    0.83010    1.000
    N8       N        0.66480    0.19640    0.88450    1.000
    C15      C        0.56640    0.10760    0.56420    1.000
    H8       H        0.61200    0.18240    0.60700    1.000
    C16      C        0.61430    0.10720    0.83010    1.000
    N9       N        0.80360    0.46840    0.88450    1.000
    C17      C        0.89240    0.45880    0.56420    1.000
    H9       H        0.81760    0.42960    0.60700    1.000
    C18      C        0.89280    0.50710    0.83010    1.000
    N10      N        0.66480    0.46840    0.11550    1.000
    C19      C        0.56640    0.45880    0.43580    1.000
    H10      H        0.61200    0.42960    0.39300    1.000
    C20      C        0.61430    0.50710    0.16990    1.000
    N11      N        0.80360    0.33520    0.11550    1.000
    C21      C        0.89240    0.43360    0.43580    1.000
    H11      H        0.81760    0.38800    0.39300    1.000
    C22      C        0.89280    0.38570    0.16990    1.000
    N12      N        0.53160    0.19640    0.11550    1.000
    C23      C        0.54120    0.10760    0.43580    1.000
    H12      H        0.57040    0.18240    0.39300    1.000
    C24      C        0.49290    0.10720    0.16990    1.000
    Zn1      Zn       0.33333    0.66667    0.00000    1.000
    Zn2      Zn       0.66667    0.33333    0.00000    1.000
    C25      C        0.55260    0.55260    0.23740    1.000
    C26      C        0.52550    0.52550    0.37180    1.000
    C27      C        0.44740    0.00000    0.23740    1.000
    C28      C        0.47450    0.00000    0.37180    1.000
    C29      C        0.00000    0.44740    0.23740    1.000
    C30      C        0.00000    0.47450    0.37180    1.000
    C31      C        0.44740    0.44740    0.76260    1.000
    C32      C        0.47450    0.47450    0.62820    1.000
    C33      C        0.00000    0.55260    0.76260    1.000
    C34      C        0.00000    0.52550    0.62820    1.000
    C35      C        0.55260    0.00000    0.76260    1.000
    C36      C        0.52550    0.00000    0.62820    1.000
