data_functionalizedCrystal
_audit_creation_method	'EQeq! by Chris Wilmer'
_symmetry_space_group_name_H-M	'P1'
_symmetry_Int_Tables_number	1
_symmetry_cell_setting	triclinic
loop_
_symmetry_equiv_pos_as_xyz
  x,y,z
_cell_length_a	27.329
_cell_length_b	17.377
_cell_length_c	10.2124
_cell_angle_alpha	90
_cell_angle_beta	90
_cell_angle_gamma	90
loop_
_atom_site_label
_atom_site_type_symbol
_atom_site_fract_x
_atom_site_fract_y
_atom_site_fract_z
_atom_site_charge
Mof_Ga	Ga	0.6565	0.6777	0.1104	4.414
Mof_Ga	Ga	0.7798	0.7397	0.0886	4.429
Mof_Ga	Ga	0.7574	0.9133	0.9251	4.329
Mof_Ga	Ga	0.5531	0.4227	0.9005	4.476
Mof_P 	P 	0.8579	0.8224	0.9047	1.068
Mof_P 	P 	0.5592	0.5734	0.0963	1.243
Mof_P 	P 	0.7539	0.065	0.1116	1.113
Mof_P 	P 	0.6961	0.7712	0.8852	0.993
Mof_F 	F 	0.7666	0.8537	0.0907	-1.385
Mof_F 	F 	0.7164	0.7306	0.1787	-1.485
Mof_O 	O 	0.8386	0.7566	0.9869	-1.05
Mof_O 	O 	0.8726	0.7951	0.7672	-1.228
Mof_O 	O 	0.9057	0.8529	0.9702	-1.259
Mof_O 	O 	0.8223	0.8907	0.8887	-1.328
Mof_O 	O 	0.5974	0.6281	0.0478	-1.12
Mof_O 	O 	0.5574	0.5034	0.0091	-1.399
Mof_O 	O 	0.509	0.6133	0.095	-1.387
Mof_O 	O 	0.5706	0.5445	0.237	-1.373
Mof_O 	O 	0.7167	0.1283	0.0912	-1.084
Mof_O 	O 	0.7405	0.0007	0.0153	-1.142
Mof_O 	O 	0.7526	0.0329	0.2522	-1.011
Mof_O 	O 	0.8068	0.0905	0.0789	-1.271
Mof_O 	O 	0.7437	0.7315	0.9268	-1.172
Mof_O 	O 	0.7014	0.8591	0.8932	-1.202
Mof_O 	O 	0.6832	0.746	0.7453	-1.024
Mof_O 	O 	0.6523	0.7458	0.9723	-1.137
Mof_Ga	Ga	0.8435	0.8223	0.6104	4.411
Mof_Ga	Ga	0.7202	0.7603	0.5886	4.425
Mof_Ga	Ga	0.7426	0.5867	0.4251	4.331
Mof_Ga	Ga	0.9469	0.0773	0.4005	4.474
Mof_P 	P 	0.6421	0.6776	0.4047	1.067
Mof_P 	P 	0.9408	0.9266	0.5963	1.242
Mof_P 	P 	0.7461	0.435	0.6116	1.112
Mof_P 	P 	0.8039	0.7288	0.3852	0.992
Mof_F 	F 	0.7334	0.6463	0.5907	-1.386
Mof_F 	F 	0.7836	0.7694	0.6787	-1.484
Mof_O 	O 	0.6614	0.7434	0.4869	-1.049
Mof_O 	O 	0.6274	0.7049	0.2672	-1.228
Mof_O 	O 	0.5943	0.6471	0.4702	-1.26
Mof_O 	O 	0.6777	0.6093	0.3887	-1.328
Mof_O 	O 	0.9026	0.8719	0.5478	-1.12
Mof_O 	O 	0.9426	0.9966	0.5091	-1.399
Mof_O 	O 	0.991	0.8867	0.595	-1.387
Mof_O 	O 	0.9294	0.9555	0.737	-1.373
Mof_O 	O 	0.7833	0.3717	0.5912	-1.084
Mof_O 	O 	0.7595	0.4993	0.5153	-1.14
Mof_O 	O 	0.7474	0.4671	0.7522	-1.011
Mof_O 	O 	0.6932	0.4095	0.5789	-1.271
Mof_O 	O 	0.7563	0.7685	0.4268	-1.171
Mof_O 	O 	0.7986	0.6409	0.3932	-1.202
Mof_O 	O 	0.8168	0.754	0.2453	-1.024
Mof_O 	O 	0.8477	0.7542	0.4723	-1.136
Mof_Ga	Ga	0.3435	0.6777	0.3896	4.411
Mof_Ga	Ga	0.2202	0.7397	0.4114	4.424
Mof_Ga	Ga	0.2426	0.9133	0.5749	4.33
Mof_Ga	Ga	0.4469	0.4227	0.5995	4.474
Mof_P 	P 	0.1421	0.8224	0.5953	1.067
Mof_P 	P 	0.4408	0.5734	0.4037	1.242
Mof_P 	P 	0.2461	0.065	0.3884	1.112
Mof_P 	P 	0.3039	0.7712	0.6148	0.992
Mof_F 	F 	0.2334	0.8537	0.4093	-1.385
Mof_F 	F 	0.2836	0.7306	0.3213	-1.484
Mof_O 	O 	0.1614	0.7566	0.5131	-1.048
Mof_O 	O 	0.1274	0.7951	0.7328	-1.228
Mof_O 	O 	0.0943	0.8529	0.5298	-1.26
Mof_O 	O 	0.1777	0.8907	0.6113	-1.328
Mof_O 	O 	0.4026	0.6281	0.4522	-1.12
Mof_O 	O 	0.4426	0.5034	0.4909	-1.399
Mof_O 	O 	0.491	0.6133	0.405	-1.387
Mof_O 	O 	0.4294	0.5445	0.263	-1.373
Mof_O 	O 	0.2833	0.1283	0.4088	-1.084
Mof_O 	O 	0.2595	0.0007	0.4847	-1.141
Mof_O 	O 	0.2474	0.0329	0.2478	-1.011
Mof_O 	O 	0.1932	0.0905	0.4211	-1.271
Mof_O 	O 	0.2563	0.7315	0.5732	-1.171
Mof_O 	O 	0.2986	0.8591	0.6068	-1.202
Mof_O 	O 	0.3168	0.746	0.7547	-1.023
Mof_O 	O 	0.3477	0.7458	0.5277	-1.137
Mof_Ga	Ga	0.1565	0.8223	0.8896	4.41
Mof_Ga	Ga	0.2798	0.7603	0.9114	4.421
Mof_Ga	Ga	0.2574	0.5867	0.0749	4.332
Mof_Ga	Ga	0.0531	0.0773	0.0995	4.465
Mof_P 	P 	0.3579	0.6776	0.0953	1.067
Mof_P 	P 	0.0592	0.9266	0.9037	1.241
Mof_P 	P 	0.2539	0.435	0.8884	1.112
Mof_P 	P 	0.1961	0.7288	0.1148	0.992
Mof_F 	F 	0.2666	0.6463	0.9093	-1.386
Mof_F 	F 	0.2164	0.7694	0.8213	-1.484
Mof_O 	O 	0.3386	0.7434	0.0131	-1.047
Mof_O 	O 	0.3726	0.7049	0.2328	-1.228
Mof_O 	O 	0.4057	0.6471	0.0298	-1.26
Mof_O 	O 	0.3223	0.6093	0.1113	-1.328
Mof_O 	O 	0.0974	0.8719	0.9522	-1.12
Mof_O 	O 	0.0574	0.9966	0.9909	-1.397
Mof_O 	O 	0.009	0.8867	0.905	-1.384
Mof_O 	O 	0.0706	0.9555	0.763	-1.374
Mof_O 	O 	0.2167	0.3717	0.9088	-1.084
Mof_O 	O 	0.2405	0.4993	0.9847	-1.141
Mof_O 	O 	0.2526	0.4671	0.7478	-1.01
Mof_O 	O 	0.3068	0.4095	0.9211	-1.271
Mof_O 	O 	0.2437	0.7685	0.0732	-1.17
Mof_O 	O 	0.2014	0.6409	0.1068	-1.202
Mof_O 	O 	0.1832	0.754	0.2547	-1.023
Mof_O 	O 	0.1523	0.7542	0.0277	-1.136
Mof_Ga	Ga	0.3435	0.3223	0.8896	4.413
Mof_Ga	Ga	0.2202	0.2603	0.9114	4.428
Mof_Ga	Ga	0.2426	0.0867	0.0749	4.328
Mof_Ga	Ga	0.4469	0.5773	0.0995	4.475
Mof_P 	P 	0.1421	0.1776	0.0953	1.067
Mof_P 	P 	0.4408	0.4266	0.9037	1.242
Mof_P 	P 	0.2461	0.935	0.8884	1.112
Mof_P 	P 	0.3039	0.2288	0.1148	0.992
Mof_F 	F 	0.2334	0.1463	0.9093	-1.385
Mof_F 	F 	0.2836	0.2694	0.8213	-1.485
Mof_O 	O 	0.1614	0.2434	0.0131	-1.05
Mof_O 	O 	0.1274	0.2049	0.2328	-1.228
Mof_O 	O 	0.0943	0.1471	0.0298	-1.259
Mof_O 	O 	0.1777	0.1093	0.1113	-1.328
Mof_O 	O 	0.4026	0.3719	0.9522	-1.12
Mof_O 	O 	0.4426	0.4966	0.9909	-1.399
Mof_O 	O 	0.491	0.3867	0.905	-1.387
Mof_O 	O 	0.4294	0.4555	0.763	-1.373
Mof_O 	O 	0.2833	0.8717	0.9088	-1.084
Mof_O 	O 	0.2595	0.9993	0.9847	-1.142
Mof_O 	O 	0.2474	0.9671	0.7478	-1.011
Mof_O 	O 	0.1932	0.9095	0.9211	-1.271
Mof_O 	O 	0.2563	0.2685	0.0732	-1.172
Mof_O 	O 	0.2986	0.1409	0.1068	-1.202
Mof_O 	O 	0.3168	0.254	0.2547	-1.024
Mof_O 	O 	0.3477	0.2542	0.0277	-1.137
Mof_Ga	Ga	0.1565	0.1777	0.3896	4.411
Mof_Ga	Ga	0.2798	0.2397	0.4114	4.425
Mof_Ga	Ga	0.2574	0.4133	0.5749	4.331
Mof_Ga	Ga	0.0531	0.9227	0.5995	4.474
Mof_P 	P 	0.3579	0.3224	0.5953	1.067
Mof_P 	P 	0.0592	0.0734	0.4037	1.242
Mof_P 	P 	0.2539	0.565	0.3884	1.112
Mof_P 	P 	0.1961	0.2712	0.6148	0.992
Mof_F 	F 	0.2666	0.3537	0.4093	-1.386
Mof_F 	F 	0.2164	0.2306	0.3213	-1.484
Mof_O 	O 	0.3386	0.2566	0.5131	-1.049
Mof_O 	O 	0.3726	0.2951	0.7328	-1.228
Mof_O 	O 	0.4057	0.3529	0.5298	-1.26
Mof_O 	O 	0.3223	0.3907	0.6113	-1.328
Mof_O 	O 	0.0974	0.1281	0.4522	-1.12
Mof_O 	O 	0.0574	0.0034	0.4909	-1.399
Mof_O 	O 	0.009	0.1133	0.405	-1.387
Mof_O 	O 	0.0706	0.0445	0.263	-1.373
Mof_O 	O 	0.2167	0.6283	0.4088	-1.084
Mof_O 	O 	0.2405	0.5007	0.4847	-1.14
Mof_O 	O 	0.2526	0.5329	0.2478	-1.011
Mof_O 	O 	0.3068	0.5905	0.4211	-1.271
Mof_O 	O 	0.2437	0.2315	0.5732	-1.171
Mof_O 	O 	0.2014	0.3591	0.6068	-1.202
Mof_O 	O 	0.1832	0.246	0.7547	-1.024
Mof_O 	O 	0.1523	0.2458	0.5277	-1.136
Mof_Ga	Ga	0.6565	0.3223	0.6104	4.411
Mof_Ga	Ga	0.7798	0.2603	0.5886	4.424
Mof_Ga	Ga	0.7574	0.0867	0.4251	4.33
Mof_Ga	Ga	0.5531	0.5773	0.4005	4.474
Mof_P 	P 	0.8579	0.1776	0.4047	1.067
Mof_P 	P 	0.5592	0.4266	0.5963	1.242
Mof_P 	P 	0.7539	0.935	0.6116	1.112
Mof_P 	P 	0.6961	0.2288	0.3852	0.992
Mof_F 	F 	0.7666	0.1463	0.5907	-1.385
Mof_F 	F 	0.7164	0.2694	0.6787	-1.484
Mof_O 	O 	0.8386	0.2434	0.4869	-1.048
Mof_O 	O 	0.8726	0.2049	0.2672	-1.228
Mof_O 	O 	0.9057	0.1471	0.4702	-1.26
Mof_O 	O 	0.8223	0.1093	0.3887	-1.328
Mof_O 	O 	0.5974	0.3719	0.5478	-1.12
Mof_O 	O 	0.5574	0.4966	0.5091	-1.399
Mof_O 	O 	0.509	0.3867	0.595	-1.387
Mof_O 	O 	0.5706	0.4555	0.737	-1.373
Mof_O 	O 	0.7167	0.8717	0.5912	-1.084
Mof_O 	O 	0.7405	0.9993	0.5153	-1.141
Mof_O 	O 	0.7526	0.9671	0.7522	-1.011
Mof_O 	O 	0.8068	0.9095	0.5789	-1.271
Mof_O 	O 	0.7437	0.2685	0.4268	-1.171
Mof_O 	O 	0.7014	0.1409	0.3932	-1.202
Mof_O 	O 	0.6832	0.254	0.2453	-1.023
Mof_O 	O 	0.6523	0.2542	0.4723	-1.137
Mof_Ga	Ga	0.8435	0.1777	0.1104	4.41
Mof_Ga	Ga	0.7202	0.2397	0.0886	4.421
Mof_Ga	Ga	0.7426	0.4133	0.9251	4.332
Mof_Ga	Ga	0.9469	0.9227	0.9005	4.465
Mof_P 	P 	0.6421	0.3224	0.9047	1.067
Mof_P 	P 	0.9408	0.0734	0.0963	1.241
Mof_P 	P 	0.7461	0.565	0.1116	1.112
Mof_P 	P 	0.8039	0.2712	0.8852	0.992
Mof_F 	F 	0.7334	0.3537	0.0907	-1.386
Mof_F 	F 	0.7836	0.2306	0.1787	-1.484
Mof_O 	O 	0.6614	0.2566	0.9869	-1.047
Mof_O 	O 	0.6274	0.2951	0.7672	-1.228
Mof_O 	O 	0.5943	0.3529	0.9702	-1.26
Mof_O 	O 	0.6777	0.3907	0.8887	-1.328
Mof_O 	O 	0.9026	0.1281	0.0478	-1.12
Mof_O 	O 	0.9426	0.0034	0.0091	-1.397
Mof_O 	O 	0.991	0.1133	0.095	-1.384
Mof_O 	O 	0.9294	0.0445	0.237	-1.374
Mof_O 	O 	0.7833	0.6283	0.0912	-1.084
Mof_O 	O 	0.7595	0.5007	0.0153	-1.141
Mof_O 	O 	0.7474	0.5329	0.2522	-1.01
Mof_O 	O 	0.6932	0.5905	0.0789	-1.271
Mof_O 	O 	0.7563	0.2315	0.9268	-1.17
Mof_O 	O 	0.7986	0.3591	0.8932	-1.202
Mof_O 	O 	0.8168	0.246	0.7453	-1.023
Mof_O 	O 	0.8477	0.2458	0.9723	-1.136
_end
