data_functionalizedCrystal
_audit_creation_method	'EQeq! by Chris Wilmer'
_symmetry_space_group_name_H-M	'P1'
_symmetry_Int_Tables_number	1
_symmetry_cell_setting	triclinic
loop_
_symmetry_equiv_pos_as_xyz
  x,y,z
_cell_length_a	15.184
_cell_length_b	16.7775
_cell_length_c	16.7775
_cell_angle_alpha	120
_cell_angle_beta	90
_cell_angle_gamma	90
loop_
_atom_site_label
_atom_site_type_symbol
_atom_site_fract_x
_atom_site_fract_y
_atom_site_fract_z
_atom_site_charge
Mof_Ni	Ni	0.75	0.47059	0.73529	1.135
Mof_Ni	Ni	0.25	0.7353	0.4706	1.135
Mof_Ni	Ni	0.25	0.7353	0.26471	1.135
Mof_Ni	Ni	0.25	0.52941	0.26471	1.135
Mof_Ni	Ni	0.75	0.2647	0.73529	1.135
Mof_Ni	Ni	0.75	0.2647	0.5294	1.135
Mof_H 	H 	0.9484	0.0582	0.4115	0.053
Mof_H 	H 	0.75	0.2243	0.2107	0.088
Mof_H 	H 	0.25	0.2107	0.9864	0.088
Mof_H 	H 	0.75	0.7893	0.0136	0.088
Mof_H 	H 	0.5516	0.5885	0.9418	0.053
Mof_H 	H 	0.9484	0.3533	0.9418	0.053
Mof_H 	H 	0.4484	0.4115	0.3533	0.053
Mof_H 	H 	0.75	0.0685	0.3678	0.008
Mof_H 	H 	0.4484	0.4115	0.0582	0.053
Mof_H 	H 	0.75	0.0685	0.7007	0.008
Mof_H 	H 	0.0516	0.9418	0.5885	0.053
Mof_H 	H 	0.25	0.9315	0.2993	0.008
Mof_H 	H 	0.5516	0.3533	0.9418	0.053
Mof_H 	H 	0.25	0.7007	0.6322	0.008
Mof_H 	H 	0.75	0.9864	0.7757	0.089
Mof_H 	H 	0.9484	0.0582	0.6467	0.054
Mof_H 	H 	0.25	0.2107	0.2243	0.089
Mof_H 	H 	0.5516	0.0582	0.6467	0.054
Mof_H 	H 	0.4484	0.9418	0.5885	0.054
Mof_H 	H 	0.9484	0.5885	0.9418	0.054
Mof_H 	H 	0.0516	0.4115	0.0582	0.054
Mof_H 	H 	0.0516	0.4115	0.3533	0.054
Mof_H 	H 	0.25	0.3678	0.0685	0.009
Mof_H 	H 	0.75	0.2993	0.9315	0.009
Mof_H 	H 	0.25	0.7757	0.9864	0.089
Mof_H 	H 	0.25	0.9315	0.6322	0.009
Mof_H 	H 	0.75	0.7893	0.7757	0.089
Mof_H 	H 	0.25	0.0136	0.2243	0.089
Mof_H 	H 	0.0516	0.9418	0.3533	0.054
Mof_H 	H 	0.0516	0.6467	0.5885	0.054
Mof_H 	H 	0.75	0.6322	0.7007	0.009
Mof_H 	H 	0.75	0.6322	0.9315	0.009
Mof_H 	H 	0.75	0.9864	0.2107	0.089
Mof_H 	H 	0.25	0.7757	0.7893	0.089
Mof_H 	H 	0.25	0.0136	0.7893	0.089
Mof_H 	H 	0.9484	0.5885	0.6467	0.054
Mof_H 	H 	0.9484	0.3533	0.4115	0.054
Mof_H 	H 	0.25	0.7007	0.0685	0.009
Mof_H 	H 	0.0516	0.6467	0.0582	0.054
Mof_H 	H 	0.4484	0.6467	0.0582	0.054
Mof_H 	H 	0.5516	0.0582	0.4115	0.054
Mof_H 	H 	0.5516	0.3533	0.4115	0.054
Mof_H 	H 	0.75	0.2243	0.0136	0.089
Mof_H 	H 	0.4484	0.6467	0.5885	0.054
Mof_H 	H 	0.5516	0.5885	0.6467	0.054
Mof_H 	H 	0.4484	0.9418	0.3533	0.054
Mof_H 	H 	0.75	0.2993	0.3678	0.009
Mof_H 	H 	0.25	0.3678	0.2993	0.009
Mof_C 	C 	0.25	0.9555	0.911	0.1
Mof_C 	C 	0.03126	0.44815	0.41319	-0.015
Mof_C 	C 	0.13025	0.57319	0.42681	0.387
Mof_C 	C 	0.46874	0.96504	0.55185	-0.015
Mof_C 	C 	0.75	0.8083	0.90415	0.069
Mof_C 	C 	0.75	0.66438	0.76472	0.091
Mof_C 	C 	0.36975	0.57319	0.14638	0.387
Mof_C 	C 	0.75	0.75892	0.80928	-0.138
Mof_C 	C 	0.25	0.33562	0.10034	0.091
Mof_C 	C 	0.63025	0.42681	0.85362	0.387
Mof_C 	C 	0.86975	0.42681	0.85362	0.387
Mof_C 	C 	0.25	0.94964	0.19072	-0.137
Mof_C 	C 	0.75	0.09585	0.90415	0.069
Mof_C 	C 	0.53126	0.41319	0.44815	-0.015
Mof_C 	C 	0.25	0.80928	0.75892	-0.138
Mof_C 	C 	0.25	0.90415	0.09585	0.069
Mof_C 	C 	0.25	0.89966	0.23528	0.091
Mof_C 	C 	0.75	0.0445	0.089	0.1
Mof_C 	C 	0.96874	0.03496	0.44815	-0.015
Mof_C 	C 	0.43702	0.93024	0.46512	-0.077
Mof_C 	C 	0.03126	0.58681	0.55185	-0.015
Mof_C 	C 	0.25	0.80928	0.05036	-0.137
Mof_C 	C 	0.86975	0.42681	0.57319	0.387
Mof_C 	C 	0.25	0.33562	0.23528	0.091
Mof_C 	C 	0.46874	0.58681	0.55185	-0.015
Mof_C 	C 	0.75	0.23528	0.89966	0.091
Mof_C 	C 	0.75	0.75892	0.94964	-0.137
Mof_C 	C 	0.25	0.089	0.0445	0.1
Mof_C 	C 	0.25	0.76472	0.66438	0.091
Mof_C 	C 	0.75	0.05036	0.80928	-0.137
Mof_C 	C 	0.75	0.19072	0.24108	-0.138
Mof_C 	C 	0.75	0.23528	0.33562	0.091
Mof_C 	C 	0.13025	0.57319	0.14638	0.387
Mof_C 	C 	0.93702	0.06976	0.53488	-0.077
Mof_C 	C 	0.13025	0.85362	0.42681	0.387
Mof_C 	C 	0.03126	0.96504	0.55185	-0.015
Mof_C 	C 	0.36975	0.57319	0.42681	0.387
Mof_C 	C 	0.63025	0.42681	0.57319	0.387
Mof_C 	C 	0.25	0.90415	0.8083	0.069
Mof_C 	C 	0.46874	0.44815	0.41319	-0.015
Mof_C 	C 	0.75	0.10034	0.76472	0.091
Mof_C 	C 	0.56298	0.46512	0.93024	-0.077
Mof_C 	C 	0.06298	0.53488	0.46512	-0.077
Mof_C 	C 	0.46874	0.44815	0.03496	-0.015
Mof_C 	C 	0.03126	0.96504	0.41319	-0.015
Mof_C 	C 	0.25	0.76472	0.10034	0.091
Mof_C 	C 	0.75	0.911	0.9555	0.1
Mof_C 	C 	0.25	0.89966	0.66438	0.091
Mof_C 	C 	0.25	0.24108	0.19072	-0.138
Mof_C 	C 	0.96874	0.41319	0.96504	-0.015
Mof_C 	C 	0.75	0.0445	0.9555	0.1
Mof_C 	C 	0.63025	0.14638	0.57319	0.387
Mof_C 	C 	0.75	0.05036	0.24108	-0.137
Mof_C 	C 	0.25	0.24108	0.05036	-0.137
Mof_C 	C 	0.86975	0.14638	0.57319	0.387
Mof_C 	C 	0.46874	0.96504	0.41319	-0.015
Mof_C 	C 	0.96874	0.55185	0.96504	-0.015
Mof_C 	C 	0.03126	0.58681	0.03496	-0.015
Mof_C 	C 	0.93702	0.46512	0.93024	-0.077
Mof_C 	C 	0.53126	0.55185	0.58681	-0.015
Mof_C 	C 	0.06298	0.53488	0.06976	-0.077
Mof_C 	C 	0.93702	0.46512	0.53488	-0.077
Mof_C 	C 	0.36975	0.85362	0.42681	0.387
Mof_C 	C 	0.06298	0.93024	0.46512	-0.077
Mof_C 	C 	0.75	0.09585	0.1917	0.069
Mof_C 	C 	0.25	0.94964	0.75892	-0.137
Mof_C 	C 	0.96874	0.03496	0.58681	-0.015
Mof_C 	C 	0.56298	0.46512	0.53488	-0.077
Mof_C 	C 	0.43702	0.53488	0.06976	-0.077
Mof_C 	C 	0.53126	0.55185	0.96504	-0.015
Mof_C 	C 	0.96874	0.41319	0.44815	-0.015
Mof_C 	C 	0.75	0.19072	0.94964	-0.137
Mof_C 	C 	0.46874	0.58681	0.03496	-0.015
Mof_C 	C 	0.96874	0.55185	0.58681	-0.015
Mof_C 	C 	0.25	0.1917	0.09585	0.069
Mof_C 	C 	0.25	0.9555	0.0445	0.1
Mof_C 	C 	0.75	0.10034	0.33562	0.091
Mof_C 	C 	0.56298	0.06976	0.53488	-0.077
Mof_C 	C 	0.75	0.66438	0.89966	0.091
Mof_C 	C 	0.53126	0.41319	0.96504	-0.015
Mof_C 	C 	0.03126	0.44815	0.03496	-0.015
Mof_C 	C 	0.43702	0.53488	0.46512	-0.077
Mof_C 	C 	0.53126	0.03496	0.44815	-0.015
Mof_C 	C 	0.53126	0.03496	0.58681	-0.015
Mof_N 	N 	0.75	0.6165	0.80825	-0.207
Mof_N 	N 	0.25	0.90608	0.95304	-0.139
Mof_N 	N 	0.75	0.19175	0.80825	-0.207
Mof_N 	N 	0.25	0.80825	0.19175	-0.207
Mof_N 	N 	0.75	0.19175	0.3835	-0.207
Mof_N 	N 	0.75	0.95304	0.04696	-0.139
Mof_N 	N 	0.75	0.09392	0.04696	-0.139
Mof_N 	N 	0.75	0.95304	0.90608	-0.139
Mof_N 	N 	0.25	0.80825	0.6165	-0.207
Mof_N 	N 	0.25	0.3835	0.19175	-0.207
Mof_N 	N 	0.25	0.04696	0.95304	-0.139
Mof_N 	N 	0.25	0.04696	0.09392	-0.139
Mof_O 	O 	0.84535	0.17444	0.52095	-0.412
Mof_O 	O 	0.15465	0.65349	0.47905	-0.412
Mof_O 	O 	0.15465	0.52095	0.17444	-0.412
Mof_O 	O 	0.15465	0.82556	0.47905	-0.412
Mof_O 	O 	0.84535	0.34651	0.82556	-0.412
Mof_O 	O 	0.34535	0.52095	0.17444	-0.412
Mof_O 	O 	0.84535	0.34651	0.52095	-0.412
Mof_O 	O 	0.34535	0.65349	0.17444	-0.412
Mof_O 	O 	0.65465	0.47905	0.65349	-0.412
Mof_O 	O 	0.65465	0.47905	0.82556	-0.412
Mof_O 	O 	0.84535	0.17444	0.65349	-0.412
Mof_O 	O 	0.34535	0.52095	0.34651	-0.412
Mof_O 	O 	0.25	0.66667	0.33334	-0.561
Mof_O 	O 	0.15465	0.65349	0.17444	-0.412
Mof_O 	O 	0.84535	0.47905	0.65349	-0.412
Mof_O 	O 	0.34535	0.82556	0.34651	-0.412
Mof_O 	O 	0.34535	0.82556	0.47905	-0.412
Mof_O 	O 	0.65465	0.17444	0.52095	-0.412
Mof_O 	O 	0.34535	0.65349	0.47905	-0.412
Mof_O 	O 	0.15465	0.82556	0.34651	-0.412
Mof_O 	O 	0.65465	0.17444	0.65349	-0.412
Mof_O 	O 	0.84535	0.47905	0.82556	-0.412
Mof_O 	O 	0.75	0.33333	0.66666	-0.561
Mof_O 	O 	0.65465	0.34651	0.52095	-0.412
Mof_O 	O 	0.15465	0.52095	0.34651	-0.412
Mof_O 	O 	0.65465	0.34651	0.82556	-0.412
_end
