data_functionalizedCrystal
_audit_creation_method	'EQeq! by Chris Wilmer'
_symmetry_space_group_name_H-M	'P1'
_symmetry_Int_Tables_number	1
_symmetry_cell_setting	triclinic
loop_
_symmetry_equiv_pos_as_xyz
  x,y,z
_cell_length_a	30.7464
_cell_length_b	15.6855
_cell_length_c	22.0714
_cell_angle_alpha	90
_cell_angle_beta	133.21
_cell_angle_gamma	90
loop_
_atom_site_label
_atom_site_type_symbol
_atom_site_fract_x
_atom_site_fract_y
_atom_site_fract_z
_atom_site_charge
Mof_Ce	Ce	0.33122	0.87107	0.48629	1.927
Mof_Ce	Ce	0.6106	0.86283	0.67213	1.905
Mof_O 	O 	0.25331	0.7658	0.3734	-0.57
Mof_O 	O 	0.2242	0.651	0.2944	-0.512
Mof_O 	O 	0.4409	0.8549	0.5695	-0.561
Mof_O 	O 	0.52017	0.7831	0.6125	-0.589
Mof_O 	O 	0.6341	0.974	0.6175	-0.596
Mof_O 	O 	0.6746	0.0974	0.6271	-0.562
Mof_O 	O 	0.6228	0.8835	0.7951	-0.555
Mof_O 	O 	0.6576	0.9536	0.9084	-0.597
Mof_N 	N 	0.3667	0.7326	0.4641	-0.195
Mof_N 	N 	0.662	0.0024	0.7576	-0.188
Mof_C 	C 	0.3282	0.6745	0.4072	-0.101
Mof_C 	C 	0.3461	0.5998	0.3959	0.009
Mof_H 	H 	0.3174	0.5601	0.3542	0.005
Mof_C 	C 	0.4065	0.5842	0.4468	-0.115
Mof_H 	H 	0.4201	0.5327	0.4419	0.03
Mof_C 	C 	0.4468	0.6449	0.5047	0.022
Mof_H 	H 	0.4884	0.6364	0.5391	-0.019
Mof_C 	C 	0.4255	0.7184	0.512	-0.127
Mof_C 	C 	0.2632	0.6989	0.3535	0.412
Mof_C 	C 	0.4654	0.7902	0.57	0.424
Mof_C 	C 	0.6846	0.0555	0.7386	-0.114
Mof_C 	C 	0.7255	0.1185	0.7928	0.029
Mof_H 	H 	0.7435	0.1531	0.7796	-0.015
Mof_C 	C 	0.7394	0.1295	0.8672	-0.126
Mof_H 	H 	0.7667	0.1723	0.9058	0.027
Mof_C 	C 	0.7123	0.0765	0.8833	0.035
Mof_H 	H 	0.7196	0.0844	0.9323	-0.024
Mof_C 	C 	0.6752	0.0129	0.8291	-0.127
Mof_C 	C 	0.6634	0.0416	0.6547	0.431
Mof_C 	C 	0.6495	0.946	0.8455	0.429
Mof_Ce	Ce	0.83122	0.37107	0.48629	1.929
Mof_Ce	Ce	0.1106	0.36283	0.67213	1.905
Mof_O 	O 	0.75331	0.2658	0.3734	-0.569
Mof_O 	O 	0.7242	0.151	0.2944	-0.511
Mof_O 	O 	0.9409	0.3549	0.5695	-0.56
Mof_O 	O 	0.02017	0.2831	0.6125	-0.589
Mof_O 	O 	0.1341	0.474	0.6175	-0.596
Mof_O 	O 	0.1746	0.5974	0.6271	-0.561
Mof_O 	O 	0.1228	0.3835	0.7951	-0.556
Mof_O 	O 	0.1576	0.4536	0.9084	-0.598
Mof_N 	N 	0.8667	0.2326	0.4641	-0.195
Mof_N 	N 	0.162	0.5024	0.7576	-0.188
Mof_C 	C 	0.8282	0.1745	0.4072	-0.101
Mof_C 	C 	0.8461	0.0998	0.3959	0.009
Mof_H 	H 	0.8174	0.0601	0.3542	0.005
Mof_C 	C 	0.9065	0.0842	0.4468	-0.115
Mof_H 	H 	0.9201	0.0327	0.4419	0.03
Mof_C 	C 	0.9468	0.1449	0.5047	0.022
Mof_H 	H 	0.9884	0.1364	0.5391	-0.019
Mof_C 	C 	0.9255	0.2184	0.512	-0.127
Mof_C 	C 	0.7632	0.1989	0.3535	0.412
Mof_C 	C 	0.9654	0.2902	0.57	0.424
Mof_C 	C 	0.1846	0.5555	0.7386	-0.114
Mof_C 	C 	0.2255	0.6185	0.7928	0.029
Mof_H 	H 	0.2435	0.6531	0.7796	-0.015
Mof_C 	C 	0.2394	0.6295	0.8672	-0.125
Mof_H 	H 	0.2667	0.6723	0.9058	0.028
Mof_C 	C 	0.2123	0.5765	0.8833	0.034
Mof_H 	H 	0.2196	0.5844	0.9323	-0.023
Mof_C 	C 	0.1752	0.5129	0.8291	-0.124
Mof_C 	C 	0.1634	0.5416	0.6547	0.432
Mof_C 	C 	0.1495	0.446	0.8455	0.428
Mof_Ce	Ce	0.66878	0.87107	0.01371	1.926
Mof_Ce	Ce	0.3894	0.86283	0.82787	1.908
Mof_O 	O 	0.74669	0.7658	0.1266	-0.569
Mof_O 	O 	0.7758	0.651	0.2056	-0.511
Mof_O 	O 	0.5591	0.8549	0.9305	-0.559
Mof_O 	O 	0.47983	0.7831	0.8875	-0.588
Mof_O 	O 	0.3659	0.974	0.8825	-0.593
Mof_O 	O 	0.3254	0.0974	0.8729	-0.56
Mof_O 	O 	0.3772	0.8835	0.7049	-0.556
Mof_O 	O 	0.3424	0.9536	0.5916	-0.598
Mof_N 	N 	0.6333	0.7326	0.0359	-0.195
Mof_N 	N 	0.338	0.0024	0.7424	-0.189
Mof_C 	C 	0.6718	0.6745	0.0928	-0.101
Mof_C 	C 	0.6539	0.5998	0.1041	0.01
Mof_H 	H 	0.6826	0.5601	0.1458	0.004
Mof_C 	C 	0.5935	0.5842	0.0532	-0.116
Mof_H 	H 	0.5799	0.5327	0.0581	0.031
Mof_C 	C 	0.5532	0.6449	0.9953	0.023
Mof_H 	H 	0.5116	0.6364	0.9609	-0.019
Mof_C 	C 	0.5745	0.7184	0.988	-0.126
Mof_C 	C 	0.7368	0.6989	0.1465	0.412
Mof_C 	C 	0.5346	0.7902	0.93	0.424
Mof_C 	C 	0.3154	0.0555	0.7614	-0.114
Mof_C 	C 	0.2745	0.1185	0.7072	0.028
Mof_H 	H 	0.2565	0.1531	0.7204	-0.015
Mof_C 	C 	0.2606	0.1295	0.6328	-0.126
Mof_H 	H 	0.2333	0.1723	0.5942	0.027
Mof_C 	C 	0.2877	0.0765	0.6167	0.035
Mof_H 	H 	0.2804	0.0844	0.5677	-0.024
Mof_C 	C 	0.3248	0.0129	0.6709	-0.126
Mof_C 	C 	0.3366	0.0416	0.8453	0.429
Mof_C 	C 	0.3505	0.946	0.6545	0.429
Mof_Ce	Ce	0.16878	0.37107	0.01371	1.933
Mof_Ce	Ce	0.8894	0.36283	0.82787	1.905
Mof_O 	O 	0.24669	0.2658	0.1266	-0.569
Mof_O 	O 	0.2758	0.151	0.2056	-0.511
Mof_O 	O 	0.0591	0.3549	0.9305	-0.561
Mof_O 	O 	0.97983	0.2831	0.8875	-0.589
Mof_O 	O 	0.8659	0.474	0.8825	-0.596
Mof_O 	O 	0.8254	0.5974	0.8729	-0.561
Mof_O 	O 	0.8772	0.3835	0.7049	-0.556
Mof_O 	O 	0.8424	0.4536	0.5916	-0.598
Mof_N 	N 	0.1333	0.2326	0.0359	-0.194
Mof_N 	N 	0.838	0.5024	0.7424	-0.188
Mof_C 	C 	0.1718	0.1745	0.0928	-0.1
Mof_C 	C 	0.1539	0.0998	0.1041	0.008
Mof_H 	H 	0.1826	0.0601	0.1458	0.005
Mof_C 	C 	0.0935	0.0842	0.0532	-0.112
Mof_H 	H 	0.0799	0.0327	0.0581	0.029
Mof_C 	C 	0.0532	0.1449	0.9953	0.019
Mof_H 	H 	0.0116	0.1364	0.9609	-0.018
Mof_C 	C 	0.0745	0.2184	0.988	-0.127
Mof_C 	C 	0.2368	0.1989	0.1465	0.412
Mof_C 	C 	0.0346	0.2902	0.93	0.424
Mof_C 	C 	0.8154	0.5555	0.7614	-0.114
Mof_C 	C 	0.7745	0.6185	0.7072	0.029
Mof_H 	H 	0.7565	0.6531	0.7204	-0.015
Mof_C 	C 	0.7606	0.6295	0.6328	-0.126
Mof_H 	H 	0.7333	0.6723	0.5942	0.027
Mof_C 	C 	0.7877	0.5765	0.6167	0.034
Mof_H 	H 	0.7804	0.5844	0.5677	-0.023
Mof_C 	C 	0.8248	0.5129	0.6709	-0.125
Mof_C 	C 	0.8366	0.5416	0.8453	0.432
Mof_C 	C 	0.8505	0.446	0.6545	0.428
Mof_Ce	Ce	0.66878	0.12893	0.51371	1.928
Mof_Ce	Ce	0.3894	0.13717	0.32787	1.906
Mof_O 	O 	0.74669	0.2342	0.6266	-0.569
Mof_O 	O 	0.7758	0.349	0.7056	-0.511
Mof_O 	O 	0.5591	0.1451	0.4305	-0.56
Mof_O 	O 	0.47983	0.2169	0.3875	-0.588
Mof_O 	O 	0.3659	0.026	0.3825	-0.595
Mof_O 	O 	0.3254	0.9026	0.3729	-0.561
Mof_O 	O 	0.3772	0.1165	0.2049	-0.555
Mof_O 	O 	0.3424	0.0464	0.0916	-0.597
Mof_N 	N 	0.6333	0.2674	0.5359	-0.195
Mof_N 	N 	0.338	0.9976	0.2424	-0.188
Mof_C 	C 	0.6718	0.3255	0.5928	-0.101
Mof_C 	C 	0.6539	0.4002	0.6041	0.009
Mof_H 	H 	0.6826	0.4399	0.6458	0.005
Mof_C 	C 	0.5935	0.4158	0.5532	-0.115
Mof_H 	H 	0.5799	0.4673	0.5581	0.03
Mof_C 	C 	0.5532	0.3551	0.4953	0.022
Mof_H 	H 	0.5116	0.3636	0.4609	-0.019
Mof_C 	C 	0.5745	0.2816	0.488	-0.127
Mof_C 	C 	0.7368	0.3011	0.6465	0.412
Mof_C 	C 	0.5346	0.2098	0.43	0.424
Mof_C 	C 	0.3154	0.9445	0.2614	-0.114
Mof_C 	C 	0.2745	0.8815	0.2072	0.029
Mof_H 	H 	0.2565	0.8469	0.2204	-0.015
Mof_C 	C 	0.2606	0.8705	0.1328	-0.126
Mof_H 	H 	0.2333	0.8277	0.0942	0.027
Mof_C 	C 	0.2877	0.9235	0.1167	0.035
Mof_H 	H 	0.2804	0.9156	0.0677	-0.024
Mof_C 	C 	0.3248	0.9871	0.1709	-0.127
Mof_C 	C 	0.3366	0.9584	0.3453	0.431
Mof_C 	C 	0.3505	0.054	0.1545	0.429
Mof_Ce	Ce	0.16878	0.62893	0.51371	1.929
Mof_Ce	Ce	0.8894	0.63717	0.32787	1.905
Mof_O 	O 	0.24669	0.7342	0.6266	-0.569
Mof_O 	O 	0.2758	0.849	0.7056	-0.511
Mof_O 	O 	0.0591	0.6451	0.4305	-0.56
Mof_O 	O 	0.97983	0.7169	0.3875	-0.589
Mof_O 	O 	0.8659	0.526	0.3825	-0.596
Mof_O 	O 	0.8254	0.4026	0.3729	-0.561
Mof_O 	O 	0.8772	0.6165	0.2049	-0.556
Mof_O 	O 	0.8424	0.5464	0.0916	-0.598
Mof_N 	N 	0.1333	0.7674	0.5359	-0.195
Mof_N 	N 	0.838	0.4976	0.2424	-0.188
Mof_C 	C 	0.1718	0.8255	0.5928	-0.101
Mof_C 	C 	0.1539	0.9002	0.6041	0.009
Mof_H 	H 	0.1826	0.9399	0.6458	0.005
Mof_C 	C 	0.0935	0.9158	0.5532	-0.115
Mof_H 	H 	0.0799	0.9673	0.5581	0.03
Mof_C 	C 	0.0532	0.8551	0.4953	0.022
Mof_H 	H 	0.0116	0.8636	0.4609	-0.019
Mof_C 	C 	0.0745	0.7816	0.488	-0.127
Mof_C 	C 	0.2368	0.8011	0.6465	0.412
Mof_C 	C 	0.0346	0.7098	0.43	0.424
Mof_C 	C 	0.8154	0.4445	0.2614	-0.114
Mof_C 	C 	0.7745	0.3815	0.2072	0.029
Mof_H 	H 	0.7565	0.3469	0.2204	-0.015
Mof_C 	C 	0.7606	0.3705	0.1328	-0.125
Mof_H 	H 	0.7333	0.3277	0.0942	0.028
Mof_C 	C 	0.7877	0.4235	0.1167	0.034
Mof_H 	H 	0.7804	0.4156	0.0677	-0.023
Mof_C 	C 	0.8248	0.4871	0.1709	-0.124
Mof_C 	C 	0.8366	0.4584	0.3453	0.432
Mof_C 	C 	0.8505	0.554	0.1545	0.428
Mof_Ce	Ce	0.33122	0.12893	0.98629	1.926
Mof_Ce	Ce	0.6106	0.13717	0.17213	1.908
Mof_O 	O 	0.25331	0.2342	0.8734	-0.569
Mof_O 	O 	0.2242	0.349	0.7944	-0.511
Mof_O 	O 	0.4409	0.1451	0.0695	-0.559
Mof_O 	O 	0.52017	0.2169	0.1125	-0.588
Mof_O 	O 	0.6341	0.026	0.1175	-0.593
Mof_O 	O 	0.6746	0.9026	0.1271	-0.56
Mof_O 	O 	0.6228	0.1165	0.2951	-0.556
Mof_O 	O 	0.6576	0.0464	0.4084	-0.598
Mof_N 	N 	0.3667	0.2674	0.9641	-0.195
Mof_N 	N 	0.662	0.9976	0.2576	-0.189
Mof_C 	C 	0.3282	0.3255	0.9072	-0.101
Mof_C 	C 	0.3461	0.4002	0.8959	0.01
Mof_H 	H 	0.3174	0.4399	0.8542	0.004
Mof_C 	C 	0.4065	0.4158	0.9468	-0.116
Mof_H 	H 	0.4201	0.4673	0.9419	0.031
Mof_C 	C 	0.4468	0.3551	0.0047	0.023
Mof_H 	H 	0.4884	0.3636	0.0391	-0.019
Mof_C 	C 	0.4255	0.2816	0.012	-0.126
Mof_C 	C 	0.2632	0.3011	0.8535	0.412
Mof_C 	C 	0.4654	0.2098	0.07	0.424
Mof_C 	C 	0.6846	0.9445	0.2386	-0.114
Mof_C 	C 	0.7255	0.8815	0.2928	0.028
Mof_H 	H 	0.7435	0.8469	0.2796	-0.015
Mof_C 	C 	0.7394	0.8705	0.3672	-0.126
Mof_H 	H 	0.7667	0.8277	0.4058	0.027
Mof_C 	C 	0.7123	0.9235	0.3833	0.035
Mof_H 	H 	0.7196	0.9156	0.4323	-0.024
Mof_C 	C 	0.6752	0.9871	0.3291	-0.126
Mof_C 	C 	0.6634	0.9584	0.1547	0.429
Mof_C 	C 	0.6495	0.054	0.3455	0.429
Mof_Ce	Ce	0.83122	0.62893	0.98629	1.933
Mof_Ce	Ce	0.1106	0.63717	0.17213	1.905
Mof_O 	O 	0.75331	0.7342	0.8734	-0.569
Mof_O 	O 	0.7242	0.849	0.7944	-0.511
Mof_O 	O 	0.9409	0.6451	0.0695	-0.561
Mof_O 	O 	0.02017	0.7169	0.1125	-0.589
Mof_O 	O 	0.1341	0.526	0.1175	-0.596
Mof_O 	O 	0.1746	0.4026	0.1271	-0.561
Mof_O 	O 	0.1228	0.6165	0.2951	-0.556
Mof_O 	O 	0.1576	0.5464	0.4084	-0.598
Mof_N 	N 	0.8667	0.7674	0.9641	-0.194
Mof_N 	N 	0.162	0.4976	0.2576	-0.188
Mof_C 	C 	0.8282	0.8255	0.9072	-0.1
Mof_C 	C 	0.8461	0.9002	0.8959	0.008
Mof_H 	H 	0.8174	0.9399	0.8542	0.005
Mof_C 	C 	0.9065	0.9158	0.9468	-0.112
Mof_H 	H 	0.9201	0.9673	0.9419	0.029
Mof_C 	C 	0.9468	0.8551	0.0047	0.019
Mof_H 	H 	0.9884	0.8636	0.0391	-0.018
Mof_C 	C 	0.9255	0.7816	0.012	-0.127
Mof_C 	C 	0.7632	0.8011	0.8535	0.412
Mof_C 	C 	0.9654	0.7098	0.07	0.424
Mof_C 	C 	0.1846	0.4445	0.2386	-0.114
Mof_C 	C 	0.2255	0.3815	0.2928	0.029
Mof_H 	H 	0.2435	0.3469	0.2796	-0.015
Mof_C 	C 	0.2394	0.3705	0.3672	-0.126
Mof_H 	H 	0.2667	0.3277	0.4058	0.027
Mof_C 	C 	0.2123	0.4235	0.3833	0.034
Mof_H 	H 	0.2196	0.4156	0.4323	-0.023
Mof_C 	C 	0.1752	0.4871	0.3291	-0.125
Mof_C 	C 	0.1634	0.4584	0.1547	0.432
Mof_C 	C 	0.1495	0.554	0.3455	0.428
_end
