data_functionalizedCrystal
_audit_creation_method	'EQeq! by Chris Wilmer'
_symmetry_space_group_name_H-M	'P1'
_symmetry_Int_Tables_number	1
_symmetry_cell_setting	triclinic
loop_
_symmetry_equiv_pos_as_xyz
  x,y,z
_cell_length_a	17.4611
_cell_length_b	17.4611
_cell_length_c	17.4611
_cell_angle_alpha	90
_cell_angle_beta	90
_cell_angle_gamma	90
loop_
_atom_site_label
_atom_site_type_symbol
_atom_site_fract_x
_atom_site_fract_y
_atom_site_fract_z
_atom_site_charge
Mof_Co	Co	0.14404	0.37903	0.0118	1.156
Mof_C 	C 	0.7311	0.2677	0.9659	0.067
Mof_H 	H 	0.7151	0.2707	0.9152	0.005
Mof_C 	C 	0.7469	0.2318	0.0815	0.109
Mof_H 	H 	0.7431	0.2032	0.1263	-0.037
Mof_C 	C 	0.7791	0.3179	0.0012	-0.107
Mof_C 	C 	0.8178	0.3868	0.9751	0.352
Mof_C 	C 	0.2631	0.5722	0.0771	0.077
Mof_H 	H 	0.263	0.6228	0.0937	-0.019
Mof_C 	C 	0.2999	0.4623	0.0376	0.095
Mof_H 	H 	0.3317	0.4222	0.0227	-0.051
Mof_C 	C 	0.1989	0.5277	0.0671	-0.126
Mof_C 	C 	0.1184	0.5391	0.0752	0.395
Mof_N 	N 	0.7878	0.2932	0.0755	-0.237
Mof_N 	N 	0.7104	0.2133	0.0156	-0.259
Mof_N 	N 	0.3262	0.5314	0.0592	-0.289
Mof_N 	N 	0.2246	0.4571	0.0398	-0.232
Mof_H 	H 	0.5495	0.5148	0.0024	0.105
Mof_O 	O 	0.8206	0.4036	0.9061	-0.457
Mof_O 	O 	0.8491	0.4283	0.0291	-0.517
Mof_O 	O 	0.0919	0.5997	0.1018	-0.476
Mof_O 	O 	0.077	0.4813	0.0548	-0.536
Mof_Co	Co	0.35596	0.62097	0.5118	1.155
Mof_C 	C 	0.7689	0.7323	0.4659	0.066
Mof_H 	H 	0.7849	0.7293	0.4152	0.004
Mof_C 	C 	0.7531	0.7682	0.5815	0.108
Mof_H 	H 	0.7569	0.7968	0.6263	-0.037
Mof_C 	C 	0.7209	0.6821	0.5012	-0.106
Mof_C 	C 	0.6822	0.6132	0.4751	0.352
Mof_C 	C 	0.2369	0.4278	0.5771	0.077
Mof_H 	H 	0.237	0.3772	0.5937	-0.019
Mof_C 	C 	0.2001	0.5377	0.5376	0.095
Mof_H 	H 	0.1683	0.5778	0.5227	-0.051
Mof_C 	C 	0.3011	0.4723	0.5671	-0.126
Mof_C 	C 	0.3816	0.4609	0.5752	0.395
Mof_N 	N 	0.7122	0.7068	0.5755	-0.237
Mof_N 	N 	0.7896	0.7867	0.5156	-0.259
Mof_N 	N 	0.1738	0.4686	0.5592	-0.289
Mof_N 	N 	0.2754	0.5429	0.5398	-0.232
Mof_H 	H 	0.9505	0.4852	0.5024	0.105
Mof_O 	O 	0.6794	0.5964	0.4061	-0.457
Mof_O 	O 	0.6509	0.5717	0.5291	-0.517
Mof_O 	O 	0.4081	0.4003	0.6018	-0.476
Mof_O 	O 	0.423	0.5187	0.5548	-0.535
Mof_Co	Co	0.85596	0.87903	0.4882	1.155
Mof_C 	C 	0.2689	0.7677	0.5341	0.066
Mof_H 	H 	0.2849	0.7707	0.5848	0.004
Mof_C 	C 	0.2531	0.7318	0.4185	0.108
Mof_H 	H 	0.2569	0.7032	0.3737	-0.037
Mof_C 	C 	0.2209	0.8179	0.4988	-0.106
Mof_C 	C 	0.1822	0.8868	0.5249	0.352
Mof_C 	C 	0.7369	0.0722	0.4229	0.077
Mof_H 	H 	0.737	0.1228	0.4063	-0.019
Mof_C 	C 	0.7001	0.9623	0.4624	0.095
Mof_H 	H 	0.6683	0.9222	0.4773	-0.051
Mof_C 	C 	0.8011	0.0277	0.4329	-0.126
Mof_C 	C 	0.8816	0.0391	0.4248	0.395
Mof_N 	N 	0.2122	0.7932	0.4245	-0.237
Mof_N 	N 	0.2896	0.7133	0.4844	-0.259
Mof_N 	N 	0.6738	0.0314	0.4408	-0.289
Mof_N 	N 	0.7754	0.9571	0.4602	-0.232
Mof_H 	H 	0.4505	0.0148	0.4976	0.105
Mof_O 	O 	0.1794	0.9036	0.5939	-0.457
Mof_O 	O 	0.1509	0.9283	0.4709	-0.517
Mof_O 	O 	0.9081	0.0997	0.3982	-0.475
Mof_O 	O 	0.923	0.9813	0.4452	-0.536
Mof_Co	Co	0.64404	0.12097	0.9882	1.156
Mof_C 	C 	0.2311	0.2323	0.0341	0.062
Mof_H 	H 	0.2151	0.2293	0.0848	0.005
Mof_C 	C 	0.2469	0.2682	0.9185	0.108
Mof_H 	H 	0.2431	0.2968	0.8737	-0.037
Mof_C 	C 	0.2791	0.1821	0.9988	-0.103
Mof_C 	C 	0.3178	0.1132	0.0249	0.349
Mof_C 	C 	0.7631	0.9278	0.9229	0.077
Mof_H 	H 	0.763	0.8772	0.9063	-0.019
Mof_C 	C 	0.7999	0.0377	0.9624	0.096
Mof_H 	H 	0.8317	0.0778	0.9773	-0.051
Mof_C 	C 	0.6989	0.9723	0.9329	-0.126
Mof_C 	C 	0.6184	0.9609	0.9248	0.394
Mof_N 	N 	0.2878	0.2068	0.9245	-0.237
Mof_N 	N 	0.2104	0.2867	0.9844	-0.258
Mof_N 	N 	0.8262	0.9686	0.9408	-0.29
Mof_N 	N 	0.7246	0.0429	0.9602	-0.231
Mof_H 	H 	0.0495	0.9852	0.9976	0.107
Mof_O 	O 	0.3206	0.0964	0.0939	-0.456
Mof_O 	O 	0.3491	0.0717	0.9709	-0.515
Mof_O 	O 	0.5919	0.9003	0.8982	-0.476
Mof_O 	O 	0.577	0.0187	0.9452	-0.535
Mof_Co	Co	0.0118	0.14404	0.37903	1.155
Mof_C 	C 	0.9659	0.7311	0.2677	0.066
Mof_H 	H 	0.9152	0.7151	0.2707	0.004
Mof_C 	C 	0.0815	0.7469	0.2318	0.108
Mof_H 	H 	0.1263	0.7431	0.2032	-0.037
Mof_C 	C 	0.0012	0.7791	0.3179	-0.107
Mof_C 	C 	0.9751	0.8178	0.3868	0.352
Mof_C 	C 	0.0771	0.2631	0.5722	0.077
Mof_H 	H 	0.0937	0.263	0.6228	-0.019
Mof_C 	C 	0.0376	0.2999	0.4623	0.095
Mof_H 	H 	0.0227	0.3317	0.4222	-0.051
Mof_C 	C 	0.0671	0.1989	0.5277	-0.126
Mof_C 	C 	0.0752	0.1184	0.5391	0.395
Mof_N 	N 	0.0755	0.7878	0.2932	-0.237
Mof_N 	N 	0.0156	0.7104	0.2133	-0.259
Mof_N 	N 	0.0592	0.3262	0.5314	-0.289
Mof_N 	N 	0.0398	0.2246	0.4571	-0.232
Mof_H 	H 	0.0024	0.5495	0.5148	0.105
Mof_O 	O 	0.9061	0.8206	0.4036	-0.457
Mof_O 	O 	0.0291	0.8491	0.4283	-0.517
Mof_O 	O 	0.1018	0.0919	0.5997	-0.476
Mof_O 	O 	0.0548	0.077	0.4813	-0.536
Mof_Co	Co	0.5118	0.35596	0.62097	1.155
Mof_C 	C 	0.4659	0.7689	0.7323	0.066
Mof_H 	H 	0.4152	0.7849	0.7293	0.004
Mof_C 	C 	0.5815	0.7531	0.7682	0.108
Mof_H 	H 	0.6263	0.7569	0.7968	-0.037
Mof_C 	C 	0.5012	0.7209	0.6821	-0.106
Mof_C 	C 	0.4751	0.6822	0.6132	0.352
Mof_C 	C 	0.5771	0.2369	0.4278	0.077
Mof_H 	H 	0.5937	0.237	0.3772	-0.019
Mof_C 	C 	0.5376	0.2001	0.5377	0.095
Mof_H 	H 	0.5227	0.1683	0.5778	-0.051
Mof_C 	C 	0.5671	0.3011	0.4723	-0.126
Mof_C 	C 	0.5752	0.3816	0.4609	0.395
Mof_N 	N 	0.5755	0.7122	0.7068	-0.237
Mof_N 	N 	0.5156	0.7896	0.7867	-0.259
Mof_N 	N 	0.5592	0.1738	0.4686	-0.289
Mof_N 	N 	0.5398	0.2754	0.5429	-0.232
Mof_H 	H 	0.5024	0.9505	0.4852	0.105
Mof_O 	O 	0.4061	0.6794	0.5964	-0.457
Mof_O 	O 	0.5291	0.6509	0.5717	-0.517
Mof_O 	O 	0.6018	0.4081	0.4003	-0.476
Mof_O 	O 	0.5548	0.423	0.5187	-0.535
Mof_Co	Co	0.4882	0.85596	0.87903	1.155
Mof_C 	C 	0.5341	0.2689	0.7677	0.066
Mof_H 	H 	0.5848	0.2849	0.7707	0.004
Mof_C 	C 	0.4185	0.2531	0.7318	0.108
Mof_H 	H 	0.3737	0.2569	0.7032	-0.037
Mof_C 	C 	0.4988	0.2209	0.8179	-0.106
Mof_C 	C 	0.5249	0.1822	0.8868	0.352
Mof_C 	C 	0.4229	0.7369	0.0722	0.077
Mof_H 	H 	0.4063	0.737	0.1228	-0.019
Mof_C 	C 	0.4624	0.7001	0.9623	0.095
Mof_H 	H 	0.4773	0.6683	0.9222	-0.051
Mof_C 	C 	0.4329	0.8011	0.0277	-0.126
Mof_C 	C 	0.4248	0.8816	0.0391	0.395
Mof_N 	N 	0.4245	0.2122	0.7932	-0.237
Mof_N 	N 	0.4844	0.2896	0.7133	-0.259
Mof_N 	N 	0.4408	0.6738	0.0314	-0.289
Mof_N 	N 	0.4602	0.7754	0.9571	-0.232
Mof_H 	H 	0.4976	0.4505	0.0148	0.105
Mof_O 	O 	0.5939	0.1794	0.9036	-0.457
Mof_O 	O 	0.4709	0.1509	0.9283	-0.517
Mof_O 	O 	0.3982	0.9081	0.0997	-0.475
Mof_O 	O 	0.4452	0.923	0.9813	-0.536
Mof_Co	Co	0.9882	0.64404	0.12097	1.156
Mof_C 	C 	0.0341	0.2311	0.2323	0.062
Mof_H 	H 	0.0848	0.2151	0.2293	0.005
Mof_C 	C 	0.9185	0.2469	0.2682	0.108
Mof_H 	H 	0.8737	0.2431	0.2968	-0.037
Mof_C 	C 	0.9988	0.2791	0.1821	-0.103
Mof_C 	C 	0.0249	0.3178	0.1132	0.349
Mof_C 	C 	0.9229	0.7631	0.9278	0.077
Mof_H 	H 	0.9063	0.763	0.8772	-0.019
Mof_C 	C 	0.9624	0.7999	0.0377	0.096
Mof_H 	H 	0.9773	0.8317	0.0778	-0.051
Mof_C 	C 	0.9329	0.6989	0.9723	-0.126
Mof_C 	C 	0.9248	0.6184	0.9609	0.394
Mof_N 	N 	0.9245	0.2878	0.2068	-0.237
Mof_N 	N 	0.9844	0.2104	0.2867	-0.258
Mof_N 	N 	0.9408	0.8262	0.9686	-0.29
Mof_N 	N 	0.9602	0.7246	0.0429	-0.231
Mof_H 	H 	0.9976	0.0495	0.9852	0.107
Mof_O 	O 	0.0939	0.3206	0.0964	-0.456
Mof_O 	O 	0.9709	0.3491	0.0717	-0.515
Mof_O 	O 	0.8982	0.5919	0.9003	-0.476
Mof_O 	O 	0.9452	0.577	0.0187	-0.535
Mof_Co	Co	0.37903	0.0118	0.14404	1.155
Mof_C 	C 	0.2677	0.9659	0.7311	0.066
Mof_H 	H 	0.2707	0.9152	0.7151	0.004
Mof_C 	C 	0.2318	0.0815	0.7469	0.108
Mof_H 	H 	0.2032	0.1263	0.7431	-0.037
Mof_C 	C 	0.3179	0.0012	0.7791	-0.107
Mof_C 	C 	0.3868	0.9751	0.8178	0.352
Mof_C 	C 	0.5722	0.0771	0.2631	0.077
Mof_H 	H 	0.6228	0.0937	0.263	-0.019
Mof_C 	C 	0.4623	0.0376	0.2999	0.095
Mof_H 	H 	0.4222	0.0227	0.3317	-0.051
Mof_C 	C 	0.5277	0.0671	0.1989	-0.126
Mof_C 	C 	0.5391	0.0752	0.1184	0.395
Mof_N 	N 	0.2932	0.0755	0.7878	-0.237
Mof_N 	N 	0.2133	0.0156	0.7104	-0.259
Mof_N 	N 	0.5314	0.0592	0.3262	-0.289
Mof_N 	N 	0.4571	0.0398	0.2246	-0.232
Mof_H 	H 	0.5148	0.0024	0.5495	0.105
Mof_O 	O 	0.4036	0.9061	0.8206	-0.457
Mof_O 	O 	0.4283	0.0291	0.8491	-0.517
Mof_O 	O 	0.5997	0.1018	0.0919	-0.476
Mof_O 	O 	0.4813	0.0548	0.077	-0.536
Mof_Co	Co	0.62097	0.5118	0.35596	1.155
Mof_C 	C 	0.7323	0.4659	0.7689	0.066
Mof_H 	H 	0.7293	0.4152	0.7849	0.004
Mof_C 	C 	0.7682	0.5815	0.7531	0.108
Mof_H 	H 	0.7968	0.6263	0.7569	-0.037
Mof_C 	C 	0.6821	0.5012	0.7209	-0.106
Mof_C 	C 	0.6132	0.4751	0.6822	0.352
Mof_C 	C 	0.4278	0.5771	0.2369	0.077
Mof_H 	H 	0.3772	0.5937	0.237	-0.019
Mof_C 	C 	0.5377	0.5376	0.2001	0.095
Mof_H 	H 	0.5778	0.5227	0.1683	-0.051
Mof_C 	C 	0.4723	0.5671	0.3011	-0.126
Mof_C 	C 	0.4609	0.5752	0.3816	0.395
Mof_N 	N 	0.7068	0.5755	0.7122	-0.237
Mof_N 	N 	0.7867	0.5156	0.7896	-0.259
Mof_N 	N 	0.4686	0.5592	0.1738	-0.289
Mof_N 	N 	0.5429	0.5398	0.2754	-0.232
Mof_H 	H 	0.4852	0.5024	0.9505	0.105
Mof_O 	O 	0.5964	0.4061	0.6794	-0.457
Mof_O 	O 	0.5717	0.5291	0.6509	-0.517
Mof_O 	O 	0.4003	0.6018	0.4081	-0.476
Mof_O 	O 	0.5187	0.5548	0.423	-0.535
Mof_Co	Co	0.87903	0.4882	0.85596	1.155
Mof_C 	C 	0.7677	0.5341	0.2689	0.066
Mof_H 	H 	0.7707	0.5848	0.2849	0.004
Mof_C 	C 	0.7318	0.4185	0.2531	0.108
Mof_H 	H 	0.7032	0.3737	0.2569	-0.037
Mof_C 	C 	0.8179	0.4988	0.2209	-0.106
Mof_C 	C 	0.8868	0.5249	0.1822	0.352
Mof_C 	C 	0.0722	0.4229	0.7369	0.077
Mof_H 	H 	0.1228	0.4063	0.737	-0.019
Mof_C 	C 	0.9623	0.4624	0.7001	0.095
Mof_H 	H 	0.9222	0.4773	0.6683	-0.051
Mof_C 	C 	0.0277	0.4329	0.8011	-0.126
Mof_C 	C 	0.0391	0.4248	0.8816	0.395
Mof_N 	N 	0.7932	0.4245	0.2122	-0.237
Mof_N 	N 	0.7133	0.4844	0.2896	-0.259
Mof_N 	N 	0.0314	0.4408	0.6738	-0.289
Mof_N 	N 	0.9571	0.4602	0.7754	-0.232
Mof_H 	H 	0.0148	0.4976	0.4505	0.105
Mof_O 	O 	0.9036	0.5939	0.1794	-0.457
Mof_O 	O 	0.9283	0.4709	0.1509	-0.517
Mof_O 	O 	0.0997	0.3982	0.9081	-0.475
Mof_O 	O 	0.9813	0.4452	0.923	-0.536
Mof_Co	Co	0.12097	0.9882	0.64404	1.156
Mof_C 	C 	0.2323	0.0341	0.2311	0.062
Mof_H 	H 	0.2293	0.0848	0.2151	0.005
Mof_C 	C 	0.2682	0.9185	0.2469	0.108
Mof_H 	H 	0.2968	0.8737	0.2431	-0.037
Mof_C 	C 	0.1821	0.9988	0.2791	-0.103
Mof_C 	C 	0.1132	0.0249	0.3178	0.349
Mof_C 	C 	0.9278	0.9229	0.7631	0.077
Mof_H 	H 	0.8772	0.9063	0.763	-0.019
Mof_C 	C 	0.0377	0.9624	0.7999	0.096
Mof_H 	H 	0.0778	0.9773	0.8317	-0.051
Mof_C 	C 	0.9723	0.9329	0.6989	-0.126
Mof_C 	C 	0.9609	0.9248	0.6184	0.394
Mof_N 	N 	0.2068	0.9245	0.2878	-0.237
Mof_N 	N 	0.2867	0.9844	0.2104	-0.258
Mof_N 	N 	0.9686	0.9408	0.8262	-0.29
Mof_N 	N 	0.0429	0.9602	0.7246	-0.231
Mof_H 	H 	0.9852	0.9976	0.0495	0.107
Mof_O 	O 	0.0964	0.0939	0.3206	-0.456
Mof_O 	O 	0.0717	0.9709	0.3491	-0.515
Mof_O 	O 	0.9003	0.8982	0.5919	-0.476
Mof_O 	O 	0.0187	0.9452	0.577	-0.535
Mof_Co	Co	0.43604	0.56396	0.06396	1.096
Mof_N 	N 	0.5011	0.4989	0.9989	-0.463
Mof_Co	Co	0.06396	0.43604	0.56396	1.096
Mof_N 	N 	0.9989	0.5011	0.4989	-0.463
Mof_Co	Co	0.56396	0.06396	0.43604	1.096
Mof_N 	N 	0.4989	0.9989	0.5011	-0.463
Mof_Co	Co	0.93604	0.93604	0.93604	1.096
Mof_N 	N 	0.0011	0.0011	0.0011	-0.468
Mof_Co	Co	0.96325	0.46325	0.03675	1.19
Mof_Co	Co	0.8609	0.3609	0.1391	1.128
Mof_Co	Co	0.53675	0.53675	0.53675	1.189
Mof_Co	Co	0.6391	0.6391	0.6391	1.128
Mof_Co	Co	0.03675	0.96325	0.46325	1.19
Mof_Co	Co	0.1391	0.8609	0.3609	1.128
Mof_Co	Co	0.46325	0.03675	0.96325	1.19
Mof_Co	Co	0.3609	0.1391	0.8609	1.128
_end
