data_functionalizedCrystal
_audit_creation_method	'EQeq! by Chris Wilmer'
_symmetry_space_group_name_H-M	'P1'
_symmetry_Int_Tables_number	1
_symmetry_cell_setting	triclinic
loop_
_symmetry_equiv_pos_as_xyz
  x,y,z
_cell_length_a	10.6901
_cell_length_b	10.6901
_cell_length_c	10.6901
_cell_angle_alpha	105.942
_cell_angle_beta	105.942
_cell_angle_gamma	105.942
loop_
_atom_site_label
_atom_site_type_symbol
_atom_site_fract_x
_atom_site_fract_y
_atom_site_fract_z
_atom_site_charge
Mof_Cd	Cd	0.75065	0.48516	0.21557	0.497
Mof_Cd	Cd	0.21557	0.75065	0.48516	0.497
Mof_Cd	Cd	0.48516	0.21557	0.75065	0.497
Mof_Cd	Cd	0.24935	0.51484	0.78443	0.497
Mof_Cd	Cd	0.78443	0.24935	0.51484	0.497
Mof_Cd	Cd	0.51484	0.78443	0.24935	0.497
Mof_H 	H 	0.3648	0.1446	0.1996	0.235
Mof_H 	H 	0.4403	0.2109	0.3635	0.234
Mof_H 	H 	0.1996	0.3648	0.1446	0.235
Mof_H 	H 	0.3635	0.4403	0.2109	0.234
Mof_H 	H 	0.1446	0.1996	0.3648	0.235
Mof_H 	H 	0.2109	0.3635	0.4403	0.234
Mof_H 	H 	0.6352	0.8554	0.8004	0.235
Mof_H 	H 	0.5597	0.7891	0.6365	0.234
Mof_H 	H 	0.8004	0.6352	0.8554	0.235
Mof_H 	H 	0.6365	0.5597	0.7891	0.234
Mof_H 	H 	0.8554	0.8004	0.6352	0.235
Mof_H 	H 	0.7891	0.6365	0.5597	0.234
Mof_C 	C 	0.566	0.2824	0.265	0.472
Mof_C 	C 	0.4813	0.038	0.2743	0.466
Mof_C 	C 	0.4525	0.1709	0.2767	-0.62
Mof_C 	C 	0.265	0.566	0.2824	0.472
Mof_C 	C 	0.2743	0.4813	0.038	0.466
Mof_C 	C 	0.2767	0.4525	0.1709	-0.62
Mof_C 	C 	0.2824	0.265	0.566	0.472
Mof_C 	C 	0.038	0.2743	0.4813	0.466
Mof_C 	C 	0.1709	0.2767	0.4525	-0.62
Mof_C 	C 	0.434	0.7176	0.735	0.472
Mof_C 	C 	0.5187	0.962	0.7257	0.466
Mof_C 	C 	0.5475	0.8291	0.7233	-0.62
Mof_C 	C 	0.735	0.434	0.7176	0.472
Mof_C 	C 	0.7257	0.5187	0.962	0.466
Mof_C 	C 	0.7233	0.5475	0.8291	-0.62
Mof_C 	C 	0.7176	0.735	0.434	0.472
Mof_C 	C 	0.962	0.7257	0.5187	0.466
Mof_C 	C 	0.8291	0.7233	0.5475	-0.62
Mof_O 	O 	0.6893	0.336	0.3554	-0.335
Mof_O 	O 	0.5926	0.0486	0.3657	-0.318
Mof_O 	O 	0.5321	0.3228	0.1664	-0.325
Mof_O 	O 	0.3947	0.9211	0.1835	-0.306
Mof_O 	O 	0.3554	0.6893	0.336	-0.335
Mof_O 	O 	0.3657	0.5926	0.0486	-0.318
Mof_O 	O 	0.1664	0.5321	0.3228	-0.325
Mof_O 	O 	0.1835	0.3947	0.9211	-0.306
Mof_O 	O 	0.336	0.3554	0.6893	-0.335
Mof_O 	O 	0.0486	0.3657	0.5926	-0.318
Mof_O 	O 	0.3228	0.1664	0.5321	-0.325
Mof_O 	O 	0.9211	0.1835	0.3947	-0.306
Mof_O 	O 	0.3107	0.664	0.6446	-0.335
Mof_O 	O 	0.4074	0.9514	0.6343	-0.318
Mof_O 	O 	0.4679	0.6772	0.8336	-0.325
Mof_O 	O 	0.6053	0.0789	0.8165	-0.306
Mof_O 	O 	0.6446	0.3107	0.664	-0.335
Mof_O 	O 	0.6343	0.4074	0.9514	-0.318
Mof_O 	O 	0.8336	0.4679	0.6772	-0.325
Mof_O 	O 	0.8165	0.6053	0.0789	-0.306
Mof_O 	O 	0.664	0.6446	0.3107	-0.335
Mof_O 	O 	0.9514	0.6343	0.4074	-0.318
Mof_O 	O 	0.6772	0.8336	0.4679	-0.325
Mof_O 	O 	0.0789	0.8165	0.6053	-0.306
_end
