data_functionalizedCrystal
_audit_creation_method	'EQeq! by Chris Wilmer'
_symmetry_space_group_name_H-M	'P1'
_symmetry_Int_Tables_number	1
_symmetry_cell_setting	triclinic
loop_
_symmetry_equiv_pos_as_xyz
  x,y,z
_cell_length_a	10.0218
_cell_length_b	10.7145
_cell_length_c	10.987
_cell_angle_alpha	80.478
_cell_angle_beta	72.442
_cell_angle_gamma	74.522
loop_
_atom_site_label
_atom_site_type_symbol
_atom_site_fract_x
_atom_site_fract_y
_atom_site_fract_z
_atom_site_charge
Mof_Nd	Nd	0.17619	0.19537	0.03486	2.195
Mof_Zn	Zn	0.29277	0.36785	0.61537	1.195
Mof_N 	N 	0.4773	0.2054	0.5684	-0.231
Mof_N 	N 	0.1321	0.3022	0.575	-0.245
Mof_C 	C 	0.5598	0.1756	0.4509	0.068
Mof_H 	H 	0.534	0.225	0.38	0.002
Mof_C 	C 	0.6828	0.0764	0.4332	-0.125
Mof_H 	H 	0.739	0.056	0.352	0.091
Mof_C 	C 	0.7228	0.0077	0.5403	0.031
Mof_H 	H 	0.804	0.946	0.531	0.021
Mof_C 	C 	0.6385	0.0375	0.6626	-0.055
Mof_C 	C 	0.5143	0.1365	0.6717	-0.014
Mof_C 	C 	0.6874	0.9621	0.7765	0.303
Mof_C 	C 	0.4069	0.1689	0.7979	0.297
Mof_C 	C 	0.1101	0.3523	0.4596	0.018
Mof_C 	C 	0.9925	0.3381	0.425	-0.18
Mof_C 	C 	0.8955	0.2738	0.5134	0.103
Mof_H 	H 	0.81	0.27	0.493	-0.013
Mof_C 	C 	0.919	0.2229	0.6311	-0.172
Mof_H 	H 	0.854	0.179	0.694	0.105
Mof_C 	C 	0.0388	0.2386	0.6581	0.123
Mof_H 	H 	0.062	0.203	0.731	-0.038
Mof_C 	C 	0.2206	0.4259	0.3753	0.297
Mof_C 	C 	0.968	0.3854	0.2945	0.515
Mof_C 	C 	0.0598	0.9778	0.9392	0.25
Mof_O 	O 	0.7554	0.0106	0.828	-0.415
Mof_O 	O 	0.6674	0.8489	0.8096	-0.42
Mof_O 	O 	0.4262	0.1051	0.8987	-0.414
Mof_O 	O 	0.294	0.2592	0.7951	-0.594
Mof_O 	O 	0.3124	0.4408	0.4266	-0.442
Mof_O 	O 	0.2131	0.4683	0.2652	-0.281
Mof_O 	O 	0.025	0.3055	0.2118	-0.599
Mof_O 	O 	0.8879	0.4938	0.2767	-0.509
Mof_O 	O 	0.1633	0.0335	0.9044	-0.427
Mof_O 	O 	0.0445	0.8918	0.8845	-0.439
Mof_Nd	Nd	0.82381	0.80463	0.96514	2.194
Mof_Zn	Zn	0.70723	0.63215	0.38463	1.194
Mof_N 	N 	0.5227	0.7946	0.4316	-0.231
Mof_N 	N 	0.8679	0.6978	0.425	-0.245
Mof_C 	C 	0.4402	0.8244	0.5491	0.068
Mof_H 	H 	0.466	0.775	0.62	0.002
Mof_C 	C 	0.3172	0.9236	0.5668	-0.125
Mof_H 	H 	0.261	0.944	0.648	0.091
Mof_C 	C 	0.2772	0.9923	0.4597	0.031
Mof_H 	H 	0.196	0.054	0.469	0.021
Mof_C 	C 	0.3615	0.9625	0.3374	-0.055
Mof_C 	C 	0.4857	0.8635	0.3283	-0.014
Mof_C 	C 	0.3126	0.0379	0.2235	0.303
Mof_C 	C 	0.5931	0.8311	0.2021	0.297
Mof_C 	C 	0.8899	0.6477	0.5404	0.018
Mof_C 	C 	0.0075	0.6619	0.575	-0.18
Mof_C 	C 	0.1045	0.7262	0.4866	0.103
Mof_H 	H 	0.19	0.73	0.507	-0.013
Mof_C 	C 	0.081	0.7771	0.3689	-0.172
Mof_H 	H 	0.146	0.821	0.306	0.105
Mof_C 	C 	0.9612	0.7614	0.3419	0.123
Mof_H 	H 	0.938	0.797	0.269	-0.038
Mof_C 	C 	0.7794	0.5741	0.6247	0.297
Mof_C 	C 	0.032	0.6146	0.7055	0.515
Mof_C 	C 	0.9402	0.0222	0.0608	0.25
Mof_O 	O 	0.2446	0.9894	0.172	-0.415
Mof_O 	O 	0.3326	0.1511	0.1904	-0.42
Mof_O 	O 	0.5738	0.8949	0.1013	-0.414
Mof_O 	O 	0.706	0.7408	0.2049	-0.594
Mof_O 	O 	0.6876	0.5592	0.5734	-0.442
Mof_O 	O 	0.7869	0.5317	0.7348	-0.281
Mof_O 	O 	0.975	0.6945	0.7882	-0.599
Mof_O 	O 	0.1121	0.5062	0.7233	-0.509
Mof_O 	O 	0.8367	0.9665	0.0956	-0.427
Mof_O 	O 	0.9555	0.1082	0.1155	-0.439
_end
