data_functionalizedCrystal
_audit_creation_method	'EQeq! by Chris Wilmer'
_symmetry_space_group_name_H-M	'P1'
_symmetry_Int_Tables_number	1
_symmetry_cell_setting	triclinic
loop_
_symmetry_equiv_pos_as_xyz
  x,y,z
_cell_length_a	6.0078
_cell_length_b	16.9401
_cell_length_c	13.0061
_cell_angle_alpha	90
_cell_angle_beta	116.158
_cell_angle_gamma	90
loop_
_atom_site_label
_atom_site_type_symbol
_atom_site_fract_x
_atom_site_fract_y
_atom_site_fract_z
_atom_site_charge
Mof_Sr	Sr	0.81786	0.49947	0.5943	1.444
Mof_S 	S 	0.407	0.24147	0.29953	0.043
Mof_O 	O 	0.1786	0.09262	0.18845	-0.462
Mof_O 	O 	0.4481	0.0621	0.11886	-0.523
Mof_O 	O 	0.5156	0.39432	0.42877	-0.501
Mof_O 	O 	0.881	0.41452	0.43023	-0.539
Mof_C 	C 	0.6818	0.37694	0.399	0.42
Mof_C 	C 	0.647	0.30611	0.3267	-0.158
Mof_C 	C 	0.7909	0.28169	0.2758	0.003
Mof_H 	H 	0.9293	0.3092	0.2807	-0.004
Mof_C 	C 	0.7075	0.21037	0.2149	-0.007
Mof_H 	H 	0.7847	0.186	0.1752	0.007
Mof_C 	C 	0.5016	0.18086	0.2204	-0.149
Mof_C 	C 	0.3645	0.10591	0.1715	0.428
Mof_Sr	Sr	0.18214	0.99947	0.9057	1.423
Mof_S 	S 	0.593	0.74147	0.20047	0.042
Mof_O 	O 	0.8214	0.59262	0.31155	-0.466
Mof_O 	O 	0.5519	0.5621	0.38114	-0.525
Mof_O 	O 	0.4844	0.89432	0.07123	-0.493
Mof_O 	O 	0.119	0.91452	0.06977	-0.53
Mof_C 	C 	0.3182	0.87694	0.101	0.418
Mof_C 	C 	0.353	0.80611	0.1733	-0.155
Mof_C 	C 	0.2091	0.78169	0.2242	0.002
Mof_H 	H 	0.0707	0.8092	0.2193	-0.001
Mof_C 	C 	0.2925	0.71037	0.2851	-0.005
Mof_H 	H 	0.2153	0.686	0.3248	0.008
Mof_C 	C 	0.4984	0.68086	0.2796	-0.149
Mof_C 	C 	0.6355	0.60591	0.3285	0.43
Mof_Sr	Sr	0.18214	0.50053	0.4057	1.443
Mof_S 	S 	0.593	0.75853	0.70047	0.042
Mof_O 	O 	0.8214	0.90738	0.81155	-0.462
Mof_O 	O 	0.5519	0.9379	0.88114	-0.523
Mof_O 	O 	0.4844	0.60568	0.57123	-0.501
Mof_O 	O 	0.119	0.58548	0.56977	-0.539
Mof_C 	C 	0.3182	0.62306	0.601	0.42
Mof_C 	C 	0.353	0.69389	0.6733	-0.158
Mof_C 	C 	0.2091	0.71831	0.7242	0.003
Mof_H 	H 	0.0707	0.6908	0.7193	-0.004
Mof_C 	C 	0.2925	0.78963	0.7851	-0.007
Mof_H 	H 	0.2153	0.814	0.8248	0.007
Mof_C 	C 	0.4984	0.81914	0.7796	-0.149
Mof_C 	C 	0.6355	0.89409	0.8285	0.428
Mof_Sr	Sr	0.81786	0.00053	0.0943	1.423
Mof_S 	S 	0.407	0.25853	0.79953	0.042
Mof_O 	O 	0.1786	0.40738	0.68845	-0.466
Mof_O 	O 	0.4481	0.4379	0.61886	-0.525
Mof_O 	O 	0.5156	0.10568	0.92877	-0.493
Mof_O 	O 	0.881	0.08548	0.93023	-0.53
Mof_C 	C 	0.6818	0.12306	0.899	0.418
Mof_C 	C 	0.647	0.19389	0.8267	-0.155
Mof_C 	C 	0.7909	0.21831	0.7758	0.002
Mof_H 	H 	0.9293	0.1908	0.7807	-0.001
Mof_C 	C 	0.7075	0.28963	0.7149	-0.005
Mof_H 	H 	0.7847	0.314	0.6752	0.008
Mof_C 	C 	0.5016	0.31914	0.7204	-0.149
Mof_C 	C 	0.3645	0.39409	0.6715	0.43
_end
