data_functionalizedCrystal
_audit_creation_method	'EQeq! by Chris Wilmer'
_symmetry_space_group_name_H-M	'P1'
_symmetry_Int_Tables_number	1
_symmetry_cell_setting	triclinic
loop_
_symmetry_equiv_pos_as_xyz
  x,y,z
_cell_length_a	9.063
_cell_length_b	9.063
_cell_length_c	10.947
_cell_angle_alpha	90
_cell_angle_beta	90
_cell_angle_gamma	120
loop_
_atom_site_label
_atom_site_type_symbol
_atom_site_fract_x
_atom_site_fract_y
_atom_site_fract_z
_atom_site_charge
Mof_Mn	Mn	0.02779	0.02779	0.33333	0.923
Mof_Mn	Mn	4.73804e-17	0.97221	0.66667	0.983
Mof_Mn	Mn	0.97221	0	-0	0.916
Mof_H 	H 	0.37	0.143	0.25	0.366
Mof_H 	H 	0.597	0.091	0.332	0.132
Mof_H 	H 	0.773	0.63	0.58333	0.374
Mof_H 	H 	0.494	0.403	0.66533	0.126
Mof_H 	H 	0.857	0.227	0.91667	0.356
Mof_H 	H 	0.909	0.506	0.99867	0.219
Mof_H 	H 	0.227	0.857	0.75	0.376
Mof_H 	H 	0.506	0.909	0.668	0.133
Mof_H 	H 	0.143	0.37	0.41667	0.374
Mof_H 	H 	0.091	0.597	0.33467	0.142
Mof_H 	H 	0.63	0.773	0.08333	0.381
Mof_H 	H 	0.403	0.494	0.00133	0.052
Mof_C 	C 	0.5212	0.0454	0.3949	-0.293
Mof_C 	C 	0.3717	0.0492	0.3959	0.292
Mof_C 	C 	0.5242	0.4788	0.72823	-0.258
Mof_C 	C 	0.6775	0.6283	0.72923	0.285
Mof_C 	C 	0.9546	0.4758	0.06157	-0.353
Mof_C 	C 	0.9508	0.3225	0.06257	0.304
Mof_C 	C 	0.4758	0.9546	0.6051	-0.237
Mof_C 	C 	0.3225	0.9508	0.6041	0.322
Mof_C 	C 	0.0454	0.5212	0.27177	-0.322
Mof_C 	C 	0.0492	0.3717	0.27077	0.308
Mof_C 	C 	0.4788	0.5242	0.93843	-0.166
Mof_C 	C 	0.6283	0.6775	0.93743	0.305
Mof_C 	C 	0.7387	0	0.5	0.235
Mof_C 	C 	0.2671	0	0.5	-0.091
Mof_C 	C 	0.5746	0	0.5	0.063
Mof_C 	C 	0.2613	0.2613	0.83333	0.313
Mof_C 	C 	0.7329	0.7329	0.83333	-0.044
Mof_C 	C 	0.4254	0.4254	0.83333	0.048
Mof_C 	C 	-2.46542e-17	0.7387	0.16667	0.204
Mof_C 	C 	-6.40475e-18	0.2671	0.16667	-0.106
Mof_C 	C 	-6.11532e-17	0.5746	0.16667	0.1
Mof_O 	O 	0.3071	0.0966	0.29969	-0.646
Mof_O 	O 	0.7812	0.9545	0.40323	-0.268
Mof_O 	O 	0.7895	0.6929	0.63302	-0.61
Mof_O 	O 	0.1733	0.2188	0.73656	-0.383
Mof_O 	O 	0.9034	0.2105	0.96636	-0.566
Mof_O 	O 	0.0455	0.8267	0.0699	-0.357
Mof_O 	O 	0.2105	0.9034	0.70031	-0.649
Mof_O 	O 	0.8267	0.0455	0.59677	-0.341
Mof_O 	O 	0.0966	0.3071	0.36698	-0.655
Mof_O 	O 	0.9545	0.7812	0.26344	-0.256
Mof_O 	O 	0.6929	0.7895	0.03364	-0.653
Mof_O 	O 	0.2188	0.1733	0.9301	-0.351
Mof_O 	O 	0.1206	0	0.5	-0.371
Mof_O 	O 	0.8794	0.8794	0.83333	-0.283
Mof_O 	O 	2.71999e-18	0.1206	0.16667	-0.373
_end
