# CIF file generated by openbabel 3.1.0, see https://openbabel.org
data_I
_chemical_name_common 'RAGREY_charged'
_cell_length_a 7.3201
_cell_length_b 21.101
_cell_length_c 22.207
_cell_angle_alpha 90
_cell_angle_beta 90
_cell_angle_gamma 90
_space_group_name_H-M_alt 'P 1'
_space_group_name_Hall 'P 1'
loop_
    _symmetry_equiv_pos_as_xyz
    x,y,z
loop_
    _atom_site_label
    _atom_site_type_symbol
    _atom_site_fract_x
    _atom_site_fract_y
    _atom_site_fract_z
    _atom_site_occupancy
    Cu1      Cu       0.75000    0.75000    0.00308    1.000
    Cu2      Cu       0.25000    0.25000    0.49692    1.000
    Cu3      Cu       0.25000    0.25000    0.99692    1.000
    Cu4      Cu       0.75000    0.75000    0.50308    1.000
    H1       H        0.50140    0.71770    0.10320    1.000
    H2       H        0.48730    0.71980    0.20740    1.000
    H3       H        0.60800    0.66760    0.29850    1.000
    H4       H        0.62220    0.66850    0.40180    1.000
    H5       H        0.04580    0.82730    0.93970    1.000
    H6       H        0.15730    0.93020    0.93830    1.000
    H7       H        0.80700    0.97230    0.07210    1.000
    H8       H        0.69900    0.86950    0.07120    1.000
    H9       H        0.99860    0.78230    0.10320    1.000
    H10      H        0.01270    0.78020    0.20740    1.000
    H11      H        0.89200    0.83240    0.29850    1.000
    H12      H        0.87780    0.83150    0.40180    1.000
    H13      H        0.45420    0.67270    0.93970    1.000
    H14      H        0.34270    0.56980    0.93830    1.000
    H15      H        0.69300    0.52770    0.07210    1.000
    H16      H        0.80100    0.63050    0.07120    1.000
    H17      H        0.49860    0.21770    0.39680    1.000
    H18      H        0.51270    0.21980    0.29260    1.000
    H19      H        0.39200    0.16760    0.20150    1.000
    H20      H        0.37780    0.16850    0.09820    1.000
    H21      H        0.95420    0.32730    0.56030    1.000
    H22      H        0.84270    0.43020    0.56170    1.000
    H23      H        0.19300    0.47230    0.42790    1.000
    H24      H        0.30100    0.36950    0.42880    1.000
    H25      H        0.00140    0.28230    0.39680    1.000
    H26      H        0.98730    0.28020    0.29260    1.000
    H27      H        0.10800    0.33240    0.20150    1.000
    H28      H        0.12220    0.33150    0.09820    1.000
    H29      H        0.54580    0.17270    0.56030    1.000
    H30      H        0.65730    0.06980    0.56170    1.000
    H31      H        0.30700    0.02770    0.42790    1.000
    H32      H        0.19900    0.13050    0.42880    1.000
    H33      H        0.49860    0.28230    0.89680    1.000
    H34      H        0.51270    0.28020    0.79260    1.000
    H35      H        0.39200    0.33240    0.70150    1.000
    H36      H        0.37780    0.33150    0.59820    1.000
    H37      H        0.95420    0.17270    0.06030    1.000
    H38      H        0.84270    0.06980    0.06170    1.000
    H39      H        0.19300    0.02770    0.92790    1.000
    H40      H        0.30100    0.13050    0.92880    1.000
    H41      H        0.00140    0.21770    0.89680    1.000
    H42      H        0.98730    0.21980    0.79260    1.000
    H43      H        0.10800    0.16760    0.70150    1.000
    H44      H        0.12220    0.16850    0.59820    1.000
    H45      H        0.54580    0.32730    0.06030    1.000
    H46      H        0.65730    0.43020    0.06170    1.000
    H47      H        0.30700    0.47230    0.92790    1.000
    H48      H        0.19900    0.36950    0.92880    1.000
    H49      H        0.50140    0.78230    0.60320    1.000
    H50      H        0.48730    0.78020    0.70740    1.000
    H51      H        0.60800    0.83240    0.79850    1.000
    H52      H        0.62220    0.83150    0.90180    1.000
    H53      H        0.04580    0.67270    0.43970    1.000
    H54      H        0.15730    0.56980    0.43830    1.000
    H55      H        0.80700    0.52770    0.57210    1.000
    H56      H        0.69900    0.63050    0.57120    1.000
    H57      H        0.99860    0.71770    0.60320    1.000
    H58      H        0.01270    0.71980    0.70740    1.000
    H59      H        0.89200    0.66760    0.79850    1.000
    H60      H        0.87780    0.66850    0.90180    1.000
    H61      H        0.45420    0.82730    0.43970    1.000
    H62      H        0.34270    0.93020    0.43830    1.000
    H63      H        0.69300    0.97230    0.57210    1.000
    H64      H        0.80100    0.86950    0.57120    1.000
    C1       C        0.60520    0.73172    0.12521    1.000
    C2       C        0.59630    0.73185    0.18724    1.000
    C3       C        0.66780    0.70141    0.31872    1.000
    C4       C        0.67450    0.70295    0.38036    1.000
    C5       C        0.99630    0.85740    0.96700    1.000
    C6       C        0.06350    0.91880    0.96580    1.000
    C7       C        0.99200    0.96350    0.00530    1.000
    C8       C        0.85730    0.94300    0.04420    1.000
    C9       C        0.79300    0.88150    0.04410    1.000
    C10      C        0.89480    0.76828    0.12521    1.000
    C11      C        0.90370    0.76815    0.18724    1.000
    C12      C        0.83220    0.79859    0.31872    1.000
    C13      C        0.82550    0.79705    0.38036    1.000
    C14      C        0.50370    0.64260    0.96700    1.000
    C15      C        0.43650    0.58120    0.96580    1.000
    C16      C        0.50800    0.53650    0.00530    1.000
    C17      C        0.64270    0.55700    0.04420    1.000
    C18      C        0.70700    0.61850    0.04410    1.000
    C19      C        0.39480    0.23172    0.37479    1.000
    C20      C        0.40370    0.23185    0.31276    1.000
    C21      C        0.33220    0.20141    0.18128    1.000
    C22      C        0.32550    0.20295    0.11964    1.000
    C23      C        0.00370    0.35740    0.53300    1.000
    C24      C        0.93650    0.41880    0.53420    1.000
    C25      C        0.00800    0.46350    0.49470    1.000
    C26      C        0.14270    0.44300    0.45580    1.000
    C27      C        0.20700    0.38150    0.45590    1.000
    C28      C        0.10520    0.26828    0.37479    1.000
    C29      C        0.09630    0.26815    0.31276    1.000
    C30      C        0.16780    0.29859    0.18128    1.000
    C31      C        0.17450    0.29705    0.11964    1.000
    C32      C        0.49630    0.14260    0.53300    1.000
    C33      C        0.56350    0.08120    0.53420    1.000
    C34      C        0.49200    0.03650    0.49470    1.000
    C35      C        0.35730    0.05700    0.45580    1.000
    C36      C        0.29300    0.11850    0.45590    1.000
    C37      C        0.39480    0.26828    0.87479    1.000
    C38      C        0.40370    0.26815    0.81276    1.000
    C39      C        0.33220    0.29859    0.68128    1.000
    C40      C        0.32550    0.29705    0.61964    1.000
    C41      C        0.00370    0.14260    0.03300    1.000
    C42      C        0.93650    0.08120    0.03420    1.000
    C43      C        0.00800    0.03650    0.99470    1.000
    C44      C        0.14270    0.05700    0.95580    1.000
    C45      C        0.20700    0.11850    0.95590    1.000
    C46      C        0.10520    0.23172    0.87479    1.000
    C47      C        0.09630    0.23185    0.81276    1.000
    C48      C        0.16780    0.20141    0.68128    1.000
    C49      C        0.17450    0.20295    0.61964    1.000
    C50      C        0.49630    0.35740    0.03300    1.000
    C51      C        0.56350    0.41880    0.03420    1.000
    C52      C        0.49200    0.46350    0.99470    1.000
    C53      C        0.35730    0.44300    0.95580    1.000
    C54      C        0.29300    0.38150    0.95590    1.000
    C55      C        0.60520    0.76828    0.62521    1.000
    C56      C        0.59630    0.76815    0.68724    1.000
    C57      C        0.66780    0.79859    0.81872    1.000
    C58      C        0.67450    0.79705    0.88036    1.000
    C59      C        0.99630    0.64260    0.46700    1.000
    C60      C        0.06350    0.58120    0.46580    1.000
    C61      C        0.99200    0.53650    0.50530    1.000
    C62      C        0.85730    0.55700    0.54420    1.000
    C63      C        0.79300    0.61850    0.54410    1.000
    C64      C        0.89480    0.73172    0.62521    1.000
    C65      C        0.90370    0.73185    0.68724    1.000
    C66      C        0.83220    0.70141    0.81872    1.000
    C67      C        0.82550    0.70295    0.88036    1.000
    C68      C        0.50370    0.85740    0.46700    1.000
    C69      C        0.43650    0.91880    0.46580    1.000
    C70      C        0.50800    0.96350    0.50530    1.000
    C71      C        0.64270    0.94300    0.54420    1.000
    C72      C        0.70700    0.88150    0.54410    1.000
    C73      C        0.75000    0.75000    0.21970    1.000
    C74      C        0.75000    0.75000    0.28630    1.000
    C75      C        0.25000    0.25000    0.28030    1.000
    C76      C        0.25000    0.25000    0.21370    1.000
    C77      C        0.25000    0.25000    0.78030    1.000
    C78      C        0.25000    0.25000    0.71370    1.000
    C79      C        0.75000    0.75000    0.71970    1.000
    C80      C        0.75000    0.75000    0.78630    1.000
    N1       N        0.86310    0.83830    0.00540    1.000
    N2       N        0.63690    0.66170    0.00540    1.000
    N3       N        0.13690    0.33830    0.49460    1.000
    N4       N        0.36310    0.16170    0.49460    1.000
    N5       N        0.13690    0.16170    0.99460    1.000
    N6       N        0.36310    0.33830    0.99460    1.000
    N7       N        0.86310    0.66170    0.50540    1.000
    N8       N        0.63690    0.83830    0.50540    1.000
    N9       N        0.75000    0.75000    0.09509    1.000
    N10      N        0.75000    0.75000    0.41215    1.000
    N11      N        0.25000    0.25000    0.40491    1.000
    N12      N        0.25000    0.25000    0.08785    1.000
    N13      N        0.25000    0.25000    0.90491    1.000
    N14      N        0.25000    0.25000    0.58785    1.000
    N15      N        0.75000    0.75000    0.59509    1.000
    N16      N        0.75000    0.75000    0.91215    1.000
