# CIF file generated by openbabel 3.1.0, see https://openbabel.org
data_I
_chemical_name_common 'image0'
_cell_length_a 9.481
_cell_length_b 15.126
_cell_length_c 15.232
_cell_angle_alpha 64.815
_cell_angle_beta 78.717
_cell_angle_gamma 78.977
_space_group_name_H-M_alt 'P 1'
_space_group_name_Hall 'P 1'
loop_
    _symmetry_equiv_pos_as_xyz
    x,y,z
loop_
    _atom_site_label
    _atom_site_type_symbol
    _atom_site_fract_x
    _atom_site_fract_y
    _atom_site_fract_z
    _atom_site_occupancy
    Co1      Co       0.08969    0.39744    0.00843    1.000
    Co2      Co       0.59289    0.00726    0.39888    1.000
    Co3      Co       0.80015    0.42110    0.18581    1.000
    Co4      Co       0.29800    0.18547    0.41906    1.000
    Co5      Co       0.24375    0.09128    0.90750    1.000
    S1       S        0.95950    0.43360    0.80013    1.000
    S2       S        0.46410    0.79770    0.43538    1.000
    O1       O        0.08820    0.25850    0.00560    1.000
    O2       O        0.03370    0.15340    0.95340    1.000
    O3       O        0.03350    0.36590    0.75710    1.000
    O4       O        0.05510    0.45470    0.85260    1.000
    O5       O        0.88960    0.52170    0.73220    1.000
    O6       O        0.38860    0.48490    0.85440    1.000
    O7       O        0.31370    0.35730    0.98780    1.000
    O8       O        0.54590    0.95370    0.15390    1.000
    O9       O        0.59480    0.00370    0.26210    1.000
    O10      O        0.55670    0.85290    0.45650    1.000
    O11      O        0.54140    0.75540    0.36790    1.000
    O12      O        0.39280    0.72860    0.52250    1.000
    O13      O        0.89270    0.85400    0.48750    1.000
    O14      O        0.81810    0.98760    0.35940    1.000
    O15      O        0.87750    0.45410    0.04080    1.000
    H1       H        0.80920    0.44500    0.00550    1.000
    O16      O        0.37770    0.03960    0.45360    1.000
    H2       H        0.31080    0.00280    0.44500    1.000
    N1       N        0.10840    0.33190    0.15680    1.000
    N2       N        0.98680    0.32700    0.22450    1.000
    N3       N        0.17290    0.23910    0.30410    1.000
    N4       N        0.48870    0.22380    0.32620    1.000
    N5       N        0.60680    0.15590    0.33210    1.000
    N6       N        0.67520    0.30550    0.23880    1.000
    C1       C        0.03140    0.27170    0.30970    1.000
    H3       H        0.97030    0.25660    0.36860    1.000
    C2       C        0.21530    0.27800    0.20730    1.000
    H4       H        0.30990    0.26810    0.17890    1.000
    C3       C        0.71630    0.20750    0.27900    1.000
    H5       H        0.81110    0.17890    0.27070    1.000
    C4       C        0.53150    0.31060    0.27090    1.000
    H6       H        0.46970    0.36940    0.25550    1.000
    C5       C        0.85360    0.27900    0.96440    1.000
    C6       C        0.82210    0.37030    0.89060    1.000
    C7       C        0.67870    0.41220    0.87760    1.000
    H7       H        0.65890    0.47230    0.82580    1.000
    C8       C        0.56570    0.36320    0.94290    1.000
    C9       C        0.59610    0.27270    0.01940    1.000
    H8       H        0.52130    0.24020    0.06380    1.000
    C10      C        0.73840    0.23160    0.02890    1.000
    H9       H        0.75810    0.17070    0.07960    1.000
    C11      C        0.00330    0.22600    0.97350    1.000
    C12      C        0.40980    0.40660    0.92650    1.000
    C13      C        0.35910    0.96060    0.27930    1.000
    C14      C        0.32550    0.88730    0.37260    1.000
    C15      C        0.18160    0.87780    0.41320    1.000
    H10      H        0.16030    0.82770    0.47420    1.000
    C16      C        0.06950    0.94130    0.36470    1.000
    C17      C        0.10160    0.01590    0.27400    1.000
    H11      H        0.02740    0.05950    0.24070    1.000
    C18      C        0.24550    0.02510    0.23300    1.000
    H12      H        0.26610    0.07630    0.17250    1.000
    C19      C        0.51230    0.97380    0.22930    1.000
    C20      C        0.91430    0.92640    0.40790    1.000
    Co6      Co       0.91031    0.60256    0.99157    1.000
    Co7      Co       0.40711    0.99274    0.60112    1.000
    Co8      Co       0.19985    0.57890    0.81419    1.000
    Co9      Co       0.70200    0.81453    0.58094    1.000
    Co10     Co       0.75625    0.90872    0.09250    1.000
    S3       S        0.04050    0.56640    0.19987    1.000
    S4       S        0.53590    0.20230    0.56462    1.000
    O17      O        0.91180    0.74150    0.99440    1.000
    O18      O        0.96630    0.84660    0.04660    1.000
    O19      O        0.96650    0.63410    0.24290    1.000
    O20      O        0.94490    0.54530    0.14740    1.000
    O21      O        0.11040    0.47830    0.26780    1.000
    O22      O        0.61140    0.51510    0.14560    1.000
    O23      O        0.68630    0.64270    0.01220    1.000
    O24      O        0.45410    0.04630    0.84610    1.000
    O25      O        0.40520    0.99630    0.73790    1.000
    O26      O        0.44330    0.14710    0.54350    1.000
    O27      O        0.45860    0.24460    0.63210    1.000
    O28      O        0.60720    0.27140    0.47750    1.000
    O29      O        0.10730    0.14600    0.51250    1.000
    O30      O        0.18190    0.01240    0.64060    1.000
    O31      O        0.12250    0.54590    0.95920    1.000
    H13      H        0.19080    0.55500    0.99450    1.000
    O32      O        0.62230    0.96040    0.54640    1.000
    H14      H        0.68920    0.99720    0.55500    1.000
    N7       N        0.89160    0.66810    0.84320    1.000
    N8       N        0.01320    0.67300    0.77550    1.000
    N9       N        0.82710    0.76090    0.69590    1.000
    N10      N        0.51130    0.77620    0.67380    1.000
    N11      N        0.39320    0.84410    0.66790    1.000
    N12      N        0.32480    0.69450    0.76120    1.000
    C21      C        0.96860    0.72830    0.69030    1.000
    H15      H        0.02970    0.74340    0.63140    1.000
    C22      C        0.78470    0.72200    0.79270    1.000
    H16      H        0.69010    0.73190    0.82110    1.000
    C23      C        0.28370    0.79250    0.72100    1.000
    H17      H        0.18890    0.82110    0.72930    1.000
    C24      C        0.46850    0.68940    0.72910    1.000
    H18      H        0.53030    0.63060    0.74450    1.000
    C25      C        0.14640    0.72100    0.03560    1.000
    C26      C        0.17790    0.62970    0.10940    1.000
    C27      C        0.32130    0.58780    0.12240    1.000
    H19      H        0.34110    0.52770    0.17420    1.000
    C28      C        0.43430    0.63680    0.05710    1.000
    C29      C        0.40390    0.72730    0.98060    1.000
    H20      H        0.47870    0.75980    0.93620    1.000
    C30      C        0.26160    0.76840    0.97110    1.000
    H21      H        0.24190    0.82930    0.92040    1.000
    C31      C        0.99670    0.77400    0.02650    1.000
    C32      C        0.59020    0.59340    0.07350    1.000
    C33      C        0.64090    0.03940    0.72070    1.000
    C34      C        0.67450    0.11270    0.62740    1.000
    C35      C        0.81840    0.12220    0.58680    1.000
    H22      H        0.83970    0.17230    0.52580    1.000
    C36      C        0.93050    0.05870    0.63530    1.000
    C37      C        0.89840    0.98410    0.72600    1.000
    H23      H        0.97260    0.94050    0.75930    1.000
    C38      C        0.75450    0.97490    0.76700    1.000
    H24      H        0.73390    0.92370    0.82750    1.000
    C39      C        0.48770    0.02620    0.77070    1.000
    C40      C        0.08570    0.07360    0.59210    1.000
