data_functionalizedCrystal
_audit_creation_method	'EQeq! by Chris Wilmer'
_symmetry_space_group_name_H-M	'P1'
_symmetry_Int_Tables_number	1
_symmetry_cell_setting	triclinic
loop_
_symmetry_equiv_pos_as_xyz
  x,y,z
_cell_length_a	28.124
_cell_length_b	20.007
_cell_length_c	16.214
_cell_angle_alpha	90
_cell_angle_beta	114.096
_cell_angle_gamma	90
loop_
_atom_site_label
_atom_site_type_symbol
_atom_site_fract_x
_atom_site_fract_y
_atom_site_fract_z
_atom_site_charge
Mof_Cu	Cu	0.65362	0.79801	0.17837	0.9
Mof_O 	O 	0.6032	0.8669	0.1151	-0.442
Mof_O 	O 	0.6351	0.942	0.2258	-0.392
Mof_O 	O 	0.6152	0.0669	0.0869	-0.4
Mof_O 	O 	0.5827	0.1419	0.151	-0.465
Mof_C 	C 	0.6004	0.9213	0.1523	0.357
Mof_C 	C 	0.5525	0.9629	0.103	-0.209
Mof_H 	H 	0.548	0.9673	0.0406	0.085
Mof_H 	H 	0.5226	0.9388	0.1029	0.068
Mof_C 	C 	0.5852	0.0825	0.1216	0.387
Mof_C 	C 	0.5524	0.0316	0.1399	-0.249
Mof_H 	H 	0.5637	0.028	0.2048	0.09
Mof_H 	H 	0.5167	0.0477	0.1153	0.085
Mof_Cu	Cu	0.62407	0.21808	0.14752	0.863
Mof_Cu	Cu	0.63713	0.70164	0.50471	0.918
Mof_Cu	Cu	0.64652	0.70584	0.31356	0.895
Mof_O 	O 	0.6343	0.7991	0.2831	-0.641
Mof_H 	H 	0.5979	0.812	0.2663	0.14
Mof_O 	O 	0.6004	0.6966	0.3748	-0.621
Mof_H 	H 	0.5664	0.7188	0.3474	0.131
Mof_Cu	Cu	0.68416	0.86997	0.35288	0.919
Mof_Cu	Cu	0.76186	0.75585	0.30317	0.908
Mof_O 	O 	0.7261	0.8401	0.2901	-0.609
Mof_H 	H 	0.7421	0.8767	0.2703	0.146
Mof_O 	O 	0.7976	0.6714	0.3313	-0.606
Mof_H 	H 	0.7846	0.6376	0.2836	0.15
Mof_Cu	Cu	0.71588	0.59659	0.461	0.907
Mof_Cu	Cu	0.67206	0.86345	0.54477	0.927
Mof_O 	O 	0.6453	0.8972	0.4237	-0.69
Mof_H 	H 	0.6125	0.9014	0.396	0.245
Mof_Cu	Cu	0.69746	0.99899	0.46872	0.803
Mof_O 	O 	0.7585	0.7648	0.1567	-0.402
Mof_O 	O 	0.6738	0.7876	0.0765	-0.44
Mof_C 	C 	0.7181	0.7702	0.0835	0.316
Mof_C 	C 	0.7245	0.7602	0.9978	-0.146
Mof_H 	H 	0.6994	0.7268	0.9628	0.058
Mof_H 	H 	0.7151	0.8017	0.964	0.048
Mof_O 	O 	0.6903	0.7166	0.2465	-0.635
Mof_H 	H 	0.6881	0.6785	0.207	0.136
Mof_O 	O 	0.6609	0.6111	0.3407	-0.658
Mof_H 	H 	0.6642	0.5846	0.2924	0.124
Mof_O 	O 	0.7724	0.5668	0.4286	-0.546
Mof_O 	O 	0.6571	0.6074	0.4959	-0.626
Mof_H 	H 	0.6581	0.5783	0.5452	0.14
Mof_O 	O 	0.617	0.7927	0.5203	-0.619
Mof_H 	H 	0.5822	0.8059	0.4771	0.149
Mof_O 	O 	0.6673	0.705	0.6382	-0.636
Mof_H 	H 	0.6626	0.6639	0.6668	0.141
Mof_O 	O 	0.7354	0.9379	0.4217	-0.651
Mof_H 	H 	0.7524	0.9603	0.3871	0.127
Mof_Cu	Cu	0.60104	0.58484	0.37303	0.842
Mof_O 	O 	0.5523	0.5501	0.4212	-0.47
Mof_C 	C 	0.5024	0.5417	0.505	-0.216
Mof_H 	H 	0.4677	0.5595	0.4721	0.069
Mof_H 	H 	0.5118	0.5518	0.5684	0.08
Mof_C 	C 	0.54	0.583	0.475	0.333
Mof_O 	O 	0.5515	0.6398	0.514	-0.381
Mof_O 	O 	0.7387	0.8136	0.5038	-0.443
Mof_O 	O 	0.703	0.7599	0.4865	-0.369
Mof_O 	O 	0.7129	0.71	0.4693	-0.379
Mof_Cu	Cu	0.15362	0.29801	0.17837	0.9
Mof_O 	O 	0.1032	0.3669	0.1151	-0.441
Mof_O 	O 	0.1351	0.442	0.2258	-0.392
Mof_O 	O 	0.1152	0.5669	0.0869	-0.4
Mof_O 	O 	0.0827	0.6419	0.151	-0.464
Mof_C 	C 	0.1004	0.4213	0.1523	0.357
Mof_C 	C 	0.0525	0.4629	0.103	-0.21
Mof_H 	H 	0.048	0.4673	0.0406	0.086
Mof_H 	H 	0.0226	0.4388	0.1029	0.069
Mof_C 	C 	0.0852	0.5825	0.1216	0.387
Mof_C 	C 	0.0524	0.5316	0.1399	-0.249
Mof_H 	H 	0.0637	0.528	0.2048	0.09
Mof_H 	H 	0.0167	0.5477	0.1153	0.086
Mof_Cu	Cu	0.12407	0.71808	0.14752	0.864
Mof_Cu	Cu	0.13713	0.20164	0.50471	0.918
Mof_Cu	Cu	0.14652	0.20584	0.31356	0.895
Mof_O 	O 	0.1343	0.2991	0.2831	-0.641
Mof_H 	H 	0.0979	0.312	0.2663	0.141
Mof_O 	O 	0.1004	0.1966	0.3748	-0.621
Mof_H 	H 	0.0664	0.2188	0.3474	0.131
Mof_Cu	Cu	0.18416	0.36997	0.35288	0.919
Mof_Cu	Cu	0.26186	0.25585	0.30317	0.908
Mof_O 	O 	0.2261	0.3401	0.2901	-0.609
Mof_H 	H 	0.2421	0.3767	0.2703	0.146
Mof_O 	O 	0.2976	0.1714	0.3313	-0.606
Mof_H 	H 	0.2846	0.1376	0.2836	0.15
Mof_Cu	Cu	0.21588	0.09659	0.461	0.907
Mof_Cu	Cu	0.17206	0.36345	0.54477	0.927
Mof_O 	O 	0.1453	0.3972	0.4237	-0.69
Mof_H 	H 	0.1125	0.4014	0.396	0.245
Mof_Cu	Cu	0.19746	0.49899	0.46872	0.803
Mof_O 	O 	0.2585	0.2648	0.1567	-0.402
Mof_O 	O 	0.1738	0.2876	0.0765	-0.44
Mof_C 	C 	0.2181	0.2702	0.0835	0.319
Mof_C 	C 	0.2245	0.2602	0.9978	-0.152
Mof_H 	H 	0.1994	0.2268	0.9628	0.06
Mof_H 	H 	0.2151	0.3017	0.964	0.049
Mof_O 	O 	0.1903	0.2166	0.2465	-0.635
Mof_H 	H 	0.1881	0.1785	0.207	0.136
Mof_O 	O 	0.1609	0.1111	0.3407	-0.658
Mof_H 	H 	0.1642	0.0846	0.2924	0.125
Mof_O 	O 	0.2724	0.0668	0.4286	-0.546
Mof_O 	O 	0.1571	0.1074	0.4959	-0.626
Mof_H 	H 	0.1581	0.0783	0.5452	0.14
Mof_O 	O 	0.117	0.2927	0.5203	-0.619
Mof_H 	H 	0.0822	0.3059	0.4771	0.15
Mof_O 	O 	0.1673	0.205	0.6382	-0.636
Mof_H 	H 	0.1626	0.1639	0.6668	0.141
Mof_O 	O 	0.2354	0.4379	0.4217	-0.651
Mof_H 	H 	0.2524	0.4603	0.3871	0.127
Mof_Cu	Cu	0.10104	0.08484	0.37303	0.842
Mof_O 	O 	0.0523	0.0501	0.4212	-0.469
Mof_C 	C 	0.0024	0.0417	0.505	-0.206
Mof_H 	H 	0.9677	0.0595	0.4721	0.065
Mof_H 	H 	0.0118	0.0518	0.5684	0.078
Mof_C 	C 	0.04	0.083	0.475	0.33
Mof_O 	O 	0.0515	0.1398	0.514	-0.38
Mof_O 	O 	0.2387	0.3136	0.5038	-0.443
Mof_O 	O 	0.203	0.2599	0.4865	-0.369
Mof_O 	O 	0.2129	0.21	0.4693	-0.379
Mof_Cu	Cu	0.34638	0.79801	0.32163	0.9
Mof_O 	O 	0.3968	0.8669	0.3849	-0.439
Mof_O 	O 	0.3649	0.942	0.2742	-0.393
Mof_O 	O 	0.3848	0.0669	0.4131	-0.397
Mof_O 	O 	0.4173	0.1419	0.349	-0.464
Mof_C 	C 	0.3996	0.9213	0.3477	0.359
Mof_C 	C 	0.4475	0.9629	0.397	-0.212
Mof_H 	H 	0.452	0.9673	0.4594	0.091
Mof_H 	H 	0.4774	0.9388	0.3971	0.071
Mof_C 	C 	0.4148	0.0825	0.3784	0.387
Mof_C 	C 	0.4476	0.0316	0.3601	-0.247
Mof_H 	H 	0.4363	0.028	0.2952	0.089
Mof_H 	H 	0.4833	0.0477	0.3847	0.087
Mof_Cu	Cu	0.37593	0.21808	0.35248	0.863
Mof_Cu	Cu	0.36287	0.70164	0.99529	0.924
Mof_Cu	Cu	0.35348	0.70584	0.18644	0.895
Mof_O 	O 	0.3657	0.7991	0.2169	-0.641
Mof_H 	H 	0.4021	0.812	0.2337	0.141
Mof_O 	O 	0.3996	0.6966	0.1252	-0.624
Mof_H 	H 	0.4336	0.7188	0.1526	0.13
Mof_Cu	Cu	0.31584	0.86997	0.14712	0.918
Mof_Cu	Cu	0.23814	0.75585	0.19683	0.908
Mof_O 	O 	0.2739	0.8401	0.2099	-0.61
Mof_H 	H 	0.2579	0.8767	0.2297	0.146
Mof_O 	O 	0.2024	0.6714	0.1687	-0.606
Mof_H 	H 	0.2154	0.6376	0.2164	0.151
Mof_Cu	Cu	0.28412	0.59659	0.039	0.904
Mof_Cu	Cu	0.32794	0.86345	0.95523	0.93
Mof_O 	O 	0.3547	0.8972	0.0763	-0.696
Mof_H 	H 	0.3875	0.9014	0.104	0.245
Mof_Cu	Cu	0.30254	0.99899	0.03128	0.798
Mof_O 	O 	0.2415	0.7648	0.3433	-0.408
Mof_O 	O 	0.3262	0.7876	0.4235	-0.445
Mof_C 	C 	0.2819	0.7702	0.4165	0.351
Mof_C 	C 	0.2755	0.7602	0.5022	-0.224
Mof_H 	H 	0.3006	0.7268	0.5372	0.076
Mof_H 	H 	0.2849	0.8017	0.536	0.066
Mof_O 	O 	0.3097	0.7166	0.2535	-0.635
Mof_H 	H 	0.3119	0.6785	0.293	0.137
Mof_O 	O 	0.3391	0.6111	0.1593	-0.658
Mof_H 	H 	0.3358	0.5846	0.2076	0.124
Mof_O 	O 	0.2276	0.5668	0.0714	-0.551
Mof_O 	O 	0.3429	0.6074	0.0041	-0.642
Mof_H 	H 	0.3419	0.5783	0.9548	0.151
Mof_O 	O 	0.383	0.7927	0.9797	-0.606
Mof_H 	H 	0.4178	0.8059	0.0229	0.137
Mof_O 	O 	0.3327	0.705	0.8618	-0.636
Mof_H 	H 	0.3374	0.6639	0.8332	0.141
Mof_O 	O 	0.2646	0.9379	0.0783	-0.657
Mof_H 	H 	0.2476	0.9603	0.1129	0.127
Mof_Cu	Cu	0.39896	0.58484	0.12697	0.84
Mof_O 	O 	0.4477	0.5501	0.0788	-0.462
Mof_C 	C 	0.4976	0.5417	0.995	-0.127
Mof_H 	H 	0.5323	0.5595	0.0279	0.035
Mof_H 	H 	0.4882	0.5518	0.9316	0.057
Mof_C 	C 	0.46	0.583	0.025	0.285
Mof_O 	O 	0.4485	0.6398	0.986	-0.358
Mof_O 	O 	0.2613	0.8136	0.9962	-0.426
Mof_O 	O 	0.297	0.7599	0.0135	-0.376
Mof_O 	O 	0.2871	0.71	0.0307	-0.371
Mof_Cu	Cu	0.84638	0.29801	0.32163	0.9
Mof_O 	O 	0.8968	0.3669	0.3849	-0.44
Mof_O 	O 	0.8649	0.442	0.2742	-0.393
Mof_O 	O 	0.8848	0.5669	0.4131	-0.397
Mof_O 	O 	0.9173	0.6419	0.349	-0.464
Mof_C 	C 	0.8996	0.4213	0.3477	0.359
Mof_C 	C 	0.9475	0.4629	0.397	-0.213
Mof_H 	H 	0.952	0.4673	0.4594	0.09
Mof_H 	H 	0.9774	0.4388	0.3971	0.071
Mof_C 	C 	0.9148	0.5825	0.3784	0.387
Mof_C 	C 	0.9476	0.5316	0.3601	-0.246
Mof_H 	H 	0.9363	0.528	0.2952	0.088
Mof_H 	H 	0.9833	0.5477	0.3847	0.086
Mof_Cu	Cu	0.87593	0.71808	0.35248	0.863
Mof_Cu	Cu	0.86287	0.20164	0.99529	0.924
Mof_Cu	Cu	0.85348	0.20584	0.18644	0.895
Mof_O 	O 	0.8657	0.2991	0.2169	-0.641
Mof_H 	H 	0.9021	0.312	0.2337	0.14
Mof_O 	O 	0.8996	0.1966	0.1252	-0.624
Mof_H 	H 	0.9336	0.2188	0.1526	0.13
Mof_Cu	Cu	0.81584	0.36997	0.14712	0.918
Mof_Cu	Cu	0.73814	0.25585	0.19683	0.908
Mof_O 	O 	0.7739	0.3401	0.2099	-0.61
Mof_H 	H 	0.7579	0.3767	0.2297	0.146
Mof_O 	O 	0.7024	0.1714	0.1687	-0.606
Mof_H 	H 	0.7154	0.1376	0.2164	0.151
Mof_Cu	Cu	0.78412	0.09659	0.039	0.904
Mof_Cu	Cu	0.82794	0.36345	0.95523	0.93
Mof_O 	O 	0.8547	0.3972	0.0763	-0.696
Mof_H 	H 	0.8875	0.4014	0.104	0.245
Mof_Cu	Cu	0.80254	0.49899	0.03128	0.798
Mof_O 	O 	0.7415	0.2648	0.3433	-0.408
Mof_O 	O 	0.8262	0.2876	0.4235	-0.445
Mof_C 	C 	0.7819	0.2702	0.4165	0.351
Mof_C 	C 	0.7755	0.2602	0.5022	-0.224
Mof_H 	H 	0.8006	0.2268	0.5372	0.076
Mof_H 	H 	0.7849	0.3017	0.536	0.066
Mof_O 	O 	0.8097	0.2166	0.2535	-0.635
Mof_H 	H 	0.8119	0.1785	0.293	0.137
Mof_O 	O 	0.8391	0.1111	0.1593	-0.658
Mof_H 	H 	0.8358	0.0846	0.2076	0.124
Mof_O 	O 	0.7276	0.0668	0.0714	-0.551
Mof_O 	O 	0.8429	0.1074	0.0041	-0.642
Mof_H 	H 	0.8419	0.0783	0.9548	0.151
Mof_O 	O 	0.883	0.2927	0.9797	-0.606
Mof_H 	H 	0.9178	0.3059	0.0229	0.136
Mof_O 	O 	0.8327	0.205	0.8618	-0.636
Mof_H 	H 	0.8374	0.1639	0.8332	0.141
Mof_O 	O 	0.7646	0.4379	0.0783	-0.657
Mof_H 	H 	0.7476	0.4603	0.1129	0.127
Mof_Cu	Cu	0.89896	0.08484	0.12697	0.84
Mof_O 	O 	0.9477	0.0501	0.0788	-0.464
Mof_C 	C 	0.9976	0.0417	0.995	-0.14
Mof_H 	H 	0.0323	0.0595	0.0279	0.041
Mof_H 	H 	0.9882	0.0518	0.9316	0.06
Mof_C 	C 	0.96	0.083	0.025	0.289
Mof_O 	O 	0.9485	0.1398	0.986	-0.361
Mof_O 	O 	0.7613	0.3136	0.9962	-0.426
Mof_O 	O 	0.797	0.2599	0.0135	-0.376
Mof_O 	O 	0.7871	0.21	0.0307	-0.371
Mof_Cu	Cu	0.34638	0.20199	0.82163	0.901
Mof_O 	O 	0.3968	0.1331	0.8849	-0.437
Mof_O 	O 	0.3649	0.058	0.7742	-0.393
Mof_O 	O 	0.3848	0.9331	0.9131	-0.393
Mof_O 	O 	0.4173	0.8581	0.849	-0.46
Mof_C 	C 	0.3996	0.0787	0.8477	0.361
Mof_C 	C 	0.4475	0.0371	0.897	-0.218
Mof_H 	H 	0.452	0.0327	0.9594	0.096
Mof_H 	H 	0.4774	0.0612	0.8971	0.075
Mof_C 	C 	0.4148	0.9175	0.8784	0.388
Mof_C 	C 	0.4476	0.9684	0.8601	-0.243
Mof_H 	H 	0.4363	0.972	0.7952	0.089
Mof_H 	H 	0.4833	0.9523	0.8847	0.089
Mof_Cu	Cu	0.37593	0.78192	0.85248	0.864
Mof_Cu	Cu	0.36287	0.29836	0.49529	0.918
Mof_Cu	Cu	0.35348	0.29416	0.68644	0.895
Mof_O 	O 	0.3657	0.2009	0.7169	-0.641
Mof_H 	H 	0.4021	0.188	0.7337	0.141
Mof_O 	O 	0.3996	0.3034	0.6252	-0.621
Mof_H 	H 	0.4336	0.2812	0.6526	0.131
Mof_Cu	Cu	0.31584	0.13003	0.64712	0.919
Mof_Cu	Cu	0.23814	0.24415	0.69683	0.909
Mof_O 	O 	0.2739	0.1599	0.7099	-0.609
Mof_H 	H 	0.2579	0.1233	0.7297	0.147
Mof_O 	O 	0.2024	0.3286	0.6687	-0.606
Mof_H 	H 	0.2154	0.3624	0.7164	0.152
Mof_Cu	Cu	0.28412	0.40341	0.539	0.907
Mof_Cu	Cu	0.32794	0.13655	0.45523	0.927
Mof_O 	O 	0.3547	0.1028	0.5763	-0.69
Mof_H 	H 	0.3875	0.0986	0.604	0.245
Mof_Cu	Cu	0.30254	0.00101	0.53128	0.803
Mof_O 	O 	0.2415	0.2352	0.8433	-0.414
Mof_O 	O 	0.3262	0.2124	0.9235	-0.45
Mof_C 	C 	0.2819	0.2298	0.9165	0.382
Mof_C 	C 	0.2755	0.2398	0.0022	-0.295
Mof_H 	H 	0.3006	0.2732	0.0372	0.092
Mof_H 	H 	0.2849	0.1983	0.036	0.082
Mof_O 	O 	0.3097	0.2834	0.7535	-0.635
Mof_H 	H 	0.3119	0.3215	0.793	0.137
Mof_O 	O 	0.3391	0.3889	0.6593	-0.658
Mof_H 	H 	0.3358	0.4154	0.7076	0.125
Mof_O 	O 	0.2276	0.4332	0.5714	-0.546
Mof_O 	O 	0.3429	0.3926	0.5041	-0.626
Mof_H 	H 	0.3419	0.4217	0.4548	0.139
Mof_O 	O 	0.383	0.2073	0.4797	-0.619
Mof_H 	H 	0.4178	0.1941	0.5229	0.149
Mof_O 	O 	0.3327	0.295	0.3618	-0.637
Mof_H 	H 	0.3374	0.3361	0.3332	0.14
Mof_O 	O 	0.2646	0.0621	0.5783	-0.651
Mof_H 	H 	0.2476	0.0397	0.6129	0.128
Mof_Cu	Cu	0.39896	0.41516	0.62697	0.842
Mof_O 	O 	0.4477	0.4499	0.5788	-0.469
Mof_C 	C 	0.4976	0.4583	0.495	-0.215
Mof_H 	H 	0.5323	0.4405	0.5279	0.069
Mof_H 	H 	0.4882	0.4482	0.4316	0.079
Mof_C 	C 	0.46	0.417	0.525	0.332
Mof_O 	O 	0.4485	0.3602	0.486	-0.382
Mof_O 	O 	0.2613	0.1864	0.4962	-0.443
Mof_O 	O 	0.297	0.2401	0.5135	-0.369
Mof_O 	O 	0.2871	0.29	0.5307	-0.379
Mof_Cu	Cu	0.84638	0.70199	0.82163	0.901
Mof_O 	O 	0.8968	0.6331	0.8849	-0.437
Mof_O 	O 	0.8649	0.558	0.7742	-0.393
Mof_O 	O 	0.8848	0.4331	0.9131	-0.394
Mof_O 	O 	0.9173	0.3581	0.849	-0.461
Mof_C 	C 	0.8996	0.5787	0.8477	0.36
Mof_C 	C 	0.9475	0.5371	0.897	-0.216
Mof_H 	H 	0.952	0.5327	0.9594	0.095
Mof_H 	H 	0.9774	0.5612	0.8971	0.074
Mof_C 	C 	0.9148	0.4175	0.8784	0.388
Mof_C 	C 	0.9476	0.4684	0.8601	-0.245
Mof_H 	H 	0.9363	0.472	0.7952	0.089
Mof_H 	H 	0.9833	0.4523	0.8847	0.088
Mof_Cu	Cu	0.87593	0.28192	0.85248	0.864
Mof_Cu	Cu	0.86287	0.79836	0.49529	0.918
Mof_Cu	Cu	0.85348	0.79416	0.68644	0.895
Mof_O 	O 	0.8657	0.7009	0.7169	-0.641
Mof_H 	H 	0.9021	0.688	0.7337	0.141
Mof_O 	O 	0.8996	0.8034	0.6252	-0.621
Mof_H 	H 	0.9336	0.7812	0.6526	0.131
Mof_Cu	Cu	0.81584	0.63003	0.64712	0.919
Mof_Cu	Cu	0.73814	0.74415	0.69683	0.909
Mof_O 	O 	0.7739	0.6599	0.7099	-0.609
Mof_H 	H 	0.7579	0.6233	0.7297	0.147
Mof_O 	O 	0.7024	0.8286	0.6687	-0.606
Mof_H 	H 	0.7154	0.8624	0.7164	0.152
Mof_Cu	Cu	0.78412	0.90341	0.539	0.907
Mof_Cu	Cu	0.82794	0.63655	0.45523	0.927
Mof_O 	O 	0.8547	0.6028	0.5763	-0.69
Mof_H 	H 	0.8875	0.5986	0.604	0.245
Mof_Cu	Cu	0.80254	0.50101	0.53128	0.803
Mof_O 	O 	0.7415	0.7352	0.8433	-0.414
Mof_O 	O 	0.8262	0.7124	0.9235	-0.451
Mof_C 	C 	0.7819	0.7298	0.9165	0.385
Mof_C 	C 	0.7755	0.7398	0.0022	-0.301
Mof_H 	H 	0.8006	0.7732	0.0372	0.094
Mof_H 	H 	0.7849	0.6983	0.036	0.084
Mof_O 	O 	0.8097	0.7834	0.7535	-0.635
Mof_H 	H 	0.8119	0.8215	0.793	0.137
Mof_O 	O 	0.8391	0.8889	0.6593	-0.658
Mof_H 	H 	0.8358	0.9154	0.7076	0.125
Mof_O 	O 	0.7276	0.9332	0.5714	-0.546
Mof_O 	O 	0.8429	0.8926	0.5041	-0.626
Mof_H 	H 	0.8419	0.9217	0.4548	0.139
Mof_O 	O 	0.883	0.7073	0.4797	-0.619
Mof_H 	H 	0.9178	0.6941	0.5229	0.149
Mof_O 	O 	0.8327	0.795	0.3618	-0.637
Mof_H 	H 	0.8374	0.8361	0.3332	0.14
Mof_O 	O 	0.7646	0.5621	0.5783	-0.651
Mof_H 	H 	0.7476	0.5397	0.6129	0.128
Mof_Cu	Cu	0.89896	0.91516	0.62697	0.842
Mof_O 	O 	0.9477	0.9499	0.5788	-0.47
Mof_C 	C 	0.9976	0.9583	0.495	-0.225
Mof_H 	H 	0.0323	0.9405	0.5279	0.074
Mof_H 	H 	0.9882	0.9482	0.4316	0.081
Mof_C 	C 	0.96	0.917	0.525	0.335
Mof_O 	O 	0.9485	0.8602	0.486	-0.383
Mof_O 	O 	0.7613	0.6864	0.4962	-0.443
Mof_O 	O 	0.797	0.7401	0.5135	-0.369
Mof_O 	O 	0.7871	0.79	0.5307	-0.379
Mof_Cu	Cu	0.65362	0.20199	0.67837	0.9
Mof_O 	O 	0.6032	0.1331	0.6151	-0.44
Mof_O 	O 	0.6351	0.058	0.7258	-0.392
Mof_O 	O 	0.6152	0.9331	0.5869	-0.397
Mof_O 	O 	0.5827	0.8581	0.651	-0.462
Mof_C 	C 	0.6004	0.0787	0.6523	0.359
Mof_C 	C 	0.5525	0.0371	0.603	-0.213
Mof_H 	H 	0.548	0.0327	0.5406	0.091
Mof_H 	H 	0.5226	0.0612	0.6029	0.072
Mof_C 	C 	0.5852	0.9175	0.6216	0.388
Mof_C 	C 	0.5524	0.9684	0.6399	-0.246
Mof_H 	H 	0.5637	0.972	0.7048	0.091
Mof_H 	H 	0.5167	0.9523	0.6153	0.087
Mof_Cu	Cu	0.62407	0.78192	0.64752	0.864
Mof_Cu	Cu	0.63713	0.29836	0.00471	0.912
Mof_Cu	Cu	0.64652	0.29416	0.81356	0.895
Mof_O 	O 	0.6343	0.2009	0.7831	-0.64
Mof_H 	H 	0.5979	0.188	0.7663	0.141
Mof_O 	O 	0.6004	0.3034	0.8748	-0.618
Mof_H 	H 	0.5664	0.2812	0.8474	0.132
Mof_Cu	Cu	0.68416	0.13003	0.85288	0.92
Mof_Cu	Cu	0.76186	0.24415	0.80317	0.909
Mof_O 	O 	0.7261	0.1599	0.7901	-0.608
Mof_H 	H 	0.7421	0.1233	0.7703	0.146
Mof_O 	O 	0.7976	0.3286	0.8313	-0.606
Mof_H 	H 	0.7846	0.3624	0.7836	0.151
Mof_Cu	Cu	0.71588	0.40341	0.961	0.909
Mof_Cu	Cu	0.67206	0.13655	0.04477	0.924
Mof_O 	O 	0.6453	0.1028	0.9237	-0.684
Mof_H 	H 	0.6125	0.0986	0.896	0.245
Mof_Cu	Cu	0.69746	0.00101	0.96872	0.808
Mof_O 	O 	0.7585	0.2352	0.6567	-0.408
Mof_O 	O 	0.6738	0.2124	0.5765	-0.445
Mof_C 	C 	0.7181	0.2298	0.5835	0.35
Mof_C 	C 	0.7245	0.2398	0.4978	-0.223
Mof_H 	H 	0.6994	0.2732	0.4628	0.076
Mof_H 	H 	0.7151	0.1983	0.464	0.066
Mof_O 	O 	0.6903	0.2834	0.7465	-0.635
Mof_H 	H 	0.6881	0.3215	0.707	0.137
Mof_O 	O 	0.6609	0.3889	0.8407	-0.658
Mof_H 	H 	0.6642	0.4154	0.7924	0.125
Mof_O 	O 	0.7724	0.4332	0.9286	-0.541
Mof_O 	O 	0.6571	0.3926	0.9959	-0.611
Mof_H 	H 	0.6581	0.4217	0.0452	0.128
Mof_O 	O 	0.617	0.2073	0.0203	-0.633
Mof_H 	H 	0.5822	0.1941	0.9771	0.162
Mof_O 	O 	0.6673	0.295	0.1382	-0.638
Mof_H 	H 	0.6626	0.3361	0.1668	0.14
Mof_O 	O 	0.7354	0.0621	0.9217	-0.646
Mof_H 	H 	0.7524	0.0397	0.8871	0.128
Mof_Cu	Cu	0.60104	0.41516	0.87303	0.843
Mof_O 	O 	0.5523	0.4499	0.9212	-0.477
Mof_C 	C 	0.5024	0.4583	0.005	-0.303
Mof_H 	H 	0.4677	0.4405	0.9721	0.103
Mof_H 	H 	0.5118	0.4482	0.0684	0.102
Mof_C 	C 	0.54	0.417	0.975	0.379
Mof_O 	O 	0.5515	0.3602	0.014	-0.405
Mof_O 	O 	0.7387	0.1864	0.0038	-0.448
Mof_O 	O 	0.703	0.2401	0.9865	-0.35
Mof_O 	O 	0.7129	0.29	0.9693	-0.375
Mof_Cu	Cu	0.15362	0.70199	0.67837	0.9
Mof_O 	O 	0.1032	0.6331	0.6151	-0.439
Mof_O 	O 	0.1351	0.558	0.7258	-0.392
Mof_O 	O 	0.1152	0.4331	0.5869	-0.397
Mof_O 	O 	0.0827	0.3581	0.651	-0.462
Mof_C 	C 	0.1004	0.5787	0.6523	0.359
Mof_C 	C 	0.0525	0.5371	0.603	-0.213
Mof_H 	H 	0.048	0.5327	0.5406	0.091
Mof_H 	H 	0.0226	0.5612	0.6029	0.072
Mof_C 	C 	0.0852	0.4175	0.6216	0.388
Mof_C 	C 	0.0524	0.4684	0.6399	-0.248
Mof_H 	H 	0.0637	0.472	0.7048	0.091
Mof_H 	H 	0.0167	0.4523	0.6153	0.088
Mof_Cu	Cu	0.12407	0.28192	0.64752	0.864
Mof_Cu	Cu	0.13713	0.79836	0.00471	0.912
Mof_Cu	Cu	0.14652	0.79416	0.81356	0.895
Mof_O 	O 	0.1343	0.7009	0.7831	-0.64
Mof_H 	H 	0.0979	0.688	0.7663	0.141
Mof_O 	O 	0.1004	0.8034	0.8748	-0.618
Mof_H 	H 	0.0664	0.7812	0.8474	0.132
Mof_Cu	Cu	0.18416	0.63003	0.85288	0.92
Mof_Cu	Cu	0.26186	0.74415	0.80317	0.909
Mof_O 	O 	0.2261	0.6599	0.7901	-0.608
Mof_H 	H 	0.2421	0.6233	0.7703	0.146
Mof_O 	O 	0.2976	0.8286	0.8313	-0.606
Mof_H 	H 	0.2846	0.8624	0.7836	0.151
Mof_Cu	Cu	0.21588	0.90341	0.961	0.909
Mof_Cu	Cu	0.17206	0.63655	0.04477	0.924
Mof_O 	O 	0.1453	0.6028	0.9237	-0.684
Mof_H 	H 	0.1125	0.5986	0.896	0.246
Mof_Cu	Cu	0.19746	0.50101	0.96872	0.808
Mof_O 	O 	0.2585	0.7352	0.6567	-0.408
Mof_O 	O 	0.1738	0.7124	0.5765	-0.445
Mof_C 	C 	0.2181	0.7298	0.5835	0.35
Mof_C 	C 	0.2245	0.7398	0.4978	-0.223
Mof_H 	H 	0.1994	0.7732	0.4628	0.076
Mof_H 	H 	0.2151	0.6983	0.464	0.066
Mof_O 	O 	0.1903	0.7834	0.7465	-0.635
Mof_H 	H 	0.1881	0.8215	0.707	0.137
Mof_O 	O 	0.1609	0.8889	0.8407	-0.658
Mof_H 	H 	0.1642	0.9154	0.7924	0.126
Mof_O 	O 	0.2724	0.9332	0.9286	-0.541
Mof_O 	O 	0.1571	0.8926	0.9959	-0.611
Mof_H 	H 	0.1581	0.9217	0.0452	0.128
Mof_O 	O 	0.117	0.7073	0.0203	-0.633
Mof_H 	H 	0.0822	0.6941	0.9771	0.162
Mof_O 	O 	0.1673	0.795	0.1382	-0.638
Mof_H 	H 	0.1626	0.8361	0.1668	0.14
Mof_O 	O 	0.2354	0.5621	0.9217	-0.646
Mof_H 	H 	0.2524	0.5397	0.8871	0.128
Mof_Cu	Cu	0.10104	0.91516	0.87303	0.843
Mof_O 	O 	0.0523	0.9499	0.9212	-0.475
Mof_C 	C 	0.0024	0.9583	0.005	-0.293
Mof_H 	H 	0.9677	0.9405	0.9721	0.099
Mof_H 	H 	0.0118	0.9482	0.0684	0.1
Mof_C 	C 	0.04	0.917	0.975	0.377
Mof_O 	O 	0.0515	0.8602	0.014	-0.403
Mof_O 	O 	0.2387	0.6864	0.0038	-0.448
Mof_O 	O 	0.203	0.7401	0.9865	-0.35
Mof_O 	O 	0.2129	0.79	0.9693	-0.375
Mof_C 	C 	0.75	0.75	0.5	0.898
Mof_C 	C 	0.25	0.75	-0	0.868
Mof_C 	C 	0.25	0.25	0.5	0.898
Mof_C 	C 	0.75	0.25	-0	0.868
_end
