# CIF file generated by openbabel 3.1.0, see https://openbabel.org
data_I
_chemical_name_common 'image0'
_cell_length_a 7.4548
_cell_length_b 8.0825
_cell_length_c 10.166
_cell_angle_alpha 75.244
_cell_angle_beta 68.883
_cell_angle_gamma 80.648
_space_group_name_H-M_alt 'P 1'
_space_group_name_Hall 'P 1'
loop_
    _symmetry_equiv_pos_as_xyz
    x,y,z
loop_
    _atom_site_label
    _atom_site_type_symbol
    _atom_site_fract_x
    _atom_site_fract_y
    _atom_site_fract_z
    _atom_site_occupancy
    V1       V        0.24400    0.51640    0.26220    1.000
    V2       V        0.30740    0.76140    0.74720    1.000
    P1       P        0.53230    0.73520    0.96880    1.000
    P2       P        0.90270    0.27700    0.47850    1.000
    O1       O        0.47830    0.63920    0.12610    1.000
    O2       O        0.71130    0.65120    0.86900    1.000
    O3       O        0.09930    0.34480    0.43400    1.000
    O4       O        0.74340    0.35860    0.59460    1.000
    O5       O        0.35630    0.75940    0.91940    1.000
    O6       O        0.84070    0.30970    0.34470    1.000
    O7       O        0.48660    0.34160    0.32850    1.000
    C1       C        0.58790    0.94770    0.95800    1.000
    C2       C        0.92160    0.04950    0.55190    1.000
    H1       H        0.69140    0.93940    0.99660    1.000
    H2       H        0.63280    0.00710    0.85760    1.000
    H3       H        0.79830    0.00440    0.57530    1.000
    H4       H        0.94990    0.03070    0.64080    1.000
    V3       V        0.75600    0.48360    0.73780    1.000
    V4       V        0.69260    0.23860    0.25280    1.000
    P3       P        0.46770    0.26480    0.03120    1.000
    P4       P        0.09730    0.72300    0.52150    1.000
    O8       O        0.52170    0.36080    0.87390    1.000
    O9       O        0.28870    0.34880    0.13100    1.000
    O10      O        0.90070    0.65520    0.56600    1.000
    O11      O        0.25660    0.64140    0.40540    1.000
    O12      O        0.64370    0.24060    0.08060    1.000
    O13      O        0.15930    0.69030    0.65530    1.000
    O14      O        0.51340    0.65840    0.67150    1.000
    C3       C        0.41210    0.05230    0.04200    1.000
    C4       C        0.07840    0.95050    0.44810    1.000
    H5       H        0.30860    0.06060    0.00340    1.000
    H6       H        0.36720    0.99290    0.14240    1.000
    H7       H        0.20170    0.99560    0.42470    1.000
    H8       H        0.05010    0.96930    0.35920    1.000
