# CIF file generated by openbabel 3.1.0, see https://openbabel.org
data_I
_chemical_name_common 'image0'
_cell_length_a 18.465
_cell_length_b 9.2442
_cell_length_c 19.699
_cell_angle_alpha 90
_cell_angle_beta 102.18
_cell_angle_gamma 90
_space_group_name_H-M_alt 'P 1'
_space_group_name_Hall 'P 1'
loop_
    _symmetry_equiv_pos_as_xyz
    x,y,z
loop_
    _atom_site_label
    _atom_site_type_symbol
    _atom_site_fract_x
    _atom_site_fract_y
    _atom_site_fract_z
    _atom_site_occupancy
    Dy1      Dy       0.02077    0.21845    0.99515    1.000
    O1       O        0.27700    0.98380    0.04240    1.000
    C1       C        0.24870    0.77250    0.08620    1.000
    H1       H        0.22180    0.69720    0.10020    1.000
    O2       O        0.13080    0.07310    0.00870    1.000
    O3       O        0.02050    0.14940    0.87950    1.000
    O4       O        0.09870    0.85730    0.04580    1.000
    O5       O        0.00270    0.93730    0.92390    1.000
    O6       O        0.46530    0.88470    0.05750    1.000
    C2       C        0.32590    0.77630    0.09050    1.000
    H2       H        0.35980    0.70410    0.10810    1.000
    O7       O        0.40800    0.09940    0.03540    1.000
    C3       C        0.22110    0.90090    0.05750    1.000
    C4       C        0.14230    0.94740    0.03480    1.000
    C5       C        0.34140    0.90580    0.06390    1.000
    C6       C        0.00170    0.95140    0.80530    1.000
    C7       C        0.40980    0.96980    0.05150    1.000
    C8       C        0.00830    0.01720    0.87380    1.000
    C9       C        0.00090    0.81080    0.78630    1.000
    H3       H        0.00140    0.73050    0.81490    1.000
    Dy2      Dy       0.52077    0.71845    0.99515    1.000
    O8       O        0.77700    0.48380    0.04240    1.000
    C10      C        0.74870    0.27250    0.08620    1.000
    H4       H        0.72180    0.19720    0.10020    1.000
    O9       O        0.63080    0.57310    0.00870    1.000
    O10      O        0.52050    0.64940    0.87950    1.000
    O11      O        0.59870    0.35730    0.04580    1.000
    O12      O        0.50270    0.43730    0.92390    1.000
    O13      O        0.96530    0.38470    0.05750    1.000
    C11      C        0.82590    0.27630    0.09050    1.000
    H5       H        0.85980    0.20410    0.10810    1.000
    O14      O        0.90800    0.59940    0.03540    1.000
    C12      C        0.72110    0.40090    0.05750    1.000
    C13      C        0.64230    0.44740    0.03480    1.000
    C14      C        0.84140    0.40580    0.06390    1.000
    C15      C        0.50170    0.45140    0.80530    1.000
    C16      C        0.90980    0.46980    0.05150    1.000
    C17      C        0.50830    0.51720    0.87380    1.000
    C18      C        0.50090    0.31080    0.78630    1.000
    H6       H        0.50140    0.23050    0.81490    1.000
    Dy3      Dy       0.97923    0.21845    0.50485    1.000
    O15      O        0.72300    0.98380    0.45760    1.000
    C19      C        0.75130    0.77250    0.41380    1.000
    H7       H        0.77820    0.69720    0.39980    1.000
    O16      O        0.86920    0.07310    0.49130    1.000
    O17      O        0.97950    0.14940    0.62050    1.000
    O18      O        0.90130    0.85730    0.45420    1.000
    O19      O        0.99730    0.93730    0.57610    1.000
    O20      O        0.53470    0.88470    0.44250    1.000
    C20      C        0.67410    0.77630    0.40950    1.000
    H8       H        0.64020    0.70410    0.39190    1.000
    O21      O        0.59200    0.09940    0.46460    1.000
    C21      C        0.77890    0.90090    0.44250    1.000
    C22      C        0.85770    0.94740    0.46520    1.000
    C23      C        0.65860    0.90580    0.43610    1.000
    C24      C        0.99830    0.95140    0.69470    1.000
    C25      C        0.59020    0.96980    0.44850    1.000
    C26      C        0.99170    0.01720    0.62620    1.000
    C27      C        0.99910    0.81080    0.71370    1.000
    H9       H        0.99860    0.73050    0.68510    1.000
    Dy4      Dy       0.47923    0.71845    0.50485    1.000
    O22      O        0.22300    0.48380    0.45760    1.000
    C28      C        0.25130    0.27250    0.41380    1.000
    H10      H        0.27820    0.19720    0.39980    1.000
    O23      O        0.36920    0.57310    0.49130    1.000
    O24      O        0.47950    0.64940    0.62050    1.000
    O25      O        0.40130    0.35730    0.45420    1.000
    O26      O        0.49730    0.43730    0.57610    1.000
    O27      O        0.03470    0.38470    0.44250    1.000
    C29      C        0.17410    0.27630    0.40950    1.000
    H11      H        0.14020    0.20410    0.39190    1.000
    O28      O        0.09200    0.59940    0.46460    1.000
    C30      C        0.27890    0.40090    0.44250    1.000
    C31      C        0.35770    0.44740    0.46520    1.000
    C32      C        0.15860    0.40580    0.43610    1.000
    C33      C        0.49830    0.45140    0.69470    1.000
    C34      C        0.09020    0.46980    0.44850    1.000
    C35      C        0.49170    0.51720    0.62620    1.000
    C36      C        0.49910    0.31080    0.71370    1.000
    H12      H        0.49860    0.23050    0.68510    1.000
    Dy5      Dy       0.97923    0.78155    0.00485    1.000
    O29      O        0.72300    0.01620    0.95760    1.000
    C37      C        0.75130    0.22750    0.91380    1.000
    H13      H        0.77820    0.30280    0.89980    1.000
    O30      O        0.86920    0.92690    0.99130    1.000
    O31      O        0.97950    0.85060    0.12050    1.000
    O32      O        0.90130    0.14270    0.95420    1.000
    O33      O        0.99730    0.06270    0.07610    1.000
    O34      O        0.53470    0.11530    0.94250    1.000
    C38      C        0.67410    0.22370    0.90950    1.000
    H14      H        0.64020    0.29590    0.89190    1.000
    O35      O        0.59200    0.90060    0.96460    1.000
    C39      C        0.77890    0.09910    0.94250    1.000
    C40      C        0.85770    0.05260    0.96520    1.000
    C41      C        0.65860    0.09420    0.93610    1.000
    C42      C        0.99830    0.04860    0.19470    1.000
    C43      C        0.59020    0.03020    0.94850    1.000
    C44      C        0.99170    0.98280    0.12620    1.000
    C45      C        0.99910    0.18920    0.21370    1.000
    H15      H        0.99860    0.26950    0.18510    1.000
    Dy6      Dy       0.47923    0.28155    0.00485    1.000
    O36      O        0.22300    0.51620    0.95760    1.000
    C46      C        0.25130    0.72750    0.91380    1.000
    H16      H        0.27820    0.80280    0.89980    1.000
    O37      O        0.36920    0.42690    0.99130    1.000
    O38      O        0.47950    0.35060    0.12050    1.000
    O39      O        0.40130    0.64270    0.95420    1.000
    O40      O        0.49730    0.56270    0.07610    1.000
    O41      O        0.03470    0.61530    0.94250    1.000
    C47      C        0.17410    0.72370    0.90950    1.000
    H17      H        0.14020    0.79590    0.89190    1.000
    O42      O        0.09200    0.40060    0.96460    1.000
    C48      C        0.27890    0.59910    0.94250    1.000
    C49      C        0.35770    0.55260    0.96520    1.000
    C50      C        0.15860    0.59420    0.93610    1.000
    C51      C        0.49830    0.54860    0.19470    1.000
    C52      C        0.09020    0.53020    0.94850    1.000
    C53      C        0.49170    0.48280    0.12620    1.000
    C54      C        0.49910    0.68920    0.21370    1.000
    H18      H        0.49860    0.76950    0.18510    1.000
    Dy7      Dy       0.02077    0.78155    0.49515    1.000
    O43      O        0.27700    0.01620    0.54240    1.000
    C55      C        0.24870    0.22750    0.58620    1.000
    H19      H        0.22180    0.30280    0.60020    1.000
    O44      O        0.13080    0.92690    0.50870    1.000
    O45      O        0.02050    0.85060    0.37950    1.000
    O46      O        0.09870    0.14270    0.54580    1.000
    O47      O        0.00270    0.06270    0.42390    1.000
    O48      O        0.46530    0.11530    0.55750    1.000
    C56      C        0.32590    0.22370    0.59050    1.000
    H20      H        0.35980    0.29590    0.60810    1.000
    O49      O        0.40800    0.90060    0.53540    1.000
    C57      C        0.22110    0.09910    0.55750    1.000
    C58      C        0.14230    0.05260    0.53480    1.000
    C59      C        0.34140    0.09420    0.56390    1.000
    C60      C        0.00170    0.04860    0.30530    1.000
    C61      C        0.40980    0.03020    0.55150    1.000
    C62      C        0.00830    0.98280    0.37380    1.000
    C63      C        0.00090    0.18920    0.28630    1.000
    H21      H        0.00140    0.26950    0.31490    1.000
    Dy8      Dy       0.52077    0.28155    0.49515    1.000
    O50      O        0.77700    0.51620    0.54240    1.000
    C64      C        0.74870    0.72750    0.58620    1.000
    H22      H        0.72180    0.80280    0.60020    1.000
    O51      O        0.63080    0.42690    0.50870    1.000
    O52      O        0.52050    0.35060    0.37950    1.000
    O53      O        0.59870    0.64270    0.54580    1.000
    O54      O        0.50270    0.56270    0.42390    1.000
    O55      O        0.96530    0.61530    0.55750    1.000
    C65      C        0.82590    0.72370    0.59050    1.000
    H23      H        0.85980    0.79590    0.60810    1.000
    O56      O        0.90800    0.40060    0.53540    1.000
    C66      C        0.72110    0.59910    0.55750    1.000
    C67      C        0.64230    0.55260    0.53480    1.000
    C68      C        0.84140    0.59420    0.56390    1.000
    C69      C        0.50170    0.54860    0.30530    1.000
    C70      C        0.90980    0.53020    0.55150    1.000
    C71      C        0.50830    0.48280    0.37380    1.000
    C72      C        0.50090    0.68920    0.28630    1.000
    H24      H        0.50140    0.76950    0.31490    1.000
    O57      O        0.00000    0.03800    0.75000    1.000
    O58      O        0.50000    0.53800    0.75000    1.000
    O59      O        0.00000    0.96200    0.25000    1.000
    O60      O        0.50000    0.46200    0.25000    1.000
