# CIF file generated by openbabel 3.1.0, see https://openbabel.org
data_I
_chemical_name_common 'image0'
_cell_length_a 25.686
_cell_length_b 31.77
_cell_length_c 25.129
_cell_angle_alpha 90
_cell_angle_beta 90
_cell_angle_gamma 90
_space_group_name_H-M_alt 'P 1'
_space_group_name_Hall 'P 1'
loop_
    _symmetry_equiv_pos_as_xyz
    x,y,z
loop_
    _atom_site_label
    _atom_site_type_symbol
    _atom_site_fract_x
    _atom_site_fract_y
    _atom_site_fract_z
    _atom_site_occupancy
    Mo1      Mo       0.19570    0.02305    0.40609    1.000
    Mo2      Mo       0.33500    0.17227    0.33934    1.000
    Mo3      Mo       0.20759    0.19747    0.36732    1.000
    Mo4      Mo       0.16164    0.07993    0.52642    1.000
    Mo5      Mo       0.29985    0.22884    0.45956    1.000
    Mo6      Mo       0.39511    0.04403    0.46300    1.000
    Mo7      Mo       0.29508    0.01112    0.38190    1.000
    Mo8      Mo       0.31215    0.19319    0.55378    1.000
    Mo9      Mo       0.36471    0.09447    0.56939    1.000
    Mo10     Mo       0.37327    0.09513    0.34472    1.000
    Mo11     Mo       0.23416    0.10919    0.59101    1.000
    Mo12     Mo       0.13532    0.12010    0.40217    1.000
    Zn1      Zn       0.23562    0.09949    0.31447    1.000
    Zn2      Zn       0.27970    0.01695    0.52239    1.000
    Zn3      Zn       0.40608    0.15316    0.46173    1.000
    Zn4      Zn       0.18201    0.18692    0.50137    1.000
    C1       C        0.25170    0.10630    0.19880    1.000
    H1       H        0.27460    0.12760    0.20880    1.000
    C2       C        0.25200    0.09400    0.14780    1.000
    H2       H        0.27400    0.10700    0.12350    1.000
    C3       C        0.21890    0.06130    0.13130    1.000
    C4       C        0.18340    0.04490    0.17000    1.000
    H3       H        0.15950    0.02420    0.16090    1.000
    C5       C        0.18560    0.06060    0.22110    1.000
    H4       H        0.16170    0.05040    0.24570    1.000
    C6       C        0.22190    0.04160    0.07750    1.000
    C7       C        0.08170    0.19980    0.55020    1.000
    H5       H        0.08590    0.17180    0.56030    1.000
    C8       C        0.03530    0.22100    0.56020    1.000
    H6       H        0.00820    0.20660    0.57670    1.000
    C9       C        0.02830    0.26140    0.54690    1.000
    C10      C        0.06870    0.28240    0.52340    1.000
    H7       H        0.06620    0.31050    0.51340    1.000
    C11      C        0.11330    0.25930    0.51530    1.000
    H8       H        0.14160    0.27350    0.50080    1.000
    C12      C        0.97700    0.28300    0.55760    1.000
    N1       N        0.21990    0.08960    0.23740    1.000
    N2       N        0.11960    0.22030    0.52590    1.000
    O1       O        0.34840    0.04160    0.52680    1.000
    O2       O        0.30560    0.08560    0.60740    1.000
    O3       O        0.36690    0.15160    0.57780    1.000
    O4       O        0.24930    0.21150    0.51320    1.000
    O5       O        0.41840    0.06950    0.40160    1.000
    O6       O        0.34080    0.22490    0.38910    1.000
    O7       O        0.11630    0.10850    0.47040    1.000
    O8       O        0.26560    0.16370    0.60150    1.000
    O9       O        0.35560    0.00360    0.43340    1.000
    O10      O        0.14400    0.06530    0.37960    1.000
    O11      O        0.26310    0.19190    0.32200    1.000
    O12      O        0.23560    0.23550    0.41300    1.000
    O13      O        0.25620    0.00610    0.44930    1.000
    O14      O        0.22670    0.05600    0.55210    1.000
    O15      O        0.40130    0.10090    0.49890    1.000
    O16      O        0.38650    0.14630    0.38640    1.000
    O17      O        0.30850    0.11730    0.31570    1.000
    O18      O        0.35550    0.19440    0.49020    1.000
    O19      O        0.15790    0.02570    0.47940    1.000
    O20      O        0.18890    0.13820    0.34700    1.000
    O21      O        0.16400    0.17470    0.42740    1.000
    O22      O        0.34290    0.03930    0.33750    1.000
    O23      O        0.23970    0.04450    0.34800    1.000
    O24      O        0.18130    0.13720    0.54560    1.000
    O25      O        0.26920    0.03380    0.06340    1.000
    O26      O        0.18120    0.03340    0.05370    1.000
    O27      O        0.94350    0.26410    0.58250    1.000
    O28      O        0.97420    0.32010    0.53740    1.000
    Mo13     Mo       0.69570    0.47695    0.59391    1.000
    Mo14     Mo       0.83500    0.32773    0.66066    1.000
    Mo15     Mo       0.70759    0.30253    0.63268    1.000
    Mo16     Mo       0.66164    0.42007    0.47358    1.000
    Mo17     Mo       0.79985    0.27116    0.54044    1.000
    Mo18     Mo       0.89511    0.45597    0.53700    1.000
    Mo19     Mo       0.79508    0.48888    0.61810    1.000
    Mo20     Mo       0.81215    0.30681    0.44622    1.000
    Mo21     Mo       0.86471    0.40553    0.43061    1.000
    Mo22     Mo       0.87327    0.40487    0.65528    1.000
    Mo23     Mo       0.73416    0.39081    0.40899    1.000
    Mo24     Mo       0.63532    0.37990    0.59783    1.000
    Zn5      Zn       0.73562    0.40051    0.68553    1.000
    Zn6      Zn       0.77970    0.48305    0.47761    1.000
    Zn7      Zn       0.90608    0.34684    0.53827    1.000
    Zn8      Zn       0.68201    0.31308    0.49863    1.000
    C13      C        0.75170    0.39370    0.80120    1.000
    H9       H        0.77460    0.37240    0.79120    1.000
    C14      C        0.75200    0.40600    0.85220    1.000
    H10      H        0.77400    0.39300    0.87650    1.000
    C15      C        0.71890    0.43870    0.86870    1.000
    C16      C        0.68340    0.45510    0.83000    1.000
    H11      H        0.65950    0.47580    0.83910    1.000
    C17      C        0.68560    0.43940    0.77890    1.000
    H12      H        0.66170    0.44960    0.75430    1.000
    C18      C        0.72190    0.45840    0.92250    1.000
    C19      C        0.58170    0.30020    0.44980    1.000
    H13      H        0.58590    0.32820    0.43970    1.000
    C20      C        0.53530    0.27900    0.43980    1.000
    H14      H        0.50820    0.29340    0.42330    1.000
    C21      C        0.52830    0.23860    0.45310    1.000
    C22      C        0.56870    0.21760    0.47660    1.000
    H15      H        0.56620    0.18950    0.48660    1.000
    C23      C        0.61330    0.24070    0.48470    1.000
    H16      H        0.64160    0.22650    0.49920    1.000
    C24      C        0.47700    0.21700    0.44240    1.000
    N3       N        0.71990    0.41040    0.76260    1.000
    N4       N        0.61960    0.27970    0.47410    1.000
    O29      O        0.84840    0.45840    0.47320    1.000
    O30      O        0.80560    0.41440    0.39260    1.000
    O31      O        0.86690    0.34840    0.42220    1.000
    O32      O        0.74930    0.28850    0.48680    1.000
    O33      O        0.91840    0.43050    0.59840    1.000
    O34      O        0.84080    0.27510    0.61090    1.000
    O35      O        0.61630    0.39150    0.52960    1.000
    O36      O        0.76560    0.33630    0.39850    1.000
    O37      O        0.85560    0.49640    0.56660    1.000
    O38      O        0.64400    0.43470    0.62040    1.000
    O39      O        0.76310    0.30810    0.67800    1.000
    O40      O        0.73560    0.26450    0.58700    1.000
    O41      O        0.75620    0.49390    0.55070    1.000
    O42      O        0.72670    0.44400    0.44790    1.000
    O43      O        0.90130    0.39910    0.50110    1.000
    O44      O        0.88650    0.35370    0.61360    1.000
    O45      O        0.80850    0.38270    0.68430    1.000
    O46      O        0.85550    0.30560    0.50980    1.000
    O47      O        0.65790    0.47430    0.52060    1.000
    O48      O        0.68890    0.36180    0.65300    1.000
    O49      O        0.66400    0.32530    0.57260    1.000
    O50      O        0.84290    0.46070    0.66250    1.000
    O51      O        0.73970    0.45550    0.65200    1.000
    O52      O        0.68130    0.36280    0.45440    1.000
    O53      O        0.76920    0.46620    0.93660    1.000
    O54      O        0.68120    0.46660    0.94630    1.000
    O55      O        0.44350    0.23590    0.41750    1.000
    O56      O        0.47420    0.17990    0.46260    1.000
    Mo25     Mo       0.69570    0.52305    0.09391    1.000
    Mo26     Mo       0.83500    0.67227    0.16066    1.000
    Mo27     Mo       0.70759    0.69747    0.13268    1.000
    Mo28     Mo       0.66164    0.57993    0.97358    1.000
    Mo29     Mo       0.79985    0.72884    0.04044    1.000
    Mo30     Mo       0.89511    0.54403    0.03700    1.000
    Mo31     Mo       0.79508    0.51112    0.11810    1.000
    Mo32     Mo       0.81215    0.69319    0.94622    1.000
    Mo33     Mo       0.86471    0.59447    0.93061    1.000
    Mo34     Mo       0.87327    0.59513    0.15528    1.000
    Mo35     Mo       0.73416    0.60919    0.90899    1.000
    Mo36     Mo       0.63532    0.62010    0.09783    1.000
    Zn9      Zn       0.73562    0.59949    0.18553    1.000
    Zn10     Zn       0.77970    0.51695    0.97761    1.000
    Zn11     Zn       0.90608    0.65316    0.03827    1.000
    Zn12     Zn       0.68201    0.68692    0.99863    1.000
    C25      C        0.75170    0.60630    0.30120    1.000
    H17      H        0.77460    0.62760    0.29120    1.000
    C26      C        0.75200    0.59400    0.35220    1.000
    H18      H        0.77400    0.60700    0.37650    1.000
    C27      C        0.71890    0.56130    0.36870    1.000
    C28      C        0.68340    0.54490    0.33000    1.000
    H19      H        0.65950    0.52420    0.33910    1.000
    C29      C        0.68560    0.56060    0.27890    1.000
    H20      H        0.66170    0.55040    0.25430    1.000
    C30      C        0.72190    0.54160    0.42250    1.000
    C31      C        0.58170    0.69980    0.94980    1.000
    H21      H        0.58590    0.67180    0.93970    1.000
    C32      C        0.53530    0.72100    0.93980    1.000
    H22      H        0.50820    0.70660    0.92330    1.000
    C33      C        0.52830    0.76140    0.95310    1.000
    C34      C        0.56870    0.78240    0.97660    1.000
    H23      H        0.56620    0.81050    0.98660    1.000
    C35      C        0.61330    0.75930    0.98470    1.000
    H24      H        0.64160    0.77350    0.99920    1.000
    C36      C        0.47700    0.78300    0.94240    1.000
    N5       N        0.71990    0.58960    0.26260    1.000
    N6       N        0.61960    0.72030    0.97410    1.000
    O57      O        0.84840    0.54160    0.97320    1.000
    O58      O        0.80560    0.58560    0.89260    1.000
    O59      O        0.86690    0.65160    0.92220    1.000
    O60      O        0.74930    0.71150    0.98680    1.000
    O61      O        0.91840    0.56950    0.09840    1.000
    O62      O        0.84080    0.72490    0.11090    1.000
    O63      O        0.61630    0.60850    0.02960    1.000
    O64      O        0.76560    0.66370    0.89850    1.000
    O65      O        0.85560    0.50360    0.06660    1.000
    O66      O        0.64400    0.56530    0.12040    1.000
    O67      O        0.76310    0.69190    0.17800    1.000
    O68      O        0.73560    0.73550    0.08700    1.000
    O69      O        0.75620    0.50610    0.05070    1.000
    O70      O        0.72670    0.55600    0.94790    1.000
    O71      O        0.90130    0.60090    0.00110    1.000
    O72      O        0.88650    0.64630    0.11360    1.000
    O73      O        0.80850    0.61730    0.18430    1.000
    O74      O        0.85550    0.69440    0.00980    1.000
    O75      O        0.65790    0.52570    0.02060    1.000
    O76      O        0.68890    0.63820    0.15300    1.000
    O77      O        0.66400    0.67470    0.07260    1.000
    O78      O        0.84290    0.53930    0.16250    1.000
    O79      O        0.73970    0.54450    0.15200    1.000
    O80      O        0.68130    0.63720    0.95440    1.000
    O81      O        0.76920    0.53380    0.43660    1.000
    O82      O        0.68120    0.53340    0.44630    1.000
    O83      O        0.44350    0.76410    0.91750    1.000
    O84      O        0.47420    0.82010    0.96260    1.000
    Mo37     Mo       0.19570    0.97695    0.90609    1.000
    Mo38     Mo       0.33500    0.82773    0.83934    1.000
    Mo39     Mo       0.20759    0.80253    0.86732    1.000
    Mo40     Mo       0.16164    0.92007    0.02642    1.000
    Mo41     Mo       0.29985    0.77116    0.95956    1.000
    Mo42     Mo       0.39511    0.95597    0.96300    1.000
    Mo43     Mo       0.29508    0.98888    0.88190    1.000
    Mo44     Mo       0.31215    0.80681    0.05378    1.000
    Mo45     Mo       0.36471    0.90553    0.06939    1.000
    Mo46     Mo       0.37327    0.90487    0.84472    1.000
    Mo47     Mo       0.23416    0.89081    0.09101    1.000
    Mo48     Mo       0.13532    0.87990    0.90217    1.000
    Zn13     Zn       0.23562    0.90051    0.81447    1.000
    Zn14     Zn       0.27970    0.98305    0.02239    1.000
    Zn15     Zn       0.40608    0.84684    0.96173    1.000
    Zn16     Zn       0.18201    0.81308    0.00137    1.000
    C37      C        0.25170    0.89370    0.69880    1.000
    H25      H        0.27460    0.87240    0.70880    1.000
    C38      C        0.25200    0.90600    0.64780    1.000
    H26      H        0.27400    0.89300    0.62350    1.000
    C39      C        0.21890    0.93870    0.63130    1.000
    C40      C        0.18340    0.95510    0.67000    1.000
    H27      H        0.15950    0.97580    0.66090    1.000
    C41      C        0.18560    0.93940    0.72110    1.000
    H28      H        0.16170    0.94960    0.74570    1.000
    C42      C        0.22190    0.95840    0.57750    1.000
    C43      C        0.08170    0.80020    0.05020    1.000
    H29      H        0.08590    0.82820    0.06030    1.000
    C44      C        0.03530    0.77900    0.06020    1.000
    H30      H        0.00820    0.79340    0.07670    1.000
    C45      C        0.02830    0.73860    0.04690    1.000
    C46      C        0.06870    0.71760    0.02340    1.000
    H31      H        0.06620    0.68950    0.01340    1.000
    C47      C        0.11330    0.74070    0.01530    1.000
    H32      H        0.14160    0.72650    0.00080    1.000
    C48      C        0.97700    0.71700    0.05760    1.000
    N7       N        0.21990    0.91040    0.73740    1.000
    N8       N        0.11960    0.77970    0.02590    1.000
    O85      O        0.34840    0.95840    0.02680    1.000
    O86      O        0.30560    0.91440    0.10740    1.000
    O87      O        0.36690    0.84840    0.07780    1.000
    O88      O        0.24930    0.78850    0.01320    1.000
    O89      O        0.41840    0.93050    0.90160    1.000
    O90      O        0.34080    0.77510    0.88910    1.000
    O91      O        0.11630    0.89150    0.97040    1.000
    O92      O        0.26560    0.83630    0.10150    1.000
    O93      O        0.35560    0.99640    0.93340    1.000
    O94      O        0.14400    0.93470    0.87960    1.000
    O95      O        0.26310    0.80810    0.82200    1.000
    O96      O        0.23560    0.76450    0.91300    1.000
    O97      O        0.25620    0.99390    0.94930    1.000
    O98      O        0.22670    0.94400    0.05210    1.000
    O99      O        0.40130    0.89910    0.99890    1.000
    O100     O        0.38650    0.85370    0.88640    1.000
    O101     O        0.30850    0.88270    0.81570    1.000
    O102     O        0.35550    0.80560    0.99020    1.000
    O103     O        0.15790    0.97430    0.97940    1.000
    O104     O        0.18890    0.86180    0.84700    1.000
    O105     O        0.16400    0.82530    0.92740    1.000
    O106     O        0.34290    0.96070    0.83750    1.000
    O107     O        0.23970    0.95550    0.84800    1.000
    O108     O        0.18130    0.86280    0.04560    1.000
    O109     O        0.26920    0.96620    0.56340    1.000
    O110     O        0.18120    0.96660    0.55370    1.000
    O111     O        0.94350    0.73590    0.08250    1.000
    O112     O        0.97420    0.67990    0.03740    1.000
    Mo49     Mo       0.30430    0.47695    0.90609    1.000
    Mo50     Mo       0.16500    0.32773    0.83934    1.000
    Mo51     Mo       0.29241    0.30253    0.86732    1.000
    Mo52     Mo       0.33836    0.42007    0.02642    1.000
    Mo53     Mo       0.20015    0.27116    0.95956    1.000
    Mo54     Mo       0.10489    0.45597    0.96300    1.000
    Mo55     Mo       0.20492    0.48888    0.88190    1.000
    Mo56     Mo       0.18785    0.30681    0.05378    1.000
    Mo57     Mo       0.13529    0.40553    0.06939    1.000
    Mo58     Mo       0.12673    0.40487    0.84472    1.000
    Mo59     Mo       0.26584    0.39081    0.09101    1.000
    Mo60     Mo       0.36468    0.37990    0.90217    1.000
    Zn17     Zn       0.26438    0.40051    0.81447    1.000
    Zn18     Zn       0.22030    0.48305    0.02239    1.000
    Zn19     Zn       0.09392    0.34684    0.96173    1.000
    Zn20     Zn       0.31799    0.31308    0.00137    1.000
    C49      C        0.24830    0.39370    0.69880    1.000
    H33      H        0.22540    0.37240    0.70880    1.000
    C50      C        0.24800    0.40600    0.64780    1.000
    H34      H        0.22600    0.39300    0.62350    1.000
    C51      C        0.28110    0.43870    0.63130    1.000
    C52      C        0.31660    0.45510    0.67000    1.000
    H35      H        0.34050    0.47580    0.66090    1.000
    C53      C        0.31440    0.43940    0.72110    1.000
    H36      H        0.33830    0.44960    0.74570    1.000
    C54      C        0.27810    0.45840    0.57750    1.000
    C55      C        0.41830    0.30020    0.05020    1.000
    H37      H        0.41410    0.32820    0.06030    1.000
    C56      C        0.46470    0.27900    0.06020    1.000
    H38      H        0.49180    0.29340    0.07670    1.000
    C57      C        0.47170    0.23860    0.04690    1.000
    C58      C        0.43130    0.21760    0.02340    1.000
    H39      H        0.43380    0.18950    0.01340    1.000
    C59      C        0.38670    0.24070    0.01530    1.000
    H40      H        0.35840    0.22650    0.00080    1.000
    C60      C        0.52300    0.21700    0.05760    1.000
    N9       N        0.28010    0.41040    0.73740    1.000
    N10      N        0.38040    0.27970    0.02590    1.000
    O113     O        0.15160    0.45840    0.02680    1.000
    O114     O        0.19440    0.41440    0.10740    1.000
    O115     O        0.13310    0.34840    0.07780    1.000
    O116     O        0.25070    0.28850    0.01320    1.000
    O117     O        0.08160    0.43050    0.90160    1.000
    O118     O        0.15920    0.27510    0.88910    1.000
    O119     O        0.38370    0.39150    0.97040    1.000
    O120     O        0.23440    0.33630    0.10150    1.000
    O121     O        0.14440    0.49640    0.93340    1.000
    O122     O        0.35600    0.43470    0.87960    1.000
    O123     O        0.23690    0.30810    0.82200    1.000
    O124     O        0.26440    0.26450    0.91300    1.000
    O125     O        0.24380    0.49390    0.94930    1.000
    O126     O        0.27330    0.44400    0.05210    1.000
    O127     O        0.09870    0.39910    0.99890    1.000
    O128     O        0.11350    0.35370    0.88640    1.000
    O129     O        0.19150    0.38270    0.81570    1.000
    O130     O        0.14450    0.30560    0.99020    1.000
    O131     O        0.34210    0.47430    0.97940    1.000
    O132     O        0.31110    0.36180    0.84700    1.000
    O133     O        0.33600    0.32530    0.92740    1.000
    O134     O        0.15710    0.46070    0.83750    1.000
    O135     O        0.26030    0.45550    0.84800    1.000
    O136     O        0.31870    0.36280    0.04560    1.000
    O137     O        0.23080    0.46620    0.56340    1.000
    O138     O        0.31880    0.46660    0.55370    1.000
    O139     O        0.55650    0.23590    0.08250    1.000
    O140     O        0.52580    0.17990    0.03740    1.000
    Mo61     Mo       0.80430    0.02305    0.09391    1.000
    Mo62     Mo       0.66500    0.17227    0.16066    1.000
    Mo63     Mo       0.79241    0.19747    0.13268    1.000
    Mo64     Mo       0.83836    0.07993    0.97358    1.000
    Mo65     Mo       0.70015    0.22884    0.04044    1.000
    Mo66     Mo       0.60489    0.04403    0.03700    1.000
    Mo67     Mo       0.70492    0.01112    0.11810    1.000
    Mo68     Mo       0.68785    0.19319    0.94622    1.000
    Mo69     Mo       0.63529    0.09447    0.93061    1.000
    Mo70     Mo       0.62673    0.09513    0.15528    1.000
    Mo71     Mo       0.76584    0.10919    0.90899    1.000
    Mo72     Mo       0.86468    0.12010    0.09783    1.000
    Zn21     Zn       0.76438    0.09949    0.18553    1.000
    Zn22     Zn       0.72030    0.01695    0.97761    1.000
    Zn23     Zn       0.59392    0.15316    0.03827    1.000
    Zn24     Zn       0.81799    0.18692    0.99863    1.000
    C61      C        0.74830    0.10630    0.30120    1.000
    H41      H        0.72540    0.12760    0.29120    1.000
    C62      C        0.74800    0.09400    0.35220    1.000
    H42      H        0.72600    0.10700    0.37650    1.000
    C63      C        0.78110    0.06130    0.36870    1.000
    C64      C        0.81660    0.04490    0.33000    1.000
    H43      H        0.84050    0.02420    0.33910    1.000
    C65      C        0.81440    0.06060    0.27890    1.000
    H44      H        0.83830    0.05040    0.25430    1.000
    C66      C        0.77810    0.04160    0.42250    1.000
    C67      C        0.91830    0.19980    0.94980    1.000
    H45      H        0.91410    0.17180    0.93970    1.000
    C68      C        0.96470    0.22100    0.93980    1.000
    H46      H        0.99180    0.20660    0.92330    1.000
    C69      C        0.97170    0.26140    0.95310    1.000
    C70      C        0.93130    0.28240    0.97660    1.000
    H47      H        0.93380    0.31050    0.98660    1.000
    C71      C        0.88670    0.25930    0.98470    1.000
    H48      H        0.85840    0.27350    0.99920    1.000
    C72      C        0.02300    0.28300    0.94240    1.000
    N11      N        0.78010    0.08960    0.26260    1.000
    N12      N        0.88040    0.22030    0.97410    1.000
    O141     O        0.65160    0.04160    0.97320    1.000
    O142     O        0.69440    0.08560    0.89260    1.000
    O143     O        0.63310    0.15160    0.92220    1.000
    O144     O        0.75070    0.21150    0.98680    1.000
    O145     O        0.58160    0.06950    0.09840    1.000
    O146     O        0.65920    0.22490    0.11090    1.000
    O147     O        0.88370    0.10850    0.02960    1.000
    O148     O        0.73440    0.16370    0.89850    1.000
    O149     O        0.64440    0.00360    0.06660    1.000
    O150     O        0.85600    0.06530    0.12040    1.000
    O151     O        0.73690    0.19190    0.17800    1.000
    O152     O        0.76440    0.23550    0.08700    1.000
    O153     O        0.74380    0.00610    0.05070    1.000
    O154     O        0.77330    0.05600    0.94790    1.000
    O155     O        0.59870    0.10090    0.00110    1.000
    O156     O        0.61350    0.14630    0.11360    1.000
    O157     O        0.69150    0.11730    0.18430    1.000
    O158     O        0.64450    0.19440    0.00980    1.000
    O159     O        0.84210    0.02570    0.02060    1.000
    O160     O        0.81110    0.13820    0.15300    1.000
    O161     O        0.83600    0.17470    0.07260    1.000
    O162     O        0.65710    0.03930    0.16250    1.000
    O163     O        0.76030    0.04450    0.15200    1.000
    O164     O        0.81870    0.13720    0.95440    1.000
    O165     O        0.73080    0.03380    0.43660    1.000
    O166     O        0.81880    0.03340    0.44630    1.000
    O167     O        0.05650    0.26410    0.91750    1.000
    O168     O        0.02580    0.32010    0.96260    1.000
    Mo73     Mo       0.80430    0.97695    0.59391    1.000
    Mo74     Mo       0.66500    0.82773    0.66066    1.000
    Mo75     Mo       0.79241    0.80253    0.63268    1.000
    Mo76     Mo       0.83836    0.92007    0.47358    1.000
    Mo77     Mo       0.70015    0.77116    0.54044    1.000
    Mo78     Mo       0.60489    0.95597    0.53700    1.000
    Mo79     Mo       0.70492    0.98888    0.61810    1.000
    Mo80     Mo       0.68785    0.80681    0.44622    1.000
    Mo81     Mo       0.63529    0.90553    0.43061    1.000
    Mo82     Mo       0.62673    0.90487    0.65528    1.000
    Mo83     Mo       0.76584    0.89081    0.40899    1.000
    Mo84     Mo       0.86468    0.87990    0.59783    1.000
    Zn25     Zn       0.76438    0.90051    0.68553    1.000
    Zn26     Zn       0.72030    0.98305    0.47761    1.000
    Zn27     Zn       0.59392    0.84684    0.53827    1.000
    Zn28     Zn       0.81799    0.81308    0.49863    1.000
    C73      C        0.74830    0.89370    0.80120    1.000
    H49      H        0.72540    0.87240    0.79120    1.000
    C74      C        0.74800    0.90600    0.85220    1.000
    H50      H        0.72600    0.89300    0.87650    1.000
    C75      C        0.78110    0.93870    0.86870    1.000
    C76      C        0.81660    0.95510    0.83000    1.000
    H51      H        0.84050    0.97580    0.83910    1.000
    C77      C        0.81440    0.93940    0.77890    1.000
    H52      H        0.83830    0.94960    0.75430    1.000
    C78      C        0.77810    0.95840    0.92250    1.000
    C79      C        0.91830    0.80020    0.44980    1.000
    H53      H        0.91410    0.82820    0.43970    1.000
    C80      C        0.96470    0.77900    0.43980    1.000
    H54      H        0.99180    0.79340    0.42330    1.000
    C81      C        0.97170    0.73860    0.45310    1.000
    C82      C        0.93130    0.71760    0.47660    1.000
    H55      H        0.93380    0.68950    0.48660    1.000
    C83      C        0.88670    0.74070    0.48470    1.000
    H56      H        0.85840    0.72650    0.49920    1.000
    C84      C        0.02300    0.71700    0.44240    1.000
    N13      N        0.78010    0.91040    0.76260    1.000
    N14      N        0.88040    0.77970    0.47410    1.000
    O169     O        0.65160    0.95840    0.47320    1.000
    O170     O        0.69440    0.91440    0.39260    1.000
    O171     O        0.63310    0.84840    0.42220    1.000
    O172     O        0.75070    0.78850    0.48680    1.000
    O173     O        0.58160    0.93050    0.59840    1.000
    O174     O        0.65920    0.77510    0.61090    1.000
    O175     O        0.88370    0.89150    0.52960    1.000
    O176     O        0.73440    0.83630    0.39850    1.000
    O177     O        0.64440    0.99640    0.56660    1.000
    O178     O        0.85600    0.93470    0.62040    1.000
    O179     O        0.73690    0.80810    0.67800    1.000
    O180     O        0.76440    0.76450    0.58700    1.000
    O181     O        0.74380    0.99390    0.55070    1.000
    O182     O        0.77330    0.94400    0.44790    1.000
    O183     O        0.59870    0.89910    0.50110    1.000
    O184     O        0.61350    0.85370    0.61360    1.000
    O185     O        0.69150    0.88270    0.68430    1.000
    O186     O        0.64450    0.80560    0.50980    1.000
    O187     O        0.84210    0.97430    0.52060    1.000
    O188     O        0.81110    0.86180    0.65300    1.000
    O189     O        0.83600    0.82530    0.57260    1.000
    O190     O        0.65710    0.96070    0.66250    1.000
    O191     O        0.76030    0.95550    0.65200    1.000
    O192     O        0.81870    0.86280    0.45440    1.000
    O193     O        0.73080    0.96620    0.93660    1.000
    O194     O        0.81880    0.96660    0.94630    1.000
    O195     O        0.05650    0.73590    0.41750    1.000
    O196     O        0.02580    0.67990    0.46260    1.000
    Mo85     Mo       0.30430    0.52305    0.40609    1.000
    Mo86     Mo       0.16500    0.67227    0.33934    1.000
    Mo87     Mo       0.29241    0.69747    0.36732    1.000
    Mo88     Mo       0.33836    0.57993    0.52642    1.000
    Mo89     Mo       0.20015    0.72884    0.45956    1.000
    Mo90     Mo       0.10489    0.54403    0.46300    1.000
    Mo91     Mo       0.20492    0.51112    0.38190    1.000
    Mo92     Mo       0.18785    0.69319    0.55378    1.000
    Mo93     Mo       0.13529    0.59447    0.56939    1.000
    Mo94     Mo       0.12673    0.59513    0.34472    1.000
    Mo95     Mo       0.26584    0.60919    0.59101    1.000
    Mo96     Mo       0.36468    0.62010    0.40217    1.000
    Zn29     Zn       0.26438    0.59949    0.31447    1.000
    Zn30     Zn       0.22030    0.51695    0.52239    1.000
    Zn31     Zn       0.09392    0.65316    0.46173    1.000
    Zn32     Zn       0.31799    0.68692    0.50137    1.000
    C85      C        0.24830    0.60630    0.19880    1.000
    H57      H        0.22540    0.62760    0.20880    1.000
    C86      C        0.24800    0.59400    0.14780    1.000
    H58      H        0.22600    0.60700    0.12350    1.000
    C87      C        0.28110    0.56130    0.13130    1.000
    C88      C        0.31660    0.54490    0.17000    1.000
    H59      H        0.34050    0.52420    0.16090    1.000
    C89      C        0.31440    0.56060    0.22110    1.000
    H60      H        0.33830    0.55040    0.24570    1.000
    C90      C        0.27810    0.54160    0.07750    1.000
    C91      C        0.41830    0.69980    0.55020    1.000
    H61      H        0.41410    0.67180    0.56030    1.000
    C92      C        0.46470    0.72100    0.56020    1.000
    H62      H        0.49180    0.70660    0.57670    1.000
    C93      C        0.47170    0.76140    0.54690    1.000
    C94      C        0.43130    0.78240    0.52340    1.000
    H63      H        0.43380    0.81050    0.51340    1.000
    C95      C        0.38670    0.75930    0.51530    1.000
    H64      H        0.35840    0.77350    0.50080    1.000
    C96      C        0.52300    0.78300    0.55760    1.000
    N15      N        0.28010    0.58960    0.23740    1.000
    N16      N        0.38040    0.72030    0.52590    1.000
    O197     O        0.15160    0.54160    0.52680    1.000
    O198     O        0.19440    0.58560    0.60740    1.000
    O199     O        0.13310    0.65160    0.57780    1.000
    O200     O        0.25070    0.71150    0.51320    1.000
    O201     O        0.08160    0.56950    0.40160    1.000
    O202     O        0.15920    0.72490    0.38910    1.000
    O203     O        0.38370    0.60850    0.47040    1.000
    O204     O        0.23440    0.66370    0.60150    1.000
    O205     O        0.14440    0.50360    0.43340    1.000
    O206     O        0.35600    0.56530    0.37960    1.000
    O207     O        0.23690    0.69190    0.32200    1.000
    O208     O        0.26440    0.73550    0.41300    1.000
    O209     O        0.24380    0.50610    0.44930    1.000
    O210     O        0.27330    0.55600    0.55210    1.000
    O211     O        0.09870    0.60090    0.49890    1.000
    O212     O        0.11350    0.64630    0.38640    1.000
    O213     O        0.19150    0.61730    0.31570    1.000
    O214     O        0.14450    0.69440    0.49020    1.000
    O215     O        0.34210    0.52570    0.47940    1.000
    O216     O        0.31110    0.63820    0.34700    1.000
    O217     O        0.33600    0.67470    0.42740    1.000
    O218     O        0.15710    0.53930    0.33750    1.000
    O219     O        0.26030    0.54450    0.34800    1.000
    O220     O        0.31870    0.63720    0.54560    1.000
    O221     O        0.23080    0.53380    0.06340    1.000
    O222     O        0.31880    0.53340    0.05370    1.000
    O223     O        0.55650    0.76410    0.58250    1.000
    O224     O        0.52580    0.82010    0.53740    1.000
