data_functionalizedCrystal
_audit_creation_method	'EQeq! by Chris Wilmer'
_symmetry_space_group_name_H-M	'P1'
_symmetry_Int_Tables_number	1
_symmetry_cell_setting	triclinic
loop_
_symmetry_equiv_pos_as_xyz
  x,y,z
_cell_length_a	19.2945
_cell_length_b	19.2945
_cell_length_c	19.2945
_cell_angle_alpha	90
_cell_angle_beta	90
_cell_angle_gamma	90
loop_
_atom_site_label
_atom_site_type_symbol
_atom_site_fract_x
_atom_site_fract_y
_atom_site_fract_z
_atom_site_charge
Mof_N 	N 	0.3662	0.4135	0.082	-0.074
Mof_N 	N 	0.3232	0.404	0.1353	-0.115
Mof_N 	N 	0.6338	0.5865	0.082	-0.074
Mof_N 	N 	0.6768	0.596	0.1353	-0.115
Mof_N 	N 	0.6338	0.4135	0.918	-0.075
Mof_N 	N 	0.6768	0.404	0.8647	-0.115
Mof_N 	N 	0.3662	0.5865	0.918	-0.075
Mof_N 	N 	0.3232	0.596	0.8647	-0.115
Mof_N 	N 	0.082	0.3662	0.4135	-0.074
Mof_N 	N 	0.1353	0.3232	0.404	-0.115
Mof_N 	N 	0.082	0.6338	0.5865	-0.074
Mof_N 	N 	0.1353	0.6768	0.596	-0.115
Mof_N 	N 	0.918	0.6338	0.4135	-0.075
Mof_N 	N 	0.8647	0.6768	0.404	-0.115
Mof_N 	N 	0.918	0.3662	0.5865	-0.075
Mof_N 	N 	0.8647	0.3232	0.596	-0.115
Mof_N 	N 	0.4135	0.082	0.3662	-0.074
Mof_N 	N 	0.404	0.1353	0.3232	-0.115
Mof_N 	N 	0.5865	0.082	0.6338	-0.074
Mof_N 	N 	0.596	0.1353	0.6768	-0.115
Mof_N 	N 	0.4135	0.918	0.6338	-0.075
Mof_N 	N 	0.404	0.8647	0.6768	-0.115
Mof_N 	N 	0.5865	0.918	0.3662	-0.075
Mof_N 	N 	0.596	0.8647	0.3232	-0.115
Mof_N 	N 	0.4135	0.3662	0.918	-0.075
Mof_N 	N 	0.404	0.3232	0.8647	-0.115
Mof_N 	N 	0.5865	0.6338	0.918	-0.075
Mof_N 	N 	0.596	0.6768	0.8647	-0.115
Mof_N 	N 	0.4135	0.6338	0.082	-0.074
Mof_N 	N 	0.404	0.6768	0.1353	-0.115
Mof_N 	N 	0.5865	0.3662	0.082	-0.074
Mof_N 	N 	0.596	0.3232	0.1353	-0.115
Mof_N 	N 	0.3662	0.082	0.5865	-0.074
Mof_N 	N 	0.3232	0.1353	0.596	-0.115
Mof_N 	N 	0.6338	0.082	0.4135	-0.074
Mof_N 	N 	0.6768	0.1353	0.404	-0.115
Mof_N 	N 	0.6338	0.918	0.5865	-0.076
Mof_N 	N 	0.6768	0.8647	0.596	-0.116
Mof_N 	N 	0.3662	0.918	0.4135	-0.076
Mof_N 	N 	0.3232	0.8647	0.404	-0.116
Mof_N 	N 	0.082	0.4135	0.6338	-0.075
Mof_N 	N 	0.1353	0.404	0.6768	-0.116
Mof_N 	N 	0.082	0.5865	0.3662	-0.075
Mof_N 	N 	0.1353	0.596	0.3232	-0.116
Mof_N 	N 	0.918	0.4135	0.3662	-0.076
Mof_N 	N 	0.8647	0.404	0.3232	-0.116
Mof_N 	N 	0.918	0.5865	0.6338	-0.076
Mof_N 	N 	0.8647	0.596	0.6768	-0.116
Mof_N 	N 	0.6338	0.5865	0.918	-0.076
Mof_N 	N 	0.6768	0.596	0.8647	-0.116
Mof_N 	N 	0.3662	0.4135	0.918	-0.076
Mof_N 	N 	0.3232	0.404	0.8647	-0.116
Mof_N 	N 	0.3662	0.5865	0.082	-0.075
Mof_N 	N 	0.3232	0.596	0.1353	-0.116
Mof_N 	N 	0.6338	0.4135	0.082	-0.075
Mof_N 	N 	0.6768	0.404	0.1353	-0.116
Mof_N 	N 	0.918	0.6338	0.5865	-0.076
Mof_N 	N 	0.8647	0.6768	0.596	-0.116
Mof_N 	N 	0.918	0.3662	0.4135	-0.076
Mof_N 	N 	0.8647	0.3232	0.404	-0.116
Mof_N 	N 	0.082	0.3662	0.5865	-0.075
Mof_N 	N 	0.1353	0.3232	0.596	-0.116
Mof_N 	N 	0.082	0.6338	0.4135	-0.075
Mof_N 	N 	0.1353	0.6768	0.404	-0.116
Mof_N 	N 	0.5865	0.918	0.6338	-0.076
Mof_N 	N 	0.596	0.8647	0.6768	-0.116
Mof_N 	N 	0.4135	0.918	0.3662	-0.076
Mof_N 	N 	0.404	0.8647	0.3232	-0.116
Mof_N 	N 	0.5865	0.082	0.3662	-0.075
Mof_N 	N 	0.596	0.1353	0.3232	-0.116
Mof_N 	N 	0.4135	0.082	0.6338	-0.075
Mof_N 	N 	0.404	0.1353	0.6768	-0.116
Mof_N 	N 	0.5865	0.6338	0.082	-0.075
Mof_N 	N 	0.596	0.6768	0.1353	-0.116
Mof_N 	N 	0.4135	0.3662	0.082	-0.075
Mof_N 	N 	0.404	0.3232	0.1353	-0.116
Mof_N 	N 	0.5865	0.3662	0.918	-0.076
Mof_N 	N 	0.596	0.3232	0.8647	-0.116
Mof_N 	N 	0.4135	0.6338	0.918	-0.076
Mof_N 	N 	0.404	0.6768	0.8647	-0.116
Mof_N 	N 	0.6338	0.918	0.4135	-0.076
Mof_N 	N 	0.6768	0.8647	0.404	-0.116
Mof_N 	N 	0.3662	0.918	0.5865	-0.076
Mof_N 	N 	0.3232	0.8647	0.596	-0.116
Mof_N 	N 	0.3662	0.082	0.4135	-0.075
Mof_N 	N 	0.3232	0.1353	0.404	-0.116
Mof_N 	N 	0.6338	0.082	0.5865	-0.075
Mof_N 	N 	0.6768	0.1353	0.596	-0.116
Mof_N 	N 	0.918	0.5865	0.3662	-0.076
Mof_N 	N 	0.8647	0.596	0.3232	-0.116
Mof_N 	N 	0.918	0.4135	0.6338	-0.076
Mof_N 	N 	0.8647	0.404	0.6768	-0.116
Mof_N 	N 	0.082	0.5865	0.6338	-0.075
Mof_N 	N 	0.1353	0.596	0.6768	-0.116
Mof_N 	N 	0.082	0.4135	0.3662	-0.075
Mof_N 	N 	0.1353	0.404	0.3232	-0.116
Mof_Cd	Cd	0.35474	0.5	-0	0.391
Mof_Cl	Cl	0.2293	0.5	-0	-0.4
Mof_Cd	Cd	0.64526	0.5	-0	0.391
Mof_Cl	Cl	0.7707	0.5	-0	-0.4
Mof_Cd	Cd	-1.63969e-33	0.35474	0.5	0.391
Mof_Cl	Cl	1.8747e-33	0.2293	0.5	-0.4
Mof_Cd	Cd	1.8747e-33	0.64526	0.5	0.391
Mof_Cl	Cl	1.8747e-33	0.7707	0.5	-0.4
Mof_Cd	Cd	0.5	3.51439e-33	0.35474	0.391
Mof_Cl	Cl	0.5	1.75719e-33	0.2293	-0.4
Mof_Cd	Cd	0.5	0	0.64526	0.391
Mof_Cl	Cl	0.5	0	0.7707	-0.4
Mof_Cd	Cd	0.5	0.35474	-0	0.391
Mof_Cl	Cl	0.5	0.2293	-0	-0.4
Mof_Cd	Cd	0.5	0.64526	-0	0.391
Mof_Cl	Cl	0.5	0.7707	-0	-0.4
Mof_Cd	Cd	0.35474	3.51439e-33	0.5	0.391
Mof_Cl	Cl	0.2293	3.51439e-33	0.5	-0.4
Mof_Cd	Cd	0.64526	3.51439e-33	0.5	0.391
Mof_Cl	Cl	0.7707	3.51439e-33	0.5	-0.4
Mof_Cd	Cd	2.41934e-33	0.5	0.64526	0.391
Mof_Cl	Cl	-4.13912e-33	0.5	0.7707	-0.4
Mof_Cd	Cd	1.33006e-33	0.5	0.35474	0.391
Mof_Cl	Cl	2.61693e-33	0.5	0.2293	-0.4
Mof_C 	C 	0.3475	0.3475	0.1678	0.114
Mof_C 	C 	0.3157	0.3157	0.228	-0.021
Mof_C 	C 	0.6525	0.6525	0.1678	0.114
Mof_C 	C 	0.6843	0.6843	0.228	-0.021
Mof_C 	C 	0.6525	0.3475	0.8322	0.114
Mof_C 	C 	0.6843	0.3157	0.772	-0.021
Mof_C 	C 	0.3475	0.6525	0.8322	0.114
Mof_C 	C 	0.3157	0.6843	0.772	-0.021
Mof_C 	C 	0.1678	0.3475	0.3475	0.114
Mof_C 	C 	0.228	0.3157	0.3157	-0.021
Mof_C 	C 	0.1678	0.6525	0.6525	0.114
Mof_C 	C 	0.228	0.6843	0.6843	-0.021
Mof_C 	C 	0.8322	0.6525	0.3475	0.114
Mof_C 	C 	0.772	0.6843	0.3157	-0.021
Mof_C 	C 	0.8322	0.3475	0.6525	0.114
Mof_C 	C 	0.772	0.3157	0.6843	-0.021
Mof_C 	C 	0.3475	0.1678	0.3475	0.114
Mof_C 	C 	0.3157	0.228	0.3157	-0.021
Mof_C 	C 	0.6525	0.1678	0.6525	0.114
Mof_C 	C 	0.6843	0.228	0.6843	-0.021
Mof_C 	C 	0.3475	0.8322	0.6525	0.114
Mof_C 	C 	0.3157	0.772	0.6843	-0.021
Mof_C 	C 	0.6525	0.8322	0.3475	0.114
Mof_C 	C 	0.6843	0.772	0.3157	-0.021
Mof_C 	C 	0.3475	0.3475	0.8322	0.114
Mof_C 	C 	0.3157	0.3157	0.772	-0.021
Mof_C 	C 	0.6525	0.6525	0.8322	0.114
Mof_C 	C 	0.6843	0.6843	0.772	-0.021
Mof_C 	C 	0.3475	0.6525	0.1678	0.114
Mof_C 	C 	0.3157	0.6843	0.228	-0.021
Mof_C 	C 	0.6525	0.3475	0.1678	0.114
Mof_C 	C 	0.6843	0.3157	0.228	-0.021
Mof_C 	C 	0.3475	0.1678	0.6525	0.114
Mof_C 	C 	0.3157	0.228	0.6843	-0.021
Mof_C 	C 	0.6525	0.1678	0.3475	0.114
Mof_C 	C 	0.6843	0.228	0.3157	-0.021
Mof_C 	C 	0.6525	0.8322	0.6525	0.114
Mof_C 	C 	0.6843	0.772	0.6843	-0.021
Mof_C 	C 	0.3475	0.8322	0.3475	0.114
Mof_C 	C 	0.3157	0.772	0.3157	-0.021
Mof_C 	C 	0.1678	0.3475	0.6525	0.114
Mof_C 	C 	0.228	0.3157	0.6843	-0.021
Mof_C 	C 	0.1678	0.6525	0.3475	0.114
Mof_C 	C 	0.228	0.6843	0.3157	-0.021
Mof_C 	C 	0.8322	0.3475	0.3475	0.114
Mof_C 	C 	0.772	0.3157	0.3157	-0.021
Mof_C 	C 	0.8322	0.6525	0.6525	0.114
Mof_C 	C 	0.772	0.6843	0.6843	-0.021
Mof_C 	C 	0.2576	0.3459	0.2576	-0.036
Mof_H 	H 	0.2387	0.3859	0.2387	0.026
Mof_C 	C 	0.7424	0.6541	0.2576	-0.036
Mof_H 	H 	0.7613	0.6141	0.2387	0.026
Mof_C 	C 	0.7424	0.3459	0.7424	-0.036
Mof_H 	H 	0.7613	0.3859	0.7613	0.026
Mof_C 	C 	0.2576	0.6541	0.7424	-0.036
Mof_H 	H 	0.2387	0.6141	0.7613	0.026
Mof_C 	C 	0.2576	0.2576	0.3459	-0.036
Mof_H 	H 	0.2387	0.2387	0.3859	0.026
Mof_C 	C 	0.2576	0.7424	0.6541	-0.036
Mof_H 	H 	0.2387	0.7613	0.6141	0.026
Mof_C 	C 	0.7424	0.7424	0.3459	-0.036
Mof_H 	H 	0.7613	0.7613	0.3859	0.026
Mof_C 	C 	0.7424	0.2576	0.6541	-0.036
Mof_H 	H 	0.7613	0.2387	0.6141	0.026
Mof_C 	C 	0.3459	0.2576	0.2576	-0.036
Mof_H 	H 	0.3859	0.2387	0.2387	0.026
Mof_C 	C 	0.6541	0.2576	0.7424	-0.036
Mof_H 	H 	0.6141	0.2387	0.7613	0.026
Mof_C 	C 	0.3459	0.7424	0.7424	-0.036
Mof_H 	H 	0.3859	0.7613	0.7613	0.026
Mof_C 	C 	0.6541	0.7424	0.2576	-0.036
Mof_H 	H 	0.6141	0.7613	0.2387	0.026
Mof_C 	C 	0.3459	0.2576	0.7424	-0.036
Mof_H 	H 	0.3859	0.2387	0.7613	0.026
Mof_C 	C 	0.6541	0.7424	0.7424	-0.036
Mof_H 	H 	0.6141	0.7613	0.7613	0.026
Mof_C 	C 	0.3459	0.7424	0.2576	-0.036
Mof_H 	H 	0.3859	0.7613	0.2387	0.026
Mof_C 	C 	0.6541	0.2576	0.2576	-0.036
Mof_H 	H 	0.6141	0.2387	0.2387	0.026
Mof_C 	C 	0.2576	0.2576	0.6541	-0.036
Mof_H 	H 	0.2387	0.2387	0.6141	0.026
Mof_C 	C 	0.7424	0.2576	0.3459	-0.036
Mof_H 	H 	0.7613	0.2387	0.3859	0.026
Mof_C 	C 	0.7424	0.7424	0.6541	-0.036
Mof_H 	H 	0.7613	0.7613	0.6141	0.026
Mof_C 	C 	0.2576	0.7424	0.3459	-0.036
Mof_H 	H 	0.2387	0.7613	0.3859	0.026
Mof_C 	C 	0.2576	0.3459	0.7424	-0.036
Mof_H 	H 	0.2387	0.3859	0.7613	0.026
Mof_C 	C 	0.2576	0.6541	0.2576	-0.036
Mof_H 	H 	0.2387	0.6141	0.2387	0.026
Mof_C 	C 	0.7424	0.3459	0.2576	-0.036
Mof_H 	H 	0.7613	0.3859	0.2387	0.026
Mof_C 	C 	0.7424	0.6541	0.7424	-0.036
Mof_H 	H 	0.7613	0.6141	0.7613	0.026
Mof_Cd	Cd	0.2443	0.5	0.146	0.303
Mof_Cd	Cd	0.7557	0.5	0.146	0.303
Mof_Cd	Cd	0.7557	0.5	0.854	0.303
Mof_Cd	Cd	0.2443	0.5	0.854	0.303
Mof_Cd	Cd	0.146	0.2443	0.5	0.303
Mof_Cd	Cd	0.146	0.7557	0.5	0.303
Mof_Cd	Cd	0.854	0.7557	0.5	0.303
Mof_Cd	Cd	0.854	0.2443	0.5	0.303
Mof_Cd	Cd	0.5	0.146	0.2443	0.303
Mof_Cd	Cd	0.5	0.146	0.7557	0.303
Mof_Cd	Cd	0.5	0.854	0.7557	0.303
Mof_Cd	Cd	0.5	0.854	0.2443	0.303
Mof_Cd	Cd	0.5	0.2443	0.854	0.303
Mof_Cd	Cd	0.5	0.7557	0.854	0.303
Mof_Cd	Cd	0.5	0.7557	0.146	0.303
Mof_Cd	Cd	0.5	0.2443	0.146	0.303
Mof_Cd	Cd	0.2443	0.146	0.5	0.303
Mof_Cd	Cd	0.7557	0.146	0.5	0.303
Mof_Cd	Cd	0.7557	0.854	0.5	0.303
Mof_Cd	Cd	0.2443	0.854	0.5	0.303
Mof_Cd	Cd	0.146	0.5	0.7557	0.303
Mof_Cd	Cd	0.146	0.5	0.2443	0.303
Mof_Cd	Cd	0.854	0.5	0.2443	0.303
Mof_Cd	Cd	0.854	0.5	0.7557	0.303
_end
