data_functionalizedCrystal
_audit_creation_method	'EQeq! by Chris Wilmer'
_symmetry_space_group_name_H-M	'P1'
_symmetry_Int_Tables_number	1
_symmetry_cell_setting	triclinic
loop_
_symmetry_equiv_pos_as_xyz
  x,y,z
_cell_length_a	12.0188
_cell_length_b	19.3548
_cell_length_c	19.3548
_cell_angle_alpha	84.468
_cell_angle_beta	71.9115
_cell_angle_gamma	71.9114
loop_
_atom_site_label
_atom_site_type_symbol
_atom_site_fract_x
_atom_site_fract_y
_atom_site_fract_z
_atom_site_charge
Mof_Eu	Eu	0.48352	0.20141	0.63721	2.624
Mof_Eu	Eu	0.43034	0.02113	0.60551	2.415
Mof_Eu	Eu	0.82214	0.29859	0.86279	2.627
Mof_Eu	Eu	0.55698	0.47887	0.89449	2.42
Mof_Eu	Eu	0.12073	0.36279	0.70141	2.621
Mof_Eu	Eu	0.03585	0.39449	0.52113	2.418
Mof_Eu	Eu	0.68493	0.13721	0.79859	2.624
Mof_Eu	Eu	0.45147	0.10551	0.97887	2.393
Mof_Eu	Eu	0.51648	0.79859	0.36279	2.624
Mof_Eu	Eu	0.56966	0.97887	0.39449	2.415
Mof_Eu	Eu	0.17786	0.70141	0.13721	2.628
Mof_Eu	Eu	0.44302	0.52113	0.10551	2.421
Mof_Eu	Eu	0.87927	0.63721	0.29859	2.622
Mof_Eu	Eu	0.96415	0.60551	0.47887	2.419
Mof_Eu	Eu	0.31507	0.86279	0.20141	2.625
Mof_Eu	Eu	0.54853	0.89449	0.02113	2.394
Mof_H 	H 	0.6527	0.209	0.4404	0.146
Mof_H 	H 	0.7681	0.1422	0.4384	0.158
Mof_H 	H 	0.8019	0.0915	0.5507	0.122
Mof_H 	H 	0.8647	0.1537	0.5357	0.136
Mof_H 	H 	0.5431	0.9428	0.7758	0.129
Mof_H 	H 	0.6755	0.9144	0.7228	0.148
Mof_H 	H 	0.4643	0.8395	0.6837	0.118
Mof_H 	H 	0.4843	0.8517	0.7575	0.124
Mof_H 	H 	0.0546	0.1509	0.6693	0.153
Mof_H 	H 	0.1176	0.101	0.7238	0.144
Mof_H 	H 	0.0993	0.0729	0.5519	0.132
Mof_H 	H 	0.1444	0.1412	0.549	0.121
Mof_H 	H 	0.6982	0.2345	0.5301	0.083
Mof_H 	H 	0.6098	0.8872	0.6448	0.075
Mof_H 	H 	0.1681	0.0279	0.6365	0.081
Mof_H 	H 	0.8021	0.291	0.0596	0.147
Mof_H 	H 	0.8487	0.3578	0.0616	0.157
Mof_H 	H 	0.9441	0.4085	0.9493	0.117
Mof_H 	H 	0.0541	0.3463	0.9643	0.126
Mof_H 	H 	0.7617	0.5572	0.7242	0.129
Mof_H 	H 	0.8127	0.5856	0.7772	0.15
Mof_H 	H 	0.4875	0.6605	0.8163	0.118
Mof_H 	H 	0.5935	0.6483	0.7425	0.124
Mof_H 	H 	0.3748	0.3491	0.8307	0.154
Mof_H 	H 	0.4424	0.399	0.7762	0.146
Mof_H 	H 	0.2241	0.4271	0.9481	0.132
Mof_H 	H 	0.3346	0.3588	0.951	0.121
Mof_H 	H 	0.9628	0.2655	0.9699	0.084
Mof_H 	H 	0.6418	0.6128	0.8552	0.075
Mof_H 	H 	0.3325	0.4721	0.8635	0.082
Mof_H 	H 	0.0931	0.5596	0.709	0.146
Mof_H 	H 	0.2065	0.5616	0.6422	0.157
Mof_H 	H 	0.3526	0.4493	0.5915	0.121
Mof_H 	H 	0.4004	0.4643	0.6537	0.136
Mof_H 	H 	0.3189	0.2242	0.4428	0.129
Mof_H 	H 	0.3983	0.2772	0.4144	0.149
Mof_H 	H 	0.148	0.3163	0.3395	0.119
Mof_H 	H 	0.2418	0.2425	0.3517	0.124
Mof_H 	H 	0.7239	0.3307	0.6509	0.155
Mof_H 	H 	0.8414	0.2762	0.601	0.146
Mof_H 	H 	0.6512	0.4481	0.5729	0.132
Mof_H 	H 	0.6934	0.451	0.6412	0.122
Mof_H 	H 	0.2283	0.4699	0.7345	0.082
Mof_H 	H 	0.2546	0.3552	0.3872	0.075
Mof_H 	H 	0.8046	0.3635	0.5279	0.082
Mof_H 	H 	0.8617	0.9404	0.791	0.147
Mof_H 	H 	0.9103	0.9384	0.8578	0.159
Mof_H 	H 	0.8934	0.0507	0.9085	0.117
Mof_H 	H 	0.0184	0.0357	0.8463	0.127
Mof_H 	H 	0.4859	0.2758	0.0572	0.128
Mof_H 	H 	0.5899	0.2228	0.0856	0.148
Mof_H 	H 	0.3038	0.1837	0.1605	0.118
Mof_H 	H 	0.336	0.2575	0.1483	0.124
Mof_H 	H 	0.2055	0.1693	0.8491	0.154
Mof_H 	H 	0.2186	0.2238	0.899	0.144
Mof_H 	H 	0.1722	0.0519	0.9271	0.132
Mof_H 	H 	0.2856	0.049	0.8588	0.123
Mof_H 	H 	0.9327	0.0301	0.7655	0.083
Mof_H 	H 	0.497	0.1448	0.1128	0.076
Mof_H 	H 	0.196	0.1365	0.9721	0.078
Mof_H 	H 	0.3473	0.791	0.5596	0.146
Mof_H 	H 	0.2319	0.8578	0.5616	0.158
Mof_H 	H 	0.1981	0.9085	0.4493	0.122
Mof_H 	H 	0.1353	0.8463	0.4643	0.136
Mof_H 	H 	0.4569	0.0572	0.2242	0.129
Mof_H 	H 	0.3245	0.0856	0.2772	0.148
Mof_H 	H 	0.5357	0.1605	0.3163	0.118
Mof_H 	H 	0.5157	0.1483	0.2425	0.124
Mof_H 	H 	0.9454	0.8491	0.3307	0.153
Mof_H 	H 	0.8824	0.899	0.2762	0.144
Mof_H 	H 	0.9007	0.9271	0.4481	0.132
Mof_H 	H 	0.8556	0.8588	0.451	0.121
Mof_H 	H 	0.3018	0.7655	0.4699	0.083
Mof_H 	H 	0.3902	0.1128	0.3552	0.075
Mof_H 	H 	0.8319	0.9721	0.3635	0.081
Mof_H 	H 	0.1979	0.709	0.9404	0.147
Mof_H 	H 	0.1513	0.6422	0.9384	0.157
Mof_H 	H 	0.0559	0.5915	0.0507	0.117
Mof_H 	H 	0.9459	0.6537	0.0357	0.126
Mof_H 	H 	0.2383	0.4428	0.2758	0.129
Mof_H 	H 	0.1873	0.4144	0.2228	0.15
Mof_H 	H 	0.5125	0.3395	0.1837	0.118
Mof_H 	H 	0.4065	0.3517	0.2575	0.124
Mof_H 	H 	0.6252	0.6509	0.1693	0.154
Mof_H 	H 	0.5576	0.601	0.2238	0.146
Mof_H 	H 	0.7759	0.5729	0.0519	0.132
Mof_H 	H 	0.6654	0.6412	0.049	0.121
Mof_H 	H 	0.0372	0.7345	0.0301	0.084
Mof_H 	H 	0.3582	0.3872	0.1448	0.075
Mof_H 	H 	0.6675	0.5279	0.1365	0.082
Mof_H 	H 	0.9069	0.4404	0.291	0.146
Mof_H 	H 	0.7935	0.4384	0.3578	0.157
Mof_H 	H 	0.6474	0.5507	0.4085	0.121
Mof_H 	H 	0.5996	0.5357	0.3463	0.136
Mof_H 	H 	0.6811	0.7758	0.5572	0.129
Mof_H 	H 	0.6017	0.7228	0.5856	0.149
Mof_H 	H 	0.852	0.6837	0.6605	0.119
Mof_H 	H 	0.7582	0.7575	0.6483	0.124
Mof_H 	H 	0.2761	0.6693	0.3491	0.155
Mof_H 	H 	0.1586	0.7238	0.399	0.146
Mof_H 	H 	0.3488	0.5519	0.4271	0.132
Mof_H 	H 	0.3066	0.549	0.3588	0.122
Mof_H 	H 	0.7717	0.5301	0.2655	0.082
Mof_H 	H 	0.7454	0.6448	0.6128	0.075
Mof_H 	H 	0.1954	0.6365	0.4721	0.082
Mof_H 	H 	0.1383	0.0596	0.209	0.147
Mof_H 	H 	0.0897	0.0616	0.1422	0.159
Mof_H 	H 	0.1066	0.9493	0.0915	0.117
Mof_H 	H 	0.9816	0.9643	0.1537	0.127
Mof_H 	H 	0.5141	0.7242	0.9428	0.128
Mof_H 	H 	0.4101	0.7772	0.9144	0.148
Mof_H 	H 	0.6962	0.8163	0.8395	0.118
Mof_H 	H 	0.664	0.7425	0.8517	0.124
Mof_H 	H 	0.7945	0.8307	0.1509	0.154
Mof_H 	H 	0.7814	0.7762	0.101	0.144
Mof_H 	H 	0.8278	0.9481	0.0729	0.132
Mof_H 	H 	0.7144	0.951	0.1412	0.123
Mof_H 	H 	0.0673	0.9699	0.2345	0.083
Mof_H 	H 	0.503	0.8552	0.8872	0.076
Mof_H 	H 	0.804	0.8635	0.0279	0.078
Mof_C 	C 	0.6075	0.1156	0.478	0.6
Mof_C 	C 	0.6851	0.1665	0.4671	-0.41
Mof_C 	C 	0.7901	0.1415	0.5617	-0.342
Mof_C 	C 	0.7648	0.1497	0.6427	0.464
Mof_C 	C 	0.5996	0.0226	0.713	0.61
Mof_C 	C 	0.5936	0.9459	0.7263	-0.398
Mof_C 	C 	0.4605	0.8762	0.7158	-0.329
Mof_C 	C 	0.3318	0.9261	0.7407	0.423
Mof_C 	C 	0.2079	0.1738	0.6722	0.651
Mof_C 	C 	0.1331	0.1233	0.6761	-0.428
Mof_C 	C 	0.1686	0.0885	0.5519	-0.337
Mof_C 	C 	0.2747	0.0578	0.4852	0.469
Mof_C 	C 	0.7011	0.3844	0.022	0.6
Mof_C 	C 	0.8187	0.3335	0.0329	-0.41
Mof_C 	C 	0.9933	0.3585	0.9383	-0.324
Mof_C 	C 	0.0572	0.3503	0.8573	0.456
Mof_C 	C 	0.8352	0.4774	0.787	0.614
Mof_C 	C 	0.7658	0.5541	0.7737	-0.403
Mof_C 	C 	0.5525	0.6238	0.7842	-0.33
Mof_C 	C 	0.4986	0.5739	0.7593	0.423
Mof_C 	C 	0.5539	0.3262	0.8278	0.652
Mof_C 	C 	0.4325	0.3767	0.8239	-0.429
Mof_C 	C 	0.309	0.4115	0.9481	-0.341
Mof_C 	C 	0.3177	0.4422	0.0148	0.473
Mof_C 	C 	0.0855	0.522	0.6156	0.6
Mof_C 	C 	0.1522	0.5329	0.6665	-0.41
Mof_C 	C 	0.3518	0.4383	0.6415	-0.342
Mof_C 	C 	0.4075	0.3573	0.6497	0.464
Mof_C 	C 	0.3126	0.287	0.5226	0.614
Mof_C 	C 	0.3199	0.2737	0.4459	-0.403
Mof_C 	C 	0.1763	0.2842	0.3762	-0.33
Mof_C 	C 	0.0725	0.2593	0.4261	0.423
Mof_C 	C 	0.8801	0.3278	0.6738	0.652
Mof_C 	C 	0.8092	0.3239	0.6233	-0.429
Mof_C 	C 	0.7205	0.4481	0.5885	-0.337
Mof_C 	C 	0.7599	0.5148	0.5578	0.47
Mof_C 	C 	0.7231	0.978	0.8844	0.607
Mof_C 	C 	0.8516	0.9671	0.8335	-0.407
Mof_C 	C 	0.9316	0.0617	0.8585	-0.329
Mof_C 	C 	0.9145	0.1427	0.8503	0.46
Mof_C 	C 	0.6222	0.213	0.9774	0.608
Mof_C 	C 	0.5395	0.2263	0.0541	-0.396
Mof_C 	C 	0.3367	0.2158	0.1238	-0.328
Mof_C 	C 	0.2579	0.2407	0.0739	0.422
Mof_C 	C 	0.3817	0.1722	0.8262	0.65
Mof_C 	C 	0.2564	0.1761	0.8767	-0.428
Mof_C 	C 	0.2571	0.0519	0.9115	-0.348
Mof_C 	C 	0.3325	0.9852	0.9422	0.478
Mof_C 	C 	0.3925	0.8844	0.522	0.6
Mof_C 	C 	0.3149	0.8335	0.5329	-0.41
Mof_C 	C 	0.2099	0.8585	0.4383	-0.342
Mof_C 	C 	0.2352	0.8503	0.3573	0.464
Mof_C 	C 	0.4004	0.9774	0.287	0.61
Mof_C 	C 	0.4064	0.0541	0.2737	-0.398
Mof_C 	C 	0.5395	0.1238	0.2842	-0.329
Mof_C 	C 	0.6682	0.0739	0.2593	0.423
Mof_C 	C 	0.7921	0.8262	0.3278	0.651
Mof_C 	C 	0.8669	0.8767	0.3239	-0.428
Mof_C 	C 	0.8314	0.9115	0.4481	-0.337
Mof_C 	C 	0.7253	0.9422	0.5148	0.469
Mof_C 	C 	0.2989	0.6156	0.978	0.6
Mof_C 	C 	0.1813	0.6665	0.9671	-0.41
Mof_C 	C 	0.0067	0.6415	0.0617	-0.324
Mof_C 	C 	0.9428	0.6497	0.1427	0.456
Mof_C 	C 	0.1648	0.5226	0.213	0.614
Mof_C 	C 	0.2342	0.4459	0.2263	-0.403
Mof_C 	C 	0.4475	0.3762	0.2158	-0.33
Mof_C 	C 	0.5014	0.4261	0.2407	0.423
Mof_C 	C 	0.4461	0.6738	0.1722	0.652
Mof_C 	C 	0.5675	0.6233	0.1761	-0.429
Mof_C 	C 	0.691	0.5885	0.0519	-0.341
Mof_C 	C 	0.6823	0.5578	0.9852	0.473
Mof_C 	C 	0.9145	0.478	0.3844	0.6
Mof_C 	C 	0.8478	0.4671	0.3335	-0.41
Mof_C 	C 	0.6482	0.5617	0.3585	-0.342
Mof_C 	C 	0.5925	0.6427	0.3503	0.464
Mof_C 	C 	0.6874	0.713	0.4774	0.614
Mof_C 	C 	0.6801	0.7263	0.5541	-0.403
Mof_C 	C 	0.8237	0.7158	0.6238	-0.33
Mof_C 	C 	0.9275	0.7407	0.5739	0.423
Mof_C 	C 	0.1199	0.6722	0.3262	0.652
Mof_C 	C 	0.1908	0.6761	0.3767	-0.429
Mof_C 	C 	0.2795	0.5519	0.4115	-0.337
Mof_C 	C 	0.2401	0.4852	0.4422	0.47
Mof_C 	C 	0.2769	0.022	0.1156	0.607
Mof_C 	C 	0.1484	0.0329	0.1665	-0.407
Mof_C 	C 	0.0684	0.9383	0.1415	-0.329
Mof_C 	C 	0.0855	0.8573	0.1497	0.46
Mof_C 	C 	0.3778	0.787	0.0226	0.608
Mof_C 	C 	0.4605	0.7737	0.9459	-0.396
Mof_C 	C 	0.6633	0.7842	0.8762	-0.328
Mof_C 	C 	0.7421	0.7593	0.9261	0.422
Mof_C 	C 	0.6183	0.8278	0.1738	0.65
Mof_C 	C 	0.7436	0.8239	0.1233	-0.428
Mof_C 	C 	0.7429	0.9481	0.0885	-0.348
Mof_C 	C 	0.6675	0.0148	0.0578	0.478
Mof_N 	N 	0.6874	0.18953	0.53707	-0.194
Mof_N 	N 	0.5453	0.9174	0.6774	-0.176
Mof_N 	N 	0.19735	0.06635	0.61975	-0.174
Mof_N 	N 	0.914	0.31047	0.96293	-0.196
Mof_N 	N 	0.6401	0.5826	0.8226	-0.176
Mof_N 	N 	0.38345	0.43365	0.88025	-0.174
Mof_N 	N 	0.22447	0.46293	0.68953	-0.194
Mof_N 	N 	0.2227	0.3226	0.4174	-0.176
Mof_N 	N 	0.8171	0.38025	0.56635	-0.174
Mof_N 	N 	0.87693	0.03707	0.81047	-0.197
Mof_N 	N 	0.4627	0.1774	0.0826	-0.175
Mof_N 	N 	0.2637	0.11975	0.93365	-0.172
Mof_N 	N 	0.3126	0.81047	0.46293	-0.194
Mof_N 	N 	0.4547	0.0826	0.3226	-0.176
Mof_N 	N 	0.80265	0.93365	0.38025	-0.174
Mof_N 	N 	0.086	0.68953	0.03707	-0.196
Mof_N 	N 	0.3599	0.4174	0.1774	-0.176
Mof_N 	N 	0.61655	0.56635	0.11975	-0.174
Mof_N 	N 	0.77553	0.53707	0.31047	-0.194
Mof_N 	N 	0.7773	0.6774	0.5826	-0.176
Mof_N 	N 	0.1829	0.61975	0.43365	-0.174
Mof_N 	N 	0.12307	0.96293	0.18953	-0.197
Mof_N 	N 	0.5373	0.8226	0.9174	-0.175
Mof_N 	N 	0.7363	0.88025	0.06635	-0.172
Mof_O 	O 	0.5406	0.10941	0.54199	-0.744
Mof_O 	O 	0.61425	0.08374	0.42276	-0.605
Mof_O 	O 	0.65448	0.18067	0.67957	-0.771
Mof_O 	O 	0.84666	0.12437	0.67171	-0.5
Mof_O 	O 	0.53302	0.06444	0.67612	-0.717
Mof_O 	O 	0.6673	0.03997	0.74043	-0.637
Mof_O 	O 	0.3128	0.9913	0.7229	-0.53
Mof_O 	O 	0.2515	0.8957	0.7749	-0.287
Mof_O 	O 	0.32406	0.14747	0.64461	-0.794
Mof_O 	O 	0.15721	0.23558	0.6974	-0.67
Mof_O 	O 	0.38373	0.04518	0.49016	-0.714
Mof_O 	O 	0.25248	0.04729	0.43055	-0.368
Mof_O 	O 	0.692	0.39059	0.95801	-0.745
Mof_O 	O 	0.62075	0.41626	0.07724	-0.607
Mof_O 	O 	0.01472	0.31933	0.82043	-0.771
Mof_O 	O 	0.14274	0.37563	0.82829	-0.498
Mof_O 	O 	0.77358	0.43556	0.82388	-0.717
Mof_O 	O 	0.9477	0.46003	0.75957	-0.636
Mof_O 	O 	0.527	0.5087	0.7771	-0.534
Mof_O 	O 	0.4221	0.6043	0.7251	-0.288
Mof_O 	O 	0.61614	0.35253	0.85539	-0.794
Mof_O 	O 	0.59019	0.26442	0.8026	-0.67
Mof_O 	O 	0.41907	0.45482	0.00984	-0.716
Mof_O 	O 	0.23032	0.45271	0.06945	-0.369
Mof_O 	O 	0.08259	0.45801	0.60941	-0.745
Mof_O 	O 	0.03701	0.57724	0.58374	-0.607
Mof_O 	O 	0.33405	0.32043	0.68067	-0.77
Mof_O 	O 	0.51837	0.32829	0.62437	-0.5
Mof_O 	O 	0.20914	0.32388	0.56444	-0.717
Mof_O 	O 	0.40773	0.25957	0.53997	-0.638
Mof_O 	O 	0.0357	0.2771	0.4913	-0.535
Mof_O 	O 	0.0264	0.2251	0.3957	-0.288
Mof_O 	O 	0.96867	0.35539	0.64747	-0.793
Mof_O 	O 	0.85461	0.3026	0.73558	-0.67
Mof_O 	O 	0.87389	0.50984	0.54518	-0.715
Mof_O 	O 	0.68303	0.56945	0.54729	-0.369
Mof_O 	O 	0.65001	0.04199	0.89059	-0.749
Mof_O 	O 	0.69799	0.92276	0.91626	-0.602
Mof_O 	O 	0.83515	0.17957	0.81933	-0.769
Mof_O 	O 	0.97103	0.17171	0.87563	-0.497
Mof_O 	O 	0.59746	0.17612	0.93556	-0.715
Mof_O 	O 	0.70727	0.24043	0.96003	-0.637
Mof_O 	O 	0.3041	0.2229	0.0087	-0.527
Mof_O 	O 	0.1472	0.2749	0.1043	-0.286
Mof_O 	O 	0.47153	0.14461	0.85253	-0.792
Mof_O 	O 	0.39279	0.1974	0.76442	-0.67
Mof_O 	O 	0.42891	0.99016	0.95482	-0.707
Mof_O 	O 	0.29977	0.93055	0.95271	-0.367
Mof_O 	O 	0.4594	0.89059	0.45801	-0.744
Mof_O 	O 	0.38575	0.91626	0.57724	-0.605
Mof_O 	O 	0.34552	0.81933	0.32043	-0.771
Mof_O 	O 	0.15334	0.87563	0.32829	-0.5
Mof_O 	O 	0.46698	0.93556	0.32388	-0.717
Mof_O 	O 	0.3327	0.96003	0.25957	-0.637
Mof_O 	O 	0.6872	0.0087	0.2771	-0.53
Mof_O 	O 	0.7485	0.1043	0.2251	-0.287
Mof_O 	O 	0.67594	0.85253	0.35539	-0.794
Mof_O 	O 	0.84279	0.76442	0.3026	-0.67
Mof_O 	O 	0.61627	0.95482	0.50984	-0.714
Mof_O 	O 	0.74752	0.95271	0.56945	-0.368
Mof_O 	O 	0.308	0.60941	0.04199	-0.745
Mof_O 	O 	0.37925	0.58374	0.92276	-0.607
Mof_O 	O 	0.98528	0.68067	0.17957	-0.771
Mof_O 	O 	0.85726	0.62437	0.17171	-0.498
Mof_O 	O 	0.22642	0.56444	0.17612	-0.717
Mof_O 	O 	0.0523	0.53997	0.24043	-0.636
Mof_O 	O 	0.473	0.4913	0.2229	-0.534
Mof_O 	O 	0.5779	0.3957	0.2749	-0.288
Mof_O 	O 	0.38386	0.64747	0.14461	-0.794
Mof_O 	O 	0.40981	0.73558	0.1974	-0.67
Mof_O 	O 	0.58093	0.54518	0.99016	-0.716
Mof_O 	O 	0.76968	0.54729	0.93055	-0.369
Mof_O 	O 	0.91741	0.54199	0.39059	-0.745
Mof_O 	O 	0.96299	0.42276	0.41626	-0.607
Mof_O 	O 	0.66595	0.67957	0.31933	-0.77
Mof_O 	O 	0.48163	0.67171	0.37563	-0.5
Mof_O 	O 	0.79086	0.67612	0.43556	-0.717
Mof_O 	O 	0.59227	0.74043	0.46003	-0.638
Mof_O 	O 	0.9643	0.7229	0.5087	-0.535
Mof_O 	O 	0.9736	0.7749	0.6043	-0.288
Mof_O 	O 	0.03133	0.64461	0.35253	-0.793
Mof_O 	O 	0.14539	0.6974	0.26442	-0.67
Mof_O 	O 	0.12611	0.49016	0.45482	-0.715
Mof_O 	O 	0.31697	0.43055	0.45271	-0.369
Mof_O 	O 	0.34999	0.95801	0.10941	-0.749
Mof_O 	O 	0.30201	0.07724	0.08374	-0.602
Mof_O 	O 	0.16485	0.82043	0.18067	-0.769
Mof_O 	O 	0.02897	0.82829	0.12437	-0.497
Mof_O 	O 	0.40254	0.82388	0.06444	-0.715
Mof_O 	O 	0.29273	0.75957	0.03997	-0.637
Mof_O 	O 	0.6959	0.7771	0.9913	-0.527
Mof_O 	O 	0.8528	0.7251	0.8957	-0.286
Mof_O 	O 	0.52847	0.85539	0.14747	-0.792
Mof_O 	O 	0.60721	0.8026	0.23558	-0.67
Mof_O 	O 	0.57109	0.00984	0.04518	-0.707
Mof_O 	O 	0.70023	0.06945	0.04729	-0.367
_end
