data_functionalizedCrystal
_audit_creation_method	'EQeq! by Chris Wilmer'
_symmetry_space_group_name_H-M	'P1'
_symmetry_Int_Tables_number	1
_symmetry_cell_setting	triclinic
loop_
_symmetry_equiv_pos_as_xyz
  x,y,z
_cell_length_a	20.8002
_cell_length_b	20.8002
_cell_length_c	20.8002
_cell_angle_alpha	90
_cell_angle_beta	90
_cell_angle_gamma	90
loop_
_atom_site_label
_atom_site_type_symbol
_atom_site_fract_x
_atom_site_fract_y
_atom_site_fract_z
_atom_site_charge
Mof_C 	C 	0.2162	0.9406	0.2342	0.295
Mof_C 	C 	0.2162	0.4406	0.7342	0.046
Mof_C 	C 	0.7162	0.9406	0.7342	0.32
Mof_C 	C 	0.7162	0.4406	0.2342	0.034
Mof_C 	C 	0.7838	0.0594	0.2342	0.067
Mof_C 	C 	0.7838	0.5594	0.7342	0.097
Mof_C 	C 	0.2838	0.0594	0.7342	0.051
Mof_C 	C 	0.2838	0.5594	0.2342	0.037
Mof_C 	C 	0.7838	0.9406	0.7658	0.34
Mof_C 	C 	0.7838	0.4406	0.2658	0.063
Mof_C 	C 	0.2838	0.9406	0.2658	0.296
Mof_C 	C 	0.2838	0.4406	0.7658	0.043
Mof_C 	C 	0.2162	0.0594	0.7658	0.024
Mof_C 	C 	0.2162	0.5594	0.2658	0.014
Mof_C 	C 	0.7162	0.0594	0.2658	0.016
Mof_C 	C 	0.7162	0.5594	0.7658	0.044
Mof_C 	C 	0.2342	0.2162	0.9406	0.294
Mof_C 	C 	0.2342	0.7162	0.4406	0.033
Mof_C 	C 	0.7342	0.2162	0.4406	0.045
Mof_C 	C 	0.7342	0.7162	0.9406	0.319
Mof_C 	C 	0.2342	0.7838	0.0594	0.066
Mof_C 	C 	0.2342	0.2838	0.5594	0.036
Mof_C 	C 	0.7342	0.7838	0.5594	0.096
Mof_C 	C 	0.7342	0.2838	0.0594	0.05
Mof_C 	C 	0.7658	0.7838	0.9406	0.339
Mof_C 	C 	0.7658	0.2838	0.4406	0.042
Mof_C 	C 	0.2658	0.7838	0.4406	0.062
Mof_C 	C 	0.2658	0.2838	0.9406	0.295
Mof_C 	C 	0.7658	0.2162	0.0594	0.024
Mof_C 	C 	0.7658	0.7162	0.5594	0.044
Mof_C 	C 	0.2658	0.2162	0.5594	0.014
Mof_C 	C 	0.2658	0.7162	0.0594	0.016
Mof_C 	C 	0.9406	0.2342	0.2162	0.294
Mof_C 	C 	0.9406	0.7342	0.7162	0.319
Mof_C 	C 	0.4406	0.2342	0.7162	0.033
Mof_C 	C 	0.4406	0.7342	0.2162	0.045
Mof_C 	C 	0.0594	0.2342	0.7838	0.066
Mof_C 	C 	0.0594	0.7342	0.2838	0.05
Mof_C 	C 	0.5594	0.2342	0.2838	0.036
Mof_C 	C 	0.5594	0.7342	0.7838	0.096
Mof_C 	C 	0.9406	0.7658	0.7838	0.339
Mof_C 	C 	0.9406	0.2658	0.2838	0.295
Mof_C 	C 	0.4406	0.7658	0.2838	0.042
Mof_C 	C 	0.4406	0.2658	0.7838	0.062
Mof_C 	C 	0.0594	0.7658	0.2162	0.024
Mof_C 	C 	0.0594	0.2658	0.7162	0.016
Mof_C 	C 	0.5594	0.7658	0.7162	0.044
Mof_C 	C 	0.5594	0.2658	0.2162	0.014
Mof_C 	C 	0.7838	0.0594	0.7658	0.074
Mof_C 	C 	0.7838	0.5594	0.2658	0.064
Mof_C 	C 	0.2838	0.0594	0.2658	0.017
Mof_C 	C 	0.2838	0.5594	0.7658	0.045
Mof_C 	C 	0.2162	0.9406	0.7658	0.297
Mof_C 	C 	0.2162	0.4406	0.2658	0.011
Mof_C 	C 	0.7162	0.9406	0.2658	0.291
Mof_C 	C 	0.7162	0.4406	0.7658	0.041
Mof_C 	C 	0.2162	0.0594	0.2342	0.016
Mof_C 	C 	0.2162	0.5594	0.7342	0.047
Mof_C 	C 	0.7162	0.0594	0.7342	0.049
Mof_C 	C 	0.7162	0.5594	0.2342	0.035
Mof_C 	C 	0.7838	0.9406	0.2342	0.337
Mof_C 	C 	0.7838	0.4406	0.7342	0.094
Mof_C 	C 	0.2838	0.9406	0.7342	0.324
Mof_C 	C 	0.2838	0.4406	0.2342	0.033
Mof_C 	C 	0.7658	0.7838	0.0594	0.074
Mof_C 	C 	0.7658	0.2838	0.5594	0.045
Mof_C 	C 	0.2658	0.7838	0.5594	0.064
Mof_C 	C 	0.2658	0.2838	0.0594	0.017
Mof_C 	C 	0.7658	0.2162	0.9406	0.297
Mof_C 	C 	0.7658	0.7162	0.4406	0.041
Mof_C 	C 	0.2658	0.2162	0.4406	0.011
Mof_C 	C 	0.2658	0.7162	0.9406	0.291
Mof_C 	C 	0.2342	0.2162	0.0594	0.016
Mof_C 	C 	0.2342	0.7162	0.5594	0.035
Mof_C 	C 	0.7342	0.2162	0.5594	0.047
Mof_C 	C 	0.7342	0.7162	0.0594	0.049
Mof_C 	C 	0.2342	0.7838	0.9406	0.337
Mof_C 	C 	0.2342	0.2838	0.4406	0.033
Mof_C 	C 	0.7342	0.7838	0.4406	0.094
Mof_C 	C 	0.7342	0.2838	0.9406	0.324
Mof_C 	C 	0.0594	0.7658	0.7838	0.074
Mof_C 	C 	0.0594	0.2658	0.2838	0.017
Mof_C 	C 	0.5594	0.7658	0.2838	0.045
Mof_C 	C 	0.5594	0.2658	0.7838	0.064
Mof_C 	C 	0.9406	0.7658	0.2162	0.297
Mof_C 	C 	0.9406	0.2658	0.7162	0.291
Mof_C 	C 	0.4406	0.7658	0.7162	0.041
Mof_C 	C 	0.4406	0.2658	0.2162	0.011
Mof_C 	C 	0.0594	0.2342	0.2162	0.016
Mof_C 	C 	0.0594	0.7342	0.7162	0.049
Mof_C 	C 	0.5594	0.2342	0.7162	0.035
Mof_C 	C 	0.5594	0.7342	0.2162	0.047
Mof_C 	C 	0.9406	0.2342	0.7838	0.337
Mof_C 	C 	0.9406	0.7342	0.2838	0.324
Mof_C 	C 	0.4406	0.2342	0.2838	0.033
Mof_C 	C 	0.4406	0.7342	0.7838	0.094
Mof_Zr	Zr	4.3793e-34	0	0.1168	3.162
Mof_Zr	Zr	1.3533e-32	0.5	0.6168	3.191
Mof_Zr	Zr	0.5	0	0.6168	3.191
Mof_Zr	Zr	0.5	0.5	0.1168	3.221
Mof_Zr	Zr	3.31147e-33	0	0.8832	3.161
Mof_Zr	Zr	1.43677e-33	0.5	0.3832	3.191
Mof_Zr	Zr	0.5	2.8051e-33	0.3832	3.191
Mof_Zr	Zr	0.5	0.5	0.8832	3.219
Mof_Zr	Zr	0.1168	0	-0	3.162
Mof_Zr	Zr	0.1168	0.5	0.5	3.221
Mof_Zr	Zr	0.6168	0	0.5	3.191
Mof_Zr	Zr	0.6168	0.5	-0	3.191
Mof_Zr	Zr	0.8832	0	-0	3.161
Mof_Zr	Zr	0.8832	0.5	0.5	3.219
Mof_Zr	Zr	0.3832	0	0.5	3.191
Mof_Zr	Zr	0.3832	0.5	-0	3.191
Mof_Zr	Zr	-0	0.1168	-0	3.162
Mof_Zr	Zr	1.30951e-32	0.6168	0.5	3.191
Mof_Zr	Zr	0.5	0.1168	0.5	3.221
Mof_Zr	Zr	0.5	0.6168	-0	3.191
Mof_Zr	Zr	-0	0.8832	-0	3.161
Mof_Zr	Zr	-3.73549e-33	0.3832	0.5	3.191
Mof_Zr	Zr	0.5	0.8832	0.5	3.219
Mof_Zr	Zr	0.5	0.3832	-0	3.191
Mof_O 	O 	0.0588	0.0588	0.0588	-1.459
Mof_O 	O 	0.0588	0.5588	0.5588	-1.34
Mof_O 	O 	0.5588	0.0588	0.5588	-1.34
Mof_O 	O 	0.5588	0.5588	0.0588	-1.34
Mof_O 	O 	0.9412	0.9412	0.0588	-1.053
Mof_O 	O 	0.9412	0.4412	0.5588	-1.135
Mof_O 	O 	0.4412	0.9412	0.5588	-1.135
Mof_O 	O 	0.4412	0.4412	0.0588	-1.341
Mof_O 	O 	0.9412	0.0588	0.9412	-1.053
Mof_O 	O 	0.9412	0.5588	0.4412	-1.135
Mof_O 	O 	0.4412	0.0588	0.4412	-1.341
Mof_O 	O 	0.4412	0.5588	0.9412	-1.135
Mof_O 	O 	0.0588	0.9412	0.9412	-1.053
Mof_O 	O 	0.0588	0.4412	0.4412	-1.341
Mof_O 	O 	0.5588	0.9412	0.4412	-1.135
Mof_O 	O 	0.5588	0.4412	0.9412	-1.135
Mof_O 	O 	0.9412	0.9412	0.9412	-0.866
Mof_O 	O 	0.9412	0.4412	0.4412	-1.135
Mof_O 	O 	0.4412	0.9412	0.4412	-1.135
Mof_O 	O 	0.4412	0.4412	0.9412	-1.135
Mof_O 	O 	0.0588	0.0588	0.9412	-1.25
Mof_O 	O 	0.0588	0.5588	0.4412	-1.341
Mof_O 	O 	0.5588	0.0588	0.4412	-1.341
Mof_O 	O 	0.5588	0.5588	0.9412	-1.136
Mof_O 	O 	0.0588	0.9412	0.0588	-1.25
Mof_O 	O 	0.0588	0.4412	0.5588	-1.341
Mof_O 	O 	0.5588	0.9412	0.5588	-1.136
Mof_O 	O 	0.5588	0.4412	0.0588	-1.341
Mof_O 	O 	0.9412	0.0588	0.0588	-1.25
Mof_O 	O 	0.9412	0.5588	0.5588	-1.136
Mof_O 	O 	0.4412	0.0588	0.5588	-1.341
Mof_O 	O 	0.4412	0.5588	0.0588	-1.341
Mof_O 	O 	0.088	0	0.172	-0.704
Mof_O 	O 	0.175	0	0.085	-0.703
Mof_C 	C 	0.15	0	0.147	0.333
Mof_C 	C 	0.21	0	0.19	-0.316
Mof_O 	O 	0.088	0.5	0.672	-0.563
Mof_O 	O 	0.175	0.5	0.585	-0.556
Mof_C 	C 	0.15	0.5	0.647	0.325
Mof_C 	C 	0.21	0.5	0.69	-0.041
Mof_O 	O 	0.588	0	0.672	-0.668
Mof_O 	O 	0.675	5.61019e-33	0.585	-0.661
Mof_C 	C 	0.65	0	0.647	0.323
Mof_C 	C 	0.71	0	0.69	-0.286
Mof_O 	O 	0.588	0.5	0.172	-0.549
Mof_O 	O 	0.675	0.5	0.085	-0.575
Mof_C 	C 	0.65	0.5	0.147	0.323
Mof_C 	C 	0.71	0.5	0.19	-0.032
Mof_O 	O 	0.912	0	0.172	-0.538
Mof_O 	O 	0.825	0	0.085	-0.697
Mof_C 	C 	0.85	0	0.147	0.332
Mof_C 	C 	0.79	0	0.19	-0.313
Mof_O 	O 	0.912	0.5	0.672	-0.401
Mof_O 	O 	0.825	0.5	0.585	-0.553
Mof_C 	C 	0.85	0.5	0.647	0.324
Mof_C 	C 	0.79	0.5	0.69	-0.041
Mof_O 	O 	0.412	0	0.672	-0.67
Mof_O 	O 	0.325	5.61019e-33	0.585	-0.681
Mof_C 	C 	0.35	0	0.647	0.327
Mof_C 	C 	0.29	0	0.69	-0.315
Mof_O 	O 	0.412	0.5	0.172	-0.55
Mof_O 	O 	0.325	0.5	0.085	-0.594
Mof_C 	C 	0.35	0.5	0.147	0.327
Mof_C 	C 	0.29	0.5	0.19	-0.058
Mof_O 	O 	0.912	0	0.828	-0.532
Mof_O 	O 	0.825	0	0.915	-0.525
Mof_C 	C 	0.85	-1.12204e-32	0.853	0.318
Mof_C 	C 	0.79	-5.61019e-33	0.81	-0.262
Mof_O 	O 	0.912	0.5	0.328	-0.414
Mof_O 	O 	0.825	0.5	0.415	-0.552
Mof_C 	C 	0.85	0.5	0.353	0.318
Mof_C 	C 	0.79	0.5	0.31	-0.033
Mof_O 	O 	0.412	2.8051e-33	0.328	-0.688
Mof_O 	O 	0.325	0	0.415	-0.681
Mof_C 	C 	0.35	2.8051e-33	0.353	0.321
Mof_C 	C 	0.29	0	0.31	-0.309
Mof_O 	O 	0.412	0.5	0.828	-0.543
Mof_O 	O 	0.325	0.5	0.915	-0.42
Mof_C 	C 	0.35	0.5	0.853	0.312
Mof_C 	C 	0.29	0.5	0.81	-0.01
Mof_O 	O 	0.088	0	0.828	-0.694
Mof_O 	O 	0.175	0	0.915	-0.527
Mof_C 	C 	0.15	-1.12204e-32	0.853	0.318
Mof_C 	C 	0.21	-5.61019e-33	0.81	-0.265
Mof_O 	O 	0.088	0.5	0.328	-0.579
Mof_O 	O 	0.175	0.5	0.415	-0.556
Mof_C 	C 	0.15	0.5	0.353	0.319
Mof_C 	C 	0.21	0.5	0.31	-0.032
Mof_O 	O 	0.588	2.8051e-33	0.328	-0.686
Mof_O 	O 	0.675	0	0.415	-0.661
Mof_C 	C 	0.65	2.8051e-33	0.353	0.317
Mof_C 	C 	0.71	0	0.31	-0.281
Mof_O 	O 	0.588	0.5	0.828	-0.541
Mof_O 	O 	0.675	0.5	0.915	-0.403
Mof_C 	C 	0.65	0.5	0.853	0.309
Mof_C 	C 	0.71	0.5	0.81	0.014
Mof_O 	O 	0.172	0.088	-0	-0.704
Mof_O 	O 	0.085	0.175	-0	-0.703
Mof_C 	C 	0.147	0.15	-0	0.333
Mof_C 	C 	0.19	0.21	-0	-0.316
Mof_O 	O 	0.172	0.588	0.5	-0.549
Mof_O 	O 	0.085	0.675	0.5	-0.575
Mof_C 	C 	0.147	0.65	0.5	0.323
Mof_C 	C 	0.19	0.71	0.5	-0.032
Mof_O 	O 	0.672	0.088	0.5	-0.563
Mof_O 	O 	0.585	0.175	0.5	-0.556
Mof_C 	C 	0.647	0.15	0.5	0.325
Mof_C 	C 	0.69	0.21	0.5	-0.041
Mof_O 	O 	0.672	0.588	-0	-0.668
Mof_O 	O 	0.585	0.675	-0	-0.661
Mof_C 	C 	0.647	0.65	-0	0.323
Mof_C 	C 	0.69	0.71	-0	-0.286
Mof_O 	O 	0.172	0.912	-0	-0.538
Mof_O 	O 	0.085	0.825	-0	-0.697
Mof_C 	C 	0.147	0.85	-0	0.332
Mof_C 	C 	0.19	0.79	-0	-0.313
Mof_O 	O 	0.172	0.412	0.5	-0.55
Mof_O 	O 	0.085	0.325	0.5	-0.594
Mof_C 	C 	0.147	0.35	0.5	0.327
Mof_C 	C 	0.19	0.29	0.5	-0.058
Mof_O 	O 	0.672	0.912	0.5	-0.401
Mof_O 	O 	0.585	0.825	0.5	-0.553
Mof_C 	C 	0.647	0.85	0.5	0.324
Mof_C 	C 	0.69	0.79	0.5	-0.041
Mof_O 	O 	0.672	0.412	-0	-0.67
Mof_O 	O 	0.585	0.325	-0	-0.681
Mof_C 	C 	0.647	0.35	-0	0.327
Mof_C 	C 	0.69	0.29	-0	-0.315
Mof_O 	O 	0.828	0.912	-0	-0.532
Mof_O 	O 	0.915	0.825	-0	-0.525
Mof_C 	C 	0.853	0.85	-0	0.318
Mof_C 	C 	0.81	0.79	-0	-0.262
Mof_O 	O 	0.828	0.412	0.5	-0.543
Mof_O 	O 	0.915	0.325	0.5	-0.42
Mof_C 	C 	0.853	0.35	0.5	0.312
Mof_C 	C 	0.81	0.29	0.5	-0.01
Mof_O 	O 	0.328	0.912	0.5	-0.414
Mof_O 	O 	0.415	0.825	0.5	-0.552
Mof_C 	C 	0.353	0.85	0.5	0.318
Mof_C 	C 	0.31	0.79	0.5	-0.033
Mof_O 	O 	0.328	0.412	-0	-0.688
Mof_O 	O 	0.415	0.325	-0	-0.681
Mof_C 	C 	0.353	0.35	-0	0.321
Mof_C 	C 	0.31	0.29	-0	-0.309
Mof_O 	O 	0.828	0.088	-0	-0.694
Mof_O 	O 	0.915	0.175	-0	-0.527
Mof_C 	C 	0.853	0.15	-0	0.318
Mof_C 	C 	0.81	0.21	-0	-0.265
Mof_O 	O 	0.828	0.588	0.5	-0.541
Mof_O 	O 	0.915	0.675	0.5	-0.403
Mof_C 	C 	0.853	0.65	0.5	0.309
Mof_C 	C 	0.81	0.71	0.5	0.014
Mof_O 	O 	0.328	0.088	0.5	-0.579
Mof_O 	O 	0.415	0.175	0.5	-0.556
Mof_C 	C 	0.353	0.15	0.5	0.319
Mof_C 	C 	0.31	0.21	0.5	-0.032
Mof_O 	O 	0.328	0.588	-0	-0.686
Mof_O 	O 	0.415	0.675	-0	-0.661
Mof_C 	C 	0.353	0.65	-0	0.317
Mof_C 	C 	0.31	0.71	-0	-0.281
Mof_O 	O 	1.7325e-33	0.172	0.088	-0.704
Mof_O 	O 	6.56145e-34	0.085	0.175	-0.703
Mof_C 	C 	-8.40139e-34	0.147	0.15	0.333
Mof_C 	C 	7.87374e-34	0.19	0.21	-0.316
Mof_O 	O 	-3.40555e-33	0.672	0.588	-0.668
Mof_O 	O 	-3.07935e-33	0.585	0.675	-0.661
Mof_C 	C 	8.0473e-33	0.647	0.65	0.323
Mof_C 	C 	-8.55831e-33	0.69	0.71	-0.286
Mof_O 	O 	0.5	0.172	0.588	-0.549
Mof_O 	O 	0.5	0.085	0.675	-0.575
Mof_C 	C 	0.5	0.147	0.65	0.323
Mof_C 	C 	0.5	0.19	0.71	-0.032
Mof_O 	O 	0.5	0.672	0.088	-0.563
Mof_O 	O 	0.5	0.585	0.175	-0.556
Mof_C 	C 	0.5	0.647	0.15	0.325
Mof_C 	C 	0.5	0.69	0.21	-0.041
Mof_O 	O 	3.41945e-33	0.172	0.912	-0.538
Mof_O 	O 	-8.12713e-33	0.085	0.825	-0.697
Mof_C 	C 	3.18699e-33	0.147	0.85	0.332
Mof_C 	C 	-8.25836e-33	0.19	0.79	-0.313
Mof_O 	O 	-4.06544e-33	0.672	0.412	-0.67
Mof_O 	O 	-1.58654e-33	0.585	0.325	-0.681
Mof_C 	C 	6.92248e-33	0.647	0.35	0.327
Mof_C 	C 	3.89242e-33	0.69	0.29	-0.315
Mof_O 	O 	0.5	0.172	0.412	-0.55
Mof_O 	O 	0.5	0.085	0.325	-0.594
Mof_C 	C 	0.5	0.147	0.35	0.327
Mof_C 	C 	0.5	0.19	0.29	-0.058
Mof_O 	O 	0.5	0.672	0.912	-0.401
Mof_O 	O 	0.5	0.585	0.825	-0.553
Mof_C 	C 	0.5	0.647	0.85	0.324
Mof_C 	C 	0.5	0.69	0.79	-0.041
Mof_O 	O 	1.46398e-32	0.828	0.912	-0.532
Mof_O 	O 	1.99238e-32	0.915	0.825	-0.525
Mof_C 	C 	-1.92538e-32	0.853	0.85	0.318
Mof_C 	C 	-8.25836e-33	0.81	0.79	-0.262
Mof_O 	O 	-1.26034e-33	0.328	0.412	-0.688
Mof_O 	O 	4.02365e-33	0.415	0.325	-0.681
Mof_C 	C 	-4.2979e-33	0.353	0.35	0.321
Mof_C 	C 	1.08733e-33	0.31	0.29	-0.309
Mof_O 	O 	0.5	0.828	0.412	-0.543
Mof_O 	O 	0.5	0.915	0.325	-0.42
Mof_C 	C 	0.5	0.853	0.35	0.312
Mof_C 	C 	0.5	0.81	0.29	-0.01
Mof_O 	O 	0.5	0.328	0.912	-0.414
Mof_O 	O 	0.5	0.415	0.825	-0.552
Mof_C 	C 	0.5	0.353	0.85	0.318
Mof_C 	C 	0.5	0.31	0.79	-0.033
Mof_O 	O 	5.94014e-33	0.828	0.088	-0.694
Mof_O 	O 	3.46124e-33	0.915	0.175	-0.527
Mof_C 	C 	1.96496e-33	0.853	0.15	0.318
Mof_C 	C 	-7.62792e-33	0.81	0.21	-0.265
Mof_O 	O 	2.20465e-33	0.328	0.588	-0.686
Mof_O 	O 	-3.07935e-33	0.415	0.675	-0.661
Mof_C 	C 	2.43711e-33	0.353	0.65	0.317
Mof_C 	C 	-2.94812e-33	0.31	0.71	-0.281
Mof_O 	O 	0.5	0.828	0.588	-0.541
Mof_O 	O 	0.5	0.915	0.675	-0.403
Mof_C 	C 	0.5	0.853	0.65	0.309
Mof_C 	C 	0.5	0.81	0.71	0.014
Mof_O 	O 	0.5	0.328	0.088	-0.579
Mof_O 	O 	0.5	0.415	0.175	-0.556
Mof_C 	C 	0.5	0.353	0.15	0.319
Mof_C 	C 	0.5	0.31	0.21	-0.032
_end
