data_functionalizedCrystal
_audit_creation_method	'EQeq! by Chris Wilmer'
_symmetry_space_group_name_H-M	'P1'
_symmetry_Int_Tables_number	1
_symmetry_cell_setting	triclinic
loop_
_symmetry_equiv_pos_as_xyz
  x,y,z
_cell_length_a	18.8184
_cell_length_b	9.4843
_cell_length_c	17.349
_cell_angle_alpha	90
_cell_angle_beta	90
_cell_angle_gamma	90
loop_
_atom_site_label
_atom_site_type_symbol
_atom_site_fract_x
_atom_site_fract_y
_atom_site_fract_z
_atom_site_charge
Mof_Mg	Mg	0.25519	0.26214	0.3041	1.48
Mof_C 	C 	0.1553	0.327	0.12939	-0.123
Mof_C 	C 	0.13021	0.2719	0.06019	0.045
Mof_C 	C 	0.15687	0.3137	0.98906	-0.092
Mof_C 	C 	0.20973	0.4174	0.98693	-0.054
Mof_C 	C 	0.23442	0.475	0.05621	0.004
Mof_C 	C 	0.20901	0.429	0.12728	-0.055
Mof_C 	C 	0.24189	0.4948	0.19884	0.37
Mof_C 	C 	0.12174	0.2744	0.20313	0.447
Mof_C 	C 	0.12379	0.2484	0.91784	0.372
Mof_C 	C 	0.2436	0.4714	0.91327	0.374
Mof_O 	O 	0.15421	0.2913	0.26554	-0.509
Mof_O 	O 	0.06211	0.2166	0.1968	-0.594
Mof_O 	O 	0.0713	0.1711	0.92833	-0.339
Mof_O 	O 	0.14909	0.27645	0.85279	-0.484
Mof_O 	O 	0.28609	0.39157	0.87888	-0.444
Mof_O 	O 	0.22916	0.59591	0.89463	-0.433
Mof_O 	O 	0.2208	0.61501	0.21697	-0.452
Mof_O 	O 	0.28992	0.42518	0.23241	-0.473
Mof_H 	H 	0.0924	0.201	0.0622	0.013
Mof_H 	H 	0.2709	0.544	0.0542	0.04
Mof_Mg	Mg	0.24481	0.23786	0.8041	1.479
Mof_C 	C 	0.3447	0.173	0.62939	-0.107
Mof_C 	C 	0.36979	0.2281	0.56019	0.041
Mof_C 	C 	0.34313	0.1863	0.48906	-0.079
Mof_C 	C 	0.29027	0.0826	0.48693	-0.059
Mof_C 	C 	0.26558	0.025	0.55621	0.014
Mof_C 	C 	0.29099	0.071	0.62728	-0.059
Mof_C 	C 	0.25811	0.0052	0.69884	0.375
Mof_C 	C 	0.37826	0.2256	0.70313	0.441
Mof_C 	C 	0.37621	0.2516	0.41784	0.367
Mof_C 	C 	0.2564	0.0286	0.41327	0.378
Mof_O 	O 	0.34579	0.2087	0.76554	-0.492
Mof_O 	O 	0.43789	0.2834	0.6968	-0.544
Mof_O 	O 	0.4287	0.3289	0.42833	-0.298
Mof_O 	O 	0.35091	0.22355	0.35279	-0.467
Mof_O 	O 	0.21391	0.10843	0.37888	-0.455
Mof_O 	O 	0.27084	0.90409	0.39463	-0.426
Mof_O 	O 	0.2792	0.88499	0.71697	-0.446
Mof_O 	O 	0.21008	0.07482	0.73241	-0.484
Mof_H 	H 	0.4076	0.299	0.5622	0.033
Mof_H 	H 	0.2291	0.956	0.5542	0.036
Mof_Mg	Mg	0.74481	0.26214	0.1959	1.479
Mof_C 	C 	0.8447	0.327	0.37061	-0.091
Mof_C 	C 	0.86979	0.2719	0.43981	0.037
Mof_C 	C 	0.84313	0.3137	0.51094	-0.063
Mof_C 	C 	0.79027	0.4174	0.51307	-0.057
Mof_C 	C 	0.76558	0.475	0.44379	0.022
Mof_C 	C 	0.79099	0.429	0.37272	-0.056
Mof_C 	C 	0.75811	0.4948	0.30116	0.374
Mof_C 	C 	0.87826	0.2744	0.29687	0.434
Mof_C 	C 	0.87621	0.2484	0.58216	0.362
Mof_C 	C 	0.7564	0.4714	0.58673	0.38
Mof_O 	O 	0.84579	0.2913	0.23446	-0.474
Mof_O 	O 	0.93789	0.2166	0.3032	-0.488
Mof_O 	O 	0.9287	0.1711	0.57167	-0.252
Mof_O 	O 	0.85091	0.27645	0.64721	-0.448
Mof_O 	O 	0.71391	0.39157	0.62112	-0.446
Mof_O 	O 	0.77084	0.59591	0.60537	-0.419
Mof_O 	O 	0.7792	0.61501	0.28303	-0.436
Mof_O 	O 	0.71008	0.42518	0.26759	-0.475
Mof_H 	H 	0.9076	0.201	0.4378	0.054
Mof_H 	H 	0.7291	0.544	0.4458	0.039
Mof_Mg	Mg	0.75519	0.23786	0.6959	1.479
Mof_C 	C 	0.6553	0.173	0.87061	-0.109
Mof_C 	C 	0.63021	0.2281	0.93981	0.046
Mof_C 	C 	0.65687	0.1863	0.01094	-0.082
Mof_C 	C 	0.70973	0.0826	0.01307	-0.057
Mof_C 	C 	0.73442	0.025	0.94379	0.021
Mof_C 	C 	0.70901	0.071	0.87272	-0.054
Mof_C 	C 	0.74189	0.0052	0.80116	0.372
Mof_C 	C 	0.62174	0.2256	0.79687	0.442
Mof_C 	C 	0.62379	0.2516	0.08216	0.368
Mof_C 	C 	0.7436	0.0286	0.08673	0.375
Mof_O 	O 	0.65421	0.2087	0.73446	-0.492
Mof_O 	O 	0.56211	0.2834	0.8032	-0.544
Mof_O 	O 	0.5713	0.3289	0.07167	-0.299
Mof_O 	O 	0.64909	0.22355	0.14721	-0.468
Mof_O 	O 	0.78609	0.10843	0.12112	-0.435
Mof_O 	O 	0.72916	0.90409	0.10537	-0.424
Mof_O 	O 	0.7208	0.88499	0.78303	-0.444
Mof_O 	O 	0.78992	0.07482	0.76759	-0.463
Mof_H 	H 	0.5924	0.299	0.9378	0.032
Mof_H 	H 	0.7709	0.956	0.9458	0.04
Mof_Mg	Mg	0.74481	0.73786	0.6959	1.479
Mof_C 	C 	0.8447	0.673	0.87061	-0.091
Mof_C 	C 	0.86979	0.7281	0.93981	0.037
Mof_C 	C 	0.84313	0.6863	0.01094	-0.063
Mof_C 	C 	0.79027	0.5826	0.01307	-0.058
Mof_C 	C 	0.76558	0.525	0.94379	0.023
Mof_C 	C 	0.79099	0.571	0.87272	-0.057
Mof_C 	C 	0.75811	0.5052	0.80116	0.374
Mof_C 	C 	0.87826	0.7256	0.79687	0.434
Mof_C 	C 	0.87621	0.7516	0.08216	0.362
Mof_C 	C 	0.7564	0.5286	0.08673	0.38
Mof_O 	O 	0.84579	0.7087	0.73446	-0.474
Mof_O 	O 	0.93789	0.7834	0.8032	-0.489
Mof_O 	O 	0.9287	0.8289	0.07167	-0.253
Mof_O 	O 	0.85091	0.72355	0.14721	-0.448
Mof_O 	O 	0.71391	0.60843	0.12112	-0.446
Mof_O 	O 	0.77084	0.40409	0.10537	-0.419
Mof_O 	O 	0.7792	0.38499	0.78303	-0.436
Mof_O 	O 	0.71008	0.57482	0.76759	-0.475
Mof_H 	H 	0.9076	0.799	0.9378	0.053
Mof_H 	H 	0.7291	0.456	0.9458	0.038
Mof_Mg	Mg	0.75519	0.76214	0.1959	1.479
Mof_C 	C 	0.6553	0.827	0.37061	-0.109
Mof_C 	C 	0.63021	0.7719	0.43981	0.044
Mof_C 	C 	0.65687	0.8137	0.51094	-0.08
Mof_C 	C 	0.70973	0.9174	0.51307	-0.053
Mof_C 	C 	0.73442	0.975	0.44379	0.015
Mof_C 	C 	0.70901	0.929	0.37272	-0.052
Mof_C 	C 	0.74189	0.9948	0.30116	0.371
Mof_C 	C 	0.62174	0.7744	0.29687	0.442
Mof_C 	C 	0.62379	0.7484	0.58216	0.368
Mof_C 	C 	0.7436	0.9714	0.58673	0.375
Mof_O 	O 	0.65421	0.7913	0.23446	-0.492
Mof_O 	O 	0.56211	0.7166	0.3032	-0.544
Mof_O 	O 	0.5713	0.6711	0.57167	-0.298
Mof_O 	O 	0.64909	0.77645	0.64721	-0.467
Mof_O 	O 	0.78609	0.89157	0.62112	-0.435
Mof_O 	O 	0.72916	0.09591	0.60537	-0.425
Mof_O 	O 	0.7208	0.11501	0.28303	-0.444
Mof_O 	O 	0.78992	0.92518	0.26759	-0.463
Mof_H 	H 	0.5924	0.701	0.4378	0.033
Mof_H 	H 	0.7709	0.044	0.4458	0.042
Mof_Mg	Mg	0.25519	0.73786	0.8041	1.479
Mof_C 	C 	0.1553	0.673	0.62939	-0.125
Mof_C 	C 	0.13021	0.7281	0.56019	0.047
Mof_C 	C 	0.15687	0.6863	0.48906	-0.095
Mof_C 	C 	0.20973	0.5826	0.48693	-0.055
Mof_C 	C 	0.23442	0.525	0.55621	0.007
Mof_C 	C 	0.20901	0.571	0.62728	-0.055
Mof_C 	C 	0.24189	0.5052	0.69884	0.37
Mof_C 	C 	0.12174	0.7256	0.70313	0.447
Mof_C 	C 	0.12379	0.7516	0.41784	0.373
Mof_C 	C 	0.2436	0.5286	0.41327	0.375
Mof_O 	O 	0.15421	0.7087	0.76554	-0.509
Mof_O 	O 	0.06211	0.7834	0.6968	-0.593
Mof_O 	O 	0.0713	0.8289	0.42833	-0.341
Mof_O 	O 	0.14909	0.72355	0.35279	-0.485
Mof_O 	O 	0.28609	0.60843	0.37888	-0.444
Mof_O 	O 	0.22916	0.40409	0.39463	-0.433
Mof_O 	O 	0.2208	0.38499	0.71697	-0.452
Mof_O 	O 	0.28992	0.57482	0.73241	-0.473
Mof_H 	H 	0.0924	0.799	0.5622	0.013
Mof_H 	H 	0.2709	0.456	0.5542	0.04
Mof_Mg	Mg	0.24481	0.76214	0.3041	1.479
Mof_C 	C 	0.3447	0.827	0.12939	-0.106
Mof_C 	C 	0.36979	0.7719	0.06019	0.04
Mof_C 	C 	0.34313	0.8137	0.98906	-0.078
Mof_C 	C 	0.29027	0.9174	0.98693	-0.061
Mof_C 	C 	0.26558	0.975	0.05621	0.018
Mof_C 	C 	0.29099	0.929	0.12728	-0.061
Mof_C 	C 	0.25811	0.9948	0.19884	0.376
Mof_C 	C 	0.37826	0.7744	0.20313	0.44
Mof_C 	C 	0.37621	0.7484	0.91784	0.367
Mof_C 	C 	0.2564	0.9714	0.91327	0.377
Mof_O 	O 	0.34579	0.7913	0.26554	-0.492
Mof_O 	O 	0.43789	0.7166	0.1968	-0.544
Mof_O 	O 	0.4287	0.6711	0.92833	-0.297
Mof_O 	O 	0.35091	0.77645	0.85279	-0.467
Mof_O 	O 	0.21391	0.89157	0.87888	-0.454
Mof_O 	O 	0.27084	0.09591	0.89463	-0.425
Mof_O 	O 	0.2792	0.11501	0.21697	-0.446
Mof_O 	O 	0.21008	0.92518	0.23241	-0.484
Mof_H 	H 	0.4076	0.701	0.0622	0.033
Mof_H 	H 	0.2291	0.044	0.0542	0.033
Mof_Mg	Mg	8.64159e-34	0.07076	0.25	1.435
Mof_Mg	Mg	0.5	0.42924	0.75	1.446
Mof_Mg	Mg	1.07449e-32	0.92924	0.75	1.435
Mof_Mg	Mg	0.5	0.57076	0.25	1.446
_end
