# CIF file generated by openbabel 3.1.0, see https://openbabel.org
data_I
_chemical_name_common 'image0'
_cell_length_a 6.5873
_cell_length_b 12.9396
_cell_length_c 13.0141
_cell_angle_alpha 90
_cell_angle_beta 90.023
_cell_angle_gamma 90
_space_group_name_H-M_alt 'P 1'
_space_group_name_Hall 'P 1'
loop_
    _symmetry_equiv_pos_as_xyz
    x,y,z
loop_
    _atom_site_label
    _atom_site_type_symbol
    _atom_site_fract_x
    _atom_site_fract_y
    _atom_site_fract_z
    _atom_site_occupancy
    Zn1      Zn       0.20294    0.45775    0.95198    1.000
    F1       F        0.11100    0.55170    0.06030    1.000
    F2       F        0.24680    0.93460    0.93560    1.000
    N1       N        0.24590    0.30510    0.97480    1.000
    N2       N        0.08250    0.24080    0.97880    1.000
    N3       N        0.15040    0.14760    0.98500    1.000
    N4       N        0.35340    0.14590    0.98560    1.000
    C1       C        0.40980    0.24410    0.97980    1.000
    N5       N        0.60390    0.27720    0.97360    1.000
    H1       H        0.70170    0.23310    0.97320    1.000
    H2       H        0.62970    0.34220    0.97000    1.000
    N6       N        0.24480    0.50180    0.80520    1.000
    N7       N        0.08110    0.50580    0.74040    1.000
    N8       N        0.15210    0.51430    0.64610    1.000
    N9       N        0.35360    0.51770    0.64790    1.000
    C2       C        0.40660    0.50970    0.74400    1.000
    N10      N        0.60270    0.50790    0.77780    1.000
    H3       H        0.70090    0.51210    0.73450    1.000
    H4       H        0.62800    0.50250    0.84240    1.000
    Zn2      Zn       0.79706    0.95775    0.54802    1.000
    F3       F        0.88900    0.05170    0.43970    1.000
    F4       F        0.75320    0.43460    0.56440    1.000
    N11      N        0.75410    0.80510    0.52520    1.000
    N12      N        0.91750    0.74080    0.52120    1.000
    N13      N        0.84960    0.64760    0.51500    1.000
    N14      N        0.64660    0.64590    0.51440    1.000
    C3       C        0.59020    0.74410    0.52020    1.000
    N15      N        0.39610    0.77720    0.52640    1.000
    H5       H        0.29830    0.73310    0.52680    1.000
    H6       H        0.37030    0.84220    0.53000    1.000
    N16      N        0.75520    0.00180    0.69480    1.000
    N17      N        0.91890    0.00580    0.75960    1.000
    N18      N        0.84790    0.01430    0.85390    1.000
    N19      N        0.64640    0.01770    0.85210    1.000
    C4       C        0.59340    0.00970    0.75600    1.000
    N20      N        0.39730    0.00790    0.72220    1.000
    H7       H        0.29910    0.01210    0.76550    1.000
    H8       H        0.37200    0.00250    0.65760    1.000
    Zn3      Zn       0.79706    0.54225    0.04802    1.000
    F5       F        0.88900    0.44830    0.93970    1.000
    F6       F        0.75320    0.06540    0.06440    1.000
    N21      N        0.75410    0.69490    0.02520    1.000
    N22      N        0.91750    0.75920    0.02120    1.000
    N23      N        0.84960    0.85240    0.01500    1.000
    N24      N        0.64660    0.85410    0.01440    1.000
    C5       C        0.59020    0.75590    0.02020    1.000
    N25      N        0.39610    0.72280    0.02640    1.000
    H9       H        0.29830    0.76690    0.02680    1.000
    H10      H        0.37030    0.65780    0.03000    1.000
    N26      N        0.75520    0.49820    0.19480    1.000
    N27      N        0.91890    0.49420    0.25960    1.000
    N28      N        0.84790    0.48570    0.35390    1.000
    N29      N        0.64640    0.48230    0.35210    1.000
    C6       C        0.59340    0.49030    0.25600    1.000
    N30      N        0.39730    0.49210    0.22220    1.000
    H11      H        0.29910    0.48790    0.26550    1.000
    H12      H        0.37200    0.49750    0.15760    1.000
    Zn4      Zn       0.20294    0.04225    0.45198    1.000
    F7       F        0.11100    0.94830    0.56030    1.000
    F8       F        0.24680    0.56540    0.43560    1.000
    N31      N        0.24590    0.19490    0.47480    1.000
    N32      N        0.08250    0.25920    0.47880    1.000
    N33      N        0.15040    0.35240    0.48500    1.000
    N34      N        0.35340    0.35410    0.48560    1.000
    C7       C        0.40980    0.25590    0.47980    1.000
    N35      N        0.60390    0.22280    0.47360    1.000
    H13      H        0.70170    0.26690    0.47320    1.000
    H14      H        0.62970    0.15780    0.47000    1.000
    N36      N        0.24480    0.99820    0.30520    1.000
    N37      N        0.08110    0.99420    0.24040    1.000
    N38      N        0.15210    0.98570    0.14610    1.000
    N39      N        0.35360    0.98230    0.14790    1.000
    C8       C        0.40660    0.99030    0.24400    1.000
    N40      N        0.60270    0.99210    0.27780    1.000
    H15      H        0.70090    0.98790    0.23450    1.000
    H16      H        0.62800    0.99750    0.34240    1.000
    Zn5      Zn       0.00000    0.00000    0.00000    1.000
    Zn6      Zn       0.00000    0.50000    0.50000    1.000
    Zn7      Zn       0.50000    0.00000    0.00000    1.000
    Zn8      Zn       0.50000    0.50000    0.50000    1.000
