data_functionalizedCrystal
_audit_creation_method	'EQeq! by Chris Wilmer'
_symmetry_space_group_name_H-M	'P1'
_symmetry_Int_Tables_number	1
_symmetry_cell_setting	triclinic
loop_
_symmetry_equiv_pos_as_xyz
  x,y,z
_cell_length_a	22.773
_cell_length_b	8.549
_cell_length_c	18.85
_cell_angle_alpha	90
_cell_angle_beta	90
_cell_angle_gamma	90
loop_
_atom_site_label
_atom_site_type_symbol
_atom_site_fract_x
_atom_site_fract_y
_atom_site_fract_z
_atom_site_charge
Mof_N 	N 	0.3299	0.439	0.8273	-0.13
Mof_N 	N 	0.4767	0.444	0.8375	-0.135
Mof_C 	C 	0.2983	0.54	0.8277	-0.006
Mof_C 	C 	0.5068	0.542	0.8483	0.001
Mof_C 	C 	0.4851	0.451	0.507	-0.064
Mof_N 	N 	0.1701	0.561	0.3273	-0.131
Mof_N 	N 	0.0233	0.556	0.3375	-0.136
Mof_C 	C 	0.2017	0.46	0.3277	-0.006
Mof_C 	C 	0.9932	0.458	0.3483	0.001
Mof_C 	C 	0.0149	0.549	0.007	-0.064
Mof_N 	N 	0.6701	0.939	0.1727	-0.131
Mof_N 	N 	0.5233	0.944	0.1625	-0.135
Mof_C 	C 	0.7017	0.04	0.1723	-0.007
Mof_C 	C 	0.4932	0.042	0.1517	0
Mof_C 	C 	0.5149	0.951	0.493	-0.064
Mof_N 	N 	0.8299	0.061	0.6727	-0.131
Mof_N 	N 	0.9767	0.056	0.6625	-0.136
Mof_C 	C 	0.7983	0.96	0.6723	-0.006
Mof_C 	C 	0.0068	0.958	0.6517	0
Mof_C 	C 	0.9851	0.049	0.993	-0.064
Mof_N 	N 	0.6701	0.561	0.1727	-0.131
Mof_N 	N 	0.5233	0.556	0.1625	-0.136
Mof_C 	C 	0.7017	0.46	0.1723	-0.006
Mof_C 	C 	0.4932	0.458	0.1517	0.001
Mof_C 	C 	0.5149	0.549	0.493	-0.064
Mof_N 	N 	0.8299	0.439	0.6727	-0.131
Mof_N 	N 	0.9767	0.444	0.6625	-0.136
Mof_C 	C 	0.7983	0.54	0.6723	-0.006
Mof_C 	C 	0.0068	0.542	0.6517	0.001
Mof_C 	C 	0.9851	0.451	0.993	-0.064
Mof_N 	N 	0.3299	0.061	0.8273	-0.131
Mof_N 	N 	0.4767	0.056	0.8375	-0.135
Mof_C 	C 	0.2983	0.96	0.8277	-0.007
Mof_C 	C 	0.5068	0.958	0.8483	0
Mof_C 	C 	0.4851	0.049	0.507	-0.064
Mof_N 	N 	0.1701	0.939	0.3273	-0.131
Mof_N 	N 	0.0233	0.944	0.3375	-0.136
Mof_C 	C 	0.2017	0.04	0.3277	-0.006
Mof_C 	C 	0.9932	0.042	0.3483	0
Mof_C 	C 	0.0149	0.951	0.007	-0.064
Mof_Cd	Cd	0.40525	0.25	0.83473	0.381
Mof_Cd	Cd	0.4262	0.25	0.53431	0.282
Mof_Cd	Cd	0.43758	0.25	0.12848	0.27
Mof_N 	N 	0.4096	0.25	0.7079	-0.128
Mof_N 	N 	0.4013	0.25	0.959	-0.134
Mof_C 	C 	0.4139	0.25	0.6479	-0.011
Mof_C 	C 	0.4105	0.25	0.0166	-0.004
Mof_C 	C 	0.3502	0.25	0.4579	-0.065
Mof_C 	C 	0.3176	0.25	0.4162	-0.065
Mof_Cd	Cd	0.09475	0.75	0.33473	0.381
Mof_Cd	Cd	0.0738	0.75	0.03431	0.282
Mof_Cd	Cd	0.06242	0.75	0.62848	0.27
Mof_N 	N 	0.0904	0.75	0.2079	-0.128
Mof_N 	N 	0.0987	0.75	0.459	-0.134
Mof_C 	C 	0.0861	0.75	0.1479	-0.011
Mof_C 	C 	0.0895	0.75	0.5166	-0.003
Mof_C 	C 	0.1498	0.75	0.9579	-0.065
Mof_C 	C 	0.1824	0.75	0.9162	-0.065
Mof_Cd	Cd	0.59475	0.75	0.16527	0.381
Mof_Cd	Cd	0.5738	0.75	0.46569	0.282
Mof_Cd	Cd	0.56242	0.75	0.87152	0.27
Mof_N 	N 	0.5904	0.75	0.2921	-0.128
Mof_N 	N 	0.5987	0.75	0.041	-0.134
Mof_C 	C 	0.5861	0.75	0.3521	-0.011
Mof_C 	C 	0.5895	0.75	0.9834	-0.004
Mof_C 	C 	0.6498	0.75	0.5421	-0.065
Mof_C 	C 	0.6824	0.75	0.5838	-0.065
Mof_Cd	Cd	0.90525	0.25	0.66527	0.381
Mof_Cd	Cd	0.9262	0.25	0.96569	0.282
Mof_Cd	Cd	0.93758	0.25	0.37152	0.27
Mof_N 	N 	0.9096	0.25	0.7921	-0.128
Mof_N 	N 	0.9013	0.25	0.541	-0.134
Mof_C 	C 	0.9139	0.25	0.8521	-0.011
Mof_C 	C 	0.9105	0.25	0.4834	-0.003
Mof_C 	C 	0.8502	0.25	0.0421	-0.065
Mof_C 	C 	0.8176	0.25	0.0838	-0.065
Mof_Cd	Cd	0.24301	0.75	0.82375	0.28
Mof_C 	C 	0.1774	0.75	0.739	-0.069
Mof_C 	C 	0.1405	0.75	0.6995	-0.065
Mof_Cd	Cd	0.25699	0.25	0.32375	0.28
Mof_C 	C 	0.3226	0.25	0.239	-0.069
Mof_C 	C 	0.3595	0.25	0.1995	-0.065
Mof_Cd	Cd	0.75699	0.25	0.17625	0.28
Mof_C 	C 	0.8226	0.25	0.261	-0.069
Mof_C 	C 	0.8595	0.25	0.3005	-0.065
Mof_Cd	Cd	0.74301	0.75	0.67625	0.28
Mof_C 	C 	0.6774	0.75	0.761	-0.069
Mof_C 	C 	0.6405	0.75	0.8005	-0.065
_end
