data_functionalizedCrystal
_audit_creation_method	'EQeq! by Chris Wilmer'
_symmetry_space_group_name_H-M	'P1'
_symmetry_Int_Tables_number	1
_symmetry_cell_setting	triclinic
loop_
_symmetry_equiv_pos_as_xyz
  x,y,z
_cell_length_a	8.356
_cell_length_b	14.164
_cell_length_c	8.424
_cell_angle_alpha	90
_cell_angle_beta	90
_cell_angle_gamma	90
loop_
_atom_site_label
_atom_site_type_symbol
_atom_site_fract_x
_atom_site_fract_y
_atom_site_fract_z
_atom_site_charge
Mof_C 	C 	0.4421	0.9893	0.2711	0.334
Mof_C 	C 	0.5819	0.9218	0.3018	-0.137
Mof_C 	C 	0.7369	0.8514	0.5251	-0.16
Mof_C 	C 	0.6583	0.7657	0.5743	0.397
Mof_Nd	Nd	0.3446	0.9145	0.6342	1.918
Mof_N 	N 	0.6211	0.9296	0.4787	-0.206
Mof_O 	O 	0.3359	0.0002	0.372	-0.613
Mof_O 	O 	0.4289	0.0152	0.1245	-0.495
Mof_O 	O 	0.7226	0.6844	0.5613	-0.521
Mof_O 	O 	0.5139	0.7714	0.6271	-0.521
Mof_C 	C 	0.0579	0.0107	0.7711	0.329
Mof_C 	C 	0.9181	0.0782	0.8018	-0.133
Mof_C 	C 	0.7631	0.1486	0.0251	-0.151
Mof_C 	C 	0.8417	0.2343	0.0743	0.396
Mof_Nd	Nd	0.1554	0.0855	0.1342	1.909
Mof_N 	N 	0.8789	0.0704	0.9787	-0.207
Mof_O 	O 	0.1641	0.9998	0.872	-0.611
Mof_O 	O 	0.0711	0.9848	0.6245	-0.493
Mof_O 	O 	0.7774	0.3156	0.0613	-0.517
Mof_O 	O 	0.9861	0.2286	0.1271	-0.516
Mof_C 	C 	0.5579	0.4893	0.2289	0.336
Mof_C 	C 	0.4181	0.4218	0.1982	-0.136
Mof_C 	C 	0.2631	0.3514	0.9749	-0.156
Mof_C 	C 	0.3417	0.2657	0.9257	0.396
Mof_Nd	Nd	0.6554	0.4145	0.8658	1.914
Mof_N 	N 	0.3789	0.4296	0.0213	-0.205
Mof_O 	O 	0.6641	0.5002	0.128	-0.614
Mof_O 	O 	0.5711	0.5152	0.3755	-0.497
Mof_O 	O 	0.2774	0.1844	0.9387	-0.519
Mof_O 	O 	0.4861	0.2714	0.8729	-0.521
Mof_C 	C 	0.9421	0.5107	0.7289	0.331
Mof_C 	C 	0.0819	0.5782	0.6982	-0.131
Mof_C 	C 	0.2369	0.6486	0.4749	-0.156
Mof_C 	C 	0.1583	0.7343	0.4257	0.397
Mof_Nd	Nd	0.8446	0.5855	0.3658	1.916
Mof_N 	N 	0.1211	0.5704	0.5213	-0.205
Mof_O 	O 	0.8359	0.4998	0.628	-0.615
Mof_O 	O 	0.9289	0.4848	0.8755	-0.5
Mof_O 	O 	0.2226	0.8156	0.4387	-0.519
Mof_O 	O 	0.0139	0.7286	0.3729	-0.518
_end
