# CIF file generated by openbabel 3.1.0, see https://openbabel.org
data_I
_chemical_name_common 'image0'
_cell_length_a 19.7623
_cell_length_b 21.3747
_cell_length_c 8.369
_cell_angle_alpha 90
_cell_angle_beta 112.171
_cell_angle_gamma 90
_space_group_name_H-M_alt 'P 1'
_space_group_name_Hall 'P 1'
loop_
    _symmetry_equiv_pos_as_xyz
    x,y,z
loop_
    _atom_site_label
    _atom_site_type_symbol
    _atom_site_fract_x
    _atom_site_fract_y
    _atom_site_fract_z
    _atom_site_occupancy
    Zn1      Zn       0.25861    0.00732    0.40768    1.000
    C1       C        0.36920    0.04510    0.69020    1.000
    C2       C        0.43720    0.04460    0.85280    1.000
    C3       C        0.46920    0.98840    0.92750    1.000
    H1       H        0.44830    0.95070    0.87780    1.000
    C4       C        0.46860    0.09970    0.92830    1.000
    H2       H        0.44680    0.13750    0.88130    1.000
    C5       C        0.11690    0.02150    0.37880    1.000
    C6       C        0.05780    0.02490    0.44170    1.000
    C7       C        0.07090    0.02490    0.61240    1.000
    H3       H        0.11910    0.02450    0.69090    1.000
    C8       C        0.98360    0.02530    0.32700    1.000
    H4       H        0.97230    0.02580    0.20860    1.000
    C9       C        0.19700    0.89170    0.19340    1.000
    H5       H        0.16110    0.91370    0.10660    1.000
    C10      C        0.26300    0.81530    0.33690    1.000
    H6       H        0.28240    0.77560    0.37180    1.000
    C11      C        0.28600    0.86880    0.41750    1.000
    H7       H        0.32540    0.87300    0.52190    1.000
    C12      C        0.16120    0.78690    0.06170    1.000
    C13      C        0.09350    0.80420    0.95310    1.000
    H8       H        0.07420    0.84290    0.96390    1.000
    C14      C        0.05250    0.76100    0.82090    1.000
    C15      C        0.96020    0.83940    0.64770    1.000
    H9       H        0.98770    0.87550    0.68580    1.000
    C16      C        0.89320    0.83650    0.53230    1.000
    H10      H        0.86610    0.87070    0.47360    1.000
    C17      C        0.92690    0.74230    0.61740    1.000
    H11      H        0.92850    0.69910    0.63040    1.000
    C18      C        0.08290    0.70650    0.79680    1.000
    H12      H        0.05830    0.68050    0.70400    1.000
    C19      C        0.15200    0.69090    0.91490    1.000
    C20      C        0.18640    0.61230    0.74070    1.000
    H13      H        0.16500    0.63200    0.63440    1.000
    C21      C        0.24580    0.54620    0.94440    1.000
    H14      H        0.27220    0.51130    0.00030    1.000
    C22      C        0.22290    0.59320    0.02150    1.000
    H15      H        0.23160    0.59710    0.13830    1.000
    C23      C        0.19160    0.73010    0.04480    1.000
    H16      H        0.23810    0.71890    0.12070    1.000
    N1       N        0.24380    0.91750    0.32550    1.000
    N2       N        0.20470    0.83050    0.19160    1.000
    N3       N        0.86810    0.77350    0.51000    1.000
    N4       N        0.98220    0.77950    0.70210    1.000
    N5       N        0.22390    0.55830    0.77230    1.000
    N6       N        0.18560    0.63260    0.89550    1.000
    O1       O        0.34450    0.99410    0.62030    1.000
    O2       O        0.34060    0.09590    0.63640    1.000
    O3       O        0.18144    0.02890    0.48820    1.000
    O4       O        0.10525    0.01050    0.22400    1.000
    Zn2      Zn       0.75861    0.50732    0.40768    1.000
    C24      C        0.86920    0.54510    0.69020    1.000
    C25      C        0.93720    0.54460    0.85280    1.000
    C26      C        0.96920    0.48840    0.92750    1.000
    H17      H        0.94830    0.45070    0.87780    1.000
    C27      C        0.96860    0.59970    0.92830    1.000
    H18      H        0.94680    0.63750    0.88130    1.000
    C28      C        0.61690    0.52150    0.37880    1.000
    C29      C        0.55780    0.52490    0.44170    1.000
    C30      C        0.57090    0.52490    0.61240    1.000
    H19      H        0.61910    0.52450    0.69090    1.000
    C31      C        0.48360    0.52530    0.32700    1.000
    H20      H        0.47230    0.52580    0.20860    1.000
    C32      C        0.69700    0.39170    0.19340    1.000
    H21      H        0.66110    0.41370    0.10660    1.000
    C33      C        0.76300    0.31530    0.33690    1.000
    H22      H        0.78240    0.27560    0.37180    1.000
    C34      C        0.78600    0.36880    0.41750    1.000
    H23      H        0.82540    0.37300    0.52190    1.000
    C35      C        0.66120    0.28690    0.06170    1.000
    C36      C        0.59350    0.30420    0.95310    1.000
    H24      H        0.57420    0.34290    0.96390    1.000
    C37      C        0.55250    0.26100    0.82090    1.000
    C38      C        0.46020    0.33940    0.64770    1.000
    H25      H        0.48770    0.37550    0.68580    1.000
    C39      C        0.39320    0.33650    0.53230    1.000
    H26      H        0.36610    0.37070    0.47360    1.000
    C40      C        0.42690    0.24230    0.61740    1.000
    H27      H        0.42850    0.19910    0.63040    1.000
    C41      C        0.58290    0.20650    0.79680    1.000
    H28      H        0.55830    0.18050    0.70400    1.000
    C42      C        0.65200    0.19090    0.91490    1.000
    C43      C        0.68640    0.11230    0.74070    1.000
    H29      H        0.66500    0.13200    0.63440    1.000
    C44      C        0.74580    0.04620    0.94440    1.000
    H30      H        0.77220    0.01130    0.00030    1.000
    C45      C        0.72290    0.09320    0.02150    1.000
    H31      H        0.73160    0.09710    0.13830    1.000
    C46      C        0.69160    0.23010    0.04480    1.000
    H32      H        0.73810    0.21890    0.12070    1.000
    N7       N        0.74380    0.41750    0.32550    1.000
    N8       N        0.70470    0.33050    0.19160    1.000
    N9       N        0.36810    0.27350    0.51000    1.000
    N10      N        0.48220    0.27950    0.70210    1.000
    N11      N        0.72390    0.05830    0.77230    1.000
    N12      N        0.68560    0.13260    0.89550    1.000
    O5       O        0.84450    0.49410    0.62030    1.000
    O6       O        0.84060    0.59590    0.63640    1.000
    O7       O        0.68144    0.52890    0.48820    1.000
    O8       O        0.60525    0.51050    0.22400    1.000
    Zn3      Zn       0.74139    0.00732    0.59232    1.000
    C47      C        0.63080    0.04510    0.30980    1.000
    C48      C        0.56280    0.04460    0.14720    1.000
    C49      C        0.53080    0.98840    0.07250    1.000
    H33      H        0.55170    0.95070    0.12220    1.000
    C50      C        0.53140    0.09970    0.07170    1.000
    H34      H        0.55320    0.13750    0.11870    1.000
    C51      C        0.88310    0.02150    0.62120    1.000
    C52      C        0.94220    0.02490    0.55830    1.000
    C53      C        0.92910    0.02490    0.38760    1.000
    H35      H        0.88090    0.02450    0.30910    1.000
    C54      C        0.01640    0.02530    0.67300    1.000
    H36      H        0.02770    0.02580    0.79140    1.000
    C55      C        0.80300    0.89170    0.80660    1.000
    H37      H        0.83890    0.91370    0.89340    1.000
    C56      C        0.73700    0.81530    0.66310    1.000
    H38      H        0.71760    0.77560    0.62820    1.000
    C57      C        0.71400    0.86880    0.58250    1.000
    H39      H        0.67460    0.87300    0.47810    1.000
    C58      C        0.83880    0.78690    0.93830    1.000
    C59      C        0.90650    0.80420    0.04690    1.000
    H40      H        0.92580    0.84290    0.03610    1.000
    C60      C        0.94750    0.76100    0.17910    1.000
    C61      C        0.03980    0.83940    0.35230    1.000
    H41      H        0.01230    0.87550    0.31420    1.000
    C62      C        0.10680    0.83650    0.46770    1.000
    H42      H        0.13390    0.87070    0.52640    1.000
    C63      C        0.07310    0.74230    0.38260    1.000
    H43      H        0.07150    0.69910    0.36960    1.000
    C64      C        0.91710    0.70650    0.20320    1.000
    H44      H        0.94170    0.68050    0.29600    1.000
    C65      C        0.84800    0.69090    0.08510    1.000
    C66      C        0.81360    0.61230    0.25930    1.000
    H45      H        0.83500    0.63200    0.36560    1.000
    C67      C        0.75420    0.54620    0.05560    1.000
    H46      H        0.72780    0.51130    0.99970    1.000
    C68      C        0.77710    0.59320    0.97850    1.000
    H47      H        0.76840    0.59710    0.86170    1.000
    C69      C        0.80840    0.73010    0.95520    1.000
    H48      H        0.76190    0.71890    0.87930    1.000
    N13      N        0.75620    0.91750    0.67450    1.000
    N14      N        0.79530    0.83050    0.80840    1.000
    N15      N        0.13190    0.77350    0.49000    1.000
    N16      N        0.01780    0.77950    0.29790    1.000
    N17      N        0.77610    0.55830    0.22770    1.000
    N18      N        0.81440    0.63260    0.10450    1.000
    O9       O        0.65550    0.99410    0.37970    1.000
    O10      O        0.65940    0.09590    0.36360    1.000
    O11      O        0.81856    0.02890    0.51180    1.000
    O12      O        0.89475    0.01050    0.77600    1.000
    Zn4      Zn       0.24139    0.50732    0.59232    1.000
    C70      C        0.13080    0.54510    0.30980    1.000
    C71      C        0.06280    0.54460    0.14720    1.000
    C72      C        0.03080    0.48840    0.07250    1.000
    H49      H        0.05170    0.45070    0.12220    1.000
    C73      C        0.03140    0.59970    0.07170    1.000
    H50      H        0.05320    0.63750    0.11870    1.000
    C74      C        0.38310    0.52150    0.62120    1.000
    C75      C        0.44220    0.52490    0.55830    1.000
    C76      C        0.42910    0.52490    0.38760    1.000
    H51      H        0.38090    0.52450    0.30910    1.000
    C77      C        0.51640    0.52530    0.67300    1.000
    H52      H        0.52770    0.52580    0.79140    1.000
    C78      C        0.30300    0.39170    0.80660    1.000
    H53      H        0.33890    0.41370    0.89340    1.000
    C79      C        0.23700    0.31530    0.66310    1.000
    H54      H        0.21760    0.27560    0.62820    1.000
    C80      C        0.21400    0.36880    0.58250    1.000
    H55      H        0.17460    0.37300    0.47810    1.000
    C81      C        0.33880    0.28690    0.93830    1.000
    C82      C        0.40650    0.30420    0.04690    1.000
    H56      H        0.42580    0.34290    0.03610    1.000
    C83      C        0.44750    0.26100    0.17910    1.000
    C84      C        0.53980    0.33940    0.35230    1.000
    H57      H        0.51230    0.37550    0.31420    1.000
    C85      C        0.60680    0.33650    0.46770    1.000
    H58      H        0.63390    0.37070    0.52640    1.000
    C86      C        0.57310    0.24230    0.38260    1.000
    H59      H        0.57150    0.19910    0.36960    1.000
    C87      C        0.41710    0.20650    0.20320    1.000
    H60      H        0.44170    0.18050    0.29600    1.000
    C88      C        0.34800    0.19090    0.08510    1.000
    C89      C        0.31360    0.11230    0.25930    1.000
    H61      H        0.33500    0.13200    0.36560    1.000
    C90      C        0.25420    0.04620    0.05560    1.000
    H62      H        0.22780    0.01130    0.99970    1.000
    C91      C        0.27710    0.09320    0.97850    1.000
    H63      H        0.26840    0.09710    0.86170    1.000
    C92      C        0.30840    0.23010    0.95520    1.000
    H64      H        0.26190    0.21890    0.87930    1.000
    N19      N        0.25620    0.41750    0.67450    1.000
    N20      N        0.29530    0.33050    0.80840    1.000
    N21      N        0.63190    0.27350    0.49000    1.000
    N22      N        0.51780    0.27950    0.29790    1.000
    N23      N        0.27610    0.05830    0.22770    1.000
    N24      N        0.31440    0.13260    0.10450    1.000
    O13      O        0.15550    0.49410    0.37970    1.000
    O14      O        0.15940    0.59590    0.36360    1.000
    O15      O        0.31856    0.52890    0.51180    1.000
    O16      O        0.39475    0.51050    0.77600    1.000
