# CIF file generated by openbabel 3.1.0, see https://openbabel.org
data_I
_chemical_name_common 'image0'
_cell_length_a 37.941
_cell_length_b 19.9026
_cell_length_c 14.3533
_cell_angle_alpha 90
_cell_angle_beta 90
_cell_angle_gamma 90
_space_group_name_H-M_alt 'P 1'
_space_group_name_Hall 'P 1'
loop_
    _symmetry_equiv_pos_as_xyz
    x,y,z
loop_
    _atom_site_label
    _atom_site_type_symbol
    _atom_site_fract_x
    _atom_site_fract_y
    _atom_site_fract_z
    _atom_site_occupancy
    Cd1      Cd       0.61576    0.23933    0.50153    1.000
    Cd2      Cd       0.24773    0.18304    0.75122    1.000
    Cd3      Cd       0.32394    0.29005    0.41037    1.000
    Cd4      Cd       0.31985    0.17015    0.58817    1.000
    C1       C        0.36090    0.27890    0.20320    1.000
    C2       C        0.22230    0.10230    0.36730    1.000
    H1       H        0.20960    0.14100    0.35400    1.000
    C3       C        0.45060    0.26440    0.44500    1.000
    H2       H        0.43840    0.29420    0.40700    1.000
    C4       C        0.27700    0.04830    0.39670    1.000
    H3       H        0.30120    0.05050    0.40670    1.000
    C5       C        0.26050    0.98690    0.39580    1.000
    H4       H        0.27380    0.94780    0.40130    1.000
    C6       C        0.23430    0.48470    0.62970    1.000
    C7       C        0.21650    0.55230    0.62520    1.000
    C8       C        0.31520    0.19540    0.88210    1.000
    H5       H        0.30130    0.20180    0.93470    1.000
    C9       C        0.28540    0.29610    0.60410    1.000
    C10      C        0.35900    0.19170    0.79460    1.000
    C11      C        0.22430    0.98290    0.38680    1.000
    C12      C        0.26770    0.36170    0.61850    1.000
    C13      C        0.54560    0.22810    0.50700    1.000
    C14      C        0.45130    0.17690    0.55640    1.000
    H6       H        0.43940    0.14610    0.59360    1.000
    C15      C        0.20620    0.91660    0.39370    1.000
    C16      C        0.48790    0.17980    0.55900    1.000
    H7       H        0.50030    0.15060    0.59760    1.000
    C17      C        0.27110    0.48120    0.62950    1.000
    H8       H        0.28440    0.52020    0.63510    1.000
    C18      C        0.50580    0.22450    0.50600    1.000
    C19      C        0.20550    0.04060    0.37130    1.000
    H9       H        0.18120    0.03830    0.36340    1.000
    C20      C        0.23140    0.36580    0.62470    1.000
    H10      H        0.21810    0.32650    0.62610    1.000
    C21      C        0.43250    0.21920    0.49920    1.000
    C22      C        0.39340    0.21800    0.49790    1.000
    C23      C        0.28730    0.42060    0.62100    1.000
    H11      H        0.31170    0.41860    0.61670    1.000
    C24      C        0.31920    0.30720    0.11110    1.000
    C25      C        0.25820    0.10620    0.38300    1.000
    C26      C        0.27520    0.17330    0.38490    1.000
    C27      C        0.48710    0.26550    0.44700    1.000
    H12      H        0.49910    0.29450    0.40750    1.000
    C28      C        0.21470    0.42670    0.62890    1.000
    H13      H        0.19020    0.42880    0.63110    1.000
    O1       O        0.17360    0.91400    0.40610    1.000
    O2       O        0.26240    0.22060    0.34110    1.000
    O3       O        0.22399    0.86350    0.38720    1.000
    O4       O        0.30373    0.18050    0.43200    1.000
    O5       O        0.23530    0.60460    0.63960    1.000
    O6       O        0.56080    0.26130    0.44440    1.000
    O7       O        0.18516    0.55630    0.59930    1.000
    O8       O        0.56120    0.19660    0.56730    1.000
    O9       O        0.37739    0.17990    0.55310    1.000
    O10      O        0.31630    0.29430    0.57090    1.000
    O11      O        0.37887    0.25720    0.44070    1.000
    O12      O        0.26892    0.24290    0.62090    1.000
    N1       N        0.33403    0.29100    0.25720    1.000
    N2       N        0.30699    0.31070    0.19750    1.000
    N3       N        0.35374    0.28680    0.11240    1.000
    N4       N        0.30190    0.32630    0.03930    1.000
    H14      H        0.28100    0.34270    0.04560    1.000
    H15      H        0.31110    0.32280    0.98480    1.000
    N5       N        0.39280    0.19050    0.76250    1.000
    H16      H        0.39690    0.18270    0.70460    1.000
    H17      H        0.41000    0.19750    0.80020    1.000
    N6       N        0.33066    0.18150    0.74260    1.000
    N7       N        0.30177    0.18230    0.80290    1.000
    N8       N        0.35060    0.19950    0.88570    1.000
    N9       N        0.39180    0.26910    0.23290    1.000
    H18      H        0.39600    0.27020    0.29180    1.000
    H19      H        0.40870    0.26120    0.19440    1.000
    Cd5      Cd       0.88424    0.26067    0.00153    1.000
    Cd6      Cd       0.25227    0.31696    0.25122    1.000
    Cd7      Cd       0.17606    0.20995    0.91037    1.000
    Cd8      Cd       0.18015    0.32985    0.08817    1.000
    C29      C        0.13910    0.22110    0.70320    1.000
    C30      C        0.27770    0.39770    0.86730    1.000
    H20      H        0.29040    0.35900    0.85400    1.000
    C31      C        0.04940    0.23560    0.94500    1.000
    H21      H        0.06160    0.20580    0.90700    1.000
    C32      C        0.22300    0.45170    0.89670    1.000
    H22      H        0.19880    0.44950    0.90670    1.000
    C33      C        0.23950    0.51310    0.89580    1.000
    H23      H        0.22620    0.55220    0.90130    1.000
    C34      C        0.26570    0.01530    0.12970    1.000
    C35      C        0.28350    0.94770    0.12520    1.000
    C36      C        0.18480    0.30460    0.38210    1.000
    H24      H        0.19870    0.29820    0.43470    1.000
    C37      C        0.21460    0.20390    0.10410    1.000
    C38      C        0.14100    0.30830    0.29460    1.000
    C39      C        0.27570    0.51710    0.88680    1.000
    C40      C        0.23230    0.13830    0.11850    1.000
    C41      C        0.95440    0.27190    0.00700    1.000
    C42      C        0.04870    0.32310    0.05640    1.000
    H25      H        0.06060    0.35390    0.09360    1.000
    C43      C        0.29380    0.58340    0.89370    1.000
    C44      C        0.01210    0.32020    0.05900    1.000
    H26      H        0.99970    0.34940    0.09760    1.000
    C45      C        0.22890    0.01880    0.12950    1.000
    H27      H        0.21560    0.97980    0.13510    1.000
    C46      C        0.99420    0.27550    0.00600    1.000
    C47      C        0.29450    0.45940    0.87130    1.000
    H28      H        0.31880    0.46170    0.86340    1.000
    C48      C        0.26860    0.13420    0.12470    1.000
    H29      H        0.28190    0.17350    0.12610    1.000
    C49      C        0.06750    0.28080    0.99920    1.000
    C50      C        0.10660    0.28200    0.99790    1.000
    C51      C        0.21270    0.07940    0.12100    1.000
    H30      H        0.18830    0.08140    0.11670    1.000
    C52      C        0.18080    0.19280    0.61110    1.000
    C53      C        0.24180    0.39380    0.88300    1.000
    C54      C        0.22480    0.32670    0.88490    1.000
    C55      C        0.01290    0.23450    0.94700    1.000
    H31      H        0.00090    0.20550    0.90750    1.000
    C56      C        0.28530    0.07330    0.12890    1.000
    H32      H        0.30980    0.07120    0.13110    1.000
    O13      O        0.32640    0.58600    0.90610    1.000
    O14      O        0.23760    0.27940    0.84110    1.000
    O15      O        0.27601    0.63650    0.88720    1.000
    O16      O        0.19627    0.31950    0.93200    1.000
    O17      O        0.26470    0.89540    0.13960    1.000
    O18      O        0.93920    0.23870    0.94440    1.000
    O19      O        0.31484    0.94370    0.09930    1.000
    O20      O        0.93880    0.30340    0.06730    1.000
    O21      O        0.12261    0.32010    0.05310    1.000
    O22      O        0.18370    0.20570    0.07090    1.000
    O23      O        0.12113    0.24280    0.94070    1.000
    O24      O        0.23108    0.25710    0.12090    1.000
    N10      N        0.16597    0.20900    0.75720    1.000
    N11      N        0.19301    0.18930    0.69750    1.000
    N12      N        0.14626    0.21320    0.61240    1.000
    N13      N        0.19810    0.17370    0.53930    1.000
    H33      H        0.21900    0.15730    0.54560    1.000
    H34      H        0.18890    0.17720    0.48480    1.000
    N14      N        0.10720    0.30950    0.26250    1.000
    H35      H        0.10310    0.31730    0.20460    1.000
    H36      H        0.09000    0.30250    0.30020    1.000
    N15      N        0.16934    0.31850    0.24260    1.000
    N16      N        0.19823    0.31770    0.30290    1.000
    N17      N        0.14940    0.30050    0.38570    1.000
    N18      N        0.10820    0.23090    0.73290    1.000
    H37      H        0.10400    0.22980    0.79180    1.000
    H38      H        0.09130    0.23880    0.69440    1.000
    Cd9      Cd       0.38424    0.23933    0.99847    1.000
    Cd10     Cd       0.75227    0.18304    0.74878    1.000
    Cd11     Cd       0.67606    0.29005    0.08963    1.000
    Cd12     Cd       0.68015    0.17015    0.91183    1.000
    C57      C        0.63910    0.27890    0.29680    1.000
    C58      C        0.77770    0.10230    0.13270    1.000
    H39      H        0.79040    0.14100    0.14600    1.000
    C59      C        0.54940    0.26440    0.05500    1.000
    H40      H        0.56160    0.29420    0.09300    1.000
    C60      C        0.72300    0.04830    0.10330    1.000
    H41      H        0.69880    0.05050    0.09330    1.000
    C61      C        0.73950    0.98690    0.10420    1.000
    H42      H        0.72620    0.94780    0.09870    1.000
    C62      C        0.76570    0.48470    0.87030    1.000
    C63      C        0.78350    0.55230    0.87480    1.000
    C64      C        0.68480    0.19540    0.61790    1.000
    H43      H        0.69870    0.20180    0.56530    1.000
    C65      C        0.71460    0.29610    0.89590    1.000
    C66      C        0.64100    0.19170    0.70540    1.000
    C67      C        0.77570    0.98290    0.11320    1.000
    C68      C        0.73230    0.36170    0.88150    1.000
    C69      C        0.45440    0.22810    0.99300    1.000
    C70      C        0.54870    0.17690    0.94360    1.000
    H44      H        0.56060    0.14610    0.90640    1.000
    C71      C        0.79380    0.91660    0.10630    1.000
    C72      C        0.51210    0.17980    0.94100    1.000
    H45      H        0.49970    0.15060    0.90240    1.000
    C73      C        0.72890    0.48120    0.87050    1.000
    H46      H        0.71560    0.52020    0.86490    1.000
    C74      C        0.49420    0.22450    0.99400    1.000
    C75      C        0.79450    0.04060    0.12870    1.000
    H47      H        0.81880    0.03830    0.13660    1.000
    C76      C        0.76860    0.36580    0.87530    1.000
    H48      H        0.78190    0.32650    0.87390    1.000
    C77      C        0.56750    0.21920    0.00080    1.000
    C78      C        0.60660    0.21800    0.00210    1.000
    C79      C        0.71270    0.42060    0.87900    1.000
    H49      H        0.68830    0.41860    0.88330    1.000
    C80      C        0.68080    0.30720    0.38890    1.000
    C81      C        0.74180    0.10620    0.11700    1.000
    C82      C        0.72480    0.17330    0.11510    1.000
    C83      C        0.51290    0.26550    0.05300    1.000
    H50      H        0.50090    0.29450    0.09250    1.000
    C84      C        0.78530    0.42670    0.87110    1.000
    H51      H        0.80980    0.42880    0.86890    1.000
    O25      O        0.82640    0.91400    0.09390    1.000
    O26      O        0.73760    0.22060    0.15890    1.000
    O27      O        0.77601    0.86350    0.11280    1.000
    O28      O        0.69627    0.18050    0.06800    1.000
    O29      O        0.76470    0.60460    0.86040    1.000
    O30      O        0.43920    0.26130    0.05560    1.000
    O31      O        0.81484    0.55630    0.90070    1.000
    O32      O        0.43880    0.19660    0.93270    1.000
    O33      O        0.62261    0.17990    0.94690    1.000
    O34      O        0.68370    0.29430    0.92910    1.000
    O35      O        0.62113    0.25720    0.05930    1.000
    O36      O        0.73108    0.24290    0.87910    1.000
    N19      N        0.66597    0.29100    0.24280    1.000
    N20      N        0.69301    0.31070    0.30250    1.000
    N21      N        0.64626    0.28680    0.38760    1.000
    N22      N        0.69810    0.32630    0.46070    1.000
    H52      H        0.71900    0.34270    0.45440    1.000
    H53      H        0.68890    0.32280    0.51520    1.000
    N23      N        0.60720    0.19050    0.73750    1.000
    H54      H        0.60310    0.18270    0.79540    1.000
    H55      H        0.59000    0.19750    0.69980    1.000
    N24      N        0.66934    0.18150    0.75740    1.000
    N25      N        0.69823    0.18230    0.69710    1.000
    N26      N        0.64940    0.19950    0.61430    1.000
    N27      N        0.60820    0.26910    0.26710    1.000
    H56      H        0.60400    0.27020    0.20820    1.000
    H57      H        0.59130    0.26120    0.30560    1.000
    Cd13     Cd       0.11576    0.26067    0.49847    1.000
    Cd14     Cd       0.74773    0.31696    0.24878    1.000
    Cd15     Cd       0.82394    0.20995    0.58963    1.000
    Cd16     Cd       0.81985    0.32985    0.41183    1.000
    C85      C        0.86090    0.22110    0.79680    1.000
    C86      C        0.72230    0.39770    0.63270    1.000
    H58      H        0.70960    0.35900    0.64600    1.000
    C87      C        0.95060    0.23560    0.55500    1.000
    H59      H        0.93840    0.20580    0.59300    1.000
    C88      C        0.77700    0.45170    0.60330    1.000
    H60      H        0.80120    0.44950    0.59330    1.000
    C89      C        0.76050    0.51310    0.60420    1.000
    H61      H        0.77380    0.55220    0.59870    1.000
    C90      C        0.73430    0.01530    0.37030    1.000
    C91      C        0.71650    0.94770    0.37480    1.000
    C92      C        0.81520    0.30460    0.11790    1.000
    H62      H        0.80130    0.29820    0.06530    1.000
    C93      C        0.78540    0.20390    0.39590    1.000
    C94      C        0.85900    0.30830    0.20540    1.000
    C95      C        0.72430    0.51710    0.61320    1.000
    C96      C        0.76770    0.13830    0.38150    1.000
    C97      C        0.04560    0.27190    0.49300    1.000
    C98      C        0.95130    0.32310    0.44360    1.000
    H63      H        0.93940    0.35390    0.40640    1.000
    C99      C        0.70620    0.58340    0.60630    1.000
    C100     C        0.98790    0.32020    0.44100    1.000
    H64      H        0.00030    0.34940    0.40240    1.000
    C101     C        0.77110    0.01880    0.37050    1.000
    H65      H        0.78440    0.97980    0.36490    1.000
    C102     C        0.00580    0.27550    0.49400    1.000
    C103     C        0.70550    0.45940    0.62870    1.000
    H66      H        0.68120    0.46170    0.63660    1.000
    C104     C        0.73140    0.13420    0.37530    1.000
    H67      H        0.71810    0.17350    0.37390    1.000
    C105     C        0.93250    0.28080    0.50080    1.000
    C106     C        0.89340    0.28200    0.50210    1.000
    C107     C        0.78730    0.07940    0.37900    1.000
    H68      H        0.81170    0.08140    0.38330    1.000
    C108     C        0.81920    0.19280    0.88890    1.000
    C109     C        0.75820    0.39380    0.61700    1.000
    C110     C        0.77520    0.32670    0.61510    1.000
    C111     C        0.98710    0.23450    0.55300    1.000
    H69      H        0.99910    0.20550    0.59250    1.000
    C112     C        0.71470    0.07330    0.37110    1.000
    H70      H        0.69020    0.07120    0.36890    1.000
    O37      O        0.67360    0.58600    0.59390    1.000
    O38      O        0.76240    0.27940    0.65890    1.000
    O39      O        0.72399    0.63650    0.61280    1.000
    O40      O        0.80373    0.31950    0.56800    1.000
    O41      O        0.73530    0.89540    0.36040    1.000
    O42      O        0.06080    0.23870    0.55560    1.000
    O43      O        0.68516    0.94370    0.40070    1.000
    O44      O        0.06120    0.30340    0.43270    1.000
    O45      O        0.87739    0.32010    0.44690    1.000
    O46      O        0.81630    0.20570    0.42910    1.000
    O47      O        0.87887    0.24280    0.55930    1.000
    O48      O        0.76892    0.25710    0.37910    1.000
    N28      N        0.83403    0.20900    0.74280    1.000
    N29      N        0.80699    0.18930    0.80250    1.000
    N30      N        0.85374    0.21320    0.88760    1.000
    N31      N        0.80190    0.17370    0.96070    1.000
    H71      H        0.78100    0.15730    0.95440    1.000
    H72      H        0.81110    0.17720    0.01520    1.000
    N32      N        0.89280    0.30950    0.23750    1.000
    H73      H        0.89690    0.31730    0.29540    1.000
    H74      H        0.91000    0.30250    0.19980    1.000
    N33      N        0.83066    0.31850    0.25740    1.000
    N34      N        0.80177    0.31770    0.19710    1.000
    N35      N        0.85060    0.30050    0.11430    1.000
    N36      N        0.89180    0.23090    0.76710    1.000
    H75      H        0.89600    0.22980    0.70820    1.000
    H76      H        0.90870    0.23880    0.80560    1.000
    Cd17     Cd       0.38424    0.76067    0.49847    1.000
    Cd18     Cd       0.75227    0.81696    0.24878    1.000
    Cd19     Cd       0.67606    0.70995    0.58963    1.000
    Cd20     Cd       0.68015    0.82985    0.41183    1.000
    C113     C        0.63910    0.72110    0.79680    1.000
    C114     C        0.77770    0.89770    0.63270    1.000
    H77      H        0.79040    0.85900    0.64600    1.000
    C115     C        0.54940    0.73560    0.55500    1.000
    H78      H        0.56160    0.70580    0.59300    1.000
    C116     C        0.72300    0.95170    0.60330    1.000
    H79      H        0.69880    0.94950    0.59330    1.000
    C117     C        0.73950    0.01310    0.60420    1.000
    H80      H        0.72620    0.05220    0.59870    1.000
    C118     C        0.76570    0.51530    0.37030    1.000
    C119     C        0.78350    0.44770    0.37480    1.000
    C120     C        0.68480    0.80460    0.11790    1.000
    H81      H        0.69870    0.79820    0.06530    1.000
    C121     C        0.71460    0.70390    0.39590    1.000
    C122     C        0.64100    0.80830    0.20540    1.000
    C123     C        0.77570    0.01710    0.61320    1.000
    C124     C        0.73230    0.63830    0.38150    1.000
    C125     C        0.45440    0.77190    0.49300    1.000
    C126     C        0.54870    0.82310    0.44360    1.000
    H82      H        0.56060    0.85390    0.40640    1.000
    C127     C        0.79380    0.08340    0.60630    1.000
    C128     C        0.51210    0.82020    0.44100    1.000
    H83      H        0.49970    0.84940    0.40240    1.000
    C129     C        0.72890    0.51880    0.37050    1.000
    H84      H        0.71560    0.47980    0.36490    1.000
    C130     C        0.49420    0.77550    0.49400    1.000
    C131     C        0.79450    0.95940    0.62870    1.000
    H85      H        0.81880    0.96170    0.63660    1.000
    C132     C        0.76860    0.63420    0.37530    1.000
    H86      H        0.78190    0.67350    0.37390    1.000
    C133     C        0.56750    0.78080    0.50080    1.000
    C134     C        0.60660    0.78200    0.50210    1.000
    C135     C        0.71270    0.57940    0.37900    1.000
    H87      H        0.68830    0.58140    0.38330    1.000
    C136     C        0.68080    0.69280    0.88890    1.000
    C137     C        0.74180    0.89380    0.61700    1.000
    C138     C        0.72480    0.82670    0.61510    1.000
    C139     C        0.51290    0.73450    0.55300    1.000
    H88      H        0.50090    0.70550    0.59250    1.000
    C140     C        0.78530    0.57330    0.37110    1.000
    H89      H        0.80980    0.57120    0.36890    1.000
    O49      O        0.82640    0.08600    0.59390    1.000
    O50      O        0.73760    0.77940    0.65890    1.000
    O51      O        0.77601    0.13650    0.61280    1.000
    O52      O        0.69627    0.81950    0.56800    1.000
    O53      O        0.76470    0.39540    0.36040    1.000
    O54      O        0.43920    0.73870    0.55560    1.000
    O55      O        0.81484    0.44370    0.40070    1.000
    O56      O        0.43880    0.80340    0.43270    1.000
    O57      O        0.62261    0.82010    0.44690    1.000
    O58      O        0.68370    0.70570    0.42910    1.000
    O59      O        0.62113    0.74280    0.55930    1.000
    O60      O        0.73108    0.75710    0.37910    1.000
    N37      N        0.66597    0.70900    0.74280    1.000
    N38      N        0.69301    0.68930    0.80250    1.000
    N39      N        0.64626    0.71320    0.88760    1.000
    N40      N        0.69810    0.67370    0.96070    1.000
    H90      H        0.71900    0.65730    0.95440    1.000
    H91      H        0.68890    0.67720    0.01520    1.000
    N41      N        0.60720    0.80950    0.23750    1.000
    H92      H        0.60310    0.81730    0.29540    1.000
    H93      H        0.59000    0.80250    0.19980    1.000
    N42      N        0.66934    0.81850    0.25740    1.000
    N43      N        0.69823    0.81770    0.19710    1.000
    N44      N        0.64940    0.80050    0.11430    1.000
    N45      N        0.60820    0.73090    0.76710    1.000
    H94      H        0.60400    0.72980    0.70820    1.000
    H95      H        0.59130    0.73880    0.80560    1.000
    Cd21     Cd       0.11576    0.73933    0.99847    1.000
    Cd22     Cd       0.74773    0.68304    0.74878    1.000
    Cd23     Cd       0.82394    0.79005    0.08963    1.000
    Cd24     Cd       0.81985    0.67015    0.91183    1.000
    C141     C        0.86090    0.77890    0.29680    1.000
    C142     C        0.72230    0.60230    0.13270    1.000
    H96      H        0.70960    0.64100    0.14600    1.000
    C143     C        0.95060    0.76440    0.05500    1.000
    H97      H        0.93840    0.79420    0.09300    1.000
    C144     C        0.77700    0.54830    0.10330    1.000
    H98      H        0.80120    0.55050    0.09330    1.000
    C145     C        0.76050    0.48690    0.10420    1.000
    H99      H        0.77380    0.44780    0.09870    1.000
    C146     C        0.73430    0.98470    0.87030    1.000
    C147     C        0.71650    0.05230    0.87480    1.000
    C148     C        0.81520    0.69540    0.61790    1.000
    H100     H        0.80130    0.70180    0.56530    1.000
    C149     C        0.78540    0.79610    0.89590    1.000
    C150     C        0.85900    0.69170    0.70540    1.000
    C151     C        0.72430    0.48290    0.11320    1.000
    C152     C        0.76770    0.86170    0.88150    1.000
    C153     C        0.04560    0.72810    0.99300    1.000
    C154     C        0.95130    0.67690    0.94360    1.000
    H101     H        0.93940    0.64610    0.90640    1.000
    C155     C        0.70620    0.41660    0.10630    1.000
    C156     C        0.98790    0.67980    0.94100    1.000
    H102     H        0.00030    0.65060    0.90240    1.000
    C157     C        0.77110    0.98120    0.87050    1.000
    H103     H        0.78440    0.02020    0.86490    1.000
    C158     C        0.00580    0.72450    0.99400    1.000
    C159     C        0.70550    0.54060    0.12870    1.000
    H104     H        0.68120    0.53830    0.13660    1.000
    C160     C        0.73140    0.86580    0.87530    1.000
    H105     H        0.71810    0.82650    0.87390    1.000
    C161     C        0.93250    0.71920    0.00080    1.000
    C162     C        0.89340    0.71800    0.00210    1.000
    C163     C        0.78730    0.92060    0.87900    1.000
    H106     H        0.81170    0.91860    0.88330    1.000
    C164     C        0.81920    0.80720    0.38890    1.000
    C165     C        0.75820    0.60620    0.11700    1.000
    C166     C        0.77520    0.67330    0.11510    1.000
    C167     C        0.98710    0.76550    0.05300    1.000
    H107     H        0.99910    0.79450    0.09250    1.000
    C168     C        0.71470    0.92670    0.87110    1.000
    H108     H        0.69020    0.92880    0.86890    1.000
    O61      O        0.67360    0.41400    0.09390    1.000
    O62      O        0.76240    0.72060    0.15890    1.000
    O63      O        0.72399    0.36350    0.11280    1.000
    O64      O        0.80373    0.68050    0.06800    1.000
    O65      O        0.73530    0.10460    0.86040    1.000
    O66      O        0.06080    0.76130    0.05560    1.000
    O67      O        0.68516    0.05630    0.90070    1.000
    O68      O        0.06120    0.69660    0.93270    1.000
    O69      O        0.87739    0.67990    0.94690    1.000
    O70      O        0.81630    0.79430    0.92910    1.000
    O71      O        0.87887    0.75720    0.05930    1.000
    O72      O        0.76892    0.74290    0.87910    1.000
    N46      N        0.83403    0.79100    0.24280    1.000
    N47      N        0.80699    0.81070    0.30250    1.000
    N48      N        0.85374    0.78680    0.38760    1.000
    N49      N        0.80190    0.82630    0.46070    1.000
    H109     H        0.78100    0.84270    0.45440    1.000
    H110     H        0.81110    0.82280    0.51520    1.000
    N50      N        0.89280    0.69050    0.73750    1.000
    H111     H        0.89690    0.68270    0.79540    1.000
    H112     H        0.91000    0.69750    0.69980    1.000
    N51      N        0.83066    0.68150    0.75740    1.000
    N52      N        0.80177    0.68230    0.69710    1.000
    N53      N        0.85060    0.69950    0.61430    1.000
    N54      N        0.89180    0.76910    0.26710    1.000
    H113     H        0.89600    0.77020    0.20820    1.000
    H114     H        0.90870    0.76120    0.30560    1.000
    Cd25     Cd       0.61576    0.76067    0.00153    1.000
    Cd26     Cd       0.24773    0.81696    0.25122    1.000
    Cd27     Cd       0.32394    0.70995    0.91037    1.000
    Cd28     Cd       0.31985    0.82985    0.08817    1.000
    C169     C        0.36090    0.72110    0.70320    1.000
    C170     C        0.22230    0.89770    0.86730    1.000
    H115     H        0.20960    0.85900    0.85400    1.000
    C171     C        0.45060    0.73560    0.94500    1.000
    H116     H        0.43840    0.70580    0.90700    1.000
    C172     C        0.27700    0.95170    0.89670    1.000
    H117     H        0.30120    0.94950    0.90670    1.000
    C173     C        0.26050    0.01310    0.89580    1.000
    H118     H        0.27380    0.05220    0.90130    1.000
    C174     C        0.23430    0.51530    0.12970    1.000
    C175     C        0.21650    0.44770    0.12520    1.000
    C176     C        0.31520    0.80460    0.38210    1.000
    H119     H        0.30130    0.79820    0.43470    1.000
    C177     C        0.28540    0.70390    0.10410    1.000
    C178     C        0.35900    0.80830    0.29460    1.000
    C179     C        0.22430    0.01710    0.88680    1.000
    C180     C        0.26770    0.63830    0.11850    1.000
    C181     C        0.54560    0.77190    0.00700    1.000
    C182     C        0.45130    0.82310    0.05640    1.000
    H120     H        0.43940    0.85390    0.09360    1.000
    C183     C        0.20620    0.08340    0.89370    1.000
    C184     C        0.48790    0.82020    0.05900    1.000
    H121     H        0.50030    0.84940    0.09760    1.000
    C185     C        0.27110    0.51880    0.12950    1.000
    H122     H        0.28440    0.47980    0.13510    1.000
    C186     C        0.50580    0.77550    0.00600    1.000
    C187     C        0.20550    0.95940    0.87130    1.000
    H123     H        0.18120    0.96170    0.86340    1.000
    C188     C        0.23140    0.63420    0.12470    1.000
    H124     H        0.21810    0.67350    0.12610    1.000
    C189     C        0.43250    0.78080    0.99920    1.000
    C190     C        0.39340    0.78200    0.99790    1.000
    C191     C        0.28730    0.57940    0.12100    1.000
    H125     H        0.31170    0.58140    0.11670    1.000
    C192     C        0.31920    0.69280    0.61110    1.000
    C193     C        0.25820    0.89380    0.88300    1.000
    C194     C        0.27520    0.82670    0.88490    1.000
    C195     C        0.48710    0.73450    0.94700    1.000
    H126     H        0.49910    0.70550    0.90750    1.000
    C196     C        0.21470    0.57330    0.12890    1.000
    H127     H        0.19020    0.57120    0.13110    1.000
    O73      O        0.17360    0.08600    0.90610    1.000
    O74      O        0.26240    0.77940    0.84110    1.000
    O75      O        0.22399    0.13650    0.88720    1.000
    O76      O        0.30373    0.81950    0.93200    1.000
    O77      O        0.23530    0.39540    0.13960    1.000
    O78      O        0.56080    0.73870    0.94440    1.000
    O79      O        0.18516    0.44370    0.09930    1.000
    O80      O        0.56120    0.80340    0.06730    1.000
    O81      O        0.37739    0.82010    0.05310    1.000
    O82      O        0.31630    0.70570    0.07090    1.000
    O83      O        0.37887    0.74280    0.94070    1.000
    O84      O        0.26892    0.75710    0.12090    1.000
    N55      N        0.33403    0.70900    0.75720    1.000
    N56      N        0.30699    0.68930    0.69750    1.000
    N57      N        0.35374    0.71320    0.61240    1.000
    N58      N        0.30190    0.67370    0.53930    1.000
    H128     H        0.28100    0.65730    0.54560    1.000
    H129     H        0.31110    0.67720    0.48480    1.000
    N59      N        0.39280    0.80950    0.26250    1.000
    H130     H        0.39690    0.81730    0.20460    1.000
    H131     H        0.41000    0.80250    0.30020    1.000
    N60      N        0.33066    0.81850    0.24260    1.000
    N61      N        0.30177    0.81770    0.30290    1.000
    N62      N        0.35060    0.80050    0.38570    1.000
    N63      N        0.39180    0.73090    0.73290    1.000
    H132     H        0.39600    0.72980    0.79180    1.000
    H133     H        0.40870    0.73880    0.69440    1.000
    Cd29     Cd       0.88424    0.73933    0.50153    1.000
    Cd30     Cd       0.25227    0.68304    0.75122    1.000
    Cd31     Cd       0.17606    0.79005    0.41037    1.000
    Cd32     Cd       0.18015    0.67015    0.58817    1.000
    C197     C        0.13910    0.77890    0.20320    1.000
    C198     C        0.27770    0.60230    0.36730    1.000
    H134     H        0.29040    0.64100    0.35400    1.000
    C199     C        0.04940    0.76440    0.44500    1.000
    H135     H        0.06160    0.79420    0.40700    1.000
    C200     C        0.22300    0.54830    0.39670    1.000
    H136     H        0.19880    0.55050    0.40670    1.000
    C201     C        0.23950    0.48690    0.39580    1.000
    H137     H        0.22620    0.44780    0.40130    1.000
    C202     C        0.26570    0.98470    0.62970    1.000
    C203     C        0.28350    0.05230    0.62520    1.000
    C204     C        0.18480    0.69540    0.88210    1.000
    H138     H        0.19870    0.70180    0.93470    1.000
    C205     C        0.21460    0.79610    0.60410    1.000
    C206     C        0.14100    0.69170    0.79460    1.000
    C207     C        0.27570    0.48290    0.38680    1.000
    C208     C        0.23230    0.86170    0.61850    1.000
    C209     C        0.95440    0.72810    0.50700    1.000
    C210     C        0.04870    0.67690    0.55640    1.000
    H139     H        0.06060    0.64610    0.59360    1.000
    C211     C        0.29380    0.41660    0.39370    1.000
    C212     C        0.01210    0.67980    0.55900    1.000
    H140     H        0.99970    0.65060    0.59760    1.000
    C213     C        0.22890    0.98120    0.62950    1.000
    H141     H        0.21560    0.02020    0.63510    1.000
    C214     C        0.99420    0.72450    0.50600    1.000
    C215     C        0.29450    0.54060    0.37130    1.000
    H142     H        0.31880    0.53830    0.36340    1.000
    C216     C        0.26860    0.86580    0.62470    1.000
    H143     H        0.28190    0.82650    0.62610    1.000
    C217     C        0.06750    0.71920    0.49920    1.000
    C218     C        0.10660    0.71800    0.49790    1.000
    C219     C        0.21270    0.92060    0.62100    1.000
    H144     H        0.18830    0.91860    0.61670    1.000
    C220     C        0.18080    0.80720    0.11110    1.000
    C221     C        0.24180    0.60620    0.38300    1.000
    C222     C        0.22480    0.67330    0.38490    1.000
    C223     C        0.01290    0.76550    0.44700    1.000
    H145     H        0.00090    0.79450    0.40750    1.000
    C224     C        0.28530    0.92670    0.62890    1.000
    H146     H        0.30980    0.92880    0.63110    1.000
    O85      O        0.32640    0.41400    0.40610    1.000
    O86      O        0.23760    0.72060    0.34110    1.000
    O87      O        0.27601    0.36350    0.38720    1.000
    O88      O        0.19627    0.68050    0.43200    1.000
    O89      O        0.26470    0.10460    0.63960    1.000
    O90      O        0.93920    0.76130    0.44440    1.000
    O91      O        0.31484    0.05630    0.59930    1.000
    O92      O        0.93880    0.69660    0.56730    1.000
    O93      O        0.12261    0.67990    0.55310    1.000
    O94      O        0.18370    0.79430    0.57090    1.000
    O95      O        0.12113    0.75720    0.44070    1.000
    O96      O        0.23108    0.74290    0.62090    1.000
    N64      N        0.16597    0.79100    0.25720    1.000
    N65      N        0.19301    0.81070    0.19750    1.000
    N66      N        0.14626    0.78680    0.11240    1.000
    N67      N        0.19810    0.82630    0.03930    1.000
    H147     H        0.21900    0.84270    0.04560    1.000
    H148     H        0.18890    0.82280    0.98480    1.000
    N68      N        0.10720    0.69050    0.76250    1.000
    H149     H        0.10310    0.68270    0.70460    1.000
    H150     H        0.09000    0.69750    0.80020    1.000
    N69      N        0.16934    0.68150    0.74260    1.000
    N70      N        0.19823    0.68230    0.80290    1.000
    N71      N        0.14940    0.69950    0.88570    1.000
    N72      N        0.10820    0.76910    0.23290    1.000
    H151     H        0.10400    0.77020    0.29180    1.000
    H152     H        0.09130    0.76120    0.19440    1.000
