data_functionalizedCrystal
_audit_creation_method	'EQeq! by Chris Wilmer'
_symmetry_space_group_name_H-M	'P1'
_symmetry_Int_Tables_number	1
_symmetry_cell_setting	triclinic
loop_
_symmetry_equiv_pos_as_xyz
  x,y,z
_cell_length_a	16.7824
_cell_length_b	16.7824
_cell_length_c	16.7824
_cell_angle_alpha	90
_cell_angle_beta	90
_cell_angle_gamma	90
loop_
_atom_site_label
_atom_site_type_symbol
_atom_site_fract_x
_atom_site_fract_y
_atom_site_fract_z
_atom_site_charge
Mof_O 	O 	0.02625	0.59235	0.30515	-0.669
Mof_O 	O 	0.52625	0.09235	0.80515	-0.568
Mof_O 	O 	0.97375	0.40765	0.30515	-0.374
Mof_O 	O 	0.47375	0.90765	0.80515	-0.354
Mof_O 	O 	0.97375	0.59235	0.69485	-0.335
Mof_O 	O 	0.47375	0.09235	0.19485	-0.604
Mof_O 	O 	0.02625	0.40765	0.69485	-0.659
Mof_O 	O 	0.52625	0.90765	0.19485	-0.389
Mof_O 	O 	0.30515	0.02625	0.59235	-0.669
Mof_O 	O 	0.80515	0.52625	0.09235	-0.569
Mof_O 	O 	0.30515	0.97375	0.40765	-0.375
Mof_O 	O 	0.80515	0.47375	0.90765	-0.355
Mof_O 	O 	0.69485	0.97375	0.59235	-0.336
Mof_O 	O 	0.19485	0.47375	0.09235	-0.605
Mof_O 	O 	0.69485	0.02625	0.40765	-0.66
Mof_O 	O 	0.19485	0.52625	0.90765	-0.39
Mof_O 	O 	0.59235	0.30515	0.02625	-0.67
Mof_O 	O 	0.09235	0.80515	0.52625	-0.569
Mof_O 	O 	0.40765	0.30515	0.97375	-0.375
Mof_O 	O 	0.90765	0.80515	0.47375	-0.355
Mof_O 	O 	0.59235	0.69485	0.97375	-0.336
Mof_O 	O 	0.09235	0.19485	0.47375	-0.605
Mof_O 	O 	0.40765	0.69485	0.02625	-0.66
Mof_O 	O 	0.90765	0.19485	0.52625	-0.39
Mof_O 	O 	0.59235	0.02625	0.30515	-0.67
Mof_O 	O 	0.09235	0.52625	0.80515	-0.569
Mof_O 	O 	0.40765	0.97375	0.30515	-0.375
Mof_O 	O 	0.90765	0.47375	0.80515	-0.355
Mof_O 	O 	0.59235	0.97375	0.69485	-0.336
Mof_O 	O 	0.09235	0.47375	0.19485	-0.605
Mof_O 	O 	0.40765	0.02625	0.69485	-0.66
Mof_O 	O 	0.90765	0.52625	0.19485	-0.39
Mof_O 	O 	0.02625	0.30515	0.59235	-0.67
Mof_O 	O 	0.52625	0.80515	0.09235	-0.569
Mof_O 	O 	0.97375	0.30515	0.40765	-0.375
Mof_O 	O 	0.47375	0.80515	0.90765	-0.355
Mof_O 	O 	0.97375	0.69485	0.59235	-0.336
Mof_O 	O 	0.47375	0.19485	0.09235	-0.605
Mof_O 	O 	0.02625	0.69485	0.40765	-0.66
Mof_O 	O 	0.52625	0.19485	0.90765	-0.39
Mof_O 	O 	0.30515	0.59235	0.02625	-0.67
Mof_O 	O 	0.80515	0.09235	0.52625	-0.569
Mof_O 	O 	0.30515	0.40765	0.97375	-0.375
Mof_O 	O 	0.80515	0.90765	0.47375	-0.355
Mof_O 	O 	0.69485	0.59235	0.97375	-0.336
Mof_O 	O 	0.19485	0.09235	0.47375	-0.605
Mof_O 	O 	0.69485	0.40765	0.02625	-0.66
Mof_O 	O 	0.19485	0.90765	0.52625	-0.39
Mof_Al	Al	1.25559e-32	0.5	0.5	2.701
Mof_Al	Al	0.5	0	-0	0.775
Mof_Al	Al	0.5	5.34058e-33	0.5	2.701
Mof_Al	Al	5.34058e-33	0.5	-0	0.775
Mof_Al	Al	0.5	0.5	-0	2.701
Mof_Al	Al	7.21528e-33	5.34058e-33	0.5	0.775
Mof_Mg	Mg	9.3735e-34	0.5	0.25	1.45
Mof_Mg	Mg	2.81205e-33	0.5	0.75	1.452
Mof_Mg	Mg	0.5	2.67029e-33	0.25	1.45
Mof_Mg	Mg	0.25	5.34058e-33	0.5	1.45
Mof_Mg	Mg	0.75	5.34058e-33	0.5	1.452
Mof_Mg	Mg	0.25	0.5	-0	1.45
Mof_Mg	Mg	0.5	0.25	-0	1.45
Mof_Mg	Mg	0.5	0.75	-0	1.452
Mof_Mg	Mg	1.8747e-33	0.25	0.5	1.45
Mof_Mg	Mg	0.5	-5.34058e-33	0.75	1.452
Mof_Mg	Mg	1.8747e-33	0.75	0.5	1.452
Mof_Mg	Mg	0.75	0.5	-0	1.452
Mof_P 	P 	0.07057	0.62188	0.37812	0.697
Mof_O 	O 	0.1569	0.6408	0.3592	-0.242
Mof_O 	O 	0.0672	0.55688	0.44312	-0.959
Mof_P 	P 	0.57057	0.12188	0.87812	0.601
Mof_O 	O 	0.6569	0.1408	0.8592	-0.174
Mof_O 	O 	0.5672	0.05688	0.94312	-0.375
Mof_P 	P 	0.92943	0.37812	0.37812	0.682
Mof_O 	O 	0.8431	0.3592	0.3592	-0.204
Mof_O 	O 	0.9328	0.44312	0.44312	-0.717
Mof_P 	P 	0.42943	0.87812	0.87812	0.599
Mof_O 	O 	0.3431	0.8592	0.8592	-0.082
Mof_O 	O 	0.4328	0.94312	0.94312	-0.103
Mof_P 	P 	0.92943	0.62188	0.62188	0.684
Mof_O 	O 	0.8431	0.6408	0.6408	-0.154
Mof_O 	O 	0.9328	0.55688	0.55688	-0.717
Mof_P 	P 	0.42943	0.12188	0.12188	0.605
Mof_O 	O 	0.3431	0.1408	0.1408	-0.365
Mof_O 	O 	0.4328	0.05688	0.05688	-0.687
Mof_P 	P 	0.07057	0.37812	0.62188	0.697
Mof_O 	O 	0.1569	0.3592	0.6408	-0.242
Mof_O 	O 	0.0672	0.44312	0.55688	-0.959
Mof_P 	P 	0.57057	0.87812	0.12188	0.601
Mof_O 	O 	0.6569	0.8592	0.1408	-0.174
Mof_O 	O 	0.5672	0.94312	0.05688	-0.375
Mof_P 	P 	0.37812	0.07057	0.62188	0.697
Mof_O 	O 	0.3592	0.1569	0.6408	-0.242
Mof_O 	O 	0.44312	0.0672	0.55688	-0.959
Mof_P 	P 	0.87812	0.57057	0.12188	0.601
Mof_O 	O 	0.8592	0.6569	0.1408	-0.174
Mof_O 	O 	0.94312	0.5672	0.05688	-0.375
Mof_P 	P 	0.37812	0.92943	0.37812	0.682
Mof_O 	O 	0.3592	0.8431	0.3592	-0.204
Mof_O 	O 	0.44312	0.9328	0.44312	-0.717
Mof_P 	P 	0.87812	0.42943	0.87812	0.599
Mof_O 	O 	0.8592	0.3431	0.8592	-0.082
Mof_O 	O 	0.94312	0.4328	0.94312	-0.103
Mof_P 	P 	0.62188	0.92943	0.62188	0.684
Mof_O 	O 	0.6408	0.8431	0.6408	-0.154
Mof_O 	O 	0.55688	0.9328	0.55688	-0.717
Mof_P 	P 	0.12188	0.42943	0.12188	0.605
Mof_O 	O 	0.1408	0.3431	0.1408	-0.365
Mof_O 	O 	0.05688	0.4328	0.05688	-0.687
Mof_P 	P 	0.62188	0.07057	0.37812	0.697
Mof_O 	O 	0.6408	0.1569	0.3592	-0.242
Mof_O 	O 	0.55688	0.0672	0.44312	-0.959
Mof_P 	P 	0.12188	0.57057	0.87812	0.601
Mof_O 	O 	0.1408	0.6569	0.8592	-0.174
Mof_O 	O 	0.05688	0.5672	0.94312	-0.375
Mof_P 	P 	0.62188	0.37812	0.07057	0.697
Mof_O 	O 	0.6408	0.3592	0.1569	-0.242
Mof_O 	O 	0.55688	0.44312	0.0672	-0.959
Mof_P 	P 	0.12188	0.87812	0.57057	0.601
Mof_O 	O 	0.1408	0.8592	0.6569	-0.174
Mof_O 	O 	0.05688	0.94312	0.5672	-0.375
Mof_P 	P 	0.37812	0.37812	0.92943	0.682
Mof_O 	O 	0.3592	0.3592	0.8431	-0.204
Mof_O 	O 	0.44312	0.44312	0.9328	-0.717
Mof_P 	P 	0.87812	0.87812	0.42943	0.599
Mof_O 	O 	0.8592	0.8592	0.3431	-0.082
Mof_O 	O 	0.94312	0.94312	0.4328	-0.103
Mof_P 	P 	0.62188	0.62188	0.92943	0.684
Mof_O 	O 	0.6408	0.6408	0.8431	-0.154
Mof_O 	O 	0.55688	0.55688	0.9328	-0.717
Mof_P 	P 	0.12188	0.12188	0.42943	0.605
Mof_O 	O 	0.1408	0.1408	0.3431	-0.365
Mof_O 	O 	0.05688	0.05688	0.4328	-0.687
Mof_P 	P 	0.37812	0.62188	0.07057	0.697
Mof_O 	O 	0.3592	0.6408	0.1569	-0.242
Mof_O 	O 	0.44312	0.55688	0.0672	-0.959
Mof_P 	P 	0.87812	0.12188	0.57057	0.601
Mof_O 	O 	0.8592	0.1408	0.6569	-0.174
Mof_O 	O 	0.94312	0.05688	0.5672	-0.375
_end
