# CIF file generated by openbabel 3.1.0, see https://openbabel.org
data_I
_chemical_name_common 'EFOTEZ_clean'
_cell_length_a 16.596
_cell_length_b 16.793
_cell_length_c 17.94
_cell_angle_alpha 90
_cell_angle_beta 90
_cell_angle_gamma 90
_space_group_name_H-M_alt 'P 1'
_space_group_name_Hall 'P 1'
loop_
    _symmetry_equiv_pos_as_xyz
    x,y,z
loop_
    _atom_site_label
    _atom_site_type_symbol
    _atom_site_fract_x
    _atom_site_fract_y
    _atom_site_fract_z
    _atom_site_occupancy
    Mn1      Mn       0.10533    0.63012    0.86892    1.000
    Mn2      Mn       0.89467    0.86988    0.36892    1.000
    Mn3      Mn       0.60533    0.36988    0.63108    1.000
    Mn4      Mn       0.39467    0.13012    0.13108    1.000
    Mn5      Mn       0.89467    0.36988    0.13108    1.000
    Mn6      Mn       0.10533    0.13012    0.63108    1.000
    Mn7      Mn       0.39467    0.63012    0.36892    1.000
    Mn8      Mn       0.60533    0.86988    0.86892    1.000
    Re1      Re       0.39937    0.53508    0.96745    1.000
    Re2      Re       0.54088    0.60246    0.98942    1.000
    Re3      Re       0.47163    0.52269    0.09777    1.000
    Re4      Re       0.60063    0.96492    0.46745    1.000
    Re5      Re       0.45912    0.89754    0.48942    1.000
    Re6      Re       0.52837    0.97731    0.59777    1.000
    Re7      Re       0.89937    0.46492    0.53255    1.000
    Re8      Re       0.04088    0.39754    0.51058    1.000
    Re9      Re       0.97163    0.47731    0.40223    1.000
    Re10     Re       0.10063    0.03508    0.03255    1.000
    Re11     Re       0.95912    0.10246    0.01058    1.000
    Re12     Re       0.02837    0.02269    0.90223    1.000
    Re13     Re       0.60063    0.46492    0.03255    1.000
    Re14     Re       0.45912    0.39754    0.01058    1.000
    Re15     Re       0.52837    0.47731    0.90223    1.000
    Re16     Re       0.39937    0.03508    0.53255    1.000
    Re17     Re       0.54088    0.10246    0.51058    1.000
    Re18     Re       0.47163    0.02269    0.40223    1.000
    Re19     Re       0.10063    0.53508    0.46745    1.000
    Re20     Re       0.95912    0.60246    0.48942    1.000
    Re21     Re       0.02837    0.52269    0.59777    1.000
    Re22     Re       0.89937    0.96492    0.96745    1.000
    Re23     Re       0.04088    0.89754    0.98942    1.000
    Re24     Re       0.97163    0.97731    0.09777    1.000
    C1       C        0.28480    0.57280    0.92570    1.000
    C2       C        0.08560    0.77860    0.97530    1.000
    C3       C        0.06290    0.54770    0.70900    1.000
    C4       C        0.71520    0.92720    0.42570    1.000
    C5       C        0.91440    0.72140    0.47530    1.000
    C6       C        0.93710    0.95230    0.20900    1.000
    C7       C        0.78480    0.42720    0.57430    1.000
    C8       C        0.58560    0.22140    0.52470    1.000
    C9       C        0.56290    0.45230    0.79100    1.000
    C10      C        0.21520    0.07280    0.07430    1.000
    C11      C        0.41440    0.27860    0.02470    1.000
    C12      C        0.43710    0.04770    0.29100    1.000
    C13      C        0.71520    0.42720    0.07430    1.000
    C14      C        0.91440    0.22140    0.02470    1.000
    C15      C        0.93710    0.45230    0.29100    1.000
    C16      C        0.28480    0.07280    0.57430    1.000
    C17      C        0.08560    0.27860    0.52470    1.000
    C18      C        0.06290    0.04770    0.79100    1.000
    C19      C        0.21520    0.57280    0.42570    1.000
    C20      C        0.41440    0.77860    0.47530    1.000
    C21      C        0.43710    0.54770    0.20900    1.000
    C22      C        0.78480    0.92720    0.92570    1.000
    C23      C        0.58560    0.72140    0.97530    1.000
    C24      C        0.56290    0.95230    0.70900    1.000
    Se1      Se       0.41576    0.65327    0.05311    1.000
    Se2      Se       0.33772    0.45828    0.07355    1.000
    Se3      Se       0.39200    0.41294    0.88562    1.000
    Se4      Se       0.47055    0.61051    0.86560    1.000
    Se5      Se       0.58424    0.84673    0.55311    1.000
    Se6      Se       0.66228    0.04172    0.57355    1.000
    Se7      Se       0.60800    0.08706    0.38562    1.000
    Se8      Se       0.52945    0.88949    0.36560    1.000
    Se9      Se       0.91576    0.34673    0.44689    1.000
    Se10     Se       0.83772    0.54172    0.42645    1.000
    Se11     Se       0.89200    0.58706    0.61438    1.000
    Se12     Se       0.97055    0.38949    0.63440    1.000
    Se13     Se       0.08424    0.15327    0.94689    1.000
    Se14     Se       0.16228    0.95828    0.92645    1.000
    Se15     Se       0.10800    0.91294    0.11438    1.000
    Se16     Se       0.02945    0.11051    0.13440    1.000
    Se17     Se       0.58424    0.34673    0.94689    1.000
    Se18     Se       0.66228    0.54172    0.92645    1.000
    Se19     Se       0.60800    0.58706    0.11438    1.000
    Se20     Se       0.52945    0.38949    0.13440    1.000
    Se21     Se       0.41576    0.15327    0.44689    1.000
    Se22     Se       0.33772    0.95828    0.42645    1.000
    Se23     Se       0.39200    0.91294    0.61438    1.000
    Se24     Se       0.47055    0.11051    0.63440    1.000
    Se25     Se       0.08424    0.65327    0.55311    1.000
    Se26     Se       0.16228    0.45828    0.57355    1.000
    Se27     Se       0.10800    0.41294    0.38562    1.000
    Se28     Se       0.02945    0.61051    0.36560    1.000
    Se29     Se       0.91576    0.84673    0.05311    1.000
    Se30     Se       0.83772    0.04172    0.07355    1.000
    Se31     Se       0.89200    0.08706    0.88562    1.000
    Se32     Se       0.97055    0.88949    0.86560    1.000
    N1       N        0.22800    0.59330    0.90110    1.000
    N2       N        0.10490    0.71740    0.96380    1.000
    N3       N        0.08190    0.56140    0.76650    1.000
    N4       N        0.77200    0.90670    0.40110    1.000
    N5       N        0.89510    0.78260    0.46380    1.000
    N6       N        0.91810    0.93860    0.26650    1.000
    N7       N        0.72800    0.40670    0.59890    1.000
    N8       N        0.60490    0.28260    0.53620    1.000
    N9       N        0.58190    0.43860    0.73350    1.000
    N10      N        0.27200    0.09330    0.09890    1.000
    N11      N        0.39510    0.21740    0.03620    1.000
    N12      N        0.41810    0.06140    0.23350    1.000
    N13      N        0.77200    0.40670    0.09890    1.000
    N14      N        0.89510    0.28260    0.03620    1.000
    N15      N        0.91810    0.43860    0.23350    1.000
    N16      N        0.22800    0.09330    0.59890    1.000
    N17      N        0.10490    0.21740    0.53620    1.000
    N18      N        0.08190    0.06140    0.73350    1.000
    N19      N        0.27200    0.59330    0.40110    1.000
    N20      N        0.39510    0.71740    0.46380    1.000
    N21      N        0.41810    0.56140    0.26650    1.000
    N22      N        0.72800    0.90670    0.90110    1.000
    N23      N        0.60490    0.78260    0.96380    1.000
    N24      N        0.58190    0.93860    0.76650    1.000
