data_functionalizedCrystal
_audit_creation_method	'EQeq! by Chris Wilmer'
_symmetry_space_group_name_H-M	'P1'
_symmetry_Int_Tables_number	1
_symmetry_cell_setting	triclinic
loop_
_symmetry_equiv_pos_as_xyz
  x,y,z
_cell_length_a	15.9007
_cell_length_b	15.9007
_cell_length_c	15.9007
_cell_angle_alpha	63.1563
_cell_angle_beta	74.0844
_cell_angle_gamma	105.916
loop_
_atom_site_label
_atom_site_type_symbol
_atom_site_fract_x
_atom_site_fract_y
_atom_site_fract_z
_atom_site_charge
Mof_Ni	Ni	1.86015e-17	0.5	0.5	1.039
Mof_Ni	Ni	0.5	0	0.5	1.055
Mof_Ni	Ni	-0	0.5	-0	1.024
Mof_Ni	Ni	0.5	0.5	0.5	1.068
Mof_H 	H 	0.1592	0.5442	0.2974	0.03
Mof_H 	H 	0.2558	0.6158	0.2894	0.046
Mof_H 	H 	0.0868	0.6639	0.2579	0.012
Mof_H 	H 	0.1869	0.7537	0.2238	0.031
Mof_H 	H 	0.9366	0.7319	0.3877	0.032
Mof_H 	H 	0.9348	0.6543	0.3523	0.033
Mof_H 	H 	0.2014	0.4329	0.4185	0.046
Mof_H 	H 	0.2	0.4945	0.4729	0.052
Mof_H 	H 	0.1179	0.7535	0.4198	-0.057
Mof_H 	H 	0.1987	0.839	0.3009	-0.047
Mof_H 	H 	0.1477	0.928	0.3663	0.228
Mof_H 	H 	0.1076	0.9364	0.2846	0.21
Mof_H 	H 	0.0367	0.8548	0.4071	0.204
Mof_H 	H 	0.1706	0.655	0.3878	0.103
Mof_H 	H 	0.0402	0.3694	0.4758	0.066
Mof_H 	H 	0.3408	0.0434	0.615	-0.007
Mof_H 	H 	0.2442	0.9548	0.64	0.028
Mof_H 	H 	0.4132	0.1553	0.4229	0.034
Mof_H 	H 	0.3131	0.0893	0.4332	0.03
Mof_H 	H 	0.5634	0.1757	0.2047	0.028
Mof_H 	H 	0.5652	0.2129	0.2805	0.037
Mof_H 	H 	0.2986	0.8801	0.7685	0.064
Mof_H 	H 	0.3	0.8271	0.7055	0.06
Mof_H 	H 	0.3821	0.9623	0.3644	-0.025
Mof_H 	H 	0.3013	0.0004	0.3597	-0.061
Mof_H 	H 	0.3523	0.986	0.2197	0.274
Mof_H 	H 	0.3924	0.1078	0.1712	0.237
Mof_H 	H 	0.4633	0.0562	0.1819	0.244
Mof_H 	H 	0.3294	0.9416	0.5156	0.106
Mof_H 	H 	0.4598	0.984	0.6708	0.101
Mof_H 	H 	0.1584	0.7026	0.9566	0.091
Mof_H 	H 	0.0948	0.7106	0.0452	0.056
Mof_H 	H 	0.0782	0.7421	0.8447	0.036
Mof_H 	H 	0.0225	0.7762	0.9107	0.036
Mof_H 	H 	0.8804	0.6123	0.8243	0.042
Mof_H 	H 	0.9934	0.6477	0.7871	0.068
Mof_H 	H 	0.1486	0.5815	0.1199	0.028
Mof_H 	H 	0.0326	0.5271	0.1729	0.016
Mof_H 	H 	0.8267	0.5802	0.0377	-0.075
Mof_H 	H 	0.8601	0.6991	0.9996	-0.026
Mof_H 	H 	0.7057	0.6337	0.014	0.177
Mof_H 	H 	0.779	0.7154	0.8922	0.205
Mof_H 	H 	0.7381	0.5929	0.9438	0.208
Mof_H 	H 	0.9572	0.6122	0.0584	0.156
Mof_H 	H 	0.1548	0.5242	0.016	0.078
Mof_H 	H 	0.3416	0.385	0.4558	0.034
Mof_H 	H 	0.4052	0.36	0.3842	0.045
Mof_H 	H 	0.4218	0.5771	0.3361	0.03
Mof_H 	H 	0.4775	0.5668	0.2463	0.033
Mof_H 	H 	0.6196	0.7953	0.2681	0.037
Mof_H 	H 	0.5066	0.7195	0.3457	0.04
Mof_H 	H 	0.3514	0.2315	0.5671	0.044
Mof_H 	H 	0.4674	0.2945	0.5055	0.049
Mof_H 	H 	0.6733	0.6356	0.2465	-0.053
Mof_H 	H 	0.6399	0.6403	0.161	-0.055
Mof_H 	H 	0.7943	0.7803	0.072	0.241
Mof_H 	H 	0.721	0.8288	0.0636	0.231
Mof_H 	H 	0.7619	0.8181	0.1452	0.244
Mof_H 	H 	0.5428	0.4844	0.345	0.103
Mof_H 	H 	0.3452	0.3292	0.6306	0.087
Mof_H 	H 	0.8408	0.4558	0.7026	0.047
Mof_H 	H 	0.7442	0.3842	0.7106	0.052
Mof_H 	H 	0.9132	0.3361	0.7421	0.051
Mof_H 	H 	0.8131	0.2463	0.7762	0.04
Mof_H 	H 	0.0634	0.2681	0.6123	0.034
Mof_H 	H 	0.0652	0.3457	0.6477	0.045
Mof_H 	H 	0.7986	0.5671	0.5815	0.05
Mof_H 	H 	0.8	0.5055	0.5271	0.049
Mof_H 	H 	0.8821	0.2465	0.5802	-0.045
Mof_H 	H 	0.8013	0.161	0.6991	-0.058
Mof_H 	H 	0.8523	0.072	0.6337	0.247
Mof_H 	H 	0.8924	0.0636	0.7154	0.246
Mof_H 	H 	0.9633	0.1452	0.5929	0.265
Mof_H 	H 	0.8294	0.345	0.6122	0.104
Mof_H 	H 	0.9598	0.6306	0.5242	0.114
Mof_H 	H 	0.6592	0.9566	0.385	0.082
Mof_H 	H 	0.7558	0.0452	0.36	0.07
Mof_H 	H 	0.5868	0.8447	0.5771	0.029
Mof_H 	H 	0.6869	0.9107	0.5668	0.041
Mof_H 	H 	0.4366	0.8243	0.7953	0.039
Mof_H 	H 	0.4348	0.7871	0.7195	0.041
Mof_H 	H 	0.7014	0.1199	0.2315	0.033
Mof_H 	H 	0.7	0.1729	0.2945	0.041
Mof_H 	H 	0.6179	0.0377	0.6356	-0.079
Mof_H 	H 	0.6987	0.9996	0.6403	-0.042
Mof_H 	H 	0.6477	0.014	0.7803	0.196
Mof_H 	H 	0.6076	0.8922	0.8288	0.217
Mof_H 	H 	0.5367	0.9438	0.8181	0.223
Mof_H 	H 	0.6706	0.0584	0.4844	0.1
Mof_H 	H 	0.5402	0.016	0.3292	0.079
Mof_H 	H 	0.8416	0.2974	0.0434	-0.012
Mof_H 	H 	0.9052	0.2894	0.9548	0.042
Mof_H 	H 	0.9218	0.2579	0.1553	0.027
Mof_H 	H 	0.9775	0.2238	0.0893	0.035
Mof_H 	H 	0.1196	0.3877	0.1757	0.024
Mof_H 	H 	0.0066	0.3523	0.2129	0.011
Mof_H 	H 	0.8514	0.4185	0.8801	0.067
Mof_H 	H 	0.9674	0.4729	0.8271	0.084
Mof_H 	H 	0.1733	0.4198	0.9623	-0.027
Mof_H 	H 	0.1399	0.3009	0.0004	-0.077
Mof_H 	H 	0.2943	0.3663	0.986	0.296
Mof_H 	H 	0.221	0.2846	0.1078	0.249
Mof_H 	H 	0.2619	0.4071	0.0562	0.259
Mof_H 	H 	0.0428	0.3878	0.9416	0.052
Mof_H 	H 	0.8452	0.4758	0.984	0.101
Mof_H 	H 	0.6584	0.615	0.5442	0.042
Mof_H 	H 	0.5948	0.64	0.6158	0.054
Mof_H 	H 	0.5782	0.4229	0.6639	0.033
Mof_H 	H 	0.5225	0.4332	0.7537	0.039
Mof_H 	H 	0.3804	0.2047	0.7319	0.03
Mof_H 	H 	0.4934	0.2805	0.6543	0.037
Mof_H 	H 	0.6486	0.7685	0.4329	0.053
Mof_H 	H 	0.5326	0.7055	0.4945	0.051
Mof_H 	H 	0.3267	0.3644	0.7535	-0.05
Mof_H 	H 	0.3601	0.3597	0.839	-0.049
Mof_H 	H 	0.2057	0.2197	0.928	0.233
Mof_H 	H 	0.279	0.1712	0.9364	0.224
Mof_H 	H 	0.2381	0.1819	0.8548	0.224
Mof_H 	H 	0.4572	0.5156	0.655	0.103
Mof_H 	H 	0.6548	0.6708	0.3694	0.092
Mof_W 	W 	0.75	0.375	0.375	0.521
Mof_W 	W 	0.25	0.625	0.625	0.52
Mof_C 	C 	0.87802	0.43822	0.3912	-0.023
Mof_C 	C 	0.70091	0.2891	0.54539	-0.051
Mof_C 	C 	0.1858	0.5671	0.3357	-0.077
Mof_C 	C 	0.1222	0.6989	0.2831	-0.023
Mof_C 	C 	0.9643	0.6857	0.3836	0.037
Mof_C 	C 	0.1705	0.4713	0.4364	-0.104
Mof_C 	C 	0.129	0.8054	0.3494	0.22
Mof_C 	C 	0.1028	0.8886	0.3522	-0.683
Mof_C 	C 	0.62198	0.23078	0.4398	-0.037
Mof_C 	C 	0.79909	0.2537	0.41181	-0.042
Mof_C 	C 	0.3142	0.9785	0.6187	-0.002
Mof_C 	C 	0.3778	0.0947	0.4233	-0.049
Mof_C 	C 	0.5357	0.1521	0.2786	-0.036
Mof_C 	C 	0.3295	0.8931	0.6992	-0.13
Mof_C 	C 	0.371	0.0216	0.3236	0.217
Mof_C 	C 	0.3972	0.045	0.2142	-0.79
Mof_C 	C 	0.17058	0.6088	0.76922	-0.047
Mof_C 	C 	0.16551	0.45461	0.7463	-0.057
Mof_C 	C 	0.0972	0.6643	0.0215	-0.172
Mof_C 	C 	0.018	0.7169	0.9053	-0.064
Mof_C 	C 	0.9307	0.6164	0.8479	-0.036
Mof_C 	C 	0.0923	0.5636	0.1069	-0.055
Mof_C 	C 	0.8452	0.6506	0.9784	0.248
Mof_C 	C 	0.7592	0.6478	0.955	-0.592
Mof_C 	C 	0.32942	0.5602	0.56178	-0.036
Mof_C 	C 	0.33449	0.58819	0.7109	-0.048
Mof_C 	C 	0.4028	0.3813	0.4329	-0.079
Mof_C 	C 	0.482	0.5767	0.3011	-0.026
Mof_C 	C 	0.5693	0.7214	0.3143	-0.035
Mof_C 	C 	0.4077	0.3008	0.5287	-0.097
Mof_C 	C 	0.6548	0.6764	0.1946	0.245
Mof_C 	C 	0.7408	0.7858	0.1114	-0.728
Mof_C 	C 	0.12198	0.56178	0.6088	-0.05
Mof_C 	C 	0.29909	0.7109	0.45461	-0.049
Mof_C 	C 	0.8142	0.4329	0.6643	-0.084
Mof_C 	C 	0.8778	0.3011	0.7169	-0.03
Mof_C 	C 	0.0357	0.3143	0.6164	-0.102
Mof_C 	C 	0.8295	0.5287	0.5636	-0.088
Mof_C 	C 	0.871	0.1946	0.6506	0.26
Mof_C 	C 	0.8972	0.1114	0.6478	-0.75
Mof_C 	C 	0.37802	0.76922	0.5602	-0.035
Mof_C 	C 	0.20091	0.7463	0.58819	-0.058
Mof_C 	C 	0.6858	0.0215	0.3813	-0.157
Mof_C 	C 	0.6222	0.9053	0.5767	-0.005
Mof_C 	C 	0.4643	0.8479	0.7214	-0.032
Mof_C 	C 	0.6705	0.1069	0.3008	-0.064
Mof_C 	C 	0.629	0.9784	0.6764	0.261
Mof_C 	C 	0.6028	0.955	0.7858	-0.635
Mof_C 	C 	0.82942	0.3912	0.23078	-0.026
Mof_C 	C 	0.83449	0.54539	0.2537	-0.043
Mof_C 	C 	0.9028	0.3357	0.9785	0.009
Mof_C 	C 	0.982	0.2831	0.0947	0.013
Mof_C 	C 	0.0693	0.3836	0.1521	-0.029
Mof_C 	C 	0.9077	0.4364	0.8931	-0.134
Mof_C 	C 	0.1548	0.3494	0.0216	0.231
Mof_C 	C 	0.2408	0.3522	0.045	-0.836
Mof_C 	C 	0.67058	0.4398	0.43822	-0.036
Mof_C 	C 	0.66551	0.41181	0.2891	-0.052
Mof_C 	C 	0.5972	0.6187	0.5671	-0.083
Mof_C 	C 	0.518	0.4233	0.6989	-0.03
Mof_C 	C 	0.4307	0.2786	0.6857	-0.033
Mof_C 	C 	0.5923	0.6992	0.4713	-0.097
Mof_C 	C 	0.3452	0.3236	0.8054	0.234
Mof_C 	C 	0.2592	0.2142	0.8886	-0.703
Mof_N 	N 	0.94299	0.46926	0.40633	-0.188
Mof_N 	N 	0.67695	0.24542	0.63637	-0.109
Mof_N 	N 	0.13475	0.62064	0.36709	-0.261
Mof_N 	N 	0.07015	0.74926	0.31491	-0.182
Mof_N 	N 	0.06256	0.40121	0.50605	-0.246
Mof_N 	N 	0.55701	0.15068	0.47373	-0.218
Mof_N 	N 	0.82305	0.18668	0.43153	-0.104
Mof_N 	N 	0.36525	0.99816	0.51411	-0.245
Mof_N 	N 	0.42985	0.11494	0.32089	-0.147
Mof_N 	N 	0.43744	0.93139	0.66135	-0.243
Mof_N 	N 	0.12441	0.59367	0.84932	-0.214
Mof_N 	N 	0.11821	0.36363	0.81332	-0.118
Mof_N 	N 	0.01227	0.63291	0.00184	-0.305
Mof_N 	N 	0.93583	0.68509	0.88506	-0.113
Mof_N 	N 	0.09274	0.49395	0.06861	-0.265
Mof_N 	N 	0.37559	0.52627	0.53074	-0.215
Mof_N 	N 	0.38179	0.56847	0.75458	-0.106
Mof_N 	N 	0.48773	0.48589	0.37936	-0.254
Mof_N 	N 	0.56417	0.67911	0.25074	-0.15
Mof_N 	N 	0.40726	0.33865	0.59879	-0.251
Mof_N 	N 	0.05701	0.53074	0.59367	-0.233
Mof_N 	N 	0.32305	0.75458	0.36363	-0.108
Mof_N 	N 	0.86525	0.37936	0.63291	-0.24
Mof_N 	N 	0.92985	0.25074	0.68509	-0.114
Mof_N 	N 	0.93744	0.59879	0.49395	-0.25
Mof_N 	N 	0.44299	0.84932	0.52627	-0.207
Mof_N 	N 	0.17695	0.81332	0.56847	-0.113
Mof_N 	N 	0.63475	0.00184	0.48589	-0.259
Mof_N 	N 	0.57015	0.88506	0.67911	-0.149
Mof_N 	N 	0.56256	0.06861	0.33865	-0.255
Mof_N 	N 	0.87559	0.40633	0.15068	-0.204
Mof_N 	N 	0.88179	0.63637	0.18668	-0.1
Mof_N 	N 	0.98773	0.36709	0.99816	-0.193
Mof_N 	N 	0.06417	0.31491	0.11494	-0.183
Mof_N 	N 	0.90726	0.50605	0.93139	-0.228
Mof_N 	N 	0.62441	0.47373	0.46926	-0.214
Mof_N 	N 	0.61821	0.43153	0.24542	-0.111
Mof_N 	N 	0.51227	0.51411	0.62064	-0.252
Mof_N 	N 	0.43583	0.32089	0.74926	-0.147
Mof_N 	N 	0.59274	0.66135	0.40121	-0.251
_end
