# CIF file generated by openbabel 3.1.0, see https://openbabel.org
data_I
_chemical_name_common 'image0'
_cell_length_a 21.7025
_cell_length_b 10.0356
_cell_length_c 14.0343
_cell_angle_alpha 90
_cell_angle_beta 91.711
_cell_angle_gamma 90
_space_group_name_H-M_alt 'P 1'
_space_group_name_Hall 'P 1'
loop_
    _symmetry_equiv_pos_as_xyz
    x,y,z
loop_
    _atom_site_label
    _atom_site_type_symbol
    _atom_site_fract_x
    _atom_site_fract_y
    _atom_site_fract_z
    _atom_site_occupancy
    Ho1      Ho       0.75910    0.56538    0.27170    1.000
    Ho2      Ho       0.74939    0.75242    0.02700    1.000
    O1       O        0.71838    0.53820    0.11361    1.000
    O2       O        0.65035    0.51700    0.29930    1.000
    O3       O        0.69847    0.62720    0.40959    1.000
    O4       O        0.81002    0.76290    0.86172    1.000
    O5       O        0.28741    0.26420    0.27770    1.000
    O6       O        0.80809    0.45500    0.39878    1.000
    O7       O        0.81111    0.56690    0.53460    1.000
    O8       O        0.30999    0.40370    0.38730    1.000
    O9       O        0.78404    0.57690    0.92857    1.000
    O10      O        0.65671    0.63330    0.00990    1.000
    O11      O        0.13967    0.48760    0.78532    1.000
    O12      O        0.17742    0.32190    0.86466    1.000
    C1       C        0.64874    0.57540    0.37650    1.000
    C2       C        0.59130    0.58760    0.43360    1.000
    H1       H        0.58760    0.68130    0.45470    1.000
    H2       H        0.59660    0.53190    0.49150    1.000
    C3       C        0.53161    0.54810    0.38320    1.000
    C4       C        0.48822    0.64230    0.35660    1.000
    H3       H        0.49630    0.73370    0.36950    1.000
    C5       C        0.51788    0.41580    0.36480    1.000
    H4       H        0.54680    0.34870    0.38290    1.000
    C6       C        0.82818    0.47570    0.48170    1.000
    C7       C        0.87797    0.38410    0.52200    1.000
    H5       H        0.87100    0.36770    0.59040    1.000
    H6       H        0.87610    0.29740    0.48840    1.000
    C8       C        0.94097    0.44610    0.51070    1.000
    C9       C        0.98335    0.45070    0.58690    1.000
    H7       H        0.97200    0.41730    0.64730    1.000
    C10      C        0.95840    0.49690    0.42350    1.000
    H8       H        0.93000    0.49570    0.37070    1.000
    C11      C        0.13514    0.40750    0.85160    1.000
    C12      C        0.08297    0.40780    0.91830    1.000
    H9       H        0.07930    0.31720    0.94550    1.000
    H10      H        0.09370    0.46890    0.97170    1.000
    C13      C        0.02059    0.44800    0.87720    1.000
    C14      C        0.97549    0.35360    0.86280    1.000
    H11      H        0.98490    0.26260    0.87490    1.000
    C15      C        0.80821    0.63730    0.86090    1.000
    C16      C        0.83705    0.55940    0.78210    1.000
    H12      H        0.83810    0.61450    0.72360    1.000
    H13      H        0.81220    0.47870    0.76770    1.000
    C17      C        0.90212    0.51940    0.81270    1.000
    C18      C        0.94761    0.61430    0.82480    1.000
    H14      H        0.93850    0.70510    0.81140    1.000
    C19      C        0.91703    0.38770    0.83120    1.000
    H15      H        0.88670    0.32030    0.82200    1.000
    C20      C        0.00650    0.57880    0.85640    1.000
    H16      H        0.03740    0.64540    0.86370    1.000
    C21      C        0.66695    0.54230    0.06810    1.000
    C22      C        0.62002    0.43530    0.08360    1.000
    H17      H        0.63490    0.35110    0.05560    1.000
    H18      H        0.61620    0.42100    0.15290    1.000
    C23      C        0.55768    0.46670    0.04090    1.000
    C24      C        0.54366    0.44130    0.94520    1.000
    H19      H        0.57370    0.40060    0.90680    1.000
    C25      C        0.51300    0.52590    0.09470    1.000
    H20      H        0.52150    0.54420    0.16020    1.000
    C26      C        0.31709    0.36240    0.30530    1.000
    C27      C        0.36011    0.43490    0.24170    1.000
    H21      H        0.33920    0.51560    0.21620    1.000
    H22      H        0.36970    0.37690    0.18700    1.000
    C28      C        0.41967    0.47540    0.29240    1.000
    C29      C        0.46268    0.37970    0.32040    1.000
    H23      H        0.45410    0.28820    0.30890    1.000
    C30      C        0.43322    0.60670    0.31150    1.000
    H24      H        0.40430    0.67390    0.29350    1.000
    Ho3      Ho       0.24090    0.06538    0.22830    1.000
    Ho4      Ho       0.25061    0.25242    0.47300    1.000
    O13      O        0.28162    0.03820    0.38639    1.000
    O14      O        0.34965    0.01700    0.20070    1.000
    O15      O        0.30153    0.12720    0.09041    1.000
    O16      O        0.18998    0.26290    0.63828    1.000
    O17      O        0.71259    0.76420    0.22230    1.000
    O18      O        0.19191    0.95500    0.10122    1.000
    O19      O        0.18889    0.06690    0.96540    1.000
    O20      O        0.69001    0.90370    0.11270    1.000
    O21      O        0.21596    0.07690    0.57143    1.000
    O22      O        0.34329    0.13330    0.49010    1.000
    O23      O        0.86033    0.98760    0.71468    1.000
    O24      O        0.82258    0.82190    0.63534    1.000
    C31      C        0.35126    0.07540    0.12350    1.000
    C32      C        0.40870    0.08760    0.06640    1.000
    H25      H        0.41240    0.18130    0.04530    1.000
    H26      H        0.40340    0.03190    0.00850    1.000
    C33      C        0.46839    0.04810    0.11680    1.000
    C34      C        0.51178    0.14230    0.14340    1.000
    H27      H        0.50370    0.23370    0.13050    1.000
    C35      C        0.48212    0.91580    0.13520    1.000
    H28      H        0.45320    0.84870    0.11710    1.000
    C36      C        0.17182    0.97570    0.01830    1.000
    C37      C        0.12203    0.88410    0.97800    1.000
    H29      H        0.12900    0.86770    0.90960    1.000
    H30      H        0.12390    0.79740    0.01160    1.000
    C38      C        0.05903    0.94610    0.98930    1.000
    C39      C        0.01665    0.95070    0.91310    1.000
    H31      H        0.02800    0.91730    0.85270    1.000
    C40      C        0.04160    0.99690    0.07650    1.000
    H32      H        0.07000    0.99570    0.12930    1.000
    C41      C        0.86486    0.90750    0.64840    1.000
    C42      C        0.91703    0.90780    0.58170    1.000
    H33      H        0.92070    0.81720    0.55450    1.000
    H34      H        0.90630    0.96890    0.52830    1.000
    C43      C        0.97941    0.94800    0.62280    1.000
    C44      C        0.02451    0.85360    0.63720    1.000
    H35      H        0.01510    0.76260    0.62510    1.000
    C45      C        0.19179    0.13730    0.63910    1.000
    C46      C        0.16295    0.05940    0.71790    1.000
    H36      H        0.16190    0.11450    0.77640    1.000
    H37      H        0.18780    0.97870    0.73230    1.000
    C47      C        0.09788    0.01940    0.68730    1.000
    C48      C        0.05239    0.11430    0.67520    1.000
    H38      H        0.06150    0.20510    0.68860    1.000
    C49      C        0.08297    0.88770    0.66880    1.000
    H39      H        0.11330    0.82030    0.67800    1.000
    C50      C        0.99350    0.07880    0.64360    1.000
    H40      H        0.96260    0.14540    0.63630    1.000
    C51      C        0.33305    0.04230    0.43190    1.000
    C52      C        0.37998    0.93530    0.41640    1.000
    H41      H        0.36510    0.85110    0.44440    1.000
    H42      H        0.38380    0.92100    0.34710    1.000
    C53      C        0.44232    0.96670    0.45910    1.000
    C54      C        0.45634    0.94130    0.55480    1.000
    H43      H        0.42630    0.90060    0.59320    1.000
    C55      C        0.48700    0.02590    0.40530    1.000
    H44      H        0.47850    0.04420    0.33980    1.000
    C56      C        0.68291    0.86240    0.19470    1.000
    C57      C        0.63989    0.93490    0.25830    1.000
    H45      H        0.66080    0.01560    0.28380    1.000
    H46      H        0.63030    0.87690    0.31300    1.000
    C58      C        0.58033    0.97540    0.20760    1.000
    C59      C        0.53732    0.87970    0.17960    1.000
    H47      H        0.54590    0.78820    0.19110    1.000
    C60      C        0.56678    0.10670    0.18850    1.000
    H48      H        0.59570    0.17390    0.20650    1.000
    Ho5      Ho       0.24090    0.43462    0.72830    1.000
    Ho6      Ho       0.25061    0.24758    0.97300    1.000
    O25      O        0.28162    0.46180    0.88639    1.000
    O26      O        0.34965    0.48300    0.70070    1.000
    O27      O        0.30153    0.37280    0.59041    1.000
    O28      O        0.18998    0.23710    0.13828    1.000
    O29      O        0.71259    0.73580    0.72230    1.000
    O30      O        0.19191    0.54500    0.60122    1.000
    O31      O        0.18889    0.43310    0.46540    1.000
    O32      O        0.69001    0.59630    0.61270    1.000
    O33      O        0.21596    0.42310    0.07143    1.000
    O34      O        0.34329    0.36670    0.99010    1.000
    O35      O        0.86033    0.51240    0.21468    1.000
    O36      O        0.82258    0.67810    0.13534    1.000
    C61      C        0.35126    0.42460    0.62350    1.000
    C62      C        0.40870    0.41240    0.56640    1.000
    H49      H        0.41240    0.31870    0.54530    1.000
    H50      H        0.40340    0.46810    0.50850    1.000
    C63      C        0.46839    0.45190    0.61680    1.000
    C64      C        0.51178    0.35770    0.64340    1.000
    H51      H        0.50370    0.26630    0.63050    1.000
    C65      C        0.48212    0.58420    0.63520    1.000
    H52      H        0.45320    0.65130    0.61710    1.000
    C66      C        0.17182    0.52430    0.51830    1.000
    C67      C        0.12203    0.61590    0.47800    1.000
    H53      H        0.12900    0.63230    0.40960    1.000
    H54      H        0.12390    0.70260    0.51160    1.000
    C68      C        0.05903    0.55390    0.48930    1.000
    C69      C        0.01665    0.54930    0.41310    1.000
    H55      H        0.02800    0.58270    0.35270    1.000
    C70      C        0.04160    0.50310    0.57650    1.000
    H56      H        0.07000    0.50430    0.62930    1.000
    C71      C        0.86486    0.59250    0.14840    1.000
    C72      C        0.91703    0.59220    0.08170    1.000
    H57      H        0.92070    0.68280    0.05450    1.000
    H58      H        0.90630    0.53110    0.02830    1.000
    C73      C        0.97941    0.55200    0.12280    1.000
    C74      C        0.02451    0.64640    0.13720    1.000
    H59      H        0.01510    0.73740    0.12510    1.000
    C75      C        0.19179    0.36270    0.13910    1.000
    C76      C        0.16295    0.44060    0.21790    1.000
    H60      H        0.16190    0.38550    0.27640    1.000
    H61      H        0.18780    0.52130    0.23230    1.000
    C77      C        0.09788    0.48060    0.18730    1.000
    C78      C        0.05239    0.38570    0.17520    1.000
    H62      H        0.06150    0.29490    0.18860    1.000
    C79      C        0.08297    0.61230    0.16880    1.000
    H63      H        0.11330    0.67970    0.17800    1.000
    C80      C        0.99350    0.42120    0.14360    1.000
    H64      H        0.96260    0.35460    0.13630    1.000
    C81      C        0.33305    0.45770    0.93190    1.000
    C82      C        0.37998    0.56470    0.91640    1.000
    H65      H        0.36510    0.64890    0.94440    1.000
    H66      H        0.38380    0.57900    0.84710    1.000
    C83      C        0.44232    0.53330    0.95910    1.000
    C84      C        0.45634    0.55870    0.05480    1.000
    H67      H        0.42630    0.59940    0.09320    1.000
    C85      C        0.48700    0.47410    0.90530    1.000
    H68      H        0.47850    0.45580    0.83980    1.000
    C86      C        0.68291    0.63760    0.69470    1.000
    C87      C        0.63989    0.56510    0.75830    1.000
    H69      H        0.66080    0.48440    0.78380    1.000
    H70      H        0.63030    0.62310    0.81300    1.000
    C88      C        0.58033    0.52460    0.70760    1.000
    C89      C        0.53732    0.62030    0.67960    1.000
    H71      H        0.54590    0.71180    0.69110    1.000
    C90      C        0.56678    0.39330    0.68850    1.000
    H72      H        0.59570    0.32610    0.70650    1.000
    Ho7      Ho       0.75910    0.93462    0.77170    1.000
    Ho8      Ho       0.74939    0.74758    0.52700    1.000
    O37      O        0.71838    0.96180    0.61361    1.000
    O38      O        0.65035    0.98300    0.79930    1.000
    O39      O        0.69847    0.87280    0.90959    1.000
    O40      O        0.81002    0.73710    0.36172    1.000
    O41      O        0.28741    0.23580    0.77770    1.000
    O42      O        0.80809    0.04500    0.89878    1.000
    O43      O        0.81111    0.93310    0.03460    1.000
    O44      O        0.30999    0.09630    0.88730    1.000
    O45      O        0.78404    0.92310    0.42857    1.000
    O46      O        0.65671    0.86670    0.50990    1.000
    O47      O        0.13967    0.01240    0.28532    1.000
    O48      O        0.17742    0.17810    0.36466    1.000
    C91      C        0.64874    0.92460    0.87650    1.000
    C92      C        0.59130    0.91240    0.93360    1.000
    H73      H        0.58760    0.81870    0.95470    1.000
    H74      H        0.59660    0.96810    0.99150    1.000
    C93      C        0.53161    0.95190    0.88320    1.000
    C94      C        0.48822    0.85770    0.85660    1.000
    H75      H        0.49630    0.76630    0.86950    1.000
    C95      C        0.51788    0.08420    0.86480    1.000
    H76      H        0.54680    0.15130    0.88290    1.000
    C96      C        0.82818    0.02430    0.98170    1.000
    C97      C        0.87797    0.11590    0.02200    1.000
    H77      H        0.87100    0.13230    0.09040    1.000
    H78      H        0.87610    0.20260    0.98840    1.000
    C98      C        0.94097    0.05390    0.01070    1.000
    C99      C        0.98335    0.04930    0.08690    1.000
    H79      H        0.97200    0.08270    0.14730    1.000
    C100     C        0.95840    0.00310    0.92350    1.000
    H80      H        0.93000    0.00430    0.87070    1.000
    C101     C        0.13514    0.09250    0.35160    1.000
    C102     C        0.08297    0.09220    0.41830    1.000
    H81      H        0.07930    0.18280    0.44550    1.000
    H82      H        0.09370    0.03110    0.47170    1.000
    C103     C        0.02059    0.05200    0.37720    1.000
    C104     C        0.97549    0.14640    0.36280    1.000
    H83      H        0.98490    0.23740    0.37490    1.000
    C105     C        0.80821    0.86270    0.36090    1.000
    C106     C        0.83705    0.94060    0.28210    1.000
    H84      H        0.83810    0.88550    0.22360    1.000
    H85      H        0.81220    0.02130    0.26770    1.000
    C107     C        0.90212    0.98060    0.31270    1.000
    C108     C        0.94761    0.88570    0.32480    1.000
    H86      H        0.93850    0.79490    0.31140    1.000
    C109     C        0.91703    0.11230    0.33120    1.000
    H87      H        0.88670    0.17970    0.32200    1.000
    C110     C        0.00650    0.92120    0.35640    1.000
    H88      H        0.03740    0.85460    0.36370    1.000
    C111     C        0.66695    0.95770    0.56810    1.000
    C112     C        0.62002    0.06470    0.58360    1.000
    H89      H        0.63490    0.14890    0.55560    1.000
    H90      H        0.61620    0.07900    0.65290    1.000
    C113     C        0.55768    0.03330    0.54090    1.000
    C114     C        0.54366    0.05870    0.44520    1.000
    H91      H        0.57370    0.09940    0.40680    1.000
    C115     C        0.51300    0.97410    0.59470    1.000
    H92      H        0.52150    0.95580    0.66020    1.000
    C116     C        0.31709    0.13760    0.80530    1.000
    C117     C        0.36011    0.06510    0.74170    1.000
    H93      H        0.33920    0.98440    0.71620    1.000
    H94      H        0.36970    0.12310    0.68700    1.000
    C118     C        0.41967    0.02460    0.79240    1.000
    C119     C        0.46268    0.12030    0.82040    1.000
    H95      H        0.45410    0.21180    0.80890    1.000
    C120     C        0.43322    0.89330    0.81150    1.000
    H96      H        0.40430    0.82610    0.79350    1.000
