data_functionalizedCrystal
_audit_creation_method	'EQeq! by Chris Wilmer'
_symmetry_space_group_name_H-M	'P1'
_symmetry_Int_Tables_number	1
_symmetry_cell_setting	triclinic
loop_
_symmetry_equiv_pos_as_xyz
  x,y,z
_cell_length_a	20.855
_cell_length_b	19.6
_cell_length_c	6.0409
_cell_angle_alpha	90
_cell_angle_beta	114.215
_cell_angle_gamma	90
loop_
_atom_site_label
_atom_site_type_symbol
_atom_site_fract_x
_atom_site_fract_y
_atom_site_fract_z
_atom_site_charge
Mof_N 	N 	0.606	0.0519	0.122	-0.294
Mof_H 	H 	0.6209	0.0654	0.277	0.075
Mof_H 	H 	0.6379	0.0228	0.11	0.066
Mof_N 	N 	0.659	0.2085	0.874	-0.277
Mof_H 	H 	0.6264	0.2379	0.8783	0.088
Mof_H 	H 	0.6467	0.195	0.7191	0.074
Mof_N 	N 	0.8522	0.2	0.621	-0.291
Mof_H 	H 	0.8847	0.2288	0.6124	0.092
Mof_H 	H 	0.8665	0.1853	0.7754	0.09
Mof_N 	N 	0.903	0.0504	0.39	-0.264
Mof_H 	H 	0.8886	0.0647	0.2355	0.068
Mof_H 	H 	0.8703	0.0218	0.3985	0.068
Mof_C 	C 	0.5974	0.1105	0.964	0.064
Mof_H 	H 	0.5621	0.1408	0.9755	-0.014
Mof_H 	H 	0.581	0.0952	0.7972	-0.036
Mof_C 	C 	0.6656	0.1489	0.033	-0.145
Mof_H 	H 	0.6815	0.1644	0.1995	0.007
Mof_H 	H 	0.7009	0.1181	0.0247	0.018
Mof_C 	C 	0.8407	0.1429	0.455	-0.005
Mof_H 	H 	0.827	0.1583	0.2897	-0.029
Mof_H 	H 	0.8051	0.112	0.4617	-0.013
Mof_C 	C 	0.9121	0.1098	0.554	-0.079
Mof_H 	H 	0.9475	0.1409	0.5474	0.03
Mof_H 	H 	0.9257	0.095	0.72	0.02
Mof_N 	N 	0.106	0.5519	0.122	-0.298
Mof_H 	H 	0.1209	0.5654	0.277	0.08
Mof_H 	H 	0.1379	0.5228	0.11	0.078
Mof_N 	N 	0.159	0.7085	0.874	-0.275
Mof_H 	H 	0.1264	0.7379	0.8783	0.085
Mof_H 	H 	0.1467	0.695	0.7191	0.072
Mof_N 	N 	0.3522	0.7	0.621	-0.287
Mof_H 	H 	0.3847	0.7288	0.6124	0.087
Mof_H 	H 	0.3665	0.6853	0.7754	0.087
Mof_N 	N 	0.403	0.5504	0.39	-0.285
Mof_H 	H 	0.3886	0.5647	0.2355	0.068
Mof_H 	H 	0.3703	0.5218	0.3985	0.078
Mof_C 	C 	0.0974	0.6105	0.964	0.075
Mof_H 	H 	0.0621	0.6408	0.9755	-0.025
Mof_H 	H 	0.081	0.5952	0.7972	-0.04
Mof_C 	C 	0.1656	0.6489	0.033	-0.153
Mof_H 	H 	0.1815	0.6644	0.1995	0.009
Mof_H 	H 	0.2009	0.6181	0.0247	0.023
Mof_C 	C 	0.3407	0.6429	0.455	-0.018
Mof_H 	H 	0.327	0.6583	0.2897	-0.025
Mof_H 	H 	0.3051	0.612	0.4617	-0.006
Mof_C 	C 	0.4121	0.6098	0.554	-0.06
Mof_H 	H 	0.4475	0.6409	0.5474	0.01
Mof_H 	H 	0.4257	0.595	0.72	0.001
Mof_N 	N 	0.394	0.0519	0.378	-0.268
Mof_H 	H 	0.3791	0.0654	0.223	0.064
Mof_H 	H 	0.3621	0.0228	0.39	0.066
Mof_N 	N 	0.341	0.2085	0.626	-0.319
Mof_H 	H 	0.3736	0.2379	0.6217	0.089
Mof_H 	H 	0.3533	0.195	0.7809	0.088
Mof_N 	N 	0.1478	0.2	0.879	-0.248
Mof_H 	H 	0.1153	0.2288	0.8876	0.081
Mof_H 	H 	0.1335	0.1853	0.7246	0.07
Mof_N 	N 	0.097	0.0504	0.11	-0.296
Mof_H 	H 	0.1114	0.0647	0.2645	0.072
Mof_H 	H 	0.1297	0.0218	0.1015	0.066
Mof_C 	C 	0.4026	0.1105	0.536	-0.049
Mof_H 	H 	0.4379	0.1408	0.5245	0.008
Mof_H 	H 	0.419	0.0952	0.7028	0
Mof_C 	C 	0.3344	0.1489	0.467	-0.036
Mof_H 	H 	0.3185	0.1644	0.3005	-0.022
Mof_H 	H 	0.2991	0.1181	0.4753	-0.005
Mof_C 	C 	0.1593	0.1429	0.045	-0.13
Mof_H 	H 	0.173	0.1583	0.2103	0.005
Mof_H 	H 	0.1949	0.112	0.0383	0.015
Mof_C 	C 	0.0879	0.1098	0.946	0.051
Mof_H 	H 	0.0525	0.1409	0.9526	-0.02
Mof_H 	H 	0.0743	0.095	0.78	-0.038
Mof_N 	N 	0.894	0.5519	0.378	-0.263
Mof_H 	H 	0.8791	0.5654	0.223	0.074
Mof_H 	H 	0.8621	0.5228	0.39	0.08
Mof_N 	N 	0.841	0.7085	0.626	-0.322
Mof_H 	H 	0.8736	0.7379	0.6217	0.095
Mof_H 	H 	0.8533	0.695	0.7809	0.092
Mof_N 	N 	0.6478	0.7	0.879	-0.249
Mof_H 	H 	0.6153	0.7288	0.8876	0.086
Mof_H 	H 	0.6335	0.6853	0.7246	0.073
Mof_N 	N 	0.597	0.5504	0.11	-0.307
Mof_H 	H 	0.6114	0.5647	0.2645	0.078
Mof_H 	H 	0.6297	0.5218	0.1015	0.077
Mof_C 	C 	0.9026	0.6105	0.536	-0.056
Mof_H 	H 	0.9379	0.6408	0.5245	0.021
Mof_H 	H 	0.919	0.5952	0.7028	0.016
Mof_C 	C 	0.8344	0.6489	0.467	-0.031
Mof_H 	H 	0.8185	0.6644	0.3005	-0.023
Mof_H 	H 	0.7991	0.6181	0.4753	-0.003
Mof_C 	C 	0.6593	0.6429	0.045	-0.132
Mof_H 	H 	0.673	0.6583	0.2103	0.007
Mof_H 	H 	0.6949	0.612	0.0383	0.02
Mof_C 	C 	0.5879	0.6098	0.946	0.055
Mof_H 	H 	0.5525	0.6409	0.9526	-0.014
Mof_H 	H 	0.5743	0.595	0.78	-0.038
Mof_N 	N 	0.394	0.9481	0.878	-0.237
Mof_H 	H 	0.3791	0.9346	0.723	0.086
Mof_H 	H 	0.3621	0.9772	0.89	0.101
Mof_N 	N 	0.341	0.7915	0.126	-0.331
Mof_H 	H 	0.3736	0.7621	0.1217	0.081
Mof_H 	H 	0.3533	0.805	0.2809	0.081
Mof_N 	N 	0.1478	0.8	0.379	-0.278
Mof_H 	H 	0.1153	0.7712	0.3876	0.075
Mof_H 	H 	0.1335	0.8147	0.2246	0.068
Mof_N 	N 	0.097	0.9496	0.61	-0.281
Mof_H 	H 	0.1114	0.9353	0.7645	0.096
Mof_H 	H 	0.1297	0.9782	0.6015	0.102
Mof_C 	C 	0.4026	0.8895	0.036	-0.14
Mof_H 	H 	0.4379	0.8592	0.0245	0.027
Mof_H 	H 	0.419	0.9048	0.2028	0.027
Mof_C 	C 	0.3344	0.8511	0.967	0.057
Mof_H 	H 	0.3185	0.8356	0.8005	-0.041
Mof_H 	H 	0.2991	0.8819	0.9753	-0.013
Mof_C 	C 	0.1593	0.8571	0.545	-0.041
Mof_H 	H 	0.173	0.8417	0.7103	-0.007
Mof_H 	H 	0.1949	0.888	0.5383	0.007
Mof_C 	C 	0.0879	0.8902	0.446	-0.037
Mof_H 	H 	0.0525	0.8591	0.4526	-0.002
Mof_H 	H 	0.0743	0.905	0.28	-0.006
Mof_N 	N 	0.894	0.4481	0.878	-0.233
Mof_H 	H 	0.8791	0.4346	0.723	0.08
Mof_H 	H 	0.8621	0.4772	0.89	0.087
Mof_N 	N 	0.841	0.2915	0.126	-0.333
Mof_H 	H 	0.8736	0.2621	0.1217	0.085
Mof_H 	H 	0.8533	0.305	0.2809	0.082
Mof_N 	N 	0.6478	0.3	0.379	-0.28
Mof_H 	H 	0.6153	0.2712	0.3876	0.079
Mof_H 	H 	0.6335	0.3147	0.2246	0.068
Mof_N 	N 	0.597	0.4496	0.61	-0.292
Mof_H 	H 	0.6114	0.4353	0.7645	0.087
Mof_H 	H 	0.6297	0.4782	0.6015	0.085
Mof_C 	C 	0.9026	0.3895	0.036	-0.149
Mof_H 	H 	0.9379	0.3592	0.0245	0.038
Mof_H 	H 	0.919	0.4048	0.2028	0.03
Mof_C 	C 	0.8344	0.3511	0.967	0.063
Mof_H 	H 	0.8185	0.3356	0.8005	-0.044
Mof_H 	H 	0.7991	0.3819	0.9753	-0.019
Mof_C 	C 	0.6593	0.3571	0.545	-0.037
Mof_H 	H 	0.673	0.3417	0.7103	-0.009
Mof_H 	H 	0.6949	0.388	0.5383	0.001
Mof_C 	C 	0.5879	0.3902	0.446	-0.042
Mof_H 	H 	0.5525	0.3591	0.4526	0.003
Mof_H 	H 	0.5743	0.405	0.28	-0.016
Mof_N 	N 	0.606	0.9481	0.622	-0.275
Mof_H 	H 	0.6209	0.9346	0.777	0.099
Mof_H 	H 	0.6379	0.9772	0.61	0.101
Mof_N 	N 	0.659	0.7915	0.374	-0.312
Mof_H 	H 	0.6264	0.7621	0.3783	0.081
Mof_H 	H 	0.6467	0.805	0.2191	0.071
Mof_N 	N 	0.8522	0.8	0.121	-0.308
Mof_H 	H 	0.8847	0.7712	0.1124	0.085
Mof_H 	H 	0.8665	0.8147	0.2754	0.085
Mof_N 	N 	0.903	0.9496	0.89	-0.233
Mof_H 	H 	0.8886	0.9353	0.7355	0.089
Mof_H 	H 	0.8703	0.9782	0.8985	0.102
Mof_C 	C 	0.5974	0.8895	0.464	-0.025
Mof_H 	H 	0.5621	0.8592	0.4755	0.003
Mof_H 	H 	0.581	0.9048	0.2972	-0.005
Mof_C 	C 	0.6656	0.8511	0.533	-0.059
Mof_H 	H 	0.6815	0.8356	0.6995	-0.004
Mof_H 	H 	0.7009	0.8819	0.5247	0.01
Mof_C 	C 	0.8407	0.8571	0.955	0.085
Mof_H 	H 	0.827	0.8417	0.7897	-0.048
Mof_H 	H 	0.8051	0.888	0.9617	-0.02
Mof_C 	C 	0.9121	0.8902	0.054	-0.164
Mof_H 	H 	0.9475	0.8591	0.0474	0.049
Mof_H 	H 	0.9257	0.905	0.22	0.045
Mof_N 	N 	0.106	0.4481	0.622	-0.281
Mof_H 	H 	0.1209	0.4346	0.777	0.088
Mof_H 	H 	0.1379	0.4772	0.61	0.086
Mof_N 	N 	0.159	0.2915	0.374	-0.309
Mof_H 	H 	0.1264	0.2621	0.3783	0.077
Mof_H 	H 	0.1467	0.305	0.2191	0.067
Mof_N 	N 	0.3522	0.3	0.121	-0.305
Mof_H 	H 	0.3847	0.2712	0.1124	0.079
Mof_H 	H 	0.3665	0.3147	0.2754	0.079
Mof_N 	N 	0.403	0.4496	0.89	-0.253
Mof_H 	H 	0.3886	0.4353	0.7355	0.074
Mof_H 	H 	0.3703	0.4782	0.8985	0.085
Mof_C 	C 	0.0974	0.3895	0.464	-0.019
Mof_H 	H 	0.0621	0.3592	0.4755	-0.01
Mof_H 	H 	0.081	0.4048	0.2972	-0.021
Mof_C 	C 	0.1656	0.3511	0.533	-0.064
Mof_H 	H 	0.1815	0.3356	0.6995	-0.004
Mof_H 	H 	0.2009	0.3819	0.5247	0.007
Mof_C 	C 	0.3407	0.3571	0.955	0.082
Mof_H 	H 	0.327	0.3417	0.7897	-0.049
Mof_H 	H 	0.3051	0.388	0.9617	-0.024
Mof_C 	C 	0.4121	0.3902	0.054	-0.156
Mof_H 	H 	0.4475	0.3591	0.0474	0.029
Mof_H 	H 	0.4257	0.405	0.22	0.017
Mof_Ag	Ag	0.5	0	-0	0.231
Mof_Ag	Ag	-0	0.5	-0	0.234
Mof_Ag	Ag	0.5	0	0.5	0.311
Mof_Ag	Ag	7.65759e-34	0.5	0.5	0.312
Mof_Ag	Ag	0.75	0.25	-0	0.397
Mof_Ag	Ag	0.25	0.25	0.5	0.483
Mof_Ag	Ag	0.25	0.75	-0	0.398
Mof_Ag	Ag	0.75	0.75	0.5	0.487
Mof_Ag	Ag	0.75	0.25	0.5	0.362
Mof_Ag	Ag	0.25	0.25	-0	0.278
Mof_Ag	Ag	0.25	0.75	0.5	0.364
Mof_Ag	Ag	0.75	0.75	-0	0.284
Mof_Ag	Ag	-1.26206e-17	0	0.5	0.301
Mof_Ag	Ag	0.5	0.5	0.5	0.396
Mof_Ag	Ag	-0	0	-0	0.222
Mof_Ag	Ag	0.5	0.5	-0	0.311
_end
