data_functionalizedCrystal
_audit_creation_method	'EQeq! by Chris Wilmer'
_symmetry_space_group_name_H-M	'P1'
_symmetry_Int_Tables_number	1
_symmetry_cell_setting	triclinic
loop_
_symmetry_equiv_pos_as_xyz
  x,y,z
_cell_length_a	13.5329
_cell_length_b	13.5329
_cell_length_c	8.0816
_cell_angle_alpha	90
_cell_angle_beta	90
_cell_angle_gamma	120
loop_
_atom_site_label
_atom_site_type_symbol
_atom_site_fract_x
_atom_site_fract_y
_atom_site_fract_z
_atom_site_charge
Mof_Mn	Mn	0.30086	0.33799	0.54514	0.788
Mof_O 	O 	0.22937	0.18133	0.4059	-0.339
Mof_C 	C 	0.53474	0.32295	0.5479	-0.144
Mof_C 	C 	0.3536	0.5597	0.7767	-0.136
Mof_O 	O 	0.24559	0.05855	0.2463	-0.343
Mof_C 	C 	0.2671	0.1581	0.28	0.348
Mof_N 	N 	0.3467	0.209	0.0007	-0.269
Mof_H 	H 	0.4111	0.257	0.946	0.098
Mof_H 	H 	0.2865	0.1991	0.9405	0.138
Mof_C 	C 	0.3455	0.2552	0.1638	-0.108
Mof_H 	H 	0.4229	0.2874	0.2084	0.049
Mof_N 	N 	0.3658	0.42797	0.3039	-0.293
Mof_H 	H 	0.3482	0.4838	0.2962	0.1
Mof_H 	H 	0.4424	0.4611	0.3029	0.105
Mof_C 	C 	0.3196	0.3531	0.1574	-0.019
Mof_H 	H 	0.3529	0.3977	0.0579	0.028
Mof_H 	H 	0.2377	0.322	0.1523	0.041
Mof_N 	N 	0.4556	0.3218	0.6025	-0.148
Mof_N 	N 	0.3674	0.4998	0.6922	-0.154
Mof_Mn	Mn	0.66201	0.96287	0.54514	0.787
Mof_O 	O 	0.81867	0.04804	0.4059	-0.34
Mof_C 	C 	0.67705	0.21179	0.5479	-0.144
Mof_C 	C 	0.4403	0.7939	0.7767	-0.136
Mof_O 	O 	0.94145	0.18704	0.2463	-0.343
Mof_C 	C 	0.8419	0.109	0.28	0.348
Mof_N 	N 	0.791	0.1377	0.0007	-0.271
Mof_H 	H 	0.743	0.1541	0.946	0.098
Mof_H 	H 	0.8009	0.0874	0.9405	0.139
Mof_C 	C 	0.7448	0.0903	0.1638	-0.108
Mof_H 	H 	0.7126	0.1355	0.2084	0.049
Mof_N 	N 	0.57203	0.93783	0.3039	-0.293
Mof_H 	H 	0.5162	0.8644	0.2962	0.1
Mof_H 	H 	0.5389	0.9813	0.3029	0.105
Mof_C 	C 	0.6469	0.9665	0.1574	-0.019
Mof_H 	H 	0.6023	0.9552	0.0579	0.028
Mof_H 	H 	0.678	0.9157	0.1523	0.041
Mof_N 	N 	0.6782	0.1338	0.6025	-0.148
Mof_N 	N 	0.5002	0.8676	0.6922	-0.154
Mof_Mn	Mn	0.03713	0.69914	0.54514	0.786
Mof_O 	O 	0.95196	0.77063	0.4059	-0.339
Mof_C 	C 	0.78821	0.46526	0.5479	-0.144
Mof_C 	C 	0.2061	0.6464	0.7767	-0.136
Mof_O 	O 	0.81296	0.75441	0.2463	-0.343
Mof_C 	C 	0.891	0.7329	0.28	0.347
Mof_N 	N 	0.8623	0.6533	0.0007	-0.27
Mof_H 	H 	0.8459	0.5889	0.946	0.098
Mof_H 	H 	0.9126	0.7135	0.9405	0.138
Mof_C 	C 	0.9097	0.6545	0.1638	-0.108
Mof_H 	H 	0.8645	0.5771	0.2084	0.049
Mof_N 	N 	0.06217	0.6342	0.3039	-0.293
Mof_H 	H 	0.1356	0.6518	0.2962	0.1
Mof_H 	H 	0.0187	0.5576	0.3029	0.105
Mof_C 	C 	0.0335	0.6804	0.1574	-0.02
Mof_H 	H 	0.0448	0.6471	0.0579	0.028
Mof_H 	H 	0.0843	0.7623	0.1523	0.041
Mof_N 	N 	0.8662	0.5444	0.6025	-0.148
Mof_N 	N 	0.1324	0.6326	0.6922	-0.154
Mof_Mn	Mn	0.69914	0.66201	0.04514	0.791
Mof_O 	O 	0.77063	0.81867	0.9059	-0.342
Mof_C 	C 	0.46526	0.67705	0.0479	-0.14
Mof_C 	C 	0.6464	0.4403	0.2767	-0.135
Mof_O 	O 	0.75441	0.94145	0.7463	-0.344
Mof_C 	C 	0.7329	0.8419	0.78	0.347
Mof_N 	N 	0.6533	0.791	0.5007	-0.275
Mof_H 	H 	0.5889	0.743	0.446	0.101
Mof_H 	H 	0.7135	0.8009	0.4405	0.141
Mof_C 	C 	0.6545	0.7448	0.6638	-0.108
Mof_H 	H 	0.5771	0.7126	0.7084	0.048
Mof_N 	N 	0.6342	0.57203	0.8039	-0.293
Mof_H 	H 	0.6518	0.5162	0.7962	0.1
Mof_H 	H 	0.5576	0.5389	0.8029	0.104
Mof_C 	C 	0.6804	0.6469	0.6574	-0.019
Mof_H 	H 	0.6471	0.6023	0.5579	0.027
Mof_H 	H 	0.7623	0.678	0.6523	0.04
Mof_N 	N 	0.5444	0.6782	0.1025	-0.148
Mof_N 	N 	0.6326	0.5002	0.1922	-0.154
Mof_Mn	Mn	0.33799	0.03713	0.04514	0.791
Mof_O 	O 	0.18133	0.95196	0.9059	-0.343
Mof_C 	C 	0.32295	0.78821	0.0479	-0.14
Mof_C 	C 	0.5597	0.2061	0.2767	-0.135
Mof_O 	O 	0.05855	0.81296	0.7463	-0.345
Mof_C 	C 	0.1581	0.891	0.78	0.348
Mof_N 	N 	0.209	0.8623	0.5007	-0.274
Mof_H 	H 	0.257	0.8459	0.446	0.101
Mof_H 	H 	0.1991	0.9126	0.4405	0.141
Mof_C 	C 	0.2552	0.9097	0.6638	-0.109
Mof_H 	H 	0.2874	0.8645	0.7084	0.048
Mof_N 	N 	0.42797	0.06217	0.8039	-0.294
Mof_H 	H 	0.4838	0.1356	0.7962	0.1
Mof_H 	H 	0.4611	0.0187	0.8029	0.104
Mof_C 	C 	0.3531	0.0335	0.6574	-0.018
Mof_H 	H 	0.3977	0.0448	0.5579	0.026
Mof_H 	H 	0.322	0.0843	0.6523	0.04
Mof_N 	N 	0.3218	0.8662	0.1025	-0.148
Mof_N 	N 	0.4998	0.1324	0.1922	-0.154
Mof_Mn	Mn	0.96287	0.30086	0.04514	0.791
Mof_O 	O 	0.04804	0.22937	0.9059	-0.342
Mof_C 	C 	0.21179	0.53474	0.0479	-0.14
Mof_C 	C 	0.7939	0.3536	0.2767	-0.135
Mof_O 	O 	0.18704	0.24559	0.7463	-0.344
Mof_C 	C 	0.109	0.2671	0.78	0.347
Mof_N 	N 	0.1377	0.3467	0.5007	-0.275
Mof_H 	H 	0.1541	0.4111	0.446	0.101
Mof_H 	H 	0.0874	0.2865	0.4405	0.141
Mof_C 	C 	0.0903	0.3455	0.6638	-0.109
Mof_H 	H 	0.1355	0.4229	0.7084	0.048
Mof_N 	N 	0.93783	0.3658	0.8039	-0.293
Mof_H 	H 	0.8644	0.3482	0.7962	0.1
Mof_H 	H 	0.9813	0.4424	0.8029	0.104
Mof_C 	C 	0.9665	0.3196	0.6574	-0.018
Mof_H 	H 	0.9552	0.3529	0.5579	0.027
Mof_H 	H 	0.9157	0.2377	0.6523	0.04
Mof_N 	N 	0.1338	0.4556	0.1025	-0.148
Mof_N 	N 	0.8676	0.3674	0.1922	-0.154
Mof_Mn	Mn	0.33333	0.66667	0.92237	0.776
Mof_Mn	Mn	0.66667	0.33333	0.42237	0.785
_end
