data_functionalizedCrystal
_audit_creation_method	'EQeq! by Chris Wilmer'
_symmetry_space_group_name_H-M	'P1'
_symmetry_Int_Tables_number	1
_symmetry_cell_setting	triclinic
loop_
_symmetry_equiv_pos_as_xyz
  x,y,z
_cell_length_a	15.631
_cell_length_b	18.456
_cell_length_c	27.517
_cell_angle_alpha	80.164
_cell_angle_beta	89.994
_cell_angle_gamma	76.264
loop_
_atom_site_label
_atom_site_type_symbol
_atom_site_fract_x
_atom_site_fract_y
_atom_site_fract_z
_atom_site_charge
Mof_Ca	Ca	0.58984	0.33511	0.58634	1.549
Mof_Ca	Ca	0.04931	0.82457	0.08797	1.496
Mof_C 	C 	0.7034	0.2053	0.6222	0.29
Mof_C 	C 	0.7585	0.1279	0.6475	-0.101
Mof_C 	C 	0.7456	0.095	0.6959	0.067
Mof_H 	H 	0.7029	0.1201	0.7147	0.024
Mof_C 	C 	0.799	0.0231	0.715	-0.184
Mof_H 	H 	0.7907	0.0006	0.747	0.092
Mof_C 	C 	0.8654	0.9833	0.6873	0.169
Mof_C 	C 	0.8789	0.0207	0.6407	-0.208
Mof_H 	H 	0.9237	0.9964	0.6227	0.13
Mof_C 	C 	0.8279	0.0945	0.6188	0.068
Mof_H 	H 	0.8394	0.1188	0.588	0.019
Mof_C 	C 	0.915	0.9094	0.7082	-0.084
Mof_C 	C 	0.9407	0.8929	0.7586	-0.035
Mof_H 	H 	0.9282	0.9331	0.7759	0.057
Mof_C 	C 	0.9829	0.8227	0.785	0.004
Mof_C 	C 	0.0002	0.7596	0.7569	0.052
Mof_C 	C 	0.9751	0.7742	0.7059	-0.009
Mof_C 	C 	0.9308	0.8472	0.6832	0.122
Mof_C 	C 	0.0041	0.8144	0.835	0.028
Mof_C 	C 	0.0432	0.8681	0.8531	-0.137
Mof_H 	H 	0.0623	0.9044	0.831	0.079
Mof_C 	C 	0.0527	0.8661	0.9038	0.087
Mof_H 	H 	0.0789	0.9008	0.915	0.002
Mof_C 	C 	0.0248	0.8155	0.9365	-0.172
Mof_C 	C 	0.9863	0.7595	0.9212	0.073
Mof_H 	H 	0.9682	0.7236	0.9442	0.029
Mof_C 	C 	0.9768	0.7603	0.8711	-0.094
Mof_H 	H 	0.9518	0.7244	0.8606	0.077
Mof_C 	C 	0.0272	0.8184	0.9894	0.371
Mof_C 	C 	0.9909	0.7066	0.6816	-0.008
Mof_C 	C 	0.0747	0.6728	0.6688	0.082
Mof_C 	C 	0.0906	0.6098	0.6459	-0.058
Mof_C 	C 	0.0175	0.5823	0.6305	-0.063
Mof_H 	H 	0.0268	0.5404	0.6148	0.048
Mof_C 	C 	0.9303	0.6217	0.6402	-0.026
Mof_C 	C 	0.9193	0.6815	0.6667	0.101
Mof_C 	C 	0.8068	0.6777	0.7232	-0.274
Mof_H 	H 	0.7478	0.7034	0.7292	0.13
Mof_H 	H 	0.8454	0.6769	0.7506	0.128
Mof_H 	H 	0.8081	0.6267	0.7194	0.121
Mof_C 	C 	0.1976	0.7313	0.6401	-0.263
Mof_H 	H 	0.2556	0.7298	0.6524	0.114
Mof_H 	H 	0.1686	0.7824	0.6258	0.112
Mof_H 	H 	0.202	0.6997	0.6154	0.117
Mof_C 	C 	0.1292	0.6743	0.7999	-0.265
Mof_H 	H 	0.1446	0.6262	0.8217	0.116
Mof_H 	H 	0.1328	0.7138	0.8178	0.117
Mof_H 	H 	0.1692	0.6743	0.7734	0.126
Mof_C 	C 	0.1814	0.5667	0.6342	0.121
Mof_C 	C 	0.2403	0.5369	0.6752	-0.168
Mof_H 	H 	0.2267	0.5478	0.7064	0.099
Mof_C 	C 	0.3219	0.4892	0.6659	0.09
Mof_H 	H 	0.3628	0.4674	0.6919	0.009
Mof_C 	C 	0.3417	0.4745	0.62	-0.179
Mof_C 	C 	0.2856	0.5079	0.5813	0.119
Mof_H 	H 	0.3019	0.5009	0.5496	-0.01
Mof_C 	C 	0.2046	0.5521	0.5883	-0.195
Mof_H 	H 	0.1648	0.5724	0.5615	0.1
Mof_C 	C 	0.4281	0.4272	0.6114	0.333
Mof_C 	C 	0.8569	0.5867	0.6269	0.084
Mof_C 	C 	0.8647	0.506	0.6413	-0.132
Mof_H 	H 	0.913	0.4747	0.6602	0.086
Mof_C 	C 	0.7961	0.4775	0.6256	0.053
Mof_H 	H 	0.7995	0.4259	0.6342	0.027
Mof_C 	C 	0.7255	0.5221	0.5984	-0.12
Mof_C 	C 	0.7162	0.6006	0.5837	0.048
Mof_H 	H 	0.668	0.6304	0.564	0.032
Mof_C 	C 	0.7829	0.633	0.5999	-0.126
Mof_H 	H 	0.7768	0.6851	0.5925	0.092
Mof_C 	C 	0.6566	0.4791	0.5816	0.418
Mof_C 	C 	0.5512	0.3274	0.4894	0.372
Mof_C 	C 	0.5322	0.3177	0.4411	-0.181
Mof_C 	C 	0.4953	0.259	0.4305	0.093
Mof_H 	H 	0.4869	0.2205	0.4553	0.01
Mof_C 	C 	0.4719	0.2613	0.3812	-0.174
Mof_H 	H 	0.447	0.2227	0.3747	0.102
Mof_C 	C 	0.4815	0.3144	0.341	0.126
Mof_C 	C 	0.5208	0.3712	0.3542	-0.181
Mof_H 	H 	0.5296	0.4089	0.3291	0.095
Mof_C 	C 	0.5462	0.3739	0.4011	0.103
Mof_H 	H 	0.5725	0.412	0.4071	-0.019
Mof_C 	C 	0.4483	0.3205	0.2909	-0.092
Mof_C 	C 	0.4678	0.2538	0.2669	0.129
Mof_C 	C 	0.4347	0.2625	0.2203	-0.058
Mof_C 	C 	0.3838	0.3312	0.1929	0.122
Mof_C 	C 	0.3614	0.3941	0.2183	-0.081
Mof_C 	C 	0.3987	0.3854	0.2655	0.001
Mof_H 	H 	0.3883	0.4278	0.2807	0.036
Mof_C 	C 	0.2522	0.3461	0.1408	-0.256
Mof_H 	H 	0.2352	0.3603	0.1063	0.112
Mof_H 	H 	0.2245	0.3862	0.1578	0.112
Mof_H 	H 	0.234	0.3009	0.1542	0.121
Mof_C 	C 	0.6034	0.1786	0.3028	-0.222
Mof_H 	H 	0.6251	0.1349	0.3279	0.105
Mof_H 	H 	0.6104	0.2231	0.3144	0.102
Mof_H 	H 	0.636	0.173	0.2735	0.116
Mof_C 	C 	0.3079	0.4703	0.1939	0.09
Mof_C 	C 	0.3239	0.4985	0.1453	-0.125
Mof_H 	H 	0.3665	0.4696	0.1283	0.083
Mof_C 	C 	0.2751	0.5715	0.1218	0.021
Mof_H 	H 	0.2865	0.5921	0.0899	0.033
Mof_C 	C 	0.2058	0.613	0.15	-0.083
Mof_C 	C 	0.1902	0.5807	0.197	0.028
Mof_H 	H 	0.1458	0.6073	0.2142	0.035
Mof_C 	C 	0.24	0.508	0.22	-0.129
Mof_H 	H 	0.2276	0.4863	0.2515	0.074
Mof_C 	C 	0.1483	0.6872	0.127	0.277
Mof_C 	C 	0.3853	0.1544	0.1923	0.104
Mof_C 	C 	0.3964	0.0885	0.1732	-0.056
Mof_C 	C 	0.4824	0.0571	0.1579	-0.027
Mof_H 	H 	0.4926	0.0123	0.1453	0.037
Mof_C 	C 	0.5507	0.0915	0.1615	-0.056
Mof_C 	C 	0.5323	0.162	0.1777	0.107
Mof_C 	C 	0.4504	0.1905	0.1955	-0.033
Mof_C 	C 	0.5973	0.2687	0.1507	-0.25
Mof_H 	H 	0.6487	0.2868	0.1559	0.11
Mof_H 	H 	0.5456	0.305	0.1576	0.117
Mof_H 	H 	0.5936	0.2617	0.1171	0.11
Mof_C 	C 	0.2871	0.1439	0.2585	-0.274
Mof_H 	H 	0.2253	0.1544	0.2647	0.129
Mof_H 	H 	0.318	0.1593	0.2835	0.129
Mof_H 	H 	0.3091	0.0906	0.259	0.12
Mof_C 	C 	0.6401	0.0597	0.1445	0.073
Mof_C 	C 	0.6797	0.983	0.1654	-0.095
Mof_H 	H 	0.6503	0.9572	0.1892	0.078
Mof_C 	C 	0.7629	0.9452	0.1508	0.042
Mof_H 	H 	0.7939	0.8989	0.1685	0.036
Mof_C 	C 	0.7963	0.9803	0.1087	-0.12
Mof_C 	C 	0.7576	0.0515	0.0875	0.031
Mof_H 	H 	0.7833	0.0754	0.0609	0.021
Mof_C 	C 	0.6771	0.0913	0.1053	-0.125
Mof_H 	H 	0.6501	0.14	0.0893	0.077
Mof_C 	C 	0.8817	0.9433	0.0924	0.404
Mof_C 	C 	0.3192	0.0554	0.162	0.06
Mof_C 	C 	0.2467	0.0993	0.1376	-0.118
Mof_H 	H 	0.2368	0.1517	0.1335	0.082
Mof_C 	C 	0.1849	0.0666	0.1181	0.017
Mof_H 	H 	0.134	0.0976	0.1014	0.028
Mof_C 	C 	0.1983	0.9939	0.123	-0.091
Mof_C 	C 	0.2707	0.9424	0.1502	0.017
Mof_H 	H 	0.2764	0.8903	0.1555	0.04
Mof_C 	C 	0.3336	0.975	0.1688	-0.088
Mof_H 	H 	0.3846	0.9442	0.1855	0.071
Mof_C 	C 	0.1334	0.9548	0.1	0.417
Mof_C 	C 	0.9783	0.8521	0.5903	-0.081
Mof_H 	H 	0.0134	0.801	0.594	0.048
Mof_H 	H 	0.0159	0.8858	0.5926	0.039
Mof_H 	H 	0.9473	0.8659	0.5587	0.074
Mof_O 	O 	0.6322	0.2298	0.6456	-0.396
Mof_O 	O 	0.7282	0.2439	0.5862	-0.376
Mof_O 	O 	0.0612	0.8703	0.0042	-0.568
Mof_O 	O 	0.9991	0.7724	0.0218	-0.389
Mof_O 	O 	0.4746	0.3748	0.6478	-0.349
Mof_O 	O 	0.4568	0.4273	0.5666	-0.567
Mof_O 	O 	0.6573	0.4182	0.6019	-0.541
Mof_O 	O 	0.6095	0.524	0.5398	-0.47
Mof_O 	O 	0.0387	0.6875	0.7796	-0.152
Mof_O 	O 	0.9094	0.8581	0.6328	-0.176
Mof_O 	O 	0.836	0.7174	0.6784	-0.146
Mof_O 	O 	0.1445	0.7025	0.6824	-0.158
Mof_O 	O 	0.5399	0.2761	0.5263	-0.405
Mof_O 	O 	0.585	0.3801	0.4994	-0.566
Mof_O 	O 	0.0799	0.7198	0.1477	-0.402
Mof_O 	O 	0.1772	0.7221	0.0875	-0.36
Mof_O 	O 	0.0883	0.9967	0.0643	-0.5
Mof_O 	O 	0.133	0.8872	0.1189	-0.486
Mof_O 	O 	0.9005	0.9691	0.0477	-0.495
Mof_O 	O 	0.9227	0.8788	0.1156	-0.464
Mof_O 	O 	0.5137	0.1855	0.2919	-0.165
Mof_O 	O 	0.351	0.3317	0.1472	-0.166
Mof_O 	O 	0.6035	0.1949	0.1844	-0.158
Mof_O 	O 	0.3003	0.1858	0.2101	-0.155
Mof_Cd	Cd	0.41016	0.66489	0.41366	0.492
Mof_Cd	Cd	0.95069	0.17543	0.91203	0.507
Mof_C 	C 	0.2966	0.7947	0.3778	0.264
Mof_C 	C 	0.2415	0.8721	0.3525	-0.026
Mof_C 	C 	0.2544	0.905	0.3041	-0.027
Mof_H 	H 	0.2971	0.8799	0.2853	0.059
Mof_C 	C 	0.201	0.9769	0.285	-0.045
Mof_H 	H 	0.2093	0.9994	0.253	0.058
Mof_C 	C 	0.1346	0.0167	0.3127	-0
Mof_C 	C 	0.1211	0.9793	0.3593	0.005
Mof_H 	H 	0.0763	0.0036	0.3773	0.021
Mof_C 	C 	0.1721	0.9055	0.3812	-0.051
Mof_H 	H 	0.1606	0.8812	0.412	0.064
Mof_C 	C 	0.085	0.0906	0.2918	-0.062
Mof_C 	C 	0.0593	0.1071	0.2414	0.018
Mof_H 	H 	0.0718	0.0669	0.2241	0.018
Mof_C 	C 	0.0171	0.1773	0.215	-0.172
Mof_C 	C 	0.9998	0.2404	0.2431	0.187
Mof_C 	C 	0.0249	0.2258	0.2941	-0.066
Mof_C 	C 	0.0692	0.1528	0.3168	0.105
Mof_C 	C 	0.9959	0.1856	0.165	0.204
Mof_C 	C 	0.9568	0.1319	0.1469	-0.206
Mof_H 	H 	0.9377	0.0956	0.169	0.107
Mof_C 	C 	0.9473	0.1339	0.0962	0.113
Mof_H 	H 	0.9211	0.0992	0.085	-0.021
Mof_C 	C 	0.9752	0.1845	0.0635	-0.134
Mof_C 	C 	0.0137	0.2405	0.0788	0.06
Mof_H 	H 	0.0318	0.2764	0.0558	0.01
Mof_C 	C 	0.0232	0.2397	0.1289	-0.221
Mof_H 	H 	0.0482	0.2756	0.1394	0.107
Mof_C 	C 	0.9728	0.1816	0.0106	0.301
Mof_C 	C 	0.0091	0.2934	0.3184	-0.079
Mof_C 	C 	0.9253	0.3272	0.3312	0.155
Mof_C 	C 	0.9094	0.3902	0.3541	-0.105
Mof_C 	C 	0.9825	0.4177	0.3695	0.036
Mof_H 	H 	0.9732	0.4596	0.3852	0.031
Mof_C 	C 	0.0697	0.3783	0.3598	-0.108
Mof_C 	C 	0.0807	0.3185	0.3333	0.136
Mof_C 	C 	0.1932	0.3223	0.2768	-0.254
Mof_H 	H 	0.2522	0.2966	0.2708	0.124
Mof_H 	H 	0.1546	0.3231	0.2494	0.115
Mof_H 	H 	0.1919	0.3733	0.2806	0.113
Mof_C 	C 	0.8024	0.2687	0.3599	-0.247
Mof_H 	H 	0.7444	0.2702	0.3476	0.109
Mof_H 	H 	0.8314	0.2176	0.3742	0.105
Mof_H 	H 	0.798	0.3003	0.3846	0.109
Mof_C 	C 	0.8708	0.3257	0.2001	-0.246
Mof_H 	H 	0.8554	0.3738	0.1783	0.115
Mof_H 	H 	0.8672	0.2862	0.1822	0.114
Mof_H 	H 	0.8308	0.3257	0.2266	0.122
Mof_C 	C 	0.8186	0.4333	0.3658	0.147
Mof_C 	C 	0.7597	0.4631	0.3248	-0.182
Mof_H 	H 	0.7733	0.4522	0.2936	0.107
Mof_C 	C 	0.6781	0.5108	0.3341	0.101
Mof_H 	H 	0.6372	0.5326	0.3081	0.008
Mof_C 	C 	0.6583	0.5255	0.38	-0.181
Mof_C 	C 	0.7144	0.4921	0.4187	0.134
Mof_H 	H 	0.6981	0.4991	0.4504	-0.017
Mof_C 	C 	0.7954	0.4479	0.4117	-0.213
Mof_H 	H 	0.8352	0.4276	0.4385	0.108
Mof_C 	C 	0.5719	0.5728	0.3886	0.328
Mof_C 	C 	0.1431	0.4133	0.3731	0.095
Mof_C 	C 	0.1353	0.494	0.3587	-0.134
Mof_H 	H 	0.087	0.5253	0.3398	0.075
Mof_C 	C 	0.2039	0.5225	0.3744	0.035
Mof_H 	H 	0.2005	0.5741	0.3658	0.036
Mof_C 	C 	0.2745	0.4779	0.4016	-0.093
Mof_C 	C 	0.2838	0.3994	0.4163	0.036
Mof_H 	H 	0.332	0.3696	0.436	0.033
Mof_C 	C 	0.2171	0.367	0.4001	-0.131
Mof_H 	H 	0.2232	0.3149	0.4075	0.088
Mof_C 	C 	0.3434	0.5209	0.4184	0.348
Mof_C 	C 	0.4488	0.6726	0.5106	0.348
Mof_C 	C 	0.4678	0.6823	0.5589	-0.167
Mof_C 	C 	0.5047	0.741	0.5695	0.085
Mof_H 	H 	0.5131	0.7795	0.5447	0.019
Mof_C 	C 	0.5281	0.7387	0.6188	-0.166
Mof_H 	H 	0.553	0.7773	0.6253	0.102
Mof_C 	C 	0.5185	0.6856	0.659	0.12
Mof_C 	C 	0.4792	0.6288	0.6458	-0.176
Mof_H 	H 	0.4704	0.5911	0.6709	0.091
Mof_C 	C 	0.4538	0.6261	0.5989	0.093
Mof_H 	H 	0.4275	0.588	0.5929	-0.019
Mof_C 	C 	0.5517	0.6795	0.7091	-0.088
Mof_C 	C 	0.5322	0.7462	0.7331	0.125
Mof_C 	C 	0.5653	0.7375	0.7797	-0.051
Mof_C 	C 	0.6162	0.6688	0.8071	0.116
Mof_C 	C 	0.6386	0.6059	0.7817	-0.077
Mof_C 	C 	0.6013	0.6146	0.7345	-0.002
Mof_H 	H 	0.6117	0.5722	0.7193	0.035
Mof_C 	C 	0.7478	0.6539	0.8592	-0.28
Mof_H 	H 	0.7648	0.6397	0.8937	0.13
Mof_H 	H 	0.7755	0.6138	0.8422	0.125
Mof_H 	H 	0.766	0.6991	0.8458	0.132
Mof_C 	C 	0.3966	0.8214	0.6972	-0.228
Mof_H 	H 	0.3749	0.8651	0.6721	0.109
Mof_H 	H 	0.3896	0.7769	0.6856	0.104
Mof_H 	H 	0.364	0.827	0.7265	0.119
Mof_C 	C 	0.6921	0.5297	0.8061	0.086
Mof_C 	C 	0.6761	0.5015	0.8547	-0.117
Mof_H 	H 	0.6335	0.5304	0.8717	0.086
Mof_C 	C 	0.7249	0.4285	0.8782	0.019
Mof_H 	H 	0.7135	0.4079	0.9101	0.046
Mof_C 	C 	0.7942	0.387	0.85	-0.07
Mof_C 	C 	0.8098	0.4193	0.803	0.023
Mof_H 	H 	0.8542	0.3927	0.7858	0.043
Mof_C 	C 	0.76	0.492	0.78	-0.121
Mof_H 	H 	0.7724	0.5137	0.7485	0.073
Mof_C 	C 	0.8517	0.3128	0.873	0.269
Mof_C 	C 	0.6147	0.8456	0.8077	0.126
Mof_C 	C 	0.6036	0.9115	0.8268	-0.097
Mof_C 	C 	0.5176	0.9429	0.8421	0.019
Mof_H 	H 	0.5074	0.9877	0.8547	0.037
Mof_C 	C 	0.4493	0.9085	0.8385	-0.099
Mof_C 	C 	0.4677	0.838	0.8223	0.128
Mof_C 	C 	0.5496	0.8095	0.8045	-0.047
Mof_C 	C 	0.4027	0.7313	0.8493	-0.255
Mof_H 	H 	0.3513	0.7132	0.8441	0.112
Mof_H 	H 	0.4544	0.695	0.8424	0.12
Mof_H 	H 	0.4064	0.7383	0.8829	0.114
Mof_C 	C 	0.7129	0.8561	0.7415	-0.285
Mof_H 	H 	0.7747	0.8456	0.7353	0.136
Mof_H 	H 	0.682	0.8407	0.7165	0.135
Mof_H 	H 	0.6909	0.9094	0.741	0.129
Mof_C 	C 	0.3599	0.9403	0.8555	0.183
Mof_C 	C 	0.3203	0.017	0.8346	-0.216
Mof_H 	H 	0.3497	0.0428	0.8108	0.106
Mof_C 	C 	0.2371	0.0548	0.8492	0.127
Mof_H 	H 	0.2061	0.1011	0.8315	0.002
Mof_C 	C 	0.2037	0.0197	0.8913	-0.219
Mof_C 	C 	0.2424	0.9485	0.9125	0.165
Mof_H 	H 	0.2167	0.9246	0.9391	-0.011
Mof_C 	C 	0.3229	0.9087	0.8947	-0.222
Mof_H 	H 	0.3499	0.86	0.9107	0.117
Mof_C 	C 	0.1183	0.0567	0.9076	0.4
Mof_C 	C 	0.6808	0.9446	0.838	0.175
Mof_C 	C 	0.7533	0.9007	0.8624	-0.228
Mof_H 	H 	0.7632	0.8483	0.8665	0.125
Mof_C 	C 	0.8151	0.9334	0.8819	0.169
Mof_H 	H 	0.866	0.9024	0.8986	-0.004
Mof_C 	C 	0.8017	0.0061	0.877	-0.196
Mof_C 	C 	0.7293	0.0576	0.8498	0.109
Mof_H 	H 	0.7236	0.1097	0.8445	0.012
Mof_C 	C 	0.6664	0.025	0.8312	-0.211
Mof_H 	H 	0.6154	0.0558	0.8145	0.104
Mof_C 	C 	0.8666	0.0452	0.9	0.41
Mof_C 	C 	0.0217	0.1479	0.4097	-0.474
Mof_H 	H 	0.9866	0.199	0.406	0.199
Mof_H 	H 	0.9841	0.1142	0.4074	0.191
Mof_H 	H 	0.0527	0.1341	0.4413	0.17
Mof_O 	O 	0.3678	0.7702	0.3544	-0.24
Mof_O 	O 	0.2718	0.7561	0.4138	-0.252
Mof_O 	O 	0.9388	0.1297	0.9958	-0.381
Mof_O 	O 	0.0009	0.2276	0.9782	-0.263
Mof_O 	O 	0.5254	0.6252	0.3522	-0.242
Mof_O 	O 	0.5432	0.5727	0.4334	-0.439
Mof_O 	O 	0.3427	0.5818	0.3981	-0.337
Mof_O 	O 	0.3905	0.476	0.4602	-0.439
Mof_O 	O 	0.9613	0.3125	0.2204	-0.165
Mof_O 	O 	0.0906	0.1419	0.3672	-0.131
Mof_O 	O 	0.164	0.2826	0.3216	-0.158
Mof_O 	O 	0.8555	0.2975	0.3176	-0.168
Mof_O 	O 	0.4601	0.7239	0.4737	-0.264
Mof_O 	O 	0.415	0.6199	0.5006	-0.443
Mof_O 	O 	0.9201	0.2802	0.8523	-0.241
Mof_O 	O 	0.8228	0.2779	0.9125	-0.231
Mof_O 	O 	0.9117	0.0033	0.9357	-0.457
Mof_O 	O 	0.867	0.1128	0.8811	-0.314
Mof_O 	O 	0.0995	0.0309	0.9523	-0.471
Mof_O 	O 	0.0773	0.1212	0.8844	-0.32
Mof_O 	O 	0.4863	0.8145	0.7081	-0.16
Mof_O 	O 	0.649	0.6683	0.8528	-0.156
Mof_O 	O 	0.3965	0.8051	0.8156	-0.162
Mof_O 	O 	0.6997	0.8142	0.7899	-0.157
Mof_Ca	Ca	0.5	0.5	0.5	1.623
Mof_Ca	Ca	-0	0	-0	1.546
_end
