data_functionalizedCrystal
_audit_creation_method	'EQeq! by Chris Wilmer'
_symmetry_space_group_name_H-M	'P1'
_symmetry_Int_Tables_number	1
_symmetry_cell_setting	triclinic
loop_
_symmetry_equiv_pos_as_xyz
  x,y,z
_cell_length_a	14.347
_cell_length_b	14.347
_cell_length_c	20.408
_cell_angle_alpha	90
_cell_angle_beta	90
_cell_angle_gamma	120
loop_
_atom_site_label
_atom_site_type_symbol
_atom_site_fract_x
_atom_site_fract_y
_atom_site_fract_z
_atom_site_charge
Mof_Zn	Zn	0.77367	0.27918	0.9942	1.188
Mof_Zn	Zn	0.50551	0.22633	0.9942	1.189
Mof_Zn	Zn	0.72082	0.49449	0.9942	1.19
Mof_Zn	Zn	0.49449	0.72082	0.5058	1.19
Mof_Zn	Zn	0.27918	0.77367	0.5058	1.19
Mof_Zn	Zn	0.22633	0.50551	0.5058	1.189
Mof_Zn	Zn	0.22633	0.72082	0.0058	1.188
Mof_Zn	Zn	0.49449	0.77367	0.0058	1.19
Mof_Zn	Zn	0.27918	0.50551	0.0058	1.189
Mof_Zn	Zn	0.50551	0.27918	0.4942	1.19
Mof_Zn	Zn	0.72082	0.22633	0.4942	1.19
Mof_Zn	Zn	0.77367	0.49449	0.4942	1.191
Mof_Zn	Zn	0.6375	2.7756e-32	0.75	1.186
Mof_Zn	Zn	0.3625	0.3625	0.75	1.192
Mof_Zn	Zn	-6.81496e-17	0.6375	0.75	1.188
Mof_Zn	Zn	0.3625	0	0.25	1.185
Mof_Zn	Zn	0.6375	0.6375	0.25	1.197
Mof_Zn	Zn	1.89508e-17	0.3625	0.25	1.184
Mof_H 	H 	0.6005	0.9828	0.1221	0.249
Mof_H 	H 	0.6931	0.1026	0.1151	0.216
Mof_H 	H 	0.7622	0.9984	0.1623	-0.161
Mof_H 	H 	0.7233	0.9212	0.1016	-0.173
Mof_H 	H 	0.8523	0.0695	0.0359	0.309
Mof_H 	H 	0.9066	0.0336	0.0892	0.299
Mof_H 	H 	0.8967	0.1364	0.1006	0.303
Mof_H 	H 	0.3823	0.3995	0.1221	0.178
Mof_H 	H 	0.4095	0.3069	0.1151	0.166
Mof_H 	H 	0.2362	0.2378	0.1623	-0.107
Mof_H 	H 	0.1979	0.2767	0.1016	-0.115
Mof_H 	H 	0.2172	0.1477	0.0359	0.218
Mof_H 	H 	0.127	0.0934	0.0892	0.199
Mof_H 	H 	0.2397	0.1033	0.1006	0.21
Mof_H 	H 	0.0172	0.6177	0.1221	0.099
Mof_H 	H 	0.8974	0.5905	0.1151	0.116
Mof_H 	H 	0.0016	0.7638	0.1623	-0.044
Mof_H 	H 	0.0788	0.8021	0.1016	-0.046
Mof_H 	H 	0.9305	0.7828	0.0359	0.172
Mof_H 	H 	0.9664	0.873	0.0892	0.166
Mof_H 	H 	0.8636	0.7603	0.1006	0.16
Mof_H 	H 	0.6177	0.0172	0.3779	0.113
Mof_H 	H 	0.5905	0.8974	0.3849	0.125
Mof_H 	H 	0.7638	0.0016	0.3377	-0.054
Mof_H 	H 	0.8021	0.0788	0.3984	-0.057
Mof_H 	H 	0.7828	0.9305	0.4641	0.185
Mof_H 	H 	0.873	0.9664	0.4108	0.179
Mof_H 	H 	0.7603	0.8636	0.3994	0.173
Mof_H 	H 	0.9828	0.6005	0.3779	0.262
Mof_H 	H 	0.1026	0.6931	0.3849	0.223
Mof_H 	H 	0.9984	0.7622	0.3377	-0.171
Mof_H 	H 	0.9212	0.7233	0.3984	-0.183
Mof_H 	H 	0.0695	0.8523	0.4641	0.316
Mof_H 	H 	0.0336	0.9066	0.4108	0.306
Mof_H 	H 	0.1364	0.8967	0.3994	0.311
Mof_H 	H 	0.3995	0.3823	0.3779	0.178
Mof_H 	H 	0.3069	0.4095	0.3849	0.165
Mof_H 	H 	0.2378	0.2362	0.3377	-0.107
Mof_H 	H 	0.2767	0.1979	0.3984	-0.114
Mof_H 	H 	0.1477	0.2172	0.4641	0.217
Mof_H 	H 	0.0934	0.127	0.4108	0.197
Mof_H 	H 	0.1033	0.2397	0.3994	0.208
Mof_H 	H 	0.3995	0.0172	0.8779	0.097
Mof_H 	H 	0.3069	0.8974	0.8849	0.113
Mof_H 	H 	0.2378	0.0016	0.8377	-0.044
Mof_H 	H 	0.2767	0.0788	0.8984	-0.046
Mof_H 	H 	0.1477	0.9305	0.9641	0.158
Mof_H 	H 	0.0934	0.9664	0.9108	0.144
Mof_H 	H 	0.1033	0.8636	0.8994	0.145
Mof_H 	H 	0.6177	0.6005	0.8779	0.187
Mof_H 	H 	0.5905	0.6931	0.8849	0.175
Mof_H 	H 	0.7638	0.7622	0.8377	-0.113
Mof_H 	H 	0.8021	0.7233	0.8984	-0.119
Mof_H 	H 	0.7828	0.8523	0.9641	0.26
Mof_H 	H 	0.873	0.9066	0.9108	0.256
Mof_H 	H 	0.7603	0.8967	0.8994	0.252
Mof_H 	H 	0.9828	0.3823	0.8779	0.243
Mof_H 	H 	0.1026	0.4095	0.8849	0.21
Mof_H 	H 	0.9984	0.2362	0.8377	-0.157
Mof_H 	H 	0.9212	0.1979	0.8984	-0.17
Mof_H 	H 	0.0695	0.2172	0.9641	0.283
Mof_H 	H 	0.0336	0.127	0.9108	0.265
Mof_H 	H 	0.1364	0.2397	0.8994	0.277
Mof_H 	H 	0.3823	0.9828	0.6221	0.258
Mof_H 	H 	0.4095	0.1026	0.6151	0.219
Mof_H 	H 	0.2362	0.9984	0.6623	-0.168
Mof_H 	H 	0.1979	0.9212	0.6016	-0.181
Mof_H 	H 	0.2172	0.0695	0.5359	0.296
Mof_H 	H 	0.127	0.0336	0.5892	0.278
Mof_H 	H 	0.2397	0.1364	0.6006	0.291
Mof_H 	H 	0.0172	0.3995	0.6221	0.109
Mof_H 	H 	0.8974	0.3069	0.6151	0.12
Mof_H 	H 	0.0016	0.2378	0.6623	-0.052
Mof_H 	H 	0.0788	0.2767	0.6016	-0.055
Mof_H 	H 	0.9305	0.1477	0.5359	0.164
Mof_H 	H 	0.9664	0.0934	0.5892	0.15
Mof_H 	H 	0.8636	0.1033	0.6006	0.152
Mof_H 	H 	0.6005	0.6177	0.6221	0.187
Mof_H 	H 	0.6931	0.5905	0.6151	0.174
Mof_H 	H 	0.7622	0.7638	0.6623	-0.112
Mof_H 	H 	0.7233	0.8021	0.6016	-0.119
Mof_H 	H 	0.8523	0.7828	0.5359	0.258
Mof_H 	H 	0.9066	0.873	0.5892	0.254
Mof_H 	H 	0.8967	0.7603	0.6006	0.25
Mof_C 	C 	0.5215	0.8825	0.8769	0.277
Mof_C 	C 	0.6974	0.1606	0.8694	0.3
Mof_C 	C 	0.6439	0.0264	0.0271	0.228
Mof_C 	C 	0.588	0.9663	0.9268	-0.038
Mof_C 	C 	0.6578	0.0797	0.9233	-0.114
Mof_C 	C 	0.6669	0.03	0.0992	-0.663
Mof_C 	C 	0.752	0.995	0.1152	0.586
Mof_C 	C 	0.8623	0.0653	0.0821	-1.029
Mof_C 	C 	0.361	0.4785	0.8769	0.283
Mof_C 	C 	0.4632	0.3026	0.8694	0.287
Mof_C 	C 	0.3825	0.3561	0.0271	0.203
Mof_C 	C 	0.3783	0.412	0.9268	-0.08
Mof_C 	C 	0.4219	0.3422	0.9233	-0.08
Mof_C 	C 	0.3631	0.3331	0.0992	-0.484
Mof_C 	C 	0.243	0.248	0.1152	0.355
Mof_C 	C 	0.203	0.1377	0.0821	-0.747
Mof_C 	C 	0.1175	0.639	0.8769	0.292
Mof_C 	C 	0.8394	0.5368	0.8694	0.282
Mof_C 	C 	0.9736	0.6175	0.0271	0.186
Mof_C 	C 	0.0337	0.6217	0.9268	-0.103
Mof_C 	C 	0.9203	0.5781	0.9233	-0.048
Mof_C 	C 	0.97	0.6369	0.0992	-0.291
Mof_C 	C 	0.005	0.757	0.1152	0.135
Mof_C 	C 	0.9347	0.797	0.0821	-0.54
Mof_C 	C 	0.639	0.1175	0.6231	0.293
Mof_C 	C 	0.5368	0.8394	0.6306	0.28
Mof_C 	C 	0.6175	0.9736	0.4729	0.192
Mof_C 	C 	0.6217	0.0337	0.5732	-0.111
Mof_C 	C 	0.5781	0.9203	0.5767	-0.041
Mof_C 	C 	0.6369	0.97	0.4008	-0.326
Mof_C 	C 	0.757	0.005	0.3848	0.176
Mof_C 	C 	0.797	0.9347	0.4179	-0.585
Mof_C 	C 	0.8825	0.5215	0.6231	0.278
Mof_C 	C 	0.1606	0.6974	0.6306	0.299
Mof_C 	C 	0.0264	0.6439	0.4729	0.229
Mof_C 	C 	0.9663	0.588	0.5732	-0.044
Mof_C 	C 	0.0797	0.6578	0.5767	-0.107
Mof_C 	C 	0.03	0.6669	0.4008	-0.694
Mof_C 	C 	0.995	0.752	0.3848	0.622
Mof_C 	C 	0.0653	0.8623	0.4179	-1.064
Mof_C 	C 	0.4785	0.361	0.6231	0.283
Mof_C 	C 	0.3026	0.4632	0.6306	0.287
Mof_C 	C 	0.3561	0.3825	0.4729	0.202
Mof_C 	C 	0.412	0.3783	0.5732	-0.08
Mof_C 	C 	0.3422	0.4219	0.5767	-0.08
Mof_C 	C 	0.3331	0.3631	0.4008	-0.483
Mof_C 	C 	0.248	0.243	0.3848	0.353
Mof_C 	C 	0.1377	0.203	0.4179	-0.744
Mof_C 	C 	0.4785	0.1175	0.1231	0.29
Mof_C 	C 	0.3026	0.8394	0.1306	0.28
Mof_C 	C 	0.3561	0.9736	0.9729	0.188
Mof_C 	C 	0.412	0.0337	0.0732	-0.106
Mof_C 	C 	0.3422	0.9203	0.0767	-0.051
Mof_C 	C 	0.3331	0.97	0.9008	-0.285
Mof_C 	C 	0.248	0.005	0.8848	0.119
Mof_C 	C 	0.1377	0.9347	0.9179	-0.507
Mof_C 	C 	0.639	0.5215	0.1231	0.287
Mof_C 	C 	0.5368	0.6974	0.1306	0.291
Mof_C 	C 	0.6175	0.6439	0.9729	0.212
Mof_C 	C 	0.6217	0.588	0.0732	-0.075
Mof_C 	C 	0.5781	0.6578	0.0767	-0.075
Mof_C 	C 	0.6369	0.6669	0.9008	-0.51
Mof_C 	C 	0.757	0.752	0.8848	0.405
Mof_C 	C 	0.797	0.8623	0.9179	-0.842
Mof_C 	C 	0.8825	0.361	0.1231	0.275
Mof_C 	C 	0.1606	0.4632	0.1306	0.298
Mof_C 	C 	0.0264	0.3825	0.9729	0.219
Mof_C 	C 	0.9663	0.3783	0.0732	-0.04
Mof_C 	C 	0.0797	0.4219	0.0767	-0.116
Mof_C 	C 	0.03	0.3631	0.9008	-0.646
Mof_C 	C 	0.995	0.243	0.8848	0.554
Mof_C 	C 	0.0653	0.203	0.9179	-0.971
Mof_C 	C 	0.361	0.8825	0.3769	0.276
Mof_C 	C 	0.4632	0.1606	0.3694	0.296
Mof_C 	C 	0.3825	0.0264	0.5271	0.224
Mof_C 	C 	0.3783	0.9663	0.4268	-0.047
Mof_C 	C 	0.4219	0.0797	0.4233	-0.11
Mof_C 	C 	0.3631	0.03	0.5992	-0.682
Mof_C 	C 	0.243	0.995	0.6152	0.598
Mof_C 	C 	0.203	0.0653	0.5821	-1.018
Mof_C 	C 	0.1175	0.4785	0.3769	0.291
Mof_C 	C 	0.8394	0.3026	0.3694	0.278
Mof_C 	C 	0.9736	0.3561	0.5271	0.188
Mof_C 	C 	0.0337	0.412	0.4268	-0.113
Mof_C 	C 	0.9203	0.3422	0.4233	-0.044
Mof_C 	C 	0.97	0.3331	0.5992	-0.313
Mof_C 	C 	0.005	0.248	0.6152	0.151
Mof_C 	C 	0.9347	0.1377	0.5821	-0.537
Mof_C 	C 	0.5215	0.639	0.3769	0.287
Mof_C 	C 	0.6974	0.5368	0.3694	0.291
Mof_C 	C 	0.6439	0.6175	0.5271	0.211
Mof_C 	C 	0.588	0.6217	0.4268	-0.076
Mof_C 	C 	0.6578	0.5781	0.4233	-0.074
Mof_C 	C 	0.6669	0.6369	0.5992	-0.508
Mof_C 	C 	0.752	0.757	0.6152	0.403
Mof_C 	C 	0.8623	0.797	0.5821	-0.838
Mof_N 	N 	0.6891	0.1152	0.9874	-0.286
Mof_N 	N 	0.5808	0.9352	0.9922	-0.275
Mof_N 	N 	0.4261	0.3109	0.9874	-0.281
Mof_N 	N 	0.3544	0.4192	0.9922	-0.277
Mof_N 	N 	0.8848	0.5739	0.9874	-0.278
Mof_N 	N 	0.0648	0.6456	0.9922	-0.276
Mof_N 	N 	0.5739	0.8848	0.5126	-0.279
Mof_N 	N 	0.6456	0.0648	0.5078	-0.28
Mof_N 	N 	0.1152	0.6891	0.5126	-0.284
Mof_N 	N 	0.9352	0.5808	0.5078	-0.276
Mof_N 	N 	0.3109	0.4261	0.5126	-0.281
Mof_N 	N 	0.4192	0.3544	0.5078	-0.278
Mof_N 	N 	0.3109	0.8848	0.0126	-0.281
Mof_N 	N 	0.4192	0.0648	0.0078	-0.279
Mof_N 	N 	0.5739	0.6891	0.0126	-0.282
Mof_N 	N 	0.6456	0.5808	0.0078	-0.277
Mof_N 	N 	0.1152	0.4261	0.0126	-0.284
Mof_N 	N 	0.9352	0.3544	0.0078	-0.273
Mof_N 	N 	0.4261	0.1152	0.4874	-0.285
Mof_N 	N 	0.3544	0.9352	0.4922	-0.276
Mof_N 	N 	0.8848	0.3109	0.4874	-0.279
Mof_N 	N 	0.0648	0.4192	0.4922	-0.28
Mof_N 	N 	0.6891	0.5739	0.4874	-0.281
Mof_N 	N 	0.5808	0.6456	0.4922	-0.277
Mof_O 	O 	0.4559	0.7875	0.901	-0.37
Mof_O 	O 	0.5266	0.9028	0.8167	-0.397
Mof_O 	O 	0.7602	0.2606	0.8878	-0.372
Mof_O 	O 	0.6748	0.1344	0.81	-0.398
Mof_O 	O 	0.3316	0.5441	0.901	-0.376
Mof_O 	O 	0.3762	0.4734	0.8167	-0.415
Mof_O 	O 	0.5004	0.2398	0.8878	-0.373
Mof_O 	O 	0.4596	0.3252	0.81	-0.393
Mof_O 	O 	0.2125	0.6684	0.901	-0.374
Mof_O 	O 	0.0972	0.6238	0.8167	-0.42
Mof_O 	O 	0.7394	0.4996	0.8878	-0.368
Mof_O 	O 	0.8656	0.5404	0.81	-0.38
Mof_O 	O 	0.6684	0.2125	0.599	-0.376
Mof_O 	O 	0.6238	0.0972	0.6833	-0.423
Mof_O 	O 	0.4996	0.7394	0.6122	-0.368
Mof_O 	O 	0.5404	0.8656	0.69	-0.378
Mof_O 	O 	0.7875	0.4559	0.599	-0.372
Mof_O 	O 	0.9028	0.5266	0.6833	-0.399
Mof_O 	O 	0.2606	0.7602	0.6122	-0.371
Mof_O 	O 	0.1344	0.6748	0.69	-0.396
Mof_O 	O 	0.5441	0.3316	0.599	-0.377
Mof_O 	O 	0.4734	0.3762	0.6833	-0.415
Mof_O 	O 	0.2398	0.5004	0.6122	-0.372
Mof_O 	O 	0.3252	0.4596	0.69	-0.393
Mof_O 	O 	0.5441	0.2125	0.099	-0.376
Mof_O 	O 	0.4734	0.0972	0.1833	-0.423
Mof_O 	O 	0.2398	0.7394	0.1122	-0.371
Mof_O 	O 	0.3252	0.8656	0.19	-0.383
Mof_O 	O 	0.6684	0.4559	0.099	-0.372
Mof_O 	O 	0.6238	0.5266	0.1833	-0.411
Mof_O 	O 	0.4996	0.7602	0.1122	-0.369
Mof_O 	O 	0.5404	0.6748	0.19	-0.388
Mof_O 	O 	0.7875	0.3316	0.099	-0.372
Mof_O 	O 	0.9028	0.3762	0.1833	-0.398
Mof_O 	O 	0.2606	0.5004	0.1122	-0.373
Mof_O 	O 	0.1344	0.4596	0.19	-0.4
Mof_O 	O 	0.3316	0.7875	0.401	-0.374
Mof_O 	O 	0.3762	0.9028	0.3167	-0.401
Mof_O 	O 	0.5004	0.2606	0.3878	-0.373
Mof_O 	O 	0.4596	0.1344	0.31	-0.399
Mof_O 	O 	0.2125	0.5441	0.401	-0.378
Mof_O 	O 	0.0972	0.4734	0.3167	-0.425
Mof_O 	O 	0.7394	0.2398	0.3878	-0.369
Mof_O 	O 	0.8656	0.3252	0.31	-0.38
Mof_O 	O 	0.4559	0.6684	0.401	-0.373
Mof_O 	O 	0.5266	0.6238	0.3167	-0.411
Mof_O 	O 	0.7602	0.4996	0.3878	-0.368
Mof_O 	O 	0.6748	0.5404	0.31	-0.388
Mof_O 	O 	0.66667	0.33334	0.9791	-0.646
Mof_O 	O 	0.33333	0.66666	0.5209	-0.646
Mof_O 	O 	0.33333	0.66666	0.0209	-0.647
Mof_O 	O 	0.66667	0.33334	0.4791	-0.646
_end
