# CIF file generated by openbabel 3.1.0, see https://openbabel.org
data_I
_chemical_name_common 'image0'
_cell_length_a 15.0135
_cell_length_b 14.9245
_cell_length_c 31.4557
_cell_angle_alpha 90
_cell_angle_beta 98.206
_cell_angle_gamma 90
_space_group_name_H-M_alt 'P 1'
_space_group_name_Hall 'P 1'
loop_
    _symmetry_equiv_pos_as_xyz
    x,y,z
loop_
    _atom_site_label
    _atom_site_type_symbol
    _atom_site_fract_x
    _atom_site_fract_y
    _atom_site_fract_z
    _atom_site_occupancy
    Fe1      Fe       0.69150    0.52066    0.45083    1.000
    Au1      Au       0.44626    0.77261    0.45604    1.000
    Au2      Au       0.94965    0.76255    0.44758    1.000
    C1       C        0.85660    0.66820    0.45090    1.000
    C2       C        0.54080    0.68380    0.44690    1.000
    C3       C        0.53780    0.36250    0.44410    1.000
    C4       C        0.84930    0.36260    0.46040    1.000
    N1       N        0.79940    0.61730    0.45270    1.000
    N2       N        0.59280    0.62860    0.44280    1.000
    N3       N        0.58890    0.41930    0.44450    1.000
    N4       N        0.79320    0.41530    0.46100    1.000
    N5       N        0.69020    0.51050    0.38020    1.000
    C5       C        0.76760    0.50620    0.36400    1.000
    H1       H        0.82150    0.51180    0.38320    1.000
    C6       C        0.77350    0.49390    0.32080    1.000
    H2       H        0.83000    0.48920    0.31140    1.000
    C7       C        0.69520    0.48860    0.29150    1.000
    C8       C        0.61370    0.49570    0.30790    1.000
    H3       H        0.55880    0.49420    0.28940    1.000
    C9       C        0.61470    0.50500    0.35180    1.000
    H4       H        0.55920    0.50750    0.36230    1.000
    C10      C        0.69880    0.47560    0.24440    1.000
    C11      C        0.77250    0.43850    0.22900    1.000
    H5       H        0.82260    0.41880    0.24810    1.000
    N6       N        0.62540    0.49850    0.17460    1.000
    N7       N        0.62650    0.50400    0.21750    1.000
    C12      C        0.77130    0.43090    0.18580    1.000
    H6       H        0.81980    0.40510    0.17430    1.000
    C13      C        0.69610    0.46250    0.15940    1.000
    C14      C        0.69060    0.46160    0.11090    1.000
    C15      C        0.64550    0.52890    0.08680    1.000
    H7       H        0.61450    0.57340    0.10000    1.000
    C16      C        0.64670    0.53000    0.04350    1.000
    H8       H        0.61630    0.57690    0.02750    1.000
    C17      C        0.72800    0.40190    0.04530    1.000
    H9       H        0.75450    0.35570    0.03110    1.000
    C18      C        0.73230    0.39680    0.08960    1.000
    H10      H        0.76330    0.34950    0.10490    1.000
    N8       N        0.68880    0.46800    0.02190    1.000
    Fe2      Fe       0.19150    0.02066    0.45083    1.000
    Au3      Au       0.94626    0.27261    0.45604    1.000
    Au4      Au       0.44965    0.26255    0.44758    1.000
    C19      C        0.35660    0.16820    0.45090    1.000
    C20      C        0.04080    0.18380    0.44690    1.000
    C21      C        0.03780    0.86250    0.44410    1.000
    C22      C        0.34930    0.86260    0.46040    1.000
    N9       N        0.29940    0.11730    0.45270    1.000
    N10      N        0.09280    0.12860    0.44280    1.000
    N11      N        0.08890    0.91930    0.44450    1.000
    N12      N        0.29320    0.91530    0.46100    1.000
    N13      N        0.19020    0.01050    0.38020    1.000
    C23      C        0.26760    0.00620    0.36400    1.000
    H11      H        0.32150    0.01180    0.38320    1.000
    C24      C        0.27350    0.99390    0.32080    1.000
    H12      H        0.33000    0.98920    0.31140    1.000
    C25      C        0.19520    0.98860    0.29150    1.000
    C26      C        0.11370    0.99570    0.30790    1.000
    H13      H        0.05880    0.99420    0.28940    1.000
    C27      C        0.11470    0.00500    0.35180    1.000
    H14      H        0.05920    0.00750    0.36230    1.000
    C28      C        0.19880    0.97560    0.24440    1.000
    C29      C        0.27250    0.93850    0.22900    1.000
    H15      H        0.32260    0.91880    0.24810    1.000
    N14      N        0.12540    0.99850    0.17460    1.000
    N15      N        0.12650    0.00400    0.21750    1.000
    C30      C        0.27130    0.93090    0.18580    1.000
    H16      H        0.31980    0.90510    0.17430    1.000
    C31      C        0.19610    0.96250    0.15940    1.000
    C32      C        0.19060    0.96160    0.11090    1.000
    C33      C        0.14550    0.02890    0.08680    1.000
    H17      H        0.11450    0.07340    0.10000    1.000
    C34      C        0.14670    0.03000    0.04350    1.000
    H18      H        0.11630    0.07690    0.02750    1.000
    C35      C        0.22800    0.90190    0.04530    1.000
    H19      H        0.25450    0.85570    0.03110    1.000
    C36      C        0.23230    0.89680    0.08960    1.000
    H20      H        0.26330    0.84950    0.10490    1.000
    N16      N        0.18880    0.96800    0.02190    1.000
    Fe3      Fe       0.69150    0.47934    0.95083    1.000
    Au5      Au       0.44626    0.22739    0.95604    1.000
    Au6      Au       0.94965    0.23745    0.94758    1.000
    C37      C        0.85660    0.33180    0.95090    1.000
    C38      C        0.54080    0.31620    0.94690    1.000
    C39      C        0.53780    0.63750    0.94410    1.000
    C40      C        0.84930    0.63740    0.96040    1.000
    N17      N        0.79940    0.38270    0.95270    1.000
    N18      N        0.59280    0.37140    0.94280    1.000
    N19      N        0.58890    0.58070    0.94450    1.000
    N20      N        0.79320    0.58470    0.96100    1.000
    N21      N        0.69020    0.48950    0.88020    1.000
    C41      C        0.76760    0.49380    0.86400    1.000
    H21      H        0.82150    0.48820    0.88320    1.000
    C42      C        0.77350    0.50610    0.82080    1.000
    H22      H        0.83000    0.51080    0.81140    1.000
    C43      C        0.69520    0.51140    0.79150    1.000
    C44      C        0.61370    0.50430    0.80790    1.000
    H23      H        0.55880    0.50580    0.78940    1.000
    C45      C        0.61470    0.49500    0.85180    1.000
    H24      H        0.55920    0.49250    0.86230    1.000
    C46      C        0.69880    0.52440    0.74440    1.000
    C47      C        0.77250    0.56150    0.72900    1.000
    H25      H        0.82260    0.58120    0.74810    1.000
    N22      N        0.62540    0.50150    0.67460    1.000
    N23      N        0.62650    0.49600    0.71750    1.000
    C48      C        0.77130    0.56910    0.68580    1.000
    H26      H        0.81980    0.59490    0.67430    1.000
    C49      C        0.69610    0.53750    0.65940    1.000
    C50      C        0.69060    0.53840    0.61090    1.000
    C51      C        0.64550    0.47110    0.58680    1.000
    H27      H        0.61450    0.42660    0.60000    1.000
    C52      C        0.64670    0.47000    0.54350    1.000
    H28      H        0.61630    0.42310    0.52750    1.000
    C53      C        0.72800    0.59810    0.54530    1.000
    H29      H        0.75450    0.64430    0.53110    1.000
    C54      C        0.73230    0.60320    0.58960    1.000
    H30      H        0.76330    0.65050    0.60490    1.000
    N24      N        0.68880    0.53200    0.52190    1.000
    Fe4      Fe       0.19150    0.97934    0.95083    1.000
    Au7      Au       0.94626    0.72739    0.95604    1.000
    Au8      Au       0.44965    0.73745    0.94758    1.000
    C55      C        0.35660    0.83180    0.95090    1.000
    C56      C        0.04080    0.81620    0.94690    1.000
    C57      C        0.03780    0.13750    0.94410    1.000
    C58      C        0.34930    0.13740    0.96040    1.000
    N25      N        0.29940    0.88270    0.95270    1.000
    N26      N        0.09280    0.87140    0.94280    1.000
    N27      N        0.08890    0.08070    0.94450    1.000
    N28      N        0.29320    0.08470    0.96100    1.000
    N29      N        0.19020    0.98950    0.88020    1.000
    C59      C        0.26760    0.99380    0.86400    1.000
    H31      H        0.32150    0.98820    0.88320    1.000
    C60      C        0.27350    0.00610    0.82080    1.000
    H32      H        0.33000    0.01080    0.81140    1.000
    C61      C        0.19520    0.01140    0.79150    1.000
    C62      C        0.11370    0.00430    0.80790    1.000
    H33      H        0.05880    0.00580    0.78940    1.000
    C63      C        0.11470    0.99500    0.85180    1.000
    H34      H        0.05920    0.99250    0.86230    1.000
    C64      C        0.19880    0.02440    0.74440    1.000
    C65      C        0.27250    0.06150    0.72900    1.000
    H35      H        0.32260    0.08120    0.74810    1.000
    N30      N        0.12540    0.00150    0.67460    1.000
    N31      N        0.12650    0.99600    0.71750    1.000
    C66      C        0.27130    0.06910    0.68580    1.000
    H36      H        0.31980    0.09490    0.67430    1.000
    C67      C        0.19610    0.03750    0.65940    1.000
    C68      C        0.19060    0.03840    0.61090    1.000
    C69      C        0.14550    0.97110    0.58680    1.000
    H37      H        0.11450    0.92660    0.60000    1.000
    C70      C        0.14670    0.97000    0.54350    1.000
    H38      H        0.11630    0.92310    0.52750    1.000
    C71      C        0.22800    0.09810    0.54530    1.000
    H39      H        0.25450    0.14430    0.53110    1.000
    C72      C        0.23230    0.10320    0.58960    1.000
    H40      H        0.26330    0.15050    0.60490    1.000
    N32      N        0.18880    0.03200    0.52190    1.000
    Fe5      Fe       0.30850    0.52066    0.04917    1.000
    Au9      Au       0.55374    0.77261    0.04396    1.000
    Au10     Au       0.05035    0.76255    0.05242    1.000
    C73      C        0.14340    0.66820    0.04910    1.000
    C74      C        0.45920    0.68380    0.05310    1.000
    C75      C        0.46220    0.36250    0.05590    1.000
    C76      C        0.15070    0.36260    0.03960    1.000
    N33      N        0.20060    0.61730    0.04730    1.000
    N34      N        0.40720    0.62860    0.05720    1.000
    N35      N        0.41110    0.41930    0.05550    1.000
    N36      N        0.20680    0.41530    0.03900    1.000
    N37      N        0.30980    0.51050    0.11980    1.000
    C77      C        0.23240    0.50620    0.13600    1.000
    H41      H        0.17850    0.51180    0.11680    1.000
    C78      C        0.22650    0.49390    0.17920    1.000
    H42      H        0.17000    0.48920    0.18860    1.000
    C79      C        0.30480    0.48860    0.20850    1.000
    C80      C        0.38630    0.49570    0.19210    1.000
    H43      H        0.44120    0.49420    0.21060    1.000
    C81      C        0.38530    0.50500    0.14820    1.000
    H44      H        0.44080    0.50750    0.13770    1.000
    C82      C        0.30120    0.47560    0.25560    1.000
    C83      C        0.22750    0.43850    0.27100    1.000
    H45      H        0.17740    0.41880    0.25190    1.000
    N38      N        0.37460    0.49850    0.32540    1.000
    N39      N        0.37350    0.50400    0.28250    1.000
    C84      C        0.22870    0.43090    0.31420    1.000
    H46      H        0.18020    0.40510    0.32570    1.000
    C85      C        0.30390    0.46250    0.34060    1.000
    C86      C        0.30940    0.46160    0.38910    1.000
    C87      C        0.35450    0.52890    0.41320    1.000
    H47      H        0.38550    0.57340    0.40000    1.000
    C88      C        0.35330    0.53000    0.45650    1.000
    H48      H        0.38370    0.57690    0.47250    1.000
    C89      C        0.27200    0.40190    0.45470    1.000
    H49      H        0.24550    0.35570    0.46890    1.000
    C90      C        0.26770    0.39680    0.41040    1.000
    H50      H        0.23670    0.34950    0.39510    1.000
    N40      N        0.31120    0.46800    0.47810    1.000
    Fe6      Fe       0.80850    0.02066    0.04917    1.000
    Au11     Au       0.05374    0.27261    0.04396    1.000
    Au12     Au       0.55035    0.26255    0.05242    1.000
    C91      C        0.64340    0.16820    0.04910    1.000
    C92      C        0.95920    0.18380    0.05310    1.000
    C93      C        0.96220    0.86250    0.05590    1.000
    C94      C        0.65070    0.86260    0.03960    1.000
    N41      N        0.70060    0.11730    0.04730    1.000
    N42      N        0.90720    0.12860    0.05720    1.000
    N43      N        0.91110    0.91930    0.05550    1.000
    N44      N        0.70680    0.91530    0.03900    1.000
    N45      N        0.80980    0.01050    0.11980    1.000
    C95      C        0.73240    0.00620    0.13600    1.000
    H51      H        0.67850    0.01180    0.11680    1.000
    C96      C        0.72650    0.99390    0.17920    1.000
    H52      H        0.67000    0.98920    0.18860    1.000
    C97      C        0.80480    0.98860    0.20850    1.000
    C98      C        0.88630    0.99570    0.19210    1.000
    H53      H        0.94120    0.99420    0.21060    1.000
    C99      C        0.88530    0.00500    0.14820    1.000
    H54      H        0.94080    0.00750    0.13770    1.000
    C100     C        0.80120    0.97560    0.25560    1.000
    C101     C        0.72750    0.93850    0.27100    1.000
    H55      H        0.67740    0.91880    0.25190    1.000
    N46      N        0.87460    0.99850    0.32540    1.000
    N47      N        0.87350    0.00400    0.28250    1.000
    C102     C        0.72870    0.93090    0.31420    1.000
    H56      H        0.68020    0.90510    0.32570    1.000
    C103     C        0.80390    0.96250    0.34060    1.000
    C104     C        0.80940    0.96160    0.38910    1.000
    C105     C        0.85450    0.02890    0.41320    1.000
    H57      H        0.88550    0.07340    0.40000    1.000
    C106     C        0.85330    0.03000    0.45650    1.000
    H58      H        0.88370    0.07690    0.47250    1.000
    C107     C        0.77200    0.90190    0.45470    1.000
    H59      H        0.74550    0.85570    0.46890    1.000
    C108     C        0.76770    0.89680    0.41040    1.000
    H60      H        0.73670    0.84950    0.39510    1.000
    N48      N        0.81120    0.96800    0.47810    1.000
    Fe7      Fe       0.30850    0.47934    0.54917    1.000
    Au13     Au       0.55374    0.22739    0.54396    1.000
    Au14     Au       0.05035    0.23745    0.55242    1.000
    C109     C        0.14340    0.33180    0.54910    1.000
    C110     C        0.45920    0.31620    0.55310    1.000
    C111     C        0.46220    0.63750    0.55590    1.000
    C112     C        0.15070    0.63740    0.53960    1.000
    N49      N        0.20060    0.38270    0.54730    1.000
    N50      N        0.40720    0.37140    0.55720    1.000
    N51      N        0.41110    0.58070    0.55550    1.000
    N52      N        0.20680    0.58470    0.53900    1.000
    N53      N        0.30980    0.48950    0.61980    1.000
    C113     C        0.23240    0.49380    0.63600    1.000
    H61      H        0.17850    0.48820    0.61680    1.000
    C114     C        0.22650    0.50610    0.67920    1.000
    H62      H        0.17000    0.51080    0.68860    1.000
    C115     C        0.30480    0.51140    0.70850    1.000
    C116     C        0.38630    0.50430    0.69210    1.000
    H63      H        0.44120    0.50580    0.71060    1.000
    C117     C        0.38530    0.49500    0.64820    1.000
    H64      H        0.44080    0.49250    0.63770    1.000
    C118     C        0.30120    0.52440    0.75560    1.000
    C119     C        0.22750    0.56150    0.77100    1.000
    H65      H        0.17740    0.58120    0.75190    1.000
    N54      N        0.37460    0.50150    0.82540    1.000
    N55      N        0.37350    0.49600    0.78250    1.000
    C120     C        0.22870    0.56910    0.81420    1.000
    H66      H        0.18020    0.59490    0.82570    1.000
    C121     C        0.30390    0.53750    0.84060    1.000
    C122     C        0.30940    0.53840    0.88910    1.000
    C123     C        0.35450    0.47110    0.91320    1.000
    H67      H        0.38550    0.42660    0.90000    1.000
    C124     C        0.35330    0.47000    0.95650    1.000
    H68      H        0.38370    0.42310    0.97250    1.000
    C125     C        0.27200    0.59810    0.95470    1.000
    H69      H        0.24550    0.64430    0.96890    1.000
    C126     C        0.26770    0.60320    0.91040    1.000
    H70      H        0.23670    0.65050    0.89510    1.000
    N56      N        0.31120    0.53200    0.97810    1.000
    Fe8      Fe       0.80850    0.97934    0.54917    1.000
    Au15     Au       0.05374    0.72739    0.54396    1.000
    Au16     Au       0.55035    0.73745    0.55242    1.000
    C127     C        0.64340    0.83180    0.54910    1.000
    C128     C        0.95920    0.81620    0.55310    1.000
    C129     C        0.96220    0.13750    0.55590    1.000
    C130     C        0.65070    0.13740    0.53960    1.000
    N57      N        0.70060    0.88270    0.54730    1.000
    N58      N        0.90720    0.87140    0.55720    1.000
    N59      N        0.91110    0.08070    0.55550    1.000
    N60      N        0.70680    0.08470    0.53900    1.000
    N61      N        0.80980    0.98950    0.61980    1.000
    C131     C        0.73240    0.99380    0.63600    1.000
    H71      H        0.67850    0.98820    0.61680    1.000
    C132     C        0.72650    0.00610    0.67920    1.000
    H72      H        0.67000    0.01080    0.68860    1.000
    C133     C        0.80480    0.01140    0.70850    1.000
    C134     C        0.88630    0.00430    0.69210    1.000
    H73      H        0.94120    0.00580    0.71060    1.000
    C135     C        0.88530    0.99500    0.64820    1.000
    H74      H        0.94080    0.99250    0.63770    1.000
    C136     C        0.80120    0.02440    0.75560    1.000
    C137     C        0.72750    0.06150    0.77100    1.000
    H75      H        0.67740    0.08120    0.75190    1.000
    N62      N        0.87460    0.00150    0.82540    1.000
    N63      N        0.87350    0.99600    0.78250    1.000
    C138     C        0.72870    0.06910    0.81420    1.000
    H76      H        0.68020    0.09490    0.82570    1.000
    C139     C        0.80390    0.03750    0.84060    1.000
    C140     C        0.80940    0.03840    0.88910    1.000
    C141     C        0.85450    0.97110    0.91320    1.000
    H77      H        0.88550    0.92660    0.90000    1.000
    C142     C        0.85330    0.97000    0.95650    1.000
    H78      H        0.88370    0.92310    0.97250    1.000
    C143     C        0.77200    0.09810    0.95470    1.000
    H79      H        0.74550    0.14430    0.96890    1.000
    C144     C        0.76770    0.10320    0.91040    1.000
    H80      H        0.73670    0.15050    0.89510    1.000
    N64      N        0.81120    0.03200    0.97810    1.000
