data_functionalizedCrystal
_audit_creation_method	'EQeq! by Chris Wilmer'
_symmetry_space_group_name_H-M	'P1'
_symmetry_Int_Tables_number	1
_symmetry_cell_setting	triclinic
loop_
_symmetry_equiv_pos_as_xyz
  x,y,z
_cell_length_a	21.898
_cell_length_b	22.149
_cell_length_c	24.663
_cell_angle_alpha	109.978
_cell_angle_beta	109.835
_cell_angle_gamma	104.489
loop_
_atom_site_label
_atom_site_type_symbol
_atom_site_fract_x
_atom_site_fract_y
_atom_site_fract_z
_atom_site_charge
Mof_C 	C 	0.2087	0.7168	0.3946	-0.086
Mof_H 	H 	0.21	0.6756	0.3668	0.059
Mof_C 	C 	0.2214	0.7303	0.4579	-0.017
Mof_H 	H 	0.2305	0.6975	0.4725	0.033
Mof_C 	C 	0.221	0.7898	0.4995	-0.047
Mof_H 	H 	0.2311	0.7983	0.5427	0.046
Mof_C 	C 	0.2058	0.8379	0.4784	-0.059
Mof_H 	H 	0.2046	0.8787	0.5069	0.033
Mof_C 	C 	0.1923	0.8254	0.4147	0.013
Mof_C 	C 	0.1941	0.7645	0.37278	0.039
Mof_C 	C 	0.1796	0.76	0.30673	-0.107
Mof_H 	H 	0.1809	0.7168	0.2771	0.084
Mof_C 	C 	0.1744	0.8705	0.38346	-0.088
Mof_H 	H 	0.1729	0.9136	0.4131	0.065
Mof_C 	C 	0.2318	0.8274	0.3175	0.034
Mof_C 	C 	0.2775	0.8338	0.2903	-0.079
Mof_H 	H 	0.2784	0.7928	0.2618	0.056
Mof_C 	C 	0.3211	0.8991	0.3045	-0.025
Mof_H 	H 	0.3521	0.9037	0.2856	0.034
Mof_C 	C 	0.32	0.9593	0.3472	-0.034
Mof_H 	H 	0.3516	0.0048	0.3584	0.034
Mof_C 	C 	0.2722	0.9528	0.3739	-0.071
Mof_H 	H 	0.2702	0.9936	0.4017	0.051
Mof_C 	C 	0.2293	0.8876	0.359	0.023
Mof_C 	C 	0.10757	0.76277	0.27997	0.056
Mof_C 	C 	0.10403	0.82206	0.32167	0.044
Mof_C 	C 	0.04313	0.83413	0.30478	-0.122
Mof_C 	C 	0.98513	0.78606	0.24455	-0.009
Mof_H 	H 	0.943	0.7939	0.2314	0.043
Mof_C 	C 	0.98735	0.72741	0.20355	-0.007
Mof_H 	H 	0.9463	0.6947	0.163	0.033
Mof_C 	C 	0.04894	0.71493	0.22031	-0.127
Mof_C 	C 	0.04821	0.65193	0.17102	0.401
Mof_C 	C 	0.03471	0.89405	0.34741	0.395
Mof_C 	C 	0.2777	0.22316	0.65858	0.027
Mof_C 	C 	0.3007	0.1779	0.6772	-0.077
Mof_H 	H 	0.2676	0.1321	0.6638	0.064
Mof_C 	C 	0.3722	0.1995	0.7154	-0.021
Mof_H 	H 	0.3887	0.1689	0.7293	0.039
Mof_C 	C 	0.4207	0.2659	0.7338	-0.032
Mof_H 	H 	0.4702	0.2803	0.7595	0.045
Mof_C 	C 	0.3968	0.3109	0.7149	-0.071
Mof_H 	H 	0.4298	0.3565	0.7278	0.056
Mof_C 	C 	0.3253	0.28965	0.67731	0.031
Mof_C 	C 	0.20156	0.20835	0.61584	-0.083
Mof_H 	H 	0.1667	0.1602	0.6018	0.049
Mof_C 	C 	0.28999	0.33186	0.65143	-0.1
Mof_H 	H 	0.3251	0.3802	0.6662	0.077
Mof_C 	C 	0.18602	0.26693	0.65467	0.004
Mof_C 	C 	0.23339	0.33371	0.67284	0.042
Mof_C 	C 	0.224	0.3927	0.70592	-0.088
Mof_H 	H 	0.2558	0.4385	0.718	0.067
Mof_C 	C 	0.1681	0.3846	0.7212	-0.009
Mof_H 	H 	0.1611	0.425	0.7427	0.036
Mof_C 	C 	0.1223	0.3188	0.7056	-0.051
Mof_H 	H 	0.0854	0.3139	0.718	0.049
Mof_C 	C 	0.131	0.2592	0.67137	-0.053
Mof_H 	H 	0.0993	0.2135	0.6596	0.027
Mof_C 	C 	0.2025	0.22009	0.55778	0.041
Mof_C 	C 	0.2521	0.28715	0.57765	0.043
Mof_C 	C 	0.2596	0.3085	0.5322	-0.098
Mof_C 	C 	0.2165	0.2613	0.4666	-0.021
Mof_H 	H 	0.221	0.2748	0.435	0.045
Mof_C 	C 	0.1672	0.1954	0.4463	-0.004
Mof_H 	H 	0.1376	0.1642	0.401	0.044
Mof_C 	C 	0.1607	0.17414	0.49196	-0.119
Mof_C 	C 	0.10573	0.10204	0.46641	0.396
Mof_C 	C 	0.3129	0.3786	0.5496	0.342
Mof_C 	C 	0.7906	0.15718	0.33178	0.006
Mof_C 	C 	0.852	0.2123	0.3842	-0.055
Mof_H 	H 	0.8828	0.2051	0.4169	0.038
Mof_C 	C 	0.8675	0.278	0.3878	-0.044
Mof_H 	H 	0.9087	0.3171	0.4246	0.042
Mof_C 	C 	0.8249	0.2889	0.3394	-0.009
Mof_H 	H 	0.8371	0.3349	0.343	0.035
Mof_C 	C 	0.7655	0.2338	0.2867	-0.09
Mof_H 	H 	0.7367	0.2407	0.2527	0.072
Mof_C 	C 	0.7475	0.16805	0.2831	0.049
Mof_C 	C 	0.7647	0.08139	0.31953	-0.071
Mof_H 	H 	0.7966	0.0746	0.3549	0.046
Mof_C 	C 	0.68446	0.10082	0.22872	-0.104
Mof_H 	H 	0.6524	0.1081	0.1938	0.062
Mof_C 	C 	0.6897	0.06094	0.31113	0.019
Mof_C 	C 	0.6639	0.0362	0.34727	-0.068
Mof_H 	H 	0.6938	0.029	0.3804	0.048
Mof_C 	C 	0.593	0.0221	0.334	-0.033
Mof_H 	H 	0.5744	0.0054	0.3582	0.035
Mof_C 	C 	0.5507	0.0327	0.2858	-0.034
Mof_H 	H 	0.5028	0.0238	0.2773	0.031
Mof_C 	C 	0.5769	0.0564	0.2484	-0.075
Mof_H 	H 	0.5465	0.0619	0.2141	0.033
Mof_C 	C 	0.6468	0.0714	0.26226	0.023
Mof_C 	C 	0.76008	0.03989	0.25303	0.016
Mof_C 	C 	0.71706	0.0508	0.2037	0.06
Mof_C 	C 	0.70918	0.01844	0.14056	-0.141
Mof_C 	C 	0.74476	0.97478	0.12769	0.023
Mof_H 	H 	0.738	0.9508	0.0846	0.034
Mof_C 	C 	0.78891	0.96641	0.1764	-0.038
Mof_H 	H 	0.8151	0.9393	0.1676	0.053
Mof_C 	C 	0.79584	0.99795	0.23999	-0.066
Mof_C 	C 	0.8427	0.98646	0.29198	0.321
Mof_C 	C 	0.66351	0.02778	0.0865	0.403
Mof_C 	C 	0.57663	0.34431	0.92903	0.026
Mof_C 	C 	0.5257	0.3612	0.94424	-0.069
Mof_H 	H 	0.4932	0.3295	0.9499	0.055
Mof_C 	C 	0.523	0.4255	0.95109	-0.032
Mof_H 	H 	0.4885	0.4378	0.9617	0.036
Mof_C 	C 	0.5698	0.4711	0.94265	-0.025
Mof_H 	H 	0.5673	0.5148	0.9479	0.033
Mof_C 	C 	0.621	0.45475	0.92645	-0.078
Mof_H 	H 	0.653	0.4868	0.9207	0.06
Mof_C 	C 	0.62399	0.3905	0.919	0.033
Mof_C 	C 	0.58839	0.27756	0.919	-0.086
Mof_H 	H 	0.5551	0.2439	0.9255	0.068
Mof_C 	C 	0.67408	0.36291	0.89968	-0.102
Mof_H 	H 	0.7075	0.3964	0.8932	0.077
Mof_C 	C 	0.58181	0.24595	0.85041	0.019
Mof_C 	C 	0.62748	0.29201	0.8396	0.035
Mof_C 	C 	0.6286	0.2722	0.77956	-0.077
Mof_H 	H 	0.661	0.3039	0.7738	0.056
Mof_C 	C 	0.5817	0.2063	0.72969	-0.027
Mof_H 	H 	0.5804	0.1919	0.6882	0.035
Mof_C 	C 	0.5361	0.1602	0.7397	-0.035
Mof_H 	H 	0.5039	0.1143	0.7047	0.037
Mof_C 	C 	0.53643	0.18	0.8008	-0.072
Mof_H 	H 	0.5054	0.1476	0.8071	0.05
Mof_C 	C 	0.69414	0.28151	0.01271	-0.081
Mof_C 	C 	0.66651	0.30149	0.96509	0.029
Mof_C 	C 	0.71219	0.34568	0.95303	0.061
Mof_C 	C 	0.78445	0.37088	0.9882	-0.125
Mof_C 	C 	0.81269	0.35324	0.03731	0.005
Mof_H 	H 	0.8629	0.3721	0.0632	0.027
Mof_C 	C 	0.76739	0.30798	0.04845	-0.032
Mof_H 	H 	0.7872	0.2951	0.0812	0.052
Mof_C 	C 	0.64955	0.23256	0.02777	0.311
Mof_C 	C 	0.83419	0.41307	0.97216	0.402
Mof_C 	C 	0.40035	0.56325	0.76709	0.028
Mof_C 	C 	0.4259	0.51347	0.77208	-0.078
Mof_H 	H 	0.4257	0.48	0.7356	0.064
Mof_C 	C 	0.452	0.51348	0.83234	-0.029
Mof_H 	H 	0.4679	0.4783	0.8361	0.039
Mof_C 	C 	0.455	0.5634	0.88641	-0.025
Mof_H 	H 	0.4743	0.5631	0.9271	0.035
Mof_C 	C 	0.42992	0.6144	0.88182	-0.079
Mof_H 	H 	0.4315	0.6488	0.9188	0.068
Mof_C 	C 	0.40256	0.61365	0.82185	0.03
Mof_C 	C 	0.36736	0.57052	0.70579	-0.095
Mof_H 	H 	0.3647	0.5338	0.6666	0.075
Mof_C 	C 	0.37067	0.6639	0.80683	-0.096
Mof_H 	H 	0.3721	0.6999	0.8456	0.076
Mof_C 	C 	0.2947	0.56712	0.6983	0.03
Mof_C 	C 	0.2309	0.5189	0.6445	-0.075
Mof_H 	H 	0.2292	0.4857	0.6067	0.06
Mof_C 	C 	0.1686	0.5205	0.6473	-0.027
Mof_H 	H 	0.1237	0.4875	0.6107	0.038
Mof_C 	C 	0.1703	0.5686	0.702	-0.03
Mof_H 	H 	0.127	0.5677	0.7029	0.038
Mof_C 	C 	0.235	0.6178	0.755	-0.074
Mof_H 	H 	0.2371	0.652	0.7924	0.057
Mof_C 	C 	0.2968	0.6162	0.7524	0.031
Mof_C 	C 	0.41122	0.64508	0.72232	0.046
Mof_C 	C 	0.41319	0.69642	0.77731	0.051
Mof_C 	C 	0.45329	0.76647	0.79989	-0.123
Mof_C 	C 	0.49437	0.78541	0.77061	-0.001
Mof_H 	H 	0.5235	0.8339	0.7877	0.031
Mof_C 	C 	0.49401	0.73583	0.71755	-0.017
Mof_H 	H 	0.5227	0.7499	0.6988	0.031
Mof_C 	C 	0.45052	0.66469	0.69224	-0.109
Mof_C 	C 	0.4495	0.6129	0.63259	0.396
Mof_C 	C 	0.45386	0.82445	0.85514	0.421
Mof_C 	C 	0.2839	0.35748	0.14756	0.021
Mof_C 	C 	0.3094	0.3586	0.10291	-0.065
Mof_H 	H 	0.2854	0.3676	0.0685	0.051
Mof_C 	C 	0.3698	0.3466	0.1093	-0.032
Mof_H 	H 	0.3876	0.3471	0.0792	0.04
Mof_C 	C 	0.404	0.334	0.1595	-0.021
Mof_H 	H 	0.4457	0.3261	0.164	0.044
Mof_C 	C 	0.3785	0.3326	0.2048	-0.081
Mof_H 	H 	0.4027	0.3235	0.2391	0.068
Mof_C 	C 	0.3182	0.34454	0.19871	0.035
Mof_C 	C 	0.2185	0.36989	0.14888	-0.082
Mof_H 	H 	0.1929	0.3791	0.1125	0.062
Mof_C 	C 	0.2819	0.34479	0.24227	-0.102
Mof_H 	H 	0.3068	0.3347	0.2782	0.071
Mof_C 	C 	0.1723	0.3065	0.1476	0.017
Mof_C 	C 	0.2058	0.2923	0.1982	0.034
Mof_C 	C 	0.1694	0.2353	0.203	-0.08
Mof_H 	H 	0.1922	0.2258	0.2375	0.052
Mof_C 	C 	0.1005	0.1931	0.1575	-0.02
Mof_H 	H 	0.0748	0.1538	0.1604	0.035
Mof_C 	C 	0.0672	0.2063	0.1074	-0.037
Mof_H 	H 	0.0191	0.1754	0.0756	0.038
Mof_C 	C 	0.1021	0.2633	0.1023	-0.064
Mof_H 	H 	0.0783	0.2728	0.0681	0.039
Mof_C 	C 	0.24575	0.43132	0.21649	0.029
Mof_C 	C 	0.27942	0.4166	0.26762	0.058
Mof_C 	C 	0.304	0.46491	0.3319	-0.124
Mof_C 	C 	0.2943	0.5279	0.34506	0
Mof_H 	H 	0.3096	0.5608	0.3888	0.03
Mof_C 	C 	0.2628	0.5419	0.29498	-0.029
Mof_H 	H 	0.2576	0.5851	0.3047	0.05
Mof_C 	C 	0.23822	0.49363	0.22962	-0.082
Mof_C 	C 	0.20531	0.51359	0.1782	0.321
Mof_C 	C 	0.34175	0.45495	0.38892	0.382
Mof_O 	O 	0.1073	0.64941	0.17931	-0.504
Mof_O 	O 	0.98967	0.60654	0.12606	-0.496
Mof_O 	O 	0.99047	0.91411	0.31841	-0.474
Mof_O 	O 	0.06893	0.91955	0.40766	-0.511
Mof_O 	O 	0.0361	0.50049	0.05804	-0.767
Mof_O 	O 	0.88728	0.46513	0.01863	-0.498
Mof_O 	O 	0.95889	0.9703	0.43418	-0.776
Mof_H 	H 	0.9221	0.9207	0.4116	0.149
Mof_O 	O 	0.05454	0.07919	0.41073	-0.501
Mof_O 	O 	0.1138	0.07003	0.49911	-0.495
Mof_O 	O 	0.90515	0.99919	0.29777	-0.454
Mof_O 	O 	0.82002	0.96626	0.32565	-0.333
Mof_O 	O 	0.62964	0.97632	0.03124	-0.506
Mof_O 	O 	0.66282	0.08728	0.1004	-0.517
Mof_O 	O 	0.36583	0.41397	0.60251	-0.341
Mof_O 	O 	0.29991	0.39622	0.50415	-0.478
Mof_O 	O 	0.479	0.94277	0.00656	-0.968
Mof_O 	O 	0.508	0.8809	0.88751	-0.529
Mof_O 	O 	0.67814	0.19538	0.04768	-0.463
Mof_O 	O 	0.59001	0.22911	0.0212	-0.34
Mof_O 	O 	0.3994	0.81248	0.86344	-0.49
Mof_O 	O 	0.38994	0.564	0.5904	-0.495
Mof_O 	O 	0.50656	0.62312	0.62913	-0.496
Mof_O 	O 	0.465	0.47701	0.53017	-0.902
Mof_O 	O 	0.33394	0.48348	0.43916	-0.494
Mof_O 	O 	0.38021	0.42159	0.38458	-0.505
Mof_O 	O 	0.20612	0.48846	0.12497	-0.331
Mof_O 	O 	0.17764	0.55666	0.19404	-0.453
Mof_O 	O 	0.81765	0.39136	0.91231	-0.509
Mof_Zn	Zn	0.12539	0.57507	0.12556	1.225
Mof_Zn	Zn	0.96743	0.54953	0.03084	1.175
Mof_Zn	Zn	0.05649	0.97118	0.488	1.178
Mof_Zn	Zn	0.97126	0.99189	0.36675	1.227
Mof_Zn	Zn	0.54428	0.97198	0.96488	1.195
Mof_Zn	Zn	0.61062	0.13403	0.05992	1.226
Mof_Zn	Zn	0.37324	0.47659	0.51976	1.227
Mof_Zn	Zn	0.46891	0.42234	0.4447	1.187
Mof_H 	H 	0.506	0.941	0.038	0.331
Mof_H 	H 	0.475	0.46	0.557	0.265
Mof_H 	H 	0.008	0.455	0.061	0.112
Mof_C 	C 	0.7913	0.2832	0.6054	-0.085
Mof_H 	H 	0.79	0.3244	0.6332	0.06
Mof_C 	C 	0.7786	0.2697	0.5421	-0.016
Mof_H 	H 	0.7695	0.3025	0.5275	0.034
Mof_C 	C 	0.779	0.2102	0.5005	-0.047
Mof_H 	H 	0.7689	0.2017	0.4573	0.046
Mof_C 	C 	0.7942	0.1621	0.5216	-0.059
Mof_H 	H 	0.7954	0.1213	0.4931	0.033
Mof_C 	C 	0.8077	0.1746	0.5853	0.013
Mof_C 	C 	0.8059	0.2355	0.62722	0.039
Mof_C 	C 	0.8204	0.24	0.69327	-0.107
Mof_H 	H 	0.8191	0.2832	0.7229	0.084
Mof_C 	C 	0.8256	0.1295	0.61654	-0.088
Mof_H 	H 	0.8271	0.0864	0.5869	0.065
Mof_C 	C 	0.7682	0.1726	0.6825	0.034
Mof_C 	C 	0.7225	0.1662	0.7097	-0.079
Mof_H 	H 	0.7216	0.2072	0.7382	0.056
Mof_C 	C 	0.6789	0.1009	0.6955	-0.025
Mof_H 	H 	0.6479	0.0963	0.7144	0.034
Mof_C 	C 	0.68	0.0407	0.6528	-0.034
Mof_H 	H 	0.6484	0.9952	0.6416	0.034
Mof_C 	C 	0.7278	0.0472	0.6261	-0.071
Mof_H 	H 	0.7298	0.0064	0.5983	0.051
Mof_C 	C 	0.7707	0.1124	0.641	0.023
Mof_C 	C 	0.89243	0.23723	0.72003	0.056
Mof_C 	C 	0.89597	0.17794	0.67833	0.044
Mof_C 	C 	0.95687	0.16587	0.69522	-0.122
Mof_C 	C 	0.01487	0.21394	0.75545	-0.009
Mof_H 	H 	0.057	0.2061	0.7686	0.043
Mof_C 	C 	0.01265	0.27259	0.79645	-0.007
Mof_H 	H 	0.0537	0.3053	0.837	0.033
Mof_C 	C 	0.95106	0.28507	0.77969	-0.127
Mof_C 	C 	0.95179	0.34807	0.82898	0.401
Mof_C 	C 	0.96529	0.10595	0.65259	0.395
Mof_C 	C 	0.7223	0.77684	0.34142	0.027
Mof_C 	C 	0.6993	0.8221	0.3228	-0.077
Mof_H 	H 	0.7324	0.8679	0.3362	0.064
Mof_C 	C 	0.6278	0.8005	0.2846	-0.021
Mof_H 	H 	0.6113	0.8311	0.2707	0.039
Mof_C 	C 	0.5793	0.7341	0.2662	-0.032
Mof_H 	H 	0.5298	0.7197	0.2405	0.045
Mof_C 	C 	0.6032	0.6891	0.2851	-0.071
Mof_H 	H 	0.5702	0.6435	0.2722	0.056
Mof_C 	C 	0.6747	0.71035	0.32269	0.031
Mof_C 	C 	0.79844	0.79165	0.38416	-0.083
Mof_H 	H 	0.8333	0.8398	0.3982	0.049
Mof_C 	C 	0.71001	0.66814	0.34857	-0.1
Mof_H 	H 	0.6749	0.6198	0.3338	0.077
Mof_C 	C 	0.81398	0.73307	0.34533	0.004
Mof_C 	C 	0.76661	0.66629	0.32716	0.042
Mof_C 	C 	0.776	0.6073	0.29408	-0.088
Mof_H 	H 	0.7442	0.5615	0.282	0.067
Mof_C 	C 	0.8319	0.6154	0.2788	-0.009
Mof_H 	H 	0.8389	0.575	0.2573	0.036
Mof_C 	C 	0.8777	0.6812	0.2944	-0.051
Mof_H 	H 	0.9146	0.6861	0.282	0.049
Mof_C 	C 	0.869	0.7408	0.32863	-0.053
Mof_H 	H 	0.9007	0.7865	0.3404	0.027
Mof_C 	C 	0.7975	0.77991	0.44222	0.041
Mof_C 	C 	0.7479	0.71285	0.42235	0.043
Mof_C 	C 	0.7404	0.6915	0.4678	-0.098
Mof_C 	C 	0.7835	0.7387	0.5334	-0.021
Mof_H 	H 	0.779	0.7252	0.565	0.045
Mof_C 	C 	0.8328	0.8046	0.5537	-0.004
Mof_H 	H 	0.8624	0.8358	0.599	0.044
Mof_C 	C 	0.8393	0.82586	0.50804	-0.119
Mof_C 	C 	0.89427	0.89796	0.53359	0.396
Mof_C 	C 	0.6871	0.6214	0.4504	0.342
Mof_C 	C 	0.2094	0.84282	0.66822	0.006
Mof_C 	C 	0.148	0.7877	0.6158	-0.055
Mof_H 	H 	0.1172	0.7949	0.5831	0.038
Mof_C 	C 	0.1325	0.722	0.6122	-0.044
Mof_H 	H 	0.0913	0.6829	0.5754	0.042
Mof_C 	C 	0.1751	0.7111	0.6606	-0.009
Mof_H 	H 	0.1629	0.6651	0.657	0.035
Mof_C 	C 	0.2345	0.7662	0.7133	-0.09
Mof_H 	H 	0.2633	0.7593	0.7473	0.072
Mof_C 	C 	0.2525	0.83195	0.7169	0.049
Mof_C 	C 	0.2353	0.91861	0.68047	-0.071
Mof_H 	H 	0.2034	0.9254	0.6451	0.046
Mof_C 	C 	0.31554	0.89918	0.77128	-0.104
Mof_H 	H 	0.3476	0.8919	0.8062	0.062
Mof_C 	C 	0.3103	0.93906	0.68887	0.019
Mof_C 	C 	0.3361	0.9638	0.65273	-0.068
Mof_H 	H 	0.3062	0.971	0.6196	0.048
Mof_C 	C 	0.407	0.9779	0.666	-0.033
Mof_H 	H 	0.4256	0.9946	0.6418	0.035
Mof_C 	C 	0.4493	0.9673	0.7142	-0.034
Mof_H 	H 	0.4972	0.9762	0.7227	0.031
Mof_C 	C 	0.4231	0.9436	0.7516	-0.075
Mof_H 	H 	0.4535	0.9381	0.7859	0.033
Mof_C 	C 	0.3532	0.9286	0.73774	0.023
Mof_C 	C 	0.23992	0.96011	0.74697	0.016
Mof_C 	C 	0.28294	0.9492	0.7963	0.06
Mof_C 	C 	0.29082	0.98156	0.85944	-0.141
Mof_C 	C 	0.25524	0.02522	0.87231	0.023
Mof_H 	H 	0.262	0.0492	0.9154	0.034
Mof_C 	C 	0.21109	0.03359	0.8236	-0.038
Mof_H 	H 	0.1849	0.0607	0.8324	0.053
Mof_C 	C 	0.20416	0.00205	0.76001	-0.066
Mof_C 	C 	0.1573	0.01354	0.70802	0.321
Mof_C 	C 	0.33649	0.97222	0.9135	0.403
Mof_C 	C 	0.42337	0.65569	0.07097	0.026
Mof_C 	C 	0.4743	0.6388	0.05576	-0.069
Mof_H 	H 	0.5068	0.6705	0.0501	0.055
Mof_C 	C 	0.477	0.5745	0.04891	-0.032
Mof_H 	H 	0.5115	0.5622	0.0383	0.036
Mof_C 	C 	0.4302	0.5289	0.05735	-0.025
Mof_H 	H 	0.4327	0.4852	0.0521	0.033
Mof_C 	C 	0.379	0.54525	0.07355	-0.078
Mof_H 	H 	0.347	0.5132	0.0793	0.06
Mof_C 	C 	0.37601	0.6095	0.081	0.033
Mof_C 	C 	0.41161	0.72244	0.081	-0.086
Mof_H 	H 	0.4449	0.7561	0.0745	0.068
Mof_C 	C 	0.32592	0.63709	0.10032	-0.102
Mof_H 	H 	0.2925	0.6036	0.1068	0.077
Mof_C 	C 	0.41819	0.75405	0.14959	0.019
Mof_C 	C 	0.37252	0.70799	0.1604	0.035
Mof_C 	C 	0.3714	0.7278	0.22044	-0.077
Mof_H 	H 	0.339	0.6961	0.2262	0.056
Mof_C 	C 	0.4183	0.7937	0.27031	-0.027
Mof_H 	H 	0.4196	0.8081	0.3118	0.035
Mof_C 	C 	0.4639	0.8398	0.2603	-0.035
Mof_H 	H 	0.4961	0.8857	0.2953	0.037
Mof_C 	C 	0.46357	0.82	0.1992	-0.072
Mof_H 	H 	0.4946	0.8524	0.1929	0.05
Mof_C 	C 	0.30586	0.71849	0.98729	-0.081
Mof_C 	C 	0.33349	0.69851	0.03491	0.029
Mof_C 	C 	0.28781	0.65432	0.04697	0.061
Mof_C 	C 	0.21555	0.62912	0.0118	-0.125
Mof_C 	C 	0.18731	0.64676	0.96269	0.005
Mof_H 	H 	0.1371	0.6279	0.9368	0.027
Mof_C 	C 	0.23261	0.69202	0.95155	-0.032
Mof_H 	H 	0.2128	0.7049	0.9188	0.052
Mof_C 	C 	0.35045	0.76744	0.97223	0.311
Mof_C 	C 	0.16581	0.58693	0.02784	0.402
Mof_C 	C 	0.59965	0.43675	0.23291	0.028
Mof_C 	C 	0.5741	0.48653	0.22792	-0.078
Mof_H 	H 	0.5743	0.52	0.2644	0.064
Mof_C 	C 	0.548	0.48652	0.16766	-0.029
Mof_H 	H 	0.5321	0.5217	0.1639	0.039
Mof_C 	C 	0.545	0.4366	0.11359	-0.025
Mof_H 	H 	0.5257	0.4369	0.0729	0.035
Mof_C 	C 	0.57008	0.3856	0.11818	-0.079
Mof_H 	H 	0.5685	0.3512	0.0812	0.068
Mof_C 	C 	0.59744	0.38635	0.17815	0.03
Mof_C 	C 	0.63264	0.42948	0.29421	-0.095
Mof_H 	H 	0.6353	0.4662	0.3334	0.075
Mof_C 	C 	0.62933	0.3361	0.19317	-0.096
Mof_H 	H 	0.6279	0.3001	0.1544	0.076
Mof_C 	C 	0.7053	0.43288	0.3017	0.03
Mof_C 	C 	0.7691	0.4811	0.3555	-0.075
Mof_H 	H 	0.7708	0.5143	0.3933	0.06
Mof_C 	C 	0.8314	0.4795	0.3527	-0.027
Mof_H 	H 	0.8763	0.5125	0.3893	0.038
Mof_C 	C 	0.8297	0.4314	0.298	-0.03
Mof_H 	H 	0.873	0.4323	0.2971	0.038
Mof_C 	C 	0.765	0.3822	0.245	-0.074
Mof_H 	H 	0.7629	0.348	0.2076	0.057
Mof_C 	C 	0.7032	0.3838	0.2476	0.031
Mof_C 	C 	0.58878	0.35492	0.27768	0.046
Mof_C 	C 	0.58681	0.30358	0.22269	0.051
Mof_C 	C 	0.54671	0.23353	0.20011	-0.123
Mof_C 	C 	0.50563	0.21459	0.22939	-0.001
Mof_H 	H 	0.4765	0.1661	0.2123	0.031
Mof_C 	C 	0.50599	0.26417	0.28245	-0.017
Mof_H 	H 	0.4773	0.2501	0.3012	0.031
Mof_C 	C 	0.54948	0.33531	0.30776	-0.109
Mof_C 	C 	0.5505	0.3871	0.36741	0.396
Mof_C 	C 	0.54614	0.17555	0.14486	0.421
Mof_C 	C 	0.7161	0.64252	0.85244	0.021
Mof_C 	C 	0.6906	0.6414	0.89709	-0.065
Mof_H 	H 	0.7146	0.6324	0.9315	0.051
Mof_C 	C 	0.6302	0.6534	0.8907	-0.032
Mof_H 	H 	0.6124	0.6529	0.9208	0.04
Mof_C 	C 	0.596	0.666	0.8405	-0.021
Mof_H 	H 	0.5543	0.6739	0.836	0.044
Mof_C 	C 	0.6215	0.6674	0.7952	-0.081
Mof_H 	H 	0.5973	0.6765	0.7609	0.068
Mof_C 	C 	0.6818	0.65546	0.80129	0.035
Mof_C 	C 	0.7815	0.63011	0.85112	-0.082
Mof_H 	H 	0.8071	0.6209	0.8875	0.062
Mof_C 	C 	0.7181	0.65521	0.75773	-0.102
Mof_H 	H 	0.6932	0.6653	0.7218	0.071
Mof_C 	C 	0.8277	0.6935	0.8524	0.017
Mof_C 	C 	0.7942	0.7077	0.8018	0.034
Mof_C 	C 	0.8306	0.7647	0.797	-0.08
Mof_H 	H 	0.8078	0.7742	0.7625	0.052
Mof_C 	C 	0.8995	0.8069	0.8425	-0.02
Mof_H 	H 	0.9252	0.8462	0.8396	0.035
Mof_C 	C 	0.9328	0.7937	0.8926	-0.037
Mof_H 	H 	0.9809	0.8246	0.9244	0.038
Mof_C 	C 	0.8979	0.7367	0.8977	-0.064
Mof_H 	H 	0.9217	0.7272	0.9319	0.039
Mof_C 	C 	0.75425	0.56868	0.78351	0.029
Mof_C 	C 	0.72058	0.5834	0.73238	0.058
Mof_C 	C 	0.696	0.53509	0.6681	-0.124
Mof_C 	C 	0.7057	0.4721	0.65494	0
Mof_H 	H 	0.6904	0.4392	0.6112	0.03
Mof_C 	C 	0.7372	0.4581	0.70502	-0.029
Mof_H 	H 	0.7424	0.4149	0.6953	0.05
Mof_C 	C 	0.76178	0.50637	0.77038	-0.082
Mof_C 	C 	0.79469	0.48641	0.8218	0.321
Mof_C 	C 	0.65825	0.54505	0.61108	0.382
Mof_O 	O 	0.8927	0.35059	0.82069	-0.504
Mof_O 	O 	0.01033	0.39346	0.87394	-0.496
Mof_O 	O 	0.00953	0.08589	0.68159	-0.474
Mof_O 	O 	0.93107	0.08045	0.59234	-0.511
Mof_O 	O 	0.9639	0.49951	0.94196	-0.767
Mof_O 	O 	0.11272	0.53487	0.98137	-0.498
Mof_O 	O 	0.04111	0.0297	0.56582	-0.776
Mof_H 	H 	0.0779	0.0793	0.5884	0.149
Mof_O 	O 	0.94546	0.92081	0.58927	-0.501
Mof_O 	O 	0.8862	0.92997	0.50089	-0.495
Mof_O 	O 	0.09485	0.00081	0.70223	-0.454
Mof_O 	O 	0.17998	0.03374	0.67435	-0.333
Mof_O 	O 	0.37036	0.02368	0.96876	-0.506
Mof_O 	O 	0.33718	0.91272	0.8996	-0.517
Mof_O 	O 	0.63417	0.58603	0.39749	-0.341
Mof_O 	O 	0.70009	0.60378	0.49585	-0.478
Mof_O 	O 	0.521	0.05723	0.99344	-0.968
Mof_O 	O 	0.492	0.1191	0.11249	-0.529
Mof_O 	O 	0.32186	0.80462	0.95232	-0.463
Mof_O 	O 	0.40999	0.77089	0.9788	-0.34
Mof_O 	O 	0.6006	0.18752	0.13656	-0.49
Mof_O 	O 	0.61006	0.436	0.4096	-0.495
Mof_O 	O 	0.49344	0.37688	0.37087	-0.496
Mof_O 	O 	0.535	0.52299	0.46983	-0.902
Mof_O 	O 	0.66606	0.51652	0.56084	-0.494
Mof_O 	O 	0.61979	0.57841	0.61542	-0.505
Mof_O 	O 	0.79388	0.51154	0.87503	-0.331
Mof_O 	O 	0.82236	0.44334	0.80596	-0.453
Mof_O 	O 	0.18235	0.60864	0.08769	-0.509
Mof_Zn	Zn	0.87461	0.42493	0.87444	1.225
Mof_Zn	Zn	0.03257	0.45047	0.96916	1.175
Mof_Zn	Zn	0.94351	0.02882	0.512	1.178
Mof_Zn	Zn	0.02874	0.00811	0.63325	1.227
Mof_Zn	Zn	0.45572	0.02802	0.03512	1.195
Mof_Zn	Zn	0.38938	0.86597	0.94008	1.226
Mof_Zn	Zn	0.62676	0.52341	0.48024	1.227
Mof_Zn	Zn	0.53109	0.57766	0.5553	1.187
Mof_H 	H 	0.494	0.059	0.962	0.331
Mof_H 	H 	0.525	0.54	0.443	0.265
Mof_H 	H 	0.992	0.545	0.939	0.112
_end
