# CIF file generated by openbabel 3.1.0, see https://openbabel.org
data_I
_chemical_name_common 'image0'
_cell_length_a 23.6066
_cell_length_b 10.0599
_cell_length_c 17.7135
_cell_angle_alpha 90
_cell_angle_beta 124.836
_cell_angle_gamma 90
_space_group_name_H-M_alt 'P 1'
_space_group_name_Hall 'P 1'
loop_
    _symmetry_equiv_pos_as_xyz
    x,y,z
loop_
    _atom_site_label
    _atom_site_type_symbol
    _atom_site_fract_x
    _atom_site_fract_y
    _atom_site_fract_z
    _atom_site_occupancy
    Cd1      Cd       0.36431    0.40064    0.37367    1.000
    C1       C        0.47221    0.75860    0.28970    1.000
    H1       H        0.45390    0.80470    0.31660    1.000
    C2       C        0.47188    0.62170    0.28920    1.000
    C3       C        0.43980    0.54690    0.32939    1.000
    O1       O        0.43057    0.60550    0.38470    1.000
    O2       O        0.42023    0.42980    0.30396    1.000
    C4       C        0.70208    0.12680    0.31425    1.000
    C5       C        0.69133    0.24530    0.34530    1.000
    H2       H        0.70020    0.32590    0.32830    1.000
    C6       C        0.66744    0.24450    0.40163    1.000
    C7       C        0.65564    0.12290    0.42720    1.000
    H3       H        0.64030    0.12040    0.46530    1.000
    C8       C        0.66640    0.00460    0.39650    1.000
    H4       H        0.65800    0.92400    0.41400    1.000
    C9       C        0.68964    0.00570    0.34030    1.000
    H5       H        0.69690    0.92620    0.32010    1.000
    C10      C        0.72583    0.12870    0.25318    1.000
    C11      C        0.65617    0.36730    0.43497    1.000
    C12      C        0.63683    0.38720    0.49390    1.000
    H6       H        0.62510    0.32020    0.51880    1.000
    C13      C        0.65679    0.58150    0.46220    1.000
    H7       H        0.66160    0.67300    0.46060    1.000
    N1       N        0.76972    0.04270    0.25499    1.000
    N2       N        0.77484    0.08050    0.18630    1.000
    N3       N        0.73640    0.18430    0.14457    1.000
    N4       N        0.70467    0.21810    0.18633    1.000
    N5       N        0.66839    0.49290    0.41569    1.000
    H8       H        0.68120    0.51120    0.38010    1.000
    N6       N        0.63740    0.52080    0.51080    1.000
    Cd2      Cd       0.63569    0.40064    0.12633    1.000
    C14      C        0.52779    0.75860    0.21030    1.000
    H9       H        0.54610    0.80470    0.18340    1.000
    C15      C        0.52812    0.62170    0.21080    1.000
    C16      C        0.56020    0.54690    0.17061    1.000
    O3       O        0.56943    0.60550    0.11530    1.000
    O4       O        0.57977    0.42980    0.19604    1.000
    C17      C        0.29792    0.12680    0.18575    1.000
    C18      C        0.30867    0.24530    0.15470    1.000
    H10      H        0.29980    0.32590    0.17170    1.000
    C19      C        0.33256    0.24450    0.09837    1.000
    C20      C        0.34436    0.12290    0.07280    1.000
    H11      H        0.35970    0.12040    0.03470    1.000
    C21      C        0.33360    0.00460    0.10350    1.000
    H12      H        0.34200    0.92400    0.08600    1.000
    C22      C        0.31036    0.00570    0.15970    1.000
    H13      H        0.30310    0.92620    0.17990    1.000
    C23      C        0.27417    0.12870    0.24682    1.000
    C24      C        0.34383    0.36730    0.06503    1.000
    C25      C        0.36317    0.38720    0.00610    1.000
    H14      H        0.37490    0.32020    0.98120    1.000
    C26      C        0.34321    0.58150    0.03780    1.000
    H15      H        0.33840    0.67300    0.03940    1.000
    N7       N        0.23028    0.04270    0.24501    1.000
    N8       N        0.22516    0.08050    0.31370    1.000
    N9       N        0.26360    0.18430    0.35543    1.000
    N10      N        0.29533    0.21810    0.31367    1.000
    N11      N        0.33161    0.49290    0.08431    1.000
    H16      H        0.31880    0.51120    0.11990    1.000
    N12      N        0.36260    0.52080    0.98920    1.000
    Cd3      Cd       0.63569    0.59936    0.62633    1.000
    C27      C        0.52779    0.24140    0.71030    1.000
    H17      H        0.54610    0.19530    0.68340    1.000
    C28      C        0.52812    0.37830    0.71080    1.000
    C29      C        0.56020    0.45310    0.67061    1.000
    O5       O        0.56943    0.39450    0.61530    1.000
    O6       O        0.57977    0.57020    0.69604    1.000
    C30      C        0.29792    0.87320    0.68575    1.000
    C31      C        0.30867    0.75470    0.65470    1.000
    H18      H        0.29980    0.67410    0.67170    1.000
    C32      C        0.33256    0.75550    0.59837    1.000
    C33      C        0.34436    0.87710    0.57280    1.000
    H19      H        0.35970    0.87960    0.53470    1.000
    C34      C        0.33360    0.99540    0.60350    1.000
    H20      H        0.34200    0.07600    0.58600    1.000
    C35      C        0.31036    0.99430    0.65970    1.000
    H21      H        0.30310    0.07380    0.67990    1.000
    C36      C        0.27417    0.87130    0.74682    1.000
    C37      C        0.34383    0.63270    0.56503    1.000
    C38      C        0.36317    0.61280    0.50610    1.000
    H22      H        0.37490    0.67980    0.48120    1.000
    C39      C        0.34321    0.41850    0.53780    1.000
    H23      H        0.33840    0.32700    0.53940    1.000
    N13      N        0.23028    0.95730    0.74501    1.000
    N14      N        0.22516    0.91950    0.81370    1.000
    N15      N        0.26360    0.81570    0.85543    1.000
    N16      N        0.29533    0.78190    0.81367    1.000
    N17      N        0.33161    0.50710    0.58431    1.000
    H24      H        0.31880    0.48880    0.61990    1.000
    N18      N        0.36260    0.47920    0.48920    1.000
    Cd4      Cd       0.36431    0.59936    0.87367    1.000
    C40      C        0.47221    0.24140    0.78970    1.000
    H25      H        0.45390    0.19530    0.81660    1.000
    C41      C        0.47188    0.37830    0.78920    1.000
    C42      C        0.43980    0.45310    0.82939    1.000
    O7       O        0.43057    0.39450    0.88470    1.000
    O8       O        0.42023    0.57020    0.80396    1.000
    C43      C        0.70208    0.87320    0.81425    1.000
    C44      C        0.69133    0.75470    0.84530    1.000
    H26      H        0.70020    0.67410    0.82830    1.000
    C45      C        0.66744    0.75550    0.90163    1.000
    C46      C        0.65564    0.87710    0.92720    1.000
    H27      H        0.64030    0.87960    0.96530    1.000
    C47      C        0.66640    0.99540    0.89650    1.000
    H28      H        0.65800    0.07600    0.91400    1.000
    C48      C        0.68964    0.99430    0.84030    1.000
    H29      H        0.69690    0.07380    0.82010    1.000
    C49      C        0.72583    0.87130    0.75318    1.000
    C50      C        0.65617    0.63270    0.93497    1.000
    C51      C        0.63683    0.61280    0.99390    1.000
    H30      H        0.62510    0.67980    0.01880    1.000
    C52      C        0.65679    0.41850    0.96220    1.000
    H31      H        0.66160    0.32700    0.96060    1.000
    N19      N        0.76972    0.95730    0.75499    1.000
    N20      N        0.77484    0.91950    0.68630    1.000
    N21      N        0.73640    0.81570    0.64457    1.000
    N22      N        0.70467    0.78190    0.68633    1.000
    N23      N        0.66839    0.50710    0.91569    1.000
    H32      H        0.68120    0.48880    0.88010    1.000
    N24      N        0.63740    0.47920    0.01080    1.000
    C53      C        0.50000    0.82810    0.25000    1.000
    H33      H        0.50000    0.92050    0.25000    1.000
    C54      C        0.50000    0.55190    0.25000    1.000
    H34      H        0.50000    0.45940    0.25000    1.000
    C55      C        0.50000    0.17190    0.75000    1.000
    H35      H        0.50000    0.07950    0.75000    1.000
    C56      C        0.50000    0.44810    0.75000    1.000
    H36      H        0.50000    0.54060    0.75000    1.000
    C57      C        0.20208    0.62680    0.31425    1.000
    C58      C        0.19133    0.74530    0.34530    1.000
    H37      H        0.20020    0.82590    0.32830    1.000
    C59      C        0.16744    0.74450    0.40163    1.000
    C60      C        0.15564    0.62290    0.42720    1.000
    H38      H        0.14030    0.62040    0.46530    1.000
    C61      C        0.16640    0.50460    0.39650    1.000
    H39      H        0.15800    0.42400    0.41400    1.000
    C62      C        0.18964    0.50570    0.34030    1.000
    H40      H        0.19690    0.42620    0.32010    1.000
    C63      C        0.22583    0.62870    0.25318    1.000
    C64      C        0.15617    0.86730    0.43497    1.000
    C65      C        0.13683    0.88720    0.49390    1.000
    H41      H        0.12510    0.82020    0.51880    1.000
    C66      C        0.15679    0.08150    0.46220    1.000
    H42      H        0.16160    0.17300    0.46060    1.000
    N25      N        0.26972    0.54270    0.25499    1.000
    N26      N        0.27484    0.58050    0.18630    1.000
    N27      N        0.23640    0.68430    0.14457    1.000
    N28      N        0.20467    0.71810    0.18633    1.000
    N29      N        0.16839    0.99290    0.41569    1.000
    H43      H        0.18120    0.01120    0.38010    1.000
    N30      N        0.13740    0.02080    0.51080    1.000
    Cd5      Cd       0.86431    0.90064    0.37367    1.000
    C67      C        0.97221    0.25860    0.28970    1.000
    H44      H        0.95390    0.30470    0.31660    1.000
    C68      C        0.97188    0.12170    0.28920    1.000
    C69      C        0.93980    0.04690    0.32939    1.000
    O9       O        0.93057    0.10550    0.38470    1.000
    O10      O        0.92023    0.92980    0.30396    1.000
    C70      C        0.79792    0.62680    0.18575    1.000
    C71      C        0.80867    0.74530    0.15470    1.000
    H45      H        0.79980    0.82590    0.17170    1.000
    C72      C        0.83256    0.74450    0.09837    1.000
    C73      C        0.84436    0.62290    0.07280    1.000
    H46      H        0.85970    0.62040    0.03470    1.000
    C74      C        0.83360    0.50460    0.10350    1.000
    H47      H        0.84200    0.42400    0.08600    1.000
    C75      C        0.81036    0.50570    0.15970    1.000
    H48      H        0.80310    0.42620    0.17990    1.000
    C76      C        0.77417    0.62870    0.24682    1.000
    C77      C        0.84383    0.86730    0.06503    1.000
    C78      C        0.86317    0.88720    0.00610    1.000
    H49      H        0.87490    0.82020    0.98120    1.000
    C79      C        0.84321    0.08150    0.03780    1.000
    H50      H        0.83840    0.17300    0.03940    1.000
    N31      N        0.73028    0.54270    0.24501    1.000
    N32      N        0.72516    0.58050    0.31370    1.000
    N33      N        0.76360    0.68430    0.35543    1.000
    N34      N        0.79533    0.71810    0.31367    1.000
    N35      N        0.83161    0.99290    0.08431    1.000
    H51      H        0.81880    0.01120    0.11990    1.000
    N36      N        0.86260    0.02080    0.98920    1.000
    Cd6      Cd       0.13569    0.90064    0.12633    1.000
    C80      C        0.02779    0.25860    0.21030    1.000
    H52      H        0.04610    0.30470    0.18340    1.000
    C81      C        0.02812    0.12170    0.21080    1.000
    C82      C        0.06020    0.04690    0.17061    1.000
    O11      O        0.06943    0.10550    0.11530    1.000
    O12      O        0.07977    0.92980    0.19604    1.000
    C83      C        0.79792    0.37320    0.68575    1.000
    C84      C        0.80867    0.25470    0.65470    1.000
    H53      H        0.79980    0.17410    0.67170    1.000
    C85      C        0.83256    0.25550    0.59837    1.000
    C86      C        0.84436    0.37710    0.57280    1.000
    H54      H        0.85970    0.37960    0.53470    1.000
    C87      C        0.83360    0.49540    0.60350    1.000
    H55      H        0.84200    0.57600    0.58600    1.000
    C88      C        0.81036    0.49430    0.65970    1.000
    H56      H        0.80310    0.57380    0.67990    1.000
    C89      C        0.77417    0.37130    0.74682    1.000
    C90      C        0.84383    0.13270    0.56503    1.000
    C91      C        0.86317    0.11280    0.50610    1.000
    H57      H        0.87490    0.17980    0.48120    1.000
    C92      C        0.84321    0.91850    0.53780    1.000
    H58      H        0.83840    0.82700    0.53940    1.000
    N37      N        0.73028    0.45730    0.74501    1.000
    N38      N        0.72516    0.41950    0.81370    1.000
    N39      N        0.76360    0.31570    0.85543    1.000
    N40      N        0.79533    0.28190    0.81367    1.000
    N41      N        0.83161    0.00710    0.58431    1.000
    H59      H        0.81880    0.98880    0.61990    1.000
    N42      N        0.86260    0.97920    0.48920    1.000
    Cd7      Cd       0.13569    0.09936    0.62633    1.000
    C93      C        0.02779    0.74140    0.71030    1.000
    H60      H        0.04610    0.69530    0.68340    1.000
    C94      C        0.02812    0.87830    0.71080    1.000
    C95      C        0.06020    0.95310    0.67061    1.000
    O13      O        0.06943    0.89450    0.61530    1.000
    O14      O        0.07977    0.07020    0.69604    1.000
    C96      C        0.20208    0.37320    0.81425    1.000
    C97      C        0.19133    0.25470    0.84530    1.000
    H61      H        0.20020    0.17410    0.82830    1.000
    C98      C        0.16744    0.25550    0.90163    1.000
    C99      C        0.15564    0.37710    0.92720    1.000
    H62      H        0.14030    0.37960    0.96530    1.000
    C100     C        0.16640    0.49540    0.89650    1.000
    H63      H        0.15800    0.57600    0.91400    1.000
    C101     C        0.18964    0.49430    0.84030    1.000
    H64      H        0.19690    0.57380    0.82010    1.000
    C102     C        0.22583    0.37130    0.75318    1.000
    C103     C        0.15617    0.13270    0.93497    1.000
    C104     C        0.13683    0.11280    0.99390    1.000
    H65      H        0.12510    0.17980    0.01880    1.000
    C105     C        0.15679    0.91850    0.96220    1.000
    H66      H        0.16160    0.82700    0.96060    1.000
    N43      N        0.26972    0.45730    0.75499    1.000
    N44      N        0.27484    0.41950    0.68630    1.000
    N45      N        0.23640    0.31570    0.64457    1.000
    N46      N        0.20467    0.28190    0.68633    1.000
    N47      N        0.16839    0.00710    0.91569    1.000
    H67      H        0.18120    0.98880    0.88010    1.000
    N48      N        0.13740    0.97920    0.01080    1.000
    Cd8      Cd       0.86431    0.09936    0.87367    1.000
    C106     C        0.97221    0.74140    0.78970    1.000
    H68      H        0.95390    0.69530    0.81660    1.000
    C107     C        0.97188    0.87830    0.78920    1.000
    C108     C        0.93980    0.95310    0.82939    1.000
    O15      O        0.93057    0.89450    0.88470    1.000
    O16      O        0.92023    0.07020    0.80396    1.000
    C109     C        0.00000    0.32810    0.25000    1.000
    H69      H        0.00000    0.42050    0.25000    1.000
    C110     C        0.00000    0.05190    0.25000    1.000
    H70      H        0.00000    0.95940    0.25000    1.000
    C111     C        0.00000    0.67190    0.75000    1.000
    H71      H        0.00000    0.57950    0.75000    1.000
    C112     C        0.00000    0.94810    0.75000    1.000
    H72      H        0.00000    0.04060    0.75000    1.000
