# CIF file generated by openbabel 3.1.0, see https://openbabel.org
data_I
_chemical_name_common 'image0'
_cell_length_a 27.534
_cell_length_b 21.63
_cell_length_c 19.2968
_cell_angle_alpha 90
_cell_angle_beta 120.527
_cell_angle_gamma 90
_space_group_name_H-M_alt 'P 1'
_space_group_name_Hall 'P 1'
loop_
    _symmetry_equiv_pos_as_xyz
    x,y,z
loop_
    _atom_site_label
    _atom_site_type_symbol
    _atom_site_fract_x
    _atom_site_fract_y
    _atom_site_fract_z
    _atom_site_occupancy
    Cu1      Cu       0.12088    0.17335    0.13109    1.000
    Cu2      Cu       0.21369    0.11178    0.16528    1.000
    Cu3      Cu       0.18976    0.18203    0.41258    1.000
    K1       K        0.08638    0.24318    0.31557    1.000
    C1       C        0.10523    0.99340    0.25180    1.000
    C2       C        0.15084    0.03010    0.29790    1.000
    C3       C        0.18410    0.01720    0.38000    1.000
    C4       C        0.16940    0.96690    0.41280    1.000
    H1       H        0.19190    0.95690    0.46690    1.000
    C5       C        0.12200    0.93310    0.36440    1.000
    H2       H        0.11190    0.90080    0.38630    1.000
    C6       C        0.08840    0.94650    0.28250    1.000
    H3       H        0.05560    0.92430    0.24990    1.000
    C7       C        0.02127    0.01080    0.12680    1.000
    C8       C        0.99810    0.06210    0.14230    1.000
    H4       H        0.02080    0.08860    0.18450    1.000
    C9       C        0.94030    0.07380    0.09400    1.000
    C10      C        0.90720    0.03300    0.03160    1.000
    H5       H        0.86860    0.03980    0.99960    1.000
    C11      C        0.93170    0.98216    0.01720    1.000
    C12      C        0.98825    0.97120    0.06490    1.000
    H6       H        0.00430    0.93690    0.05530    1.000
    C13      C        0.16488    0.07860    0.25540    1.000
    C14      C        0.23330    0.05630    0.43510    1.000
    C15      C        0.89484    0.93760    0.95200    1.000
    C16      C        0.91400    0.12820    0.10880    1.000
    C17      C        0.23040    0.17480    0.77760    1.000
    C18      C        0.24670    0.20800    0.73130    1.000
    C19      C        0.23410    0.18370    0.65590    1.000
    C20      C        0.20500    0.12830    0.63100    1.000
    H7       H        0.19620    0.11210    0.58120    1.000
    C21      C        0.18880    0.09600    0.67810    1.000
    H8       H        0.16920    0.05900    0.65980    1.000
    C22      C        0.20170    0.11920    0.75230    1.000
    H9       H        0.19140    0.09790    0.78460    1.000
    C23      C        0.20800    0.21570    0.87110    1.000
    C24      C        0.16780    0.25900    0.82240    1.000
    H10      H        0.16620    0.27260    0.77550    1.000
    C25      C        0.13120    0.28140    0.84290    1.000
    C26      C        0.13230    0.26030    0.91300    1.000
    H11      H        0.10670    0.27560    0.92670    1.000
    C27      C        0.17100    0.21740    0.95990    1.000
    C28      C        0.20960    0.19470    0.93980    1.000
    H12      H        0.23630    0.16550    0.97240    1.000
    C29      C        0.28030    0.26470    0.76700    1.000
    C30      C        0.25200    0.21570    0.60500    1.000
    C31      C        0.17240    0.19160    0.03290    1.000
    C32      C        0.09100    0.32960    0.79280    1.000
    O1       O        0.13122    0.12351    0.22513    1.000
    O2       O        0.20637    0.06743    0.24732    1.000
    O3       O        0.23407    0.11130    0.41462    1.000
    O4       O        0.27040    0.03370    0.49850    1.000
    O5       O        0.91978    0.89396    0.94036    1.000
    O6       O        0.84293    0.94637    0.91495    1.000
    O7       O        0.86144    0.12749    0.07580    1.000
    O8       O        0.94430    0.16940    0.14960    1.000
    O9       O        0.07854    0.00081    0.16801    1.000
    O10      O        0.25334    0.31297    0.76509    1.000
    O11      O        0.33287    0.25982    0.80109    1.000
    O12      O        0.26890    0.27054    0.62400    1.000
    O13      O        0.25140    0.18640    0.54880    1.000
    O14      O        0.21158    0.15571    0.07659    1.000
    O15      O        0.13196    0.20676    0.04355    1.000
    O16      O        0.05470    0.34850    0.81180    1.000
    O17      O        0.09360    0.35240    0.73630    1.000
    O18      O        0.24905    0.19544    0.85561    1.000
    O19      O        0.14400    0.25240    0.40330    1.000
    Cu4      Cu       0.62088    0.67335    0.13109    1.000
    Cu5      Cu       0.71369    0.61178    0.16528    1.000
    Cu6      Cu       0.68976    0.68203    0.41258    1.000
    K2       K        0.58638    0.74318    0.31557    1.000
    C33      C        0.60523    0.49340    0.25180    1.000
    C34      C        0.65084    0.53010    0.29790    1.000
    C35      C        0.68410    0.51720    0.38000    1.000
    C36      C        0.66940    0.46690    0.41280    1.000
    H13      H        0.69190    0.45690    0.46690    1.000
    C37      C        0.62200    0.43310    0.36440    1.000
    H14      H        0.61190    0.40080    0.38630    1.000
    C38      C        0.58840    0.44650    0.28250    1.000
    H15      H        0.55560    0.42430    0.24990    1.000
    C39      C        0.52127    0.51080    0.12680    1.000
    C40      C        0.49810    0.56210    0.14230    1.000
    H16      H        0.52080    0.58860    0.18450    1.000
    C41      C        0.44030    0.57380    0.09400    1.000
    C42      C        0.40720    0.53300    0.03160    1.000
    H17      H        0.36860    0.53980    0.99960    1.000
    C43      C        0.43170    0.48216    0.01720    1.000
    C44      C        0.48825    0.47120    0.06490    1.000
    H18      H        0.50430    0.43690    0.05530    1.000
    C45      C        0.66488    0.57860    0.25540    1.000
    C46      C        0.73330    0.55630    0.43510    1.000
    C47      C        0.39484    0.43760    0.95200    1.000
    C48      C        0.41400    0.62820    0.10880    1.000
    C49      C        0.73040    0.67480    0.77760    1.000
    C50      C        0.74670    0.70800    0.73130    1.000
    C51      C        0.73410    0.68370    0.65590    1.000
    C52      C        0.70500    0.62830    0.63100    1.000
    H19      H        0.69620    0.61210    0.58120    1.000
    C53      C        0.68880    0.59600    0.67810    1.000
    H20      H        0.66920    0.55900    0.65980    1.000
    C54      C        0.70170    0.61920    0.75230    1.000
    H21      H        0.69140    0.59790    0.78460    1.000
    C55      C        0.70800    0.71570    0.87110    1.000
    C56      C        0.66780    0.75900    0.82240    1.000
    H22      H        0.66620    0.77260    0.77550    1.000
    C57      C        0.63120    0.78140    0.84290    1.000
    C58      C        0.63230    0.76030    0.91300    1.000
    H23      H        0.60670    0.77560    0.92670    1.000
    C59      C        0.67100    0.71740    0.95990    1.000
    C60      C        0.70960    0.69470    0.93980    1.000
    H24      H        0.73630    0.66550    0.97240    1.000
    C61      C        0.78030    0.76470    0.76700    1.000
    C62      C        0.75200    0.71570    0.60500    1.000
    C63      C        0.67240    0.69160    0.03290    1.000
    C64      C        0.59100    0.82960    0.79280    1.000
    O20      O        0.63122    0.62351    0.22513    1.000
    O21      O        0.70637    0.56743    0.24732    1.000
    O22      O        0.73407    0.61130    0.41462    1.000
    O23      O        0.77040    0.53370    0.49850    1.000
    O24      O        0.41978    0.39396    0.94036    1.000
    O25      O        0.34293    0.44637    0.91495    1.000
    O26      O        0.36144    0.62749    0.07580    1.000
    O27      O        0.44430    0.66940    0.14960    1.000
    O28      O        0.57854    0.50081    0.16801    1.000
    O29      O        0.75334    0.81297    0.76509    1.000
    O30      O        0.83287    0.75982    0.80109    1.000
    O31      O        0.76890    0.77054    0.62400    1.000
    O32      O        0.75140    0.68640    0.54880    1.000
    O33      O        0.71158    0.65571    0.07659    1.000
    O34      O        0.63196    0.70676    0.04355    1.000
    O35      O        0.55470    0.84850    0.81180    1.000
    O36      O        0.59360    0.85240    0.73630    1.000
    O37      O        0.74905    0.69544    0.85561    1.000
    O38      O        0.64400    0.75240    0.40330    1.000
    Cu7      Cu       0.87912    0.17335    0.36891    1.000
    Cu8      Cu       0.78631    0.11178    0.33472    1.000
    Cu9      Cu       0.81024    0.18203    0.08742    1.000
    K3       K        0.91362    0.24318    0.18443    1.000
    C65      C        0.89477    0.99340    0.24820    1.000
    C66      C        0.84916    0.03010    0.20210    1.000
    C67      C        0.81590    0.01720    0.12000    1.000
    C68      C        0.83060    0.96690    0.08720    1.000
    H25      H        0.80810    0.95690    0.03310    1.000
    C69      C        0.87800    0.93310    0.13560    1.000
    H26      H        0.88810    0.90080    0.11370    1.000
    C70      C        0.91160    0.94650    0.21750    1.000
    H27      H        0.94440    0.92430    0.25010    1.000
    C71      C        0.97873    0.01080    0.37320    1.000
    C72      C        0.00190    0.06210    0.35770    1.000
    H28      H        0.97920    0.08860    0.31550    1.000
    C73      C        0.05970    0.07380    0.40600    1.000
    C74      C        0.09280    0.03300    0.46840    1.000
    H29      H        0.13140    0.03980    0.50040    1.000
    C75      C        0.06830    0.98216    0.48280    1.000
    C76      C        0.01175    0.97120    0.43510    1.000
    H30      H        0.99570    0.93690    0.44470    1.000
    C77      C        0.83512    0.07860    0.24460    1.000
    C78      C        0.76670    0.05630    0.06490    1.000
    C79      C        0.10516    0.93760    0.54800    1.000
    C80      C        0.08600    0.12820    0.39120    1.000
    C81      C        0.76960    0.17480    0.72240    1.000
    C82      C        0.75330    0.20800    0.76870    1.000
    C83      C        0.76590    0.18370    0.84410    1.000
    C84      C        0.79500    0.12830    0.86900    1.000
    H31      H        0.80380    0.11210    0.91880    1.000
    C85      C        0.81120    0.09600    0.82190    1.000
    H32      H        0.83080    0.05900    0.84020    1.000
    C86      C        0.79830    0.11920    0.74770    1.000
    H33      H        0.80860    0.09790    0.71540    1.000
    C87      C        0.79200    0.21570    0.62890    1.000
    C88      C        0.83220    0.25900    0.67760    1.000
    H34      H        0.83380    0.27260    0.72450    1.000
    C89      C        0.86880    0.28140    0.65710    1.000
    C90      C        0.86770    0.26030    0.58700    1.000
    H35      H        0.89330    0.27560    0.57330    1.000
    C91      C        0.82900    0.21740    0.54010    1.000
    C92      C        0.79040    0.19470    0.56020    1.000
    H36      H        0.76370    0.16550    0.52760    1.000
    C93      C        0.71970    0.26470    0.73300    1.000
    C94      C        0.74800    0.21570    0.89500    1.000
    C95      C        0.82760    0.19160    0.46710    1.000
    C96      C        0.90900    0.32960    0.70720    1.000
    O39      O        0.86878    0.12351    0.27487    1.000
    O40      O        0.79363    0.06743    0.25268    1.000
    O41      O        0.76593    0.11130    0.08538    1.000
    O42      O        0.72960    0.03370    0.00150    1.000
    O43      O        0.08022    0.89396    0.55964    1.000
    O44      O        0.15707    0.94637    0.58505    1.000
    O45      O        0.13856    0.12749    0.42420    1.000
    O46      O        0.05570    0.16940    0.35040    1.000
    O47      O        0.92146    0.00081    0.33199    1.000
    O48      O        0.74666    0.31297    0.73491    1.000
    O49      O        0.66713    0.25982    0.69891    1.000
    O50      O        0.73110    0.27054    0.87600    1.000
    O51      O        0.74860    0.18640    0.95120    1.000
    O52      O        0.78842    0.15571    0.42341    1.000
    O53      O        0.86804    0.20676    0.45645    1.000
    O54      O        0.94530    0.34850    0.68820    1.000
    O55      O        0.90640    0.35240    0.76370    1.000
    O56      O        0.75095    0.19544    0.64439    1.000
    O57      O        0.85600    0.25240    0.09670    1.000
    Cu10     Cu       0.37912    0.67335    0.36891    1.000
    Cu11     Cu       0.28631    0.61178    0.33472    1.000
    Cu12     Cu       0.31024    0.68203    0.08742    1.000
    K4       K        0.41362    0.74318    0.18443    1.000
    C97      C        0.39477    0.49340    0.24820    1.000
    C98      C        0.34916    0.53010    0.20210    1.000
    C99      C        0.31590    0.51720    0.12000    1.000
    C100     C        0.33060    0.46690    0.08720    1.000
    H37      H        0.30810    0.45690    0.03310    1.000
    C101     C        0.37800    0.43310    0.13560    1.000
    H38      H        0.38810    0.40080    0.11370    1.000
    C102     C        0.41160    0.44650    0.21750    1.000
    H39      H        0.44440    0.42430    0.25010    1.000
    C103     C        0.47873    0.51080    0.37320    1.000
    C104     C        0.50190    0.56210    0.35770    1.000
    H40      H        0.47920    0.58860    0.31550    1.000
    C105     C        0.55970    0.57380    0.40600    1.000
    C106     C        0.59280    0.53300    0.46840    1.000
    H41      H        0.63140    0.53980    0.50040    1.000
    C107     C        0.56830    0.48216    0.48280    1.000
    C108     C        0.51175    0.47120    0.43510    1.000
    H42      H        0.49570    0.43690    0.44470    1.000
    C109     C        0.33512    0.57860    0.24460    1.000
    C110     C        0.26670    0.55630    0.06490    1.000
    C111     C        0.60516    0.43760    0.54800    1.000
    C112     C        0.58600    0.62820    0.39120    1.000
    C113     C        0.26960    0.67480    0.72240    1.000
    C114     C        0.25330    0.70800    0.76870    1.000
    C115     C        0.26590    0.68370    0.84410    1.000
    C116     C        0.29500    0.62830    0.86900    1.000
    H43      H        0.30380    0.61210    0.91880    1.000
    C117     C        0.31120    0.59600    0.82190    1.000
    H44      H        0.33080    0.55900    0.84020    1.000
    C118     C        0.29830    0.61920    0.74770    1.000
    H45      H        0.30860    0.59790    0.71540    1.000
    C119     C        0.29200    0.71570    0.62890    1.000
    C120     C        0.33220    0.75900    0.67760    1.000
    H46      H        0.33380    0.77260    0.72450    1.000
    C121     C        0.36880    0.78140    0.65710    1.000
    C122     C        0.36770    0.76030    0.58700    1.000
    H47      H        0.39330    0.77560    0.57330    1.000
    C123     C        0.32900    0.71740    0.54010    1.000
    C124     C        0.29040    0.69470    0.56020    1.000
    H48      H        0.26370    0.66550    0.52760    1.000
    C125     C        0.21970    0.76470    0.73300    1.000
    C126     C        0.24800    0.71570    0.89500    1.000
    C127     C        0.32760    0.69160    0.46710    1.000
    C128     C        0.40900    0.82960    0.70720    1.000
    O58      O        0.36878    0.62351    0.27487    1.000
    O59      O        0.29363    0.56743    0.25268    1.000
    O60      O        0.26593    0.61130    0.08538    1.000
    O61      O        0.22960    0.53370    0.00150    1.000
    O62      O        0.58022    0.39396    0.55964    1.000
    O63      O        0.65707    0.44637    0.58505    1.000
    O64      O        0.63856    0.62749    0.42420    1.000
    O65      O        0.55570    0.66940    0.35040    1.000
    O66      O        0.42146    0.50081    0.33199    1.000
    O67      O        0.24666    0.81297    0.73491    1.000
    O68      O        0.16713    0.75982    0.69891    1.000
    O69      O        0.23110    0.77054    0.87600    1.000
    O70      O        0.24860    0.68640    0.95120    1.000
    O71      O        0.28842    0.65571    0.42341    1.000
    O72      O        0.36804    0.70676    0.45645    1.000
    O73      O        0.44530    0.84850    0.68820    1.000
    O74      O        0.40640    0.85240    0.76370    1.000
    O75      O        0.25095    0.69544    0.64439    1.000
    O76      O        0.35600    0.75240    0.09670    1.000
    Cu13     Cu       0.87912    0.82665    0.86891    1.000
    Cu14     Cu       0.78631    0.88822    0.83472    1.000
    Cu15     Cu       0.81024    0.81797    0.58742    1.000
    K5       K        0.91362    0.75682    0.68443    1.000
    C129     C        0.89477    0.00660    0.74820    1.000
    C130     C        0.84916    0.96990    0.70210    1.000
    C131     C        0.81590    0.98280    0.62000    1.000
    C132     C        0.83060    0.03310    0.58720    1.000
    H49      H        0.80810    0.04310    0.53310    1.000
    C133     C        0.87800    0.06690    0.63560    1.000
    H50      H        0.88810    0.09920    0.61370    1.000
    C134     C        0.91160    0.05350    0.71750    1.000
    H51      H        0.94440    0.07570    0.75010    1.000
    C135     C        0.97873    0.98920    0.87320    1.000
    C136     C        0.00190    0.93790    0.85770    1.000
    H52      H        0.97920    0.91140    0.81550    1.000
    C137     C        0.05970    0.92620    0.90600    1.000
    C138     C        0.09280    0.96700    0.96840    1.000
    H53      H        0.13140    0.96020    0.00040    1.000
    C139     C        0.06830    0.01784    0.98280    1.000
    C140     C        0.01175    0.02880    0.93510    1.000
    H54      H        0.99570    0.06310    0.94470    1.000
    C141     C        0.83512    0.92140    0.74460    1.000
    C142     C        0.76670    0.94370    0.56490    1.000
    C143     C        0.10516    0.06240    0.04800    1.000
    C144     C        0.08600    0.87180    0.89120    1.000
    C145     C        0.76960    0.82520    0.22240    1.000
    C146     C        0.75330    0.79200    0.26870    1.000
    C147     C        0.76590    0.81630    0.34410    1.000
    C148     C        0.79500    0.87170    0.36900    1.000
    H55      H        0.80380    0.88790    0.41880    1.000
    C149     C        0.81120    0.90400    0.32190    1.000
    H56      H        0.83080    0.94100    0.34020    1.000
    C150     C        0.79830    0.88080    0.24770    1.000
    H57      H        0.80860    0.90210    0.21540    1.000
    C151     C        0.79200    0.78430    0.12890    1.000
    C152     C        0.83220    0.74100    0.17760    1.000
    H58      H        0.83380    0.72740    0.22450    1.000
    C153     C        0.86880    0.71860    0.15710    1.000
    C154     C        0.86770    0.73970    0.08700    1.000
    H59      H        0.89330    0.72440    0.07330    1.000
    C155     C        0.82900    0.78260    0.04010    1.000
    C156     C        0.79040    0.80530    0.06020    1.000
    H60      H        0.76370    0.83450    0.02760    1.000
    C157     C        0.71970    0.73530    0.23300    1.000
    C158     C        0.74800    0.78430    0.39500    1.000
    C159     C        0.82760    0.80840    0.96710    1.000
    C160     C        0.90900    0.67040    0.20720    1.000
    O77      O        0.86878    0.87649    0.77487    1.000
    O78      O        0.79363    0.93257    0.75268    1.000
    O79      O        0.76593    0.88870    0.58538    1.000
    O80      O        0.72960    0.96630    0.50150    1.000
    O81      O        0.08022    0.10604    0.05964    1.000
    O82      O        0.15707    0.05363    0.08505    1.000
    O83      O        0.13856    0.87251    0.92420    1.000
    O84      O        0.05570    0.83060    0.85040    1.000
    O85      O        0.92146    0.99919    0.83199    1.000
    O86      O        0.74666    0.68703    0.23491    1.000
    O87      O        0.66713    0.74018    0.19891    1.000
    O88      O        0.73110    0.72946    0.37600    1.000
    O89      O        0.74860    0.81360    0.45120    1.000
    O90      O        0.78842    0.84429    0.92341    1.000
    O91      O        0.86804    0.79324    0.95645    1.000
    O92      O        0.94530    0.65150    0.18820    1.000
    O93      O        0.90640    0.64760    0.26370    1.000
    O94      O        0.75095    0.80456    0.14439    1.000
    O95      O        0.85600    0.74760    0.59670    1.000
    Cu16     Cu       0.37912    0.32665    0.86891    1.000
    Cu17     Cu       0.28631    0.38822    0.83472    1.000
    Cu18     Cu       0.31024    0.31797    0.58742    1.000
    K6       K        0.41362    0.25682    0.68443    1.000
    C161     C        0.39477    0.50660    0.74820    1.000
    C162     C        0.34916    0.46990    0.70210    1.000
    C163     C        0.31590    0.48280    0.62000    1.000
    C164     C        0.33060    0.53310    0.58720    1.000
    H61      H        0.30810    0.54310    0.53310    1.000
    C165     C        0.37800    0.56690    0.63560    1.000
    H62      H        0.38810    0.59920    0.61370    1.000
    C166     C        0.41160    0.55350    0.71750    1.000
    H63      H        0.44440    0.57570    0.75010    1.000
    C167     C        0.47873    0.48920    0.87320    1.000
    C168     C        0.50190    0.43790    0.85770    1.000
    H64      H        0.47920    0.41140    0.81550    1.000
    C169     C        0.55970    0.42620    0.90600    1.000
    C170     C        0.59280    0.46700    0.96840    1.000
    H65      H        0.63140    0.46020    0.00040    1.000
    C171     C        0.56830    0.51784    0.98280    1.000
    C172     C        0.51175    0.52880    0.93510    1.000
    H66      H        0.49570    0.56310    0.94470    1.000
    C173     C        0.33512    0.42140    0.74460    1.000
    C174     C        0.26670    0.44370    0.56490    1.000
    C175     C        0.60516    0.56240    0.04800    1.000
    C176     C        0.58600    0.37180    0.89120    1.000
    C177     C        0.26960    0.32520    0.22240    1.000
    C178     C        0.25330    0.29200    0.26870    1.000
    C179     C        0.26590    0.31630    0.34410    1.000
    C180     C        0.29500    0.37170    0.36900    1.000
    H67      H        0.30380    0.38790    0.41880    1.000
    C181     C        0.31120    0.40400    0.32190    1.000
    H68      H        0.33080    0.44100    0.34020    1.000
    C182     C        0.29830    0.38080    0.24770    1.000
    H69      H        0.30860    0.40210    0.21540    1.000
    C183     C        0.29200    0.28430    0.12890    1.000
    C184     C        0.33220    0.24100    0.17760    1.000
    H70      H        0.33380    0.22740    0.22450    1.000
    C185     C        0.36880    0.21860    0.15710    1.000
    C186     C        0.36770    0.23970    0.08700    1.000
    H71      H        0.39330    0.22440    0.07330    1.000
    C187     C        0.32900    0.28260    0.04010    1.000
    C188     C        0.29040    0.30530    0.06020    1.000
    H72      H        0.26370    0.33450    0.02760    1.000
    C189     C        0.21970    0.23530    0.23300    1.000
    C190     C        0.24800    0.28430    0.39500    1.000
    C191     C        0.32760    0.30840    0.96710    1.000
    C192     C        0.40900    0.17040    0.20720    1.000
    O96      O        0.36878    0.37649    0.77487    1.000
    O97      O        0.29363    0.43257    0.75268    1.000
    O98      O        0.26593    0.38870    0.58538    1.000
    O99      O        0.22960    0.46630    0.50150    1.000
    O100     O        0.58022    0.60604    0.05964    1.000
    O101     O        0.65707    0.55363    0.08505    1.000
    O102     O        0.63856    0.37251    0.92420    1.000
    O103     O        0.55570    0.33060    0.85040    1.000
    O104     O        0.42146    0.49919    0.83199    1.000
    O105     O        0.24666    0.18703    0.23491    1.000
    O106     O        0.16713    0.24018    0.19891    1.000
    O107     O        0.23110    0.22946    0.37600    1.000
    O108     O        0.24860    0.31360    0.45120    1.000
    O109     O        0.28842    0.34429    0.92341    1.000
    O110     O        0.36804    0.29324    0.95645    1.000
    O111     O        0.44530    0.15150    0.18820    1.000
    O112     O        0.40640    0.14760    0.26370    1.000
    O113     O        0.25095    0.30456    0.14439    1.000
    O114     O        0.35600    0.24760    0.59670    1.000
    Cu19     Cu       0.12088    0.82665    0.63109    1.000
    Cu20     Cu       0.21369    0.88822    0.66528    1.000
    Cu21     Cu       0.18976    0.81797    0.91258    1.000
    K7       K        0.08638    0.75682    0.81557    1.000
    C193     C        0.10523    0.00660    0.75180    1.000
    C194     C        0.15084    0.96990    0.79790    1.000
    C195     C        0.18410    0.98280    0.88000    1.000
    C196     C        0.16940    0.03310    0.91280    1.000
    H73      H        0.19190    0.04310    0.96690    1.000
    C197     C        0.12200    0.06690    0.86440    1.000
    H74      H        0.11190    0.09920    0.88630    1.000
    C198     C        0.08840    0.05350    0.78250    1.000
    H75      H        0.05560    0.07570    0.74990    1.000
    C199     C        0.02127    0.98920    0.62680    1.000
    C200     C        0.99810    0.93790    0.64230    1.000
    H76      H        0.02080    0.91140    0.68450    1.000
    C201     C        0.94030    0.92620    0.59400    1.000
    C202     C        0.90720    0.96700    0.53160    1.000
    H77      H        0.86860    0.96020    0.49960    1.000
    C203     C        0.93170    0.01784    0.51720    1.000
    C204     C        0.98825    0.02880    0.56490    1.000
    H78      H        0.00430    0.06310    0.55530    1.000
    C205     C        0.16488    0.92140    0.75540    1.000
    C206     C        0.23330    0.94370    0.93510    1.000
    C207     C        0.89484    0.06240    0.45200    1.000
    C208     C        0.91400    0.87180    0.60880    1.000
    C209     C        0.23040    0.82520    0.27760    1.000
    C210     C        0.24670    0.79200    0.23130    1.000
    C211     C        0.23410    0.81630    0.15590    1.000
    C212     C        0.20500    0.87170    0.13100    1.000
    H79      H        0.19620    0.88790    0.08120    1.000
    C213     C        0.18880    0.90400    0.17810    1.000
    H80      H        0.16920    0.94100    0.15980    1.000
    C214     C        0.20170    0.88080    0.25230    1.000
    H81      H        0.19140    0.90210    0.28460    1.000
    C215     C        0.20800    0.78430    0.37110    1.000
    C216     C        0.16780    0.74100    0.32240    1.000
    H82      H        0.16620    0.72740    0.27550    1.000
    C217     C        0.13120    0.71860    0.34290    1.000
    C218     C        0.13230    0.73970    0.41300    1.000
    H83      H        0.10670    0.72440    0.42670    1.000
    C219     C        0.17100    0.78260    0.45990    1.000
    C220     C        0.20960    0.80530    0.43980    1.000
    H84      H        0.23630    0.83450    0.47240    1.000
    C221     C        0.28030    0.73530    0.26700    1.000
    C222     C        0.25200    0.78430    0.10500    1.000
    C223     C        0.17240    0.80840    0.53290    1.000
    C224     C        0.09100    0.67040    0.29280    1.000
    O115     O        0.13122    0.87649    0.72513    1.000
    O116     O        0.20637    0.93257    0.74732    1.000
    O117     O        0.23407    0.88870    0.91462    1.000
    O118     O        0.27040    0.96630    0.99850    1.000
    O119     O        0.91978    0.10604    0.44036    1.000
    O120     O        0.84293    0.05363    0.41495    1.000
    O121     O        0.86144    0.87251    0.57580    1.000
    O122     O        0.94430    0.83060    0.64960    1.000
    O123     O        0.07854    0.99919    0.66801    1.000
    O124     O        0.25334    0.68703    0.26509    1.000
    O125     O        0.33287    0.74018    0.30109    1.000
    O126     O        0.26890    0.72946    0.12400    1.000
    O127     O        0.25140    0.81360    0.04880    1.000
    O128     O        0.21158    0.84429    0.57659    1.000
    O129     O        0.13196    0.79324    0.54355    1.000
    O130     O        0.05470    0.65150    0.31180    1.000
    O131     O        0.09360    0.64760    0.23630    1.000
    O132     O        0.24905    0.80456    0.35561    1.000
    O133     O        0.14400    0.74760    0.90330    1.000
    Cu22     Cu       0.62088    0.32665    0.63109    1.000
    Cu23     Cu       0.71369    0.38822    0.66528    1.000
    Cu24     Cu       0.68976    0.31797    0.91258    1.000
    K8       K        0.58638    0.25682    0.81557    1.000
    C225     C        0.60523    0.50660    0.75180    1.000
    C226     C        0.65084    0.46990    0.79790    1.000
    C227     C        0.68410    0.48280    0.88000    1.000
    C228     C        0.66940    0.53310    0.91280    1.000
    H85      H        0.69190    0.54310    0.96690    1.000
    C229     C        0.62200    0.56690    0.86440    1.000
    H86      H        0.61190    0.59920    0.88630    1.000
    C230     C        0.58840    0.55350    0.78250    1.000
    H87      H        0.55560    0.57570    0.74990    1.000
    C231     C        0.52127    0.48920    0.62680    1.000
    C232     C        0.49810    0.43790    0.64230    1.000
    H88      H        0.52080    0.41140    0.68450    1.000
    C233     C        0.44030    0.42620    0.59400    1.000
    C234     C        0.40720    0.46700    0.53160    1.000
    H89      H        0.36860    0.46020    0.49960    1.000
    C235     C        0.43170    0.51784    0.51720    1.000
    C236     C        0.48825    0.52880    0.56490    1.000
    H90      H        0.50430    0.56310    0.55530    1.000
    C237     C        0.66488    0.42140    0.75540    1.000
    C238     C        0.73330    0.44370    0.93510    1.000
    C239     C        0.39484    0.56240    0.45200    1.000
    C240     C        0.41400    0.37180    0.60880    1.000
    C241     C        0.73040    0.32520    0.27760    1.000
    C242     C        0.74670    0.29200    0.23130    1.000
    C243     C        0.73410    0.31630    0.15590    1.000
    C244     C        0.70500    0.37170    0.13100    1.000
    H91      H        0.69620    0.38790    0.08120    1.000
    C245     C        0.68880    0.40400    0.17810    1.000
    H92      H        0.66920    0.44100    0.15980    1.000
    C246     C        0.70170    0.38080    0.25230    1.000
    H93      H        0.69140    0.40210    0.28460    1.000
    C247     C        0.70800    0.28430    0.37110    1.000
    C248     C        0.66780    0.24100    0.32240    1.000
    H94      H        0.66620    0.22740    0.27550    1.000
    C249     C        0.63120    0.21860    0.34290    1.000
    C250     C        0.63230    0.23970    0.41300    1.000
    H95      H        0.60670    0.22440    0.42670    1.000
    C251     C        0.67100    0.28260    0.45990    1.000
    C252     C        0.70960    0.30530    0.43980    1.000
    H96      H        0.73630    0.33450    0.47240    1.000
    C253     C        0.78030    0.23530    0.26700    1.000
    C254     C        0.75200    0.28430    0.10500    1.000
    C255     C        0.67240    0.30840    0.53290    1.000
    C256     C        0.59100    0.17040    0.29280    1.000
    O134     O        0.63122    0.37649    0.72513    1.000
    O135     O        0.70637    0.43257    0.74732    1.000
    O136     O        0.73407    0.38870    0.91462    1.000
    O137     O        0.77040    0.46630    0.99850    1.000
    O138     O        0.41978    0.60604    0.44036    1.000
    O139     O        0.34293    0.55363    0.41495    1.000
    O140     O        0.36144    0.37251    0.57580    1.000
    O141     O        0.44430    0.33060    0.64960    1.000
    O142     O        0.57854    0.49919    0.66801    1.000
    O143     O        0.75334    0.18703    0.26509    1.000
    O144     O        0.83287    0.24018    0.30109    1.000
    O145     O        0.76890    0.22946    0.12400    1.000
    O146     O        0.75140    0.31360    0.04880    1.000
    O147     O        0.71158    0.34429    0.57659    1.000
    O148     O        0.63196    0.29324    0.54355    1.000
    O149     O        0.55470    0.15150    0.31180    1.000
    O150     O        0.59360    0.14760    0.23630    1.000
    O151     O        0.74905    0.30456    0.35561    1.000
    O152     O        0.64400    0.24760    0.90330    1.000
    Cu25     Cu       0.00000    0.41027    0.75000    1.000
    Cu26     Cu       0.50000    0.91027    0.75000    1.000
    Cu27     Cu       0.00000    0.58973    0.25000    1.000
    Cu28     Cu       0.50000    0.08973    0.25000    1.000
