data_functionalizedCrystal
_audit_creation_method	'EQeq! by Chris Wilmer'
_symmetry_space_group_name_H-M	'P1'
_symmetry_Int_Tables_number	1
_symmetry_cell_setting	triclinic
loop_
_symmetry_equiv_pos_as_xyz
  x,y,z
_cell_length_a	15.229
_cell_length_b	8.796
_cell_length_c	38.65
_cell_angle_alpha	90
_cell_angle_beta	89.977
_cell_angle_gamma	90
loop_
_atom_site_label
_atom_site_type_symbol
_atom_site_fract_x
_atom_site_fract_y
_atom_site_fract_z
_atom_site_charge
Mof_Zn	Zn	0.76003	0.9084	0.24968	1.052
Mof_Zn	Zn	0.5959	0.2246	0.25247	0.75
Mof_Zn	Zn	0.75849	0.5052	0.2512	1.263
Mof_Zn	Zn	0.55433	0.2094	0.25598	0.826
Mof_Co	Co	0.24218	0.4825	0.04862	1.172
Mof_C 	C 	0.3219	0.2511	0.09469	0.029
Mof_H 	H 	0.2954	0.1681	0.0829	0.014
Mof_C 	C 	0.3672	0.2384	0.1249	-0.046
Mof_H 	H 	0.3775	0.1463	0.1371	0.042
Mof_C 	C 	0.3955	0.3797	0.1351	-0.097
Mof_H 	H 	0.427	0.4054	0.1555	0.059
Mof_C 	C 	0.3671	0.4793	0.10823	0.109
Mof_C 	C 	0.3873	0.6344	0.10443	-0.148
Mof_C 	C 	0.3627	0.7211	0.0756	0.108
Mof_C 	C 	0.3907	0.87	0.06741	-0.103
Mof_H 	H 	0.4266	0.9337	0.0813	0.065
Mof_C 	C 	0.3555	0.906	0.03495	-0.044
Mof_H 	H 	0.3636	0.9977	0.0224	0.042
Mof_C 	C 	0.3054	0.7777	0.02463	0.026
Mof_H 	H 	0.2737	0.7711	0.0035	0.013
Mof_C 	C 	0.4378	0.7059	0.13264	0.142
Mof_C 	C 	0.4002	0.823	0.1514	-0.182
Mof_H 	H 	0.343	0.8578	0.1457	0.091
Mof_C 	C 	0.4465	0.8907	0.1789	0.103
Mof_H 	H 	0.4192	0.9688	0.1921	-0.001
Mof_C 	C 	0.53	0.8461	0.1871	-0.188
Mof_C 	C 	0.5691	0.7318	0.1672	0.094
Mof_H 	H 	0.6279	0.7023	0.1719	0.019
Mof_C 	C 	0.5231	0.66	0.1403	-0.179
Mof_H 	H 	0.55	0.5805	0.1275	0.089
Mof_C 	C 	0.5827	0.9245	0.2149	0.481
Mof_C 	C 	0.8998	0.139	0.51631	0.029
Mof_H 	H 	0.929	0.1455	0.538	0.012
Mof_C 	C 	0.9377	0.1833	0.4836	-0.043
Mof_H 	H 	0.9946	0.2235	0.4796	0.047
Mof_C 	C 	0.8737	0.1547	0.4596	-0.099
Mof_H 	H 	0.8781	0.1751	0.4355	0.066
Mof_C 	C 	0.801	0.0911	0.47605	0.103
Mof_C 	C 	0.7222	0.0332	0.46149	-0.14
Mof_C 	C 	0.6571	0.9579	0.47999	0.103
Mof_C 	C 	0.5806	0.8848	0.46519	-0.093
Mof_H 	H 	0.5636	0.8832	0.4416	0.064
Mof_C 	C 	0.5382	0.8187	0.49245	-0.045
Mof_H 	H 	0.4862	0.7592	0.4913	0.048
Mof_C 	C 	0.5859	0.855	0.52277	0.031
Mof_H 	H 	0.5688	0.8243	0.5454	0.011
Mof_C 	C 	0.7103	0.0516	0.4235	0.124
Mof_C 	C 	0.7674	0.9829	0.40049	-0.163
Mof_H 	H 	0.8154	0.9248	0.409	0.083
Mof_C 	C 	0.7554	0.9981	0.36563	0.065
Mof_H 	H 	0.7949	0.9494	0.3501	0.024
Mof_C 	C 	0.6863	0.0838	0.3525	-0.128
Mof_C 	C 	0.6276	0.1562	0.3748	0.061
Mof_H 	H 	0.5803	0.2151	0.3661	0.025
Mof_C 	C 	0.6403	0.1397	0.4102	-0.153
Mof_H 	H 	0.6013	0.1886	0.4257	0.082
Mof_C 	C 	0.6748	0.0939	0.3132	0.401
Mof_C 	C 	0.182	0.1812	0.0253	0.027
Mof_H 	H 	0.2151	0.1873	0.0045	0.013
Mof_C 	C 	0.1331	0.0528	0.0355	-0.038
Mof_H 	H 	0.126	0.9607	0.023	0.039
Mof_C 	C 	0.0984	0.0871	0.0666	-0.105
Mof_H 	H 	0.0626	0.0224	0.0803	0.067
Mof_C 	C 	0.1251	0.2385	0.0753	0.113
Mof_C 	C 	0.1036	0.3225	0.1047	-0.155
Mof_C 	C 	0.1248	0.4746	0.1102	0.117
Mof_C 	C 	0.098	0.5713	0.1373	-0.101
Mof_H 	H 	0.0659	0.542	0.1573	0.073
Mof_C 	C 	0.1265	0.7138	0.1297	-0.04
Mof_H 	H 	0.1172	0.8033	0.143	0.046
Mof_C 	C 	0.172	0.7026	0.09843	0.033
Mof_H 	H 	0.1987	0.7861	0.0869	0.011
Mof_C 	C 	0.0529	0.2436	0.1325	0.142
Mof_C 	C 	0.0905	0.1303	0.1519	-0.178
Mof_H 	H 	0.1486	0.0989	0.1466	0.091
Mof_C 	C 	0.0471	0.0603	0.1788	0.095
Mof_H 	H 	0.075	0.9834	0.1921	0.017
Mof_C 	C 	0.9625	0.1042	0.186	-0.151
Mof_C 	C 	0.9221	0.219	0.167	0.084
Mof_H 	H 	0.8642	0.2514	0.1725	0.035
Mof_C 	C 	0.9671	0.2849	0.14	-0.174
Mof_H 	H 	0.939	0.3601	0.1263	0.095
Mof_C 	C 	0.9137	0.0241	0.2147	0.413
Mof_N 	N 	0.3193	0.3959	0.08365	-0.252
Mof_N 	N 	0.3085	0.6669	0.04854	-0.259
Mof_N 	N 	0.8186	0.088	0.51203	-0.256
Mof_N 	N 	0.6575	0.9373	0.51595	-0.256
Mof_N 	N 	0.1761	0.2926	0.04834	-0.256
Mof_N 	N 	0.1733	0.5616	0.08695	-0.256
Mof_O 	O 	0.5445	0.0274	0.2321	-0.59
Mof_O 	O 	0.6603	0.8855	0.2181	-0.547
Mof_O 	O 	0.6044	0.1662	0.30346	-0.511
Mof_O 	O 	0.7323	0.0324	0.2954	-0.49
Mof_O 	O 	0.9562	0.9307	0.23319	-0.544
Mof_O 	O 	0.8338	0.052	0.2174	-0.463
Mof_O 	O 	0.7216	0.112	0.2439	-1.339
Mof_O 	O 	0.8139	0.725	0.2634	1.023
Mof_O 	O 	0.7087	0.295	0.2328	-1.456
Mof_O 	O 	0.4224	0.192	0.2717	-0.464
Mof_H 	H 	0.409	0.0993	0.2735	0.237
Mof_Zn	Zn	0.73997	0.4084	0.25032	1.052
Mof_Zn	Zn	0.9041	0.7246	0.24753	0.749
Mof_Zn	Zn	0.74151	0.0052	0.2488	1.263
Mof_Zn	Zn	0.94567	0.7094	0.24402	0.825
Mof_Co	Co	0.25782	0.9825	0.45138	1.171
Mof_C 	C 	0.1781	0.7511	0.40531	0.029
Mof_H 	H 	0.2046	0.6681	0.4171	0.013
Mof_C 	C 	0.1328	0.7384	0.3751	-0.047
Mof_H 	H 	0.1225	0.6463	0.3629	0.041
Mof_C 	C 	0.1045	0.8797	0.3649	-0.095
Mof_H 	H 	0.073	0.9054	0.3445	0.057
Mof_C 	C 	0.1329	0.9793	0.39177	0.104
Mof_C 	C 	0.1127	0.1344	0.39557	-0.143
Mof_C 	C 	0.1373	0.2211	0.4244	0.107
Mof_C 	C 	0.1093	0.37	0.43259	-0.102
Mof_H 	H 	0.0734	0.4337	0.4187	0.065
Mof_C 	C 	0.1445	0.406	0.46505	-0.044
Mof_H 	H 	0.1364	0.4977	0.4776	0.043
Mof_C 	C 	0.1946	0.2777	0.47537	0.027
Mof_H 	H 	0.2263	0.2711	0.4965	0.012
Mof_C 	C 	0.0622	0.2059	0.36736	0.143
Mof_C 	C 	0.0998	0.323	0.3486	-0.182
Mof_H 	H 	0.157	0.3578	0.3543	0.092
Mof_C 	C 	0.0535	0.3907	0.3211	0.105
Mof_H 	H 	0.0808	0.4688	0.3079	-0
Mof_C 	C 	0.97	0.3461	0.3129	-0.189
Mof_C 	C 	0.9309	0.2318	0.3328	0.096
Mof_H 	H 	0.8721	0.2023	0.3281	0.019
Mof_C 	C 	0.9769	0.16	0.3597	-0.179
Mof_H 	H 	0.95	0.0805	0.3725	0.09
Mof_C 	C 	0.9173	0.4245	0.2851	0.488
Mof_C 	C 	0.6002	0.639	0.98369	0.03
Mof_H 	H 	0.571	0.6455	0.962	0.012
Mof_C 	C 	0.5623	0.6833	0.0164	-0.043
Mof_H 	H 	0.5054	0.7235	0.0204	0.048
Mof_C 	C 	0.6263	0.6547	0.0404	-0.099
Mof_H 	H 	0.6219	0.6751	0.0645	0.066
Mof_C 	C 	0.699	0.5911	0.02395	0.103
Mof_C 	C 	0.7778	0.5332	0.03851	-0.141
Mof_C 	C 	0.8429	0.4579	0.02001	0.104
Mof_C 	C 	0.9194	0.3848	0.03481	-0.093
Mof_H 	H 	0.9364	0.3832	0.0584	0.065
Mof_C 	C 	0.9618	0.3187	0.00755	-0.046
Mof_H 	H 	0.0138	0.2592	0.0087	0.048
Mof_C 	C 	0.9141	0.355	0.97723	0.031
Mof_H 	H 	0.9312	0.3243	0.9546	0.01
Mof_C 	C 	0.7897	0.5516	0.0765	0.122
Mof_C 	C 	0.7326	0.4829	0.09951	-0.163
Mof_H 	H 	0.6846	0.4248	0.091	0.084
Mof_C 	C 	0.7446	0.4981	0.13437	0.072
Mof_H 	H 	0.7051	0.4494	0.1499	0.023
Mof_C 	C 	0.8137	0.5838	0.1475	-0.134
Mof_C 	C 	0.8724	0.6562	0.1252	0.063
Mof_H 	H 	0.9197	0.7151	0.1339	0.023
Mof_C 	C 	0.8597	0.6397	0.0898	-0.154
Mof_H 	H 	0.8987	0.6886	0.0743	0.082
Mof_C 	C 	0.8252	0.5939	0.1868	0.403
Mof_C 	C 	0.318	0.6812	0.4747	0.029
Mof_H 	H 	0.2849	0.6873	0.4955	0.012
Mof_C 	C 	0.3669	0.5528	0.4645	-0.043
Mof_H 	H 	0.374	0.4607	0.477	0.042
Mof_C 	C 	0.4016	0.5871	0.4334	-0.101
Mof_H 	H 	0.4374	0.5224	0.4197	0.065
Mof_C 	C 	0.3749	0.7385	0.4247	0.11
Mof_C 	C 	0.3964	0.8225	0.3953	-0.149
Mof_C 	C 	0.3752	0.9746	0.3898	0.106
Mof_C 	C 	0.402	0.0713	0.3627	-0.091
Mof_H 	H 	0.4341	0.042	0.3427	0.071
Mof_C 	C 	0.3735	0.2138	0.3703	-0.044
Mof_H 	H 	0.3828	0.3033	0.357	0.049
Mof_C 	C 	0.328	0.2026	0.40157	0.036
Mof_H 	H 	0.3013	0.2861	0.4131	0.01
Mof_C 	C 	0.4471	0.7436	0.3675	0.131
Mof_C 	C 	0.4095	0.6303	0.3481	-0.165
Mof_H 	H 	0.3514	0.5989	0.3534	0.085
Mof_C 	C 	0.4529	0.5603	0.3212	0.074
Mof_H 	H 	0.425	0.4834	0.3079	0.027
Mof_C 	C 	0.5375	0.6042	0.314	-0.139
Mof_C 	C 	0.5779	0.719	0.333	0.074
Mof_H 	H 	0.6358	0.7514	0.3275	0.037
Mof_C 	C 	0.5329	0.7849	0.36	-0.165
Mof_H 	H 	0.561	0.8601	0.3737	0.091
Mof_C 	C 	0.5863	0.5241	0.2853	0.403
Mof_N 	N 	0.1807	0.8959	0.41635	-0.252
Mof_N 	N 	0.1915	0.1669	0.45146	-0.258
Mof_N 	N 	0.6814	0.588	0.98797	-0.256
Mof_N 	N 	0.8425	0.4373	0.98405	-0.256
Mof_N 	N 	0.3239	0.7926	0.45166	-0.256
Mof_N 	N 	0.3267	0.0616	0.41305	-0.253
Mof_O 	O 	0.9555	0.5274	0.2679	-0.596
Mof_O 	O 	0.8397	0.3855	0.2819	-0.547
Mof_O 	O 	0.8956	0.6662	0.19654	-0.512
Mof_O 	O 	0.7677	0.5324	0.2046	-0.493
Mof_O 	O 	0.5438	0.4307	0.26681	-0.538
Mof_O 	O 	0.6662	0.552	0.2826	-0.462
Mof_O 	O 	0.7784	0.612	0.2561	-1.341
Mof_O 	O 	0.6861	0.225	0.2366	1.021
Mof_O 	O 	0.7913	0.795	0.2672	-1.458
Mof_O 	O 	0.0776	0.692	0.2283	-0.464
Mof_H 	H 	0.091	0.5993	0.2265	0.236
Mof_Zn	Zn	0.23997	0.0916	0.75032	1.051
Mof_Zn	Zn	0.4041	0.7754	0.74753	0.749
Mof_Zn	Zn	0.24151	0.4948	0.7488	1.262
Mof_Zn	Zn	0.44567	0.7906	0.74402	0.825
Mof_Co	Co	0.75782	0.5175	0.95138	1.172
Mof_C 	C 	0.6781	0.7489	0.90531	0.029
Mof_H 	H 	0.7046	0.8319	0.9171	0.014
Mof_C 	C 	0.6328	0.7616	0.8751	-0.046
Mof_H 	H 	0.6225	0.8537	0.8629	0.042
Mof_C 	C 	0.6045	0.6203	0.8649	-0.097
Mof_H 	H 	0.573	0.5946	0.8445	0.059
Mof_C 	C 	0.6329	0.5207	0.89177	0.109
Mof_C 	C 	0.6127	0.3656	0.89557	-0.148
Mof_C 	C 	0.6373	0.2789	0.9244	0.108
Mof_C 	C 	0.6093	0.13	0.93259	-0.103
Mof_H 	H 	0.5734	0.0663	0.9187	0.065
Mof_C 	C 	0.6445	0.094	0.96505	-0.044
Mof_H 	H 	0.6364	0.0023	0.9776	0.042
Mof_C 	C 	0.6946	0.2223	0.97537	0.026
Mof_H 	H 	0.7263	0.2289	0.9965	0.013
Mof_C 	C 	0.5622	0.2941	0.86736	0.142
Mof_C 	C 	0.5998	0.177	0.8486	-0.182
Mof_H 	H 	0.657	0.1422	0.8543	0.091
Mof_C 	C 	0.5535	0.1093	0.8211	0.103
Mof_H 	H 	0.5808	0.0312	0.8079	-0.001
Mof_C 	C 	0.47	0.1539	0.8129	-0.188
Mof_C 	C 	0.4309	0.2682	0.8328	0.094
Mof_H 	H 	0.3721	0.2977	0.8281	0.019
Mof_C 	C 	0.4769	0.34	0.8597	-0.179
Mof_H 	H 	0.45	0.4195	0.8725	0.089
Mof_C 	C 	0.4173	0.0755	0.7851	0.481
Mof_C 	C 	0.1002	0.861	0.48369	0.029
Mof_H 	H 	0.071	0.8545	0.462	0.012
Mof_C 	C 	0.0623	0.8167	0.5164	-0.043
Mof_H 	H 	0.0054	0.7765	0.5204	0.047
Mof_C 	C 	0.1263	0.8453	0.5404	-0.099
Mof_H 	H 	0.1219	0.8249	0.5645	0.066
Mof_C 	C 	0.199	0.9089	0.52395	0.103
Mof_C 	C 	0.2778	0.9668	0.53851	-0.14
Mof_C 	C 	0.3429	0.0421	0.52001	0.103
Mof_C 	C 	0.4194	0.1152	0.53481	-0.093
Mof_H 	H 	0.4364	0.1168	0.5584	0.064
Mof_C 	C 	0.4618	0.1813	0.50755	-0.045
Mof_H 	H 	0.5138	0.2408	0.5087	0.048
Mof_C 	C 	0.4141	0.145	0.47723	0.031
Mof_H 	H 	0.4312	0.1757	0.4546	0.011
Mof_C 	C 	0.2897	0.9484	0.5765	0.124
Mof_C 	C 	0.2326	0.0171	0.59951	-0.163
Mof_H 	H 	0.1846	0.0752	0.591	0.083
Mof_C 	C 	0.2446	0.0019	0.63437	0.065
Mof_H 	H 	0.2051	0.0506	0.6499	0.024
Mof_C 	C 	0.3137	0.9162	0.6475	-0.128
Mof_C 	C 	0.3724	0.8438	0.6252	0.061
Mof_H 	H 	0.4197	0.7849	0.6339	0.025
Mof_C 	C 	0.3597	0.8603	0.5898	-0.153
Mof_H 	H 	0.3987	0.8114	0.5743	0.082
Mof_C 	C 	0.3252	0.9061	0.6868	0.401
Mof_C 	C 	0.818	0.8188	0.9747	0.027
Mof_H 	H 	0.7849	0.8127	0.9955	0.013
Mof_C 	C 	0.8669	0.9472	0.9645	-0.038
Mof_H 	H 	0.874	0.0393	0.977	0.039
Mof_C 	C 	0.9016	0.9129	0.9334	-0.105
Mof_H 	H 	0.9374	0.9776	0.9197	0.067
Mof_C 	C 	0.8749	0.7615	0.9247	0.113
Mof_C 	C 	0.8964	0.6775	0.8953	-0.155
Mof_C 	C 	0.8752	0.5254	0.8898	0.117
Mof_C 	C 	0.902	0.4287	0.8627	-0.101
Mof_H 	H 	0.9341	0.458	0.8427	0.073
Mof_C 	C 	0.8735	0.2862	0.8703	-0.04
Mof_H 	H 	0.8828	0.1967	0.857	0.046
Mof_C 	C 	0.828	0.2974	0.90157	0.033
Mof_H 	H 	0.8013	0.2139	0.9131	0.011
Mof_C 	C 	0.9471	0.7564	0.8675	0.142
Mof_C 	C 	0.9095	0.8697	0.8481	-0.178
Mof_H 	H 	0.8514	0.9011	0.8534	0.091
Mof_C 	C 	0.9529	0.9397	0.8212	0.095
Mof_H 	H 	0.925	0.0166	0.8079	0.017
Mof_C 	C 	0.0375	0.8958	0.814	-0.151
Mof_C 	C 	0.0779	0.781	0.833	0.084
Mof_H 	H 	0.1358	0.7486	0.8275	0.035
Mof_C 	C 	0.0329	0.7151	0.86	-0.174
Mof_H 	H 	0.061	0.6399	0.8737	0.095
Mof_C 	C 	0.0863	0.9759	0.7853	0.413
Mof_N 	N 	0.6807	0.6041	0.91635	-0.252
Mof_N 	N 	0.6915	0.3331	0.95146	-0.259
Mof_N 	N 	0.1814	0.912	0.48797	-0.256
Mof_N 	N 	0.3425	0.0627	0.48405	-0.256
Mof_N 	N 	0.8239	0.7074	0.95166	-0.256
Mof_N 	N 	0.8267	0.4384	0.91305	-0.256
Mof_O 	O 	0.4555	0.9726	0.7679	-0.59
Mof_O 	O 	0.3397	0.1145	0.7819	-0.547
Mof_O 	O 	0.3956	0.8338	0.69654	-0.511
Mof_O 	O 	0.2677	0.9676	0.7046	-0.49
Mof_O 	O 	0.0438	0.0693	0.76681	-0.544
Mof_O 	O 	0.1662	0.948	0.7826	-0.463
Mof_O 	O 	0.2784	0.888	0.7561	-1.339
Mof_O 	O 	0.1861	0.275	0.7366	1.023
Mof_O 	O 	0.2913	0.705	0.7672	-1.456
Mof_O 	O 	0.5776	0.808	0.7283	-0.464
Mof_H 	H 	0.591	0.9007	0.7265	0.237
Mof_Zn	Zn	0.26003	0.5916	0.74968	1.052
Mof_Zn	Zn	0.0959	0.2754	0.75247	0.749
Mof_Zn	Zn	0.25849	0.9948	0.7512	1.263
Mof_Zn	Zn	0.05433	0.2906	0.75598	0.825
Mof_Co	Co	0.74218	0.0175	0.54862	1.171
Mof_C 	C 	0.8219	0.2489	0.59469	0.029
Mof_H 	H 	0.7954	0.3319	0.5829	0.013
Mof_C 	C 	0.8672	0.2616	0.6249	-0.047
Mof_H 	H 	0.8775	0.3537	0.6371	0.041
Mof_C 	C 	0.8955	0.1203	0.6351	-0.095
Mof_H 	H 	0.927	0.0946	0.6555	0.057
Mof_C 	C 	0.8671	0.0207	0.60823	0.104
Mof_C 	C 	0.8873	0.8656	0.60443	-0.143
Mof_C 	C 	0.8627	0.7789	0.5756	0.107
Mof_C 	C 	0.8907	0.63	0.56741	-0.102
Mof_H 	H 	0.9266	0.5663	0.5813	0.065
Mof_C 	C 	0.8555	0.594	0.53495	-0.044
Mof_H 	H 	0.8636	0.5023	0.5224	0.043
Mof_C 	C 	0.8054	0.7223	0.52463	0.027
Mof_H 	H 	0.7737	0.7289	0.5035	0.012
Mof_C 	C 	0.9378	0.7941	0.63264	0.143
Mof_C 	C 	0.9002	0.677	0.6514	-0.182
Mof_H 	H 	0.843	0.6422	0.6457	0.092
Mof_C 	C 	0.9465	0.6093	0.6789	0.105
Mof_H 	H 	0.9192	0.5312	0.6921	-0
Mof_C 	C 	0.03	0.6539	0.6871	-0.189
Mof_C 	C 	0.0691	0.7682	0.6672	0.096
Mof_H 	H 	0.1279	0.7977	0.6719	0.019
Mof_C 	C 	0.0231	0.84	0.6403	-0.179
Mof_H 	H 	0.05	0.9195	0.6275	0.09
Mof_C 	C 	0.0827	0.5755	0.7149	0.488
Mof_C 	C 	0.3998	0.361	0.01631	0.03
Mof_H 	H 	0.429	0.3545	0.038	0.012
Mof_C 	C 	0.4377	0.3167	0.9836	-0.043
Mof_H 	H 	0.4946	0.2765	0.9796	0.048
Mof_C 	C 	0.3737	0.3453	0.9596	-0.099
Mof_H 	H 	0.3781	0.3249	0.9355	0.066
Mof_C 	C 	0.301	0.4089	0.97605	0.103
Mof_C 	C 	0.2222	0.4668	0.96149	-0.141
Mof_C 	C 	0.1571	0.5421	0.97999	0.104
Mof_C 	C 	0.0806	0.6152	0.96519	-0.093
Mof_H 	H 	0.0636	0.6168	0.9416	0.065
Mof_C 	C 	0.0382	0.6813	0.99245	-0.046
Mof_H 	H 	0.9862	0.7408	0.9913	0.048
Mof_C 	C 	0.0859	0.645	0.02277	0.031
Mof_H 	H 	0.0688	0.6757	0.0454	0.01
Mof_C 	C 	0.2103	0.4484	0.9235	0.122
Mof_C 	C 	0.2674	0.5171	0.90049	-0.163
Mof_H 	H 	0.3154	0.5752	0.909	0.084
Mof_C 	C 	0.2554	0.5019	0.86563	0.072
Mof_H 	H 	0.2949	0.5506	0.8501	0.023
Mof_C 	C 	0.1863	0.4162	0.8525	-0.134
Mof_C 	C 	0.1276	0.3438	0.8748	0.063
Mof_H 	H 	0.0803	0.2849	0.8661	0.023
Mof_C 	C 	0.1403	0.3603	0.9102	-0.154
Mof_H 	H 	0.1013	0.3114	0.9257	0.082
Mof_C 	C 	0.1748	0.4061	0.8132	0.403
Mof_C 	C 	0.682	0.3188	0.5253	0.029
Mof_H 	H 	0.7151	0.3127	0.5045	0.012
Mof_C 	C 	0.6331	0.4472	0.5355	-0.043
Mof_H 	H 	0.626	0.5393	0.523	0.042
Mof_C 	C 	0.5984	0.4129	0.5666	-0.101
Mof_H 	H 	0.5626	0.4776	0.5803	0.065
Mof_C 	C 	0.6251	0.2615	0.5753	0.11
Mof_C 	C 	0.6036	0.1775	0.6047	-0.149
Mof_C 	C 	0.6248	0.0254	0.6102	0.106
Mof_C 	C 	0.598	0.9287	0.6373	-0.091
Mof_H 	H 	0.5659	0.958	0.6573	0.071
Mof_C 	C 	0.6265	0.7862	0.6297	-0.044
Mof_H 	H 	0.6172	0.6967	0.643	0.049
Mof_C 	C 	0.672	0.7974	0.59843	0.036
Mof_H 	H 	0.6987	0.7139	0.5869	0.01
Mof_C 	C 	0.5529	0.2564	0.6325	0.131
Mof_C 	C 	0.5905	0.3697	0.6519	-0.165
Mof_H 	H 	0.6486	0.4011	0.6466	0.085
Mof_C 	C 	0.5471	0.4397	0.6788	0.074
Mof_H 	H 	0.575	0.5166	0.6921	0.027
Mof_C 	C 	0.4625	0.3958	0.686	-0.139
Mof_C 	C 	0.4221	0.281	0.667	0.074
Mof_H 	H 	0.3642	0.2486	0.6725	0.037
Mof_C 	C 	0.4671	0.2151	0.64	-0.165
Mof_H 	H 	0.439	0.1399	0.6263	0.091
Mof_C 	C 	0.4137	0.4759	0.7147	0.403
Mof_N 	N 	0.8193	0.1041	0.58365	-0.252
Mof_N 	N 	0.8085	0.8331	0.54854	-0.258
Mof_N 	N 	0.3186	0.412	0.01203	-0.256
Mof_N 	N 	0.1575	0.5627	0.01595	-0.256
Mof_N 	N 	0.6761	0.2074	0.54834	-0.256
Mof_N 	N 	0.6733	0.9384	0.58695	-0.253
Mof_O 	O 	0.0445	0.4726	0.7321	-0.596
Mof_O 	O 	0.1603	0.6145	0.7181	-0.547
Mof_O 	O 	0.1044	0.3338	0.80346	-0.512
Mof_O 	O 	0.2323	0.4676	0.7954	-0.493
Mof_O 	O 	0.4562	0.5693	0.73319	-0.538
Mof_O 	O 	0.3338	0.448	0.7174	-0.462
Mof_O 	O 	0.2216	0.388	0.7439	-1.341
Mof_O 	O 	0.3139	0.775	0.7634	1.021
Mof_O 	O 	0.2087	0.205	0.7328	-1.458
Mof_O 	O 	0.9224	0.308	0.7717	-0.464
Mof_H 	H 	0.909	0.4007	0.7735	0.236
_end
