# CIF file generated by openbabel 3.1.0, see https://openbabel.org
data_I
_chemical_name_common 'image0'
_cell_length_a 17.4941
_cell_length_b 32.393
_cell_length_c 10.0749
_cell_angle_alpha 90
_cell_angle_beta 90
_cell_angle_gamma 90
_space_group_name_H-M_alt 'P 1'
_space_group_name_Hall 'P 1'
loop_
    _symmetry_equiv_pos_as_xyz
    x,y,z
loop_
    _atom_site_label
    _atom_site_type_symbol
    _atom_site_fract_x
    _atom_site_fract_y
    _atom_site_fract_z
    _atom_site_occupancy
    Ga1      Ga       0.42596    0.92055    0.06059    1.000
    Ga2      Ga       0.48608    0.02560    0.03538    1.000
    Ga3      Ga       0.15986    0.99250    0.87555    1.000
    Ga4      Ga       0.34307    0.50610    0.59414    1.000
    Ga5      Ga       0.08020    0.58125    0.41799    1.000
    Ga6      Ga       0.01609    0.47561    0.44141    1.000
    Ga7      Ga       0.34114    0.66766    0.59885    1.000
    Ga8      Ga       0.15626    0.82191    0.87423    1.000
    Ga9      Ga       0.30031    0.75887    0.92093    1.000
    P1       P        0.31310    0.99637    0.06050    1.000
    P2       P        0.52140    0.95334    0.83440    1.000
    P3       P        0.06790    0.90707    0.85440    1.000
    P4       P        0.98140    0.54812    0.64130    1.000
    P5       P        0.18860    0.50369    0.40890    1.000
    P6       P        0.43700    0.59057    0.62580    1.000
    P7       P        0.35025    0.75867    0.61460    1.000
    P8       P        0.31850    0.84055    0.04730    1.000
    P9       P        0.30980    0.66274    0.91150    1.000
    O1       O        0.36710    0.56140    0.63820    1.000
    O2       O        0.13430    0.93770    0.83430    1.000
    O3       O        0.12770    0.47240    0.44060    1.000
    O4       O        0.36020    0.77120    0.75980    1.000
    O5       O        0.02300    0.50820    0.60250    1.000
    O6       O        0.20860    0.77020    0.82650    1.000
    O7       O        0.37570    0.02950    0.03720    1.000
    O8       O        0.48050    0.99300    0.87530    1.000
    O9       O        0.26480    0.75110    0.58500    1.000
    O10      O        0.24410    0.84350    0.96890    1.000
    O11      O        0.25870    0.49240    0.49530    1.000
    O12      O        0.34160    0.70560    0.94110    1.000
    O13      O        0.24670    0.00700    0.97060    1.000
    O14      O        0.00070    0.92540    0.92910    1.000
    O15      O        0.35480    0.79720    0.02620    1.000
    O16      O        0.50670    0.57270    0.55620    1.000
    O17      O        0.49560    0.91690    0.92270    1.000
    O18      O        0.01200    0.58570    0.55950    1.000
    O19      O        0.60820    0.95820    0.84800    1.000
    O20      O        0.33930    0.95200    0.02490    1.000
    O21      O        0.16630    0.54880    0.44880    1.000
    O22      O        0.89500    0.54390    0.61620    1.000
    O23      O        0.29780    0.65540    0.75890    1.000
    O24      O        0.50010    0.94140    0.69240    1.000
    O25      O        0.28390    0.99710    0.20560    1.000
    O26      O        0.21230    0.50240    0.26170    1.000
    O27      O        0.30530    0.84680    0.19610    1.000
    O28      O        0.45760    0.60580    0.76630    1.000
    O29      O        0.99620    0.55860    0.78850    1.000
    O30      O        0.41180    0.62930    0.54290    1.000
    O31      O        0.04110    0.89290    0.71210    1.000
    O32      O        0.09620    0.86820    0.92550    1.000
    O33      O        0.37520    0.87220    0.99210    1.000
    O34      O        0.36360    0.63090    0.97290    1.000
    O35      O        0.38720    0.79190    0.52630    1.000
    O36      O        0.22840    0.65840    0.96760    1.000
    O37      O        0.39230    0.71660    0.59100    1.000
    F1       F        0.60030    0.01590    0.04160    1.000
    F2       F        0.02580    0.52950    0.34940    1.000
    F3       F        0.47760    0.97170    0.13130    1.000
    F4       F        0.40400    0.51520    0.42900    1.000
    Ga10     Ga       0.57404    0.07945    0.56059    1.000
    Ga11     Ga       0.51392    0.97440    0.53538    1.000
    Ga12     Ga       0.84014    0.00750    0.37555    1.000
    Ga13     Ga       0.65693    0.49390    0.09414    1.000
    Ga14     Ga       0.91980    0.41875    0.91799    1.000
    Ga15     Ga       0.98391    0.52439    0.94141    1.000
    Ga16     Ga       0.65886    0.33234    0.09885    1.000
    Ga17     Ga       0.84374    0.17809    0.37423    1.000
    Ga18     Ga       0.69969    0.24113    0.42093    1.000
    P10      P        0.68690    0.00363    0.56050    1.000
    P11      P        0.47860    0.04666    0.33440    1.000
    P12      P        0.93210    0.09293    0.35440    1.000
    P13      P        0.01860    0.45188    0.14130    1.000
    P14      P        0.81140    0.49631    0.90890    1.000
    P15      P        0.56300    0.40943    0.12580    1.000
    P16      P        0.64975    0.24133    0.11460    1.000
    P17      P        0.68150    0.15945    0.54730    1.000
    P18      P        0.69020    0.33726    0.41150    1.000
    O38      O        0.63290    0.43860    0.13820    1.000
    O39      O        0.86570    0.06230    0.33430    1.000
    O40      O        0.87230    0.52760    0.94060    1.000
    O41      O        0.63980    0.22880    0.25980    1.000
    O42      O        0.97700    0.49180    0.10250    1.000
    O43      O        0.79140    0.22980    0.32650    1.000
    O44      O        0.62430    0.97050    0.53720    1.000
    O45      O        0.51950    0.00700    0.37530    1.000
    O46      O        0.73520    0.24890    0.08500    1.000
    O47      O        0.75590    0.15650    0.46890    1.000
    O48      O        0.74130    0.50760    0.99530    1.000
    O49      O        0.65840    0.29440    0.44110    1.000
    O50      O        0.75330    0.99300    0.47060    1.000
    O51      O        0.99930    0.07460    0.42910    1.000
    O52      O        0.64520    0.20280    0.52620    1.000
    O53      O        0.49330    0.42730    0.05620    1.000
    O54      O        0.50440    0.08310    0.42270    1.000
    O55      O        0.98800    0.41430    0.05950    1.000
    O56      O        0.39180    0.04180    0.34800    1.000
    O57      O        0.66070    0.04800    0.52490    1.000
    O58      O        0.83370    0.45120    0.94880    1.000
    O59      O        0.10500    0.45610    0.11620    1.000
    O60      O        0.70220    0.34460    0.25890    1.000
    O61      O        0.49990    0.05860    0.19240    1.000
    O62      O        0.71610    0.00290    0.70560    1.000
    O63      O        0.78770    0.49760    0.76170    1.000
    O64      O        0.69470    0.15320    0.69610    1.000
    O65      O        0.54240    0.39420    0.26630    1.000
    O66      O        0.00380    0.44140    0.28850    1.000
    O67      O        0.58820    0.37070    0.04290    1.000
    O68      O        0.95890    0.10710    0.21210    1.000
    O69      O        0.90380    0.13180    0.42550    1.000
    O70      O        0.62480    0.12780    0.49210    1.000
    O71      O        0.63640    0.36910    0.47290    1.000
    O72      O        0.61280    0.20810    0.02630    1.000
    O73      O        0.77160    0.34160    0.46760    1.000
    O74      O        0.60770    0.28340    0.09100    1.000
    F5       F        0.39970    0.98410    0.54160    1.000
    F6       F        0.97420    0.47050    0.84940    1.000
    F7       F        0.52240    0.02830    0.63130    1.000
    F8       F        0.59600    0.48480    0.92900    1.000
    Ga19     Ga       0.92596    0.07945    0.06059    1.000
    Ga20     Ga       0.98608    0.97440    0.03538    1.000
    Ga21     Ga       0.65986    0.00750    0.87555    1.000
    Ga22     Ga       0.84307    0.49390    0.59414    1.000
    Ga23     Ga       0.58020    0.41875    0.41799    1.000
    Ga24     Ga       0.51609    0.52439    0.44141    1.000
    Ga25     Ga       0.84114    0.33234    0.59885    1.000
    Ga26     Ga       0.65626    0.17809    0.87423    1.000
    Ga27     Ga       0.80031    0.24113    0.92093    1.000
    P19      P        0.81310    0.00363    0.06050    1.000
    P20      P        0.02140    0.04666    0.83440    1.000
    P21      P        0.56790    0.09293    0.85440    1.000
    P22      P        0.48140    0.45188    0.64130    1.000
    P23      P        0.68860    0.49631    0.40890    1.000
    P24      P        0.93700    0.40943    0.62580    1.000
    P25      P        0.85025    0.24133    0.61460    1.000
    P26      P        0.81850    0.15945    0.04730    1.000
    P27      P        0.80980    0.33726    0.91150    1.000
    O75      O        0.86710    0.43860    0.63820    1.000
    O76      O        0.63430    0.06230    0.83430    1.000
    O77      O        0.62770    0.52760    0.44060    1.000
    O78      O        0.86020    0.22880    0.75980    1.000
    O79      O        0.52300    0.49180    0.60250    1.000
    O80      O        0.70860    0.22980    0.82650    1.000
    O81      O        0.87570    0.97050    0.03720    1.000
    O82      O        0.98050    0.00700    0.87530    1.000
    O83      O        0.76480    0.24890    0.58500    1.000
    O84      O        0.74410    0.15650    0.96890    1.000
    O85      O        0.75870    0.50760    0.49530    1.000
    O86      O        0.84160    0.29440    0.94110    1.000
    O87      O        0.74670    0.99300    0.97060    1.000
    O88      O        0.50070    0.07460    0.92910    1.000
    O89      O        0.85480    0.20280    0.02620    1.000
    O90      O        0.00670    0.42730    0.55620    1.000
    O91      O        0.99560    0.08310    0.92270    1.000
    O92      O        0.51200    0.41430    0.55950    1.000
    O93      O        0.10820    0.04180    0.84800    1.000
    O94      O        0.83930    0.04800    0.02490    1.000
    O95      O        0.66630    0.45120    0.44880    1.000
    O96      O        0.39500    0.45610    0.61620    1.000
    O97      O        0.79780    0.34460    0.75890    1.000
    O98      O        0.00010    0.05860    0.69240    1.000
    O99      O        0.78390    0.00290    0.20560    1.000
    O100     O        0.71230    0.49760    0.26170    1.000
    O101     O        0.80530    0.15320    0.19610    1.000
    O102     O        0.95760    0.39420    0.76630    1.000
    O103     O        0.49620    0.44140    0.78850    1.000
    O104     O        0.91180    0.37070    0.54290    1.000
    O105     O        0.54110    0.10710    0.71210    1.000
    O106     O        0.59620    0.13180    0.92550    1.000
    O107     O        0.87520    0.12780    0.99210    1.000
    O108     O        0.86360    0.36910    0.97290    1.000
    O109     O        0.88720    0.20810    0.52630    1.000
    O110     O        0.72840    0.34160    0.96760    1.000
    O111     O        0.89230    0.28340    0.59100    1.000
    F9       F        0.10030    0.98410    0.04160    1.000
    F10      F        0.52580    0.47050    0.34940    1.000
    F11      F        0.97760    0.02830    0.13130    1.000
    F12      F        0.90400    0.48480    0.42900    1.000
    Ga28     Ga       0.07404    0.92055    0.56059    1.000
    Ga29     Ga       0.01392    0.02560    0.53538    1.000
    Ga30     Ga       0.34014    0.99250    0.37555    1.000
    Ga31     Ga       0.15693    0.50610    0.09414    1.000
    Ga32     Ga       0.41980    0.58125    0.91799    1.000
    Ga33     Ga       0.48391    0.47561    0.94141    1.000
    Ga34     Ga       0.15886    0.66766    0.09885    1.000
    Ga35     Ga       0.34374    0.82191    0.37423    1.000
    Ga36     Ga       0.19969    0.75887    0.42093    1.000
    P28      P        0.18690    0.99637    0.56050    1.000
    P29      P        0.97860    0.95334    0.33440    1.000
    P30      P        0.43210    0.90707    0.35440    1.000
    P31      P        0.51860    0.54812    0.14130    1.000
    P32      P        0.31140    0.50369    0.90890    1.000
    P33      P        0.06300    0.59057    0.12580    1.000
    P34      P        0.14975    0.75867    0.11460    1.000
    P35      P        0.18150    0.84055    0.54730    1.000
    P36      P        0.19020    0.66274    0.41150    1.000
    O112     O        0.13290    0.56140    0.13820    1.000
    O113     O        0.36570    0.93770    0.33430    1.000
    O114     O        0.37230    0.47240    0.94060    1.000
    O115     O        0.13980    0.77120    0.25980    1.000
    O116     O        0.47700    0.50820    0.10250    1.000
    O117     O        0.29140    0.77020    0.32650    1.000
    O118     O        0.12430    0.02950    0.53720    1.000
    O119     O        0.01950    0.99300    0.37530    1.000
    O120     O        0.23520    0.75110    0.08500    1.000
    O121     O        0.25590    0.84350    0.46890    1.000
    O122     O        0.24130    0.49240    0.99530    1.000
    O123     O        0.15840    0.70560    0.44110    1.000
    O124     O        0.25330    0.00700    0.47060    1.000
    O125     O        0.49930    0.92540    0.42910    1.000
    O126     O        0.14520    0.79720    0.52620    1.000
    O127     O        0.99330    0.57270    0.05620    1.000
    O128     O        0.00440    0.91690    0.42270    1.000
    O129     O        0.48800    0.58570    0.05950    1.000
    O130     O        0.89180    0.95820    0.34800    1.000
    O131     O        0.16070    0.95200    0.52490    1.000
    O132     O        0.33370    0.54880    0.94880    1.000
    O133     O        0.60500    0.54390    0.11620    1.000
    O134     O        0.20220    0.65540    0.25890    1.000
    O135     O        0.99990    0.94140    0.19240    1.000
    O136     O        0.21610    0.99710    0.70560    1.000
    O137     O        0.28770    0.50240    0.76170    1.000
    O138     O        0.19470    0.84680    0.69610    1.000
    O139     O        0.04240    0.60580    0.26630    1.000
    O140     O        0.50380    0.55860    0.28850    1.000
    O141     O        0.08820    0.62930    0.04290    1.000
    O142     O        0.45890    0.89290    0.21210    1.000
    O143     O        0.40380    0.86820    0.42550    1.000
    O144     O        0.12480    0.87220    0.49210    1.000
    O145     O        0.13640    0.63090    0.47290    1.000
    O146     O        0.11280    0.79190    0.02630    1.000
    O147     O        0.27160    0.65840    0.46760    1.000
    O148     O        0.10770    0.71660    0.09100    1.000
    F13      F        0.89970    0.01590    0.54160    1.000
    F14      F        0.47420    0.52950    0.84940    1.000
    F15      F        0.02240    0.97170    0.63130    1.000
    F16      F        0.09600    0.51520    0.92900    1.000
