# CIF file generated by openbabel 3.1.0, see https://openbabel.org
data_I
_chemical_name_common 'image0'
_cell_length_a 21.3111
_cell_length_b 20.9858
_cell_length_c 17.9319
_cell_angle_alpha 90
_cell_angle_beta 96.387
_cell_angle_gamma 90
_space_group_name_H-M_alt 'P 1'
_space_group_name_Hall 'P 1'
loop_
    _symmetry_equiv_pos_as_xyz
    x,y,z
loop_
    _atom_site_label
    _atom_site_type_symbol
    _atom_site_fract_x
    _atom_site_fract_y
    _atom_site_fract_z
    _atom_site_occupancy
    W1       W        0.71508    0.01981    0.99674    1.000
    Cu1      Cu       0.81869    0.08978    0.97362    1.000
    Cu2      Cu       0.73681    0.04740    0.14348    1.000
    Cu3      Cu       0.78545    0.91166    0.01649    1.000
    S1       S        0.74013    0.11735    0.04570    1.000
    S2       S        0.71353    0.94878    0.09107    1.000
    S3       S        0.79084    0.98982    0.92639    1.000
    Br1      Br       0.88303    0.86398    0.07607    1.000
    C1       C        0.82990    0.21020    0.88150    1.000
    H1       H        0.84410    0.22950    0.92820    1.000
    C2       C        0.82160    0.24760    0.81850    1.000
    H2       H        0.82940    0.29210    0.82230    1.000
    C3       C        0.80190    0.22090    0.74960    1.000
    C4       C        0.79150    0.15670    0.74760    1.000
    H3       H        0.77870    0.13630    0.70110    1.000
    C5       C        0.79980    0.12140    0.81320    1.000
    H4       H        0.79170    0.07680    0.81060    1.000
    C6       C        0.78860    0.25960    0.68080    1.000
    C7       C        0.82520    0.31140    0.66520    1.000
    H5       H        0.86270    0.32140    0.69680    1.000
    C8       C        0.80620    0.34850    0.60280    1.000
    H6       H        0.83190    0.38380    0.59310    1.000
    C9       C        0.72130    0.28670    0.57070    1.000
    H7       H        0.68460    0.27740    0.53740    1.000
    C10      C        0.73590    0.24680    0.62990    1.000
    H8       H        0.71040    0.21050    0.63650    1.000
    C11      C        0.18020    0.10330    0.22910    1.000
    H9       H        0.21310    0.13370    0.22870    1.000
    C12      C        0.12680    0.11180    0.17970    1.000
    H10      H        0.12330    0.14740    0.14690    1.000
    C13      C        0.07800    0.06790    0.17820    1.000
    C14      C        0.08670    0.01760    0.22720    1.000
    H11      H        0.05490    0.98590    0.22730    1.000
    C15      C        0.14040    0.01250    0.27570    1.000
    H12      H        0.14380    0.97770    0.30980    1.000
    C16      C        0.02010    0.07550    0.12500    1.000
    C17      C        0.99600    0.13350    0.10150    1.000
    H13      H        0.01840    0.17120    0.11730    1.000
    C18      C        0.93990    0.13810    0.05560    1.000
    H14      H        0.92440    0.17930    0.04160    1.000
    C19      C        0.93010    0.03130    0.05040    1.000
    H15      H        0.90740    0.99450    0.03210    1.000
    C20      C        0.98710    0.02260    0.09780    1.000
    H16      H        0.00220    0.98100    0.11060    1.000
    C21      C        0.64360    0.03890    0.25980    1.000
    H17      H        0.67860    0.02300    0.29170    1.000
    C22      C        0.58390    0.03760    0.28480    1.000
    H18      H        0.57900    0.02310    0.33400    1.000
    C23      C        0.53200    0.05750    0.23760    1.000
    C24      C        0.54190    0.07910    0.16700    1.000
    H19      H        0.50740    0.09210    0.13220    1.000
    C25      C        0.60300    0.08160    0.14790    1.000
    H20      H        0.60950    0.09830    0.10010    1.000
    N1       N        0.81860    0.14720    0.87970    1.000
    N2       N        0.75530    0.33830    0.55630    1.000
    N3       N        0.18900    0.05400    0.27830    1.000
    N4       N        0.90680    0.08780    0.03000    1.000
    N5       N        0.65310    0.06180    0.19270    1.000
    W2       W        0.21508    0.51981    0.99674    1.000
    Cu4      Cu       0.31869    0.58978    0.97362    1.000
    Cu5      Cu       0.23681    0.54740    0.14348    1.000
    Cu6      Cu       0.28545    0.41166    0.01649    1.000
    S4       S        0.24013    0.61735    0.04570    1.000
    S5       S        0.21353    0.44878    0.09107    1.000
    S6       S        0.29084    0.48982    0.92639    1.000
    Br2      Br       0.38303    0.36398    0.07607    1.000
    C26      C        0.32990    0.71020    0.88150    1.000
    H21      H        0.34410    0.72950    0.92820    1.000
    C27      C        0.32160    0.74760    0.81850    1.000
    H22      H        0.32940    0.79210    0.82230    1.000
    C28      C        0.30190    0.72090    0.74960    1.000
    C29      C        0.29150    0.65670    0.74760    1.000
    H23      H        0.27870    0.63630    0.70110    1.000
    C30      C        0.29980    0.62140    0.81320    1.000
    H24      H        0.29170    0.57680    0.81060    1.000
    C31      C        0.28860    0.75960    0.68080    1.000
    C32      C        0.32520    0.81140    0.66520    1.000
    H25      H        0.36270    0.82140    0.69680    1.000
    C33      C        0.30620    0.84850    0.60280    1.000
    H26      H        0.33190    0.88380    0.59310    1.000
    C34      C        0.22130    0.78670    0.57070    1.000
    H27      H        0.18460    0.77740    0.53740    1.000
    C35      C        0.23590    0.74680    0.62990    1.000
    H28      H        0.21040    0.71050    0.63650    1.000
    C36      C        0.68020    0.60330    0.22910    1.000
    H29      H        0.71310    0.63370    0.22870    1.000
    C37      C        0.62680    0.61180    0.17970    1.000
    H30      H        0.62330    0.64740    0.14690    1.000
    C38      C        0.57800    0.56790    0.17820    1.000
    C39      C        0.58670    0.51760    0.22720    1.000
    H31      H        0.55490    0.48590    0.22730    1.000
    C40      C        0.64040    0.51250    0.27570    1.000
    H32      H        0.64380    0.47770    0.30980    1.000
    C41      C        0.52010    0.57550    0.12500    1.000
    C42      C        0.49600    0.63350    0.10150    1.000
    H33      H        0.51840    0.67120    0.11730    1.000
    C43      C        0.43990    0.63810    0.05560    1.000
    H34      H        0.42440    0.67930    0.04160    1.000
    C44      C        0.43010    0.53130    0.05040    1.000
    H35      H        0.40740    0.49450    0.03210    1.000
    C45      C        0.48710    0.52260    0.09780    1.000
    H36      H        0.50220    0.48100    0.11060    1.000
    C46      C        0.14360    0.53890    0.25980    1.000
    H37      H        0.17860    0.52300    0.29170    1.000
    C47      C        0.08390    0.53760    0.28480    1.000
    H38      H        0.07900    0.52310    0.33400    1.000
    C48      C        0.03200    0.55750    0.23760    1.000
    C49      C        0.04190    0.57910    0.16700    1.000
    H39      H        0.00740    0.59210    0.13220    1.000
    C50      C        0.10300    0.58160    0.14790    1.000
    H40      H        0.10950    0.59830    0.10010    1.000
    N6       N        0.31860    0.64720    0.87970    1.000
    N7       N        0.25530    0.83830    0.55630    1.000
    N8       N        0.68900    0.55400    0.27830    1.000
    N9       N        0.40680    0.58780    0.03000    1.000
    N10      N        0.15310    0.56180    0.19270    1.000
    W3       W        0.28492    0.01981    0.50326    1.000
    Cu7      Cu       0.18131    0.08978    0.52638    1.000
    Cu8      Cu       0.26319    0.04740    0.35652    1.000
    Cu9      Cu       0.21455    0.91166    0.48351    1.000
    S7       S        0.25987    0.11735    0.45430    1.000
    S8       S        0.28647    0.94878    0.40893    1.000
    S9       S        0.20916    0.98982    0.57361    1.000
    Br3      Br       0.11697    0.86398    0.42393    1.000
    C51      C        0.17010    0.21020    0.61850    1.000
    H41      H        0.15590    0.22950    0.57180    1.000
    C52      C        0.17840    0.24760    0.68150    1.000
    H42      H        0.17060    0.29210    0.67770    1.000
    C53      C        0.19810    0.22090    0.75040    1.000
    C54      C        0.20850    0.15670    0.75240    1.000
    H43      H        0.22130    0.13630    0.79890    1.000
    C55      C        0.20020    0.12140    0.68680    1.000
    H44      H        0.20830    0.07680    0.68940    1.000
    C56      C        0.21140    0.25960    0.81920    1.000
    C57      C        0.17480    0.31140    0.83480    1.000
    H45      H        0.13730    0.32140    0.80320    1.000
    C58      C        0.19380    0.34850    0.89720    1.000
    H46      H        0.16810    0.38380    0.90690    1.000
    C59      C        0.27870    0.28670    0.92930    1.000
    H47      H        0.31540    0.27740    0.96260    1.000
    C60      C        0.26410    0.24680    0.87010    1.000
    H48      H        0.28960    0.21050    0.86350    1.000
    C61      C        0.81980    0.10330    0.27090    1.000
    H49      H        0.78690    0.13370    0.27130    1.000
    C62      C        0.87320    0.11180    0.32030    1.000
    H50      H        0.87670    0.14740    0.35310    1.000
    C63      C        0.92200    0.06790    0.32180    1.000
    C64      C        0.91330    0.01760    0.27280    1.000
    H51      H        0.94510    0.98590    0.27270    1.000
    C65      C        0.85960    0.01250    0.22430    1.000
    H52      H        0.85620    0.97770    0.19020    1.000
    C66      C        0.97990    0.07550    0.37500    1.000
    C67      C        0.00400    0.13350    0.39850    1.000
    H53      H        0.98160    0.17120    0.38270    1.000
    C68      C        0.06010    0.13810    0.44440    1.000
    H54      H        0.07560    0.17930    0.45840    1.000
    C69      C        0.06990    0.03130    0.44960    1.000
    H55      H        0.09260    0.99450    0.46790    1.000
    C70      C        0.01290    0.02260    0.40220    1.000
    H56      H        0.99780    0.98100    0.38940    1.000
    C71      C        0.35640    0.03890    0.24020    1.000
    H57      H        0.32140    0.02300    0.20830    1.000
    C72      C        0.41610    0.03760    0.21520    1.000
    H58      H        0.42100    0.02310    0.16600    1.000
    C73      C        0.46800    0.05750    0.26240    1.000
    C74      C        0.45810    0.07910    0.33300    1.000
    H59      H        0.49260    0.09210    0.36780    1.000
    C75      C        0.39700    0.08160    0.35210    1.000
    H60      H        0.39050    0.09830    0.39990    1.000
    N11      N        0.18140    0.14720    0.62030    1.000
    N12      N        0.24470    0.33830    0.94370    1.000
    N13      N        0.81100    0.05400    0.22170    1.000
    N14      N        0.09320    0.08780    0.47000    1.000
    N15      N        0.34690    0.06180    0.30730    1.000
    W4       W        0.78492    0.51981    0.50326    1.000
    Cu10     Cu       0.68131    0.58978    0.52638    1.000
    Cu11     Cu       0.76319    0.54740    0.35652    1.000
    Cu12     Cu       0.71455    0.41166    0.48351    1.000
    S10      S        0.75987    0.61735    0.45430    1.000
    S11      S        0.78647    0.44878    0.40893    1.000
    S12      S        0.70916    0.48982    0.57361    1.000
    Br4      Br       0.61697    0.36398    0.42393    1.000
    C76      C        0.67010    0.71020    0.61850    1.000
    H61      H        0.65590    0.72950    0.57180    1.000
    C77      C        0.67840    0.74760    0.68150    1.000
    H62      H        0.67060    0.79210    0.67770    1.000
    C78      C        0.69810    0.72090    0.75040    1.000
    C79      C        0.70850    0.65670    0.75240    1.000
    H63      H        0.72130    0.63630    0.79890    1.000
    C80      C        0.70020    0.62140    0.68680    1.000
    H64      H        0.70830    0.57680    0.68940    1.000
    C81      C        0.71140    0.75960    0.81920    1.000
    C82      C        0.67480    0.81140    0.83480    1.000
    H65      H        0.63730    0.82140    0.80320    1.000
    C83      C        0.69380    0.84850    0.89720    1.000
    H66      H        0.66810    0.88380    0.90690    1.000
    C84      C        0.77870    0.78670    0.92930    1.000
    H67      H        0.81540    0.77740    0.96260    1.000
    C85      C        0.76410    0.74680    0.87010    1.000
    H68      H        0.78960    0.71050    0.86350    1.000
    C86      C        0.31980    0.60330    0.27090    1.000
    H69      H        0.28690    0.63370    0.27130    1.000
    C87      C        0.37320    0.61180    0.32030    1.000
    H70      H        0.37670    0.64740    0.35310    1.000
    C88      C        0.42200    0.56790    0.32180    1.000
    C89      C        0.41330    0.51760    0.27280    1.000
    H71      H        0.44510    0.48590    0.27270    1.000
    C90      C        0.35960    0.51250    0.22430    1.000
    H72      H        0.35620    0.47770    0.19020    1.000
    C91      C        0.47990    0.57550    0.37500    1.000
    C92      C        0.50400    0.63350    0.39850    1.000
    H73      H        0.48160    0.67120    0.38270    1.000
    C93      C        0.56010    0.63810    0.44440    1.000
    H74      H        0.57560    0.67930    0.45840    1.000
    C94      C        0.56990    0.53130    0.44960    1.000
    H75      H        0.59260    0.49450    0.46790    1.000
    C95      C        0.51290    0.52260    0.40220    1.000
    H76      H        0.49780    0.48100    0.38940    1.000
    C96      C        0.85640    0.53890    0.24020    1.000
    H77      H        0.82140    0.52300    0.20830    1.000
    C97      C        0.91610    0.53760    0.21520    1.000
    H78      H        0.92100    0.52310    0.16600    1.000
    C98      C        0.96800    0.55750    0.26240    1.000
    C99      C        0.95810    0.57910    0.33300    1.000
    H79      H        0.99260    0.59210    0.36780    1.000
    C100     C        0.89700    0.58160    0.35210    1.000
    H80      H        0.89050    0.59830    0.39990    1.000
    N16      N        0.68140    0.64720    0.62030    1.000
    N17      N        0.74470    0.83830    0.94370    1.000
    N18      N        0.31100    0.55400    0.22170    1.000
    N19      N        0.59320    0.58780    0.47000    1.000
    N20      N        0.84690    0.56180    0.30730    1.000
    W5       W        0.28492    0.98019    0.00326    1.000
    Cu13     Cu       0.18131    0.91022    0.02638    1.000
    Cu14     Cu       0.26319    0.95260    0.85652    1.000
    Cu15     Cu       0.21455    0.08834    0.98351    1.000
    S13      S        0.25987    0.88265    0.95430    1.000
    S14      S        0.28647    0.05122    0.90893    1.000
    S15      S        0.20916    0.01018    0.07361    1.000
    Br5      Br       0.11697    0.13602    0.92393    1.000
    C101     C        0.17010    0.78980    0.11850    1.000
    H81      H        0.15590    0.77050    0.07180    1.000
    C102     C        0.17840    0.75240    0.18150    1.000
    H82      H        0.17060    0.70790    0.17770    1.000
    C103     C        0.19810    0.77910    0.25040    1.000
    C104     C        0.20850    0.84330    0.25240    1.000
    H83      H        0.22130    0.86370    0.29890    1.000
    C105     C        0.20020    0.87860    0.18680    1.000
    H84      H        0.20830    0.92320    0.18940    1.000
    C106     C        0.21140    0.74040    0.31920    1.000
    C107     C        0.17480    0.68860    0.33480    1.000
    H85      H        0.13730    0.67860    0.30320    1.000
    C108     C        0.19380    0.65150    0.39720    1.000
    H86      H        0.16810    0.61620    0.40690    1.000
    C109     C        0.27870    0.71330    0.42930    1.000
    H87      H        0.31540    0.72260    0.46260    1.000
    C110     C        0.26410    0.75320    0.37010    1.000
    H88      H        0.28960    0.78950    0.36350    1.000
    C111     C        0.81980    0.89670    0.77090    1.000
    H89      H        0.78690    0.86630    0.77130    1.000
    C112     C        0.87320    0.88820    0.82030    1.000
    H90      H        0.87670    0.85260    0.85310    1.000
    C113     C        0.92200    0.93210    0.82180    1.000
    C114     C        0.91330    0.98240    0.77280    1.000
    H91      H        0.94510    0.01410    0.77270    1.000
    C115     C        0.85960    0.98750    0.72430    1.000
    H92      H        0.85620    0.02230    0.69020    1.000
    C116     C        0.97990    0.92450    0.87500    1.000
    C117     C        0.00400    0.86650    0.89850    1.000
    H93      H        0.98160    0.82880    0.88270    1.000
    C118     C        0.06010    0.86190    0.94440    1.000
    H94      H        0.07560    0.82070    0.95840    1.000
    C119     C        0.06990    0.96870    0.94960    1.000
    H95      H        0.09260    0.00550    0.96790    1.000
    C120     C        0.01290    0.97740    0.90220    1.000
    H96      H        0.99780    0.01900    0.88940    1.000
    C121     C        0.35640    0.96110    0.74020    1.000
    H97      H        0.32140    0.97700    0.70830    1.000
    C122     C        0.41610    0.96240    0.71520    1.000
    H98      H        0.42100    0.97690    0.66600    1.000
    C123     C        0.46800    0.94250    0.76240    1.000
    C124     C        0.45810    0.92090    0.83300    1.000
    H99      H        0.49260    0.90790    0.86780    1.000
    C125     C        0.39700    0.91840    0.85210    1.000
    H100     H        0.39050    0.90170    0.89990    1.000
    N21      N        0.18140    0.85280    0.12030    1.000
    N22      N        0.24470    0.66170    0.44370    1.000
    N23      N        0.81100    0.94600    0.72170    1.000
    N24      N        0.09320    0.91220    0.97000    1.000
    N25      N        0.34690    0.93820    0.80730    1.000
    W6       W        0.78492    0.48019    0.00326    1.000
    Cu16     Cu       0.68131    0.41022    0.02638    1.000
    Cu17     Cu       0.76319    0.45260    0.85652    1.000
    Cu18     Cu       0.71455    0.58834    0.98351    1.000
    S16      S        0.75987    0.38265    0.95430    1.000
    S17      S        0.78647    0.55122    0.90893    1.000
    S18      S        0.70916    0.51018    0.07361    1.000
    Br6      Br       0.61697    0.63602    0.92393    1.000
    C126     C        0.67010    0.28980    0.11850    1.000
    H101     H        0.65590    0.27050    0.07180    1.000
    C127     C        0.67840    0.25240    0.18150    1.000
    H102     H        0.67060    0.20790    0.17770    1.000
    C128     C        0.69810    0.27910    0.25040    1.000
    C129     C        0.70850    0.34330    0.25240    1.000
    H103     H        0.72130    0.36370    0.29890    1.000
    C130     C        0.70020    0.37860    0.18680    1.000
    H104     H        0.70830    0.42320    0.18940    1.000
    C131     C        0.71140    0.24040    0.31920    1.000
    C132     C        0.67480    0.18860    0.33480    1.000
    H105     H        0.63730    0.17860    0.30320    1.000
    C133     C        0.69380    0.15150    0.39720    1.000
    H106     H        0.66810    0.11620    0.40690    1.000
    C134     C        0.77870    0.21330    0.42930    1.000
    H107     H        0.81540    0.22260    0.46260    1.000
    C135     C        0.76410    0.25320    0.37010    1.000
    H108     H        0.78960    0.28950    0.36350    1.000
    C136     C        0.31980    0.39670    0.77090    1.000
    H109     H        0.28690    0.36630    0.77130    1.000
    C137     C        0.37320    0.38820    0.82030    1.000
    H110     H        0.37670    0.35260    0.85310    1.000
    C138     C        0.42200    0.43210    0.82180    1.000
    C139     C        0.41330    0.48240    0.77280    1.000
    H111     H        0.44510    0.51410    0.77270    1.000
    C140     C        0.35960    0.48750    0.72430    1.000
    H112     H        0.35620    0.52230    0.69020    1.000
    C141     C        0.47990    0.42450    0.87500    1.000
    C142     C        0.50400    0.36650    0.89850    1.000
    H113     H        0.48160    0.32880    0.88270    1.000
    C143     C        0.56010    0.36190    0.94440    1.000
    H114     H        0.57560    0.32070    0.95840    1.000
    C144     C        0.56990    0.46870    0.94960    1.000
    H115     H        0.59260    0.50550    0.96790    1.000
    C145     C        0.51290    0.47740    0.90220    1.000
    H116     H        0.49780    0.51900    0.88940    1.000
    C146     C        0.85640    0.46110    0.74020    1.000
    H117     H        0.82140    0.47700    0.70830    1.000
    C147     C        0.91610    0.46240    0.71520    1.000
    H118     H        0.92100    0.47690    0.66600    1.000
    C148     C        0.96800    0.44250    0.76240    1.000
    C149     C        0.95810    0.42090    0.83300    1.000
    H119     H        0.99260    0.40790    0.86780    1.000
    C150     C        0.89700    0.41840    0.85210    1.000
    H120     H        0.89050    0.40170    0.89990    1.000
    N26      N        0.68140    0.35280    0.12030    1.000
    N27      N        0.74470    0.16170    0.44370    1.000
    N28      N        0.31100    0.44600    0.72170    1.000
    N29      N        0.59320    0.41220    0.97000    1.000
    N30      N        0.84690    0.43820    0.80730    1.000
    W7       W        0.71508    0.98019    0.49674    1.000
    Cu19     Cu       0.81869    0.91022    0.47362    1.000
    Cu20     Cu       0.73681    0.95260    0.64348    1.000
    Cu21     Cu       0.78545    0.08834    0.51649    1.000
    S19      S        0.74013    0.88265    0.54570    1.000
    S20      S        0.71353    0.05122    0.59107    1.000
    S21      S        0.79084    0.01018    0.42639    1.000
    Br7      Br       0.88303    0.13602    0.57607    1.000
    C151     C        0.82990    0.78980    0.38150    1.000
    H121     H        0.84410    0.77050    0.42820    1.000
    C152     C        0.82160    0.75240    0.31850    1.000
    H122     H        0.82940    0.70790    0.32230    1.000
    C153     C        0.80190    0.77910    0.24960    1.000
    C154     C        0.79150    0.84330    0.24760    1.000
    H123     H        0.77870    0.86370    0.20110    1.000
    C155     C        0.79980    0.87860    0.31320    1.000
    H124     H        0.79170    0.92320    0.31060    1.000
    C156     C        0.78860    0.74040    0.18080    1.000
    C157     C        0.82520    0.68860    0.16520    1.000
    H125     H        0.86270    0.67860    0.19680    1.000
    C158     C        0.80620    0.65150    0.10280    1.000
    H126     H        0.83190    0.61620    0.09310    1.000
    C159     C        0.72130    0.71330    0.07070    1.000
    H127     H        0.68460    0.72260    0.03740    1.000
    C160     C        0.73590    0.75320    0.12990    1.000
    H128     H        0.71040    0.78950    0.13650    1.000
    C161     C        0.18020    0.89670    0.72910    1.000
    H129     H        0.21310    0.86630    0.72870    1.000
    C162     C        0.12680    0.88820    0.67970    1.000
    H130     H        0.12330    0.85260    0.64690    1.000
    C163     C        0.07800    0.93210    0.67820    1.000
    C164     C        0.08670    0.98240    0.72720    1.000
    H131     H        0.05490    0.01410    0.72730    1.000
    C165     C        0.14040    0.98750    0.77570    1.000
    H132     H        0.14380    0.02230    0.80980    1.000
    C166     C        0.02010    0.92450    0.62500    1.000
    C167     C        0.99600    0.86650    0.60150    1.000
    H133     H        0.01840    0.82880    0.61730    1.000
    C168     C        0.93990    0.86190    0.55560    1.000
    H134     H        0.92440    0.82070    0.54160    1.000
    C169     C        0.93010    0.96870    0.55040    1.000
    H135     H        0.90740    0.00550    0.53210    1.000
    C170     C        0.98710    0.97740    0.59780    1.000
    H136     H        0.00220    0.01900    0.61060    1.000
    C171     C        0.64360    0.96110    0.75980    1.000
    H137     H        0.67860    0.97700    0.79170    1.000
    C172     C        0.58390    0.96240    0.78480    1.000
    H138     H        0.57900    0.97690    0.83400    1.000
    C173     C        0.53200    0.94250    0.73760    1.000
    C174     C        0.54190    0.92090    0.66700    1.000
    H139     H        0.50740    0.90790    0.63220    1.000
    C175     C        0.60300    0.91840    0.64790    1.000
    H140     H        0.60950    0.90170    0.60010    1.000
    N31      N        0.81860    0.85280    0.37970    1.000
    N32      N        0.75530    0.66170    0.05630    1.000
    N33      N        0.18900    0.94600    0.77830    1.000
    N34      N        0.90680    0.91220    0.53000    1.000
    N35      N        0.65310    0.93820    0.69270    1.000
    W8       W        0.21508    0.48019    0.49674    1.000
    Cu22     Cu       0.31869    0.41022    0.47362    1.000
    Cu23     Cu       0.23681    0.45260    0.64348    1.000
    Cu24     Cu       0.28545    0.58834    0.51649    1.000
    S22      S        0.24013    0.38265    0.54570    1.000
    S23      S        0.21353    0.55122    0.59107    1.000
    S24      S        0.29084    0.51018    0.42639    1.000
    Br8      Br       0.38303    0.63602    0.57607    1.000
    C176     C        0.32990    0.28980    0.38150    1.000
    H141     H        0.34410    0.27050    0.42820    1.000
    C177     C        0.32160    0.25240    0.31850    1.000
    H142     H        0.32940    0.20790    0.32230    1.000
    C178     C        0.30190    0.27910    0.24960    1.000
    C179     C        0.29150    0.34330    0.24760    1.000
    H143     H        0.27870    0.36370    0.20110    1.000
    C180     C        0.29980    0.37860    0.31320    1.000
    H144     H        0.29170    0.42320    0.31060    1.000
    C181     C        0.28860    0.24040    0.18080    1.000
    C182     C        0.32520    0.18860    0.16520    1.000
    H145     H        0.36270    0.17860    0.19680    1.000
    C183     C        0.30620    0.15150    0.10280    1.000
    H146     H        0.33190    0.11620    0.09310    1.000
    C184     C        0.22130    0.21330    0.07070    1.000
    H147     H        0.18460    0.22260    0.03740    1.000
    C185     C        0.23590    0.25320    0.12990    1.000
    H148     H        0.21040    0.28950    0.13650    1.000
    C186     C        0.68020    0.39670    0.72910    1.000
    H149     H        0.71310    0.36630    0.72870    1.000
    C187     C        0.62680    0.38820    0.67970    1.000
    H150     H        0.62330    0.35260    0.64690    1.000
    C188     C        0.57800    0.43210    0.67820    1.000
    C189     C        0.58670    0.48240    0.72720    1.000
    H151     H        0.55490    0.51410    0.72730    1.000
    C190     C        0.64040    0.48750    0.77570    1.000
    H152     H        0.64380    0.52230    0.80980    1.000
    C191     C        0.52010    0.42450    0.62500    1.000
    C192     C        0.49600    0.36650    0.60150    1.000
    H153     H        0.51840    0.32880    0.61730    1.000
    C193     C        0.43990    0.36190    0.55560    1.000
    H154     H        0.42440    0.32070    0.54160    1.000
    C194     C        0.43010    0.46870    0.55040    1.000
    H155     H        0.40740    0.50550    0.53210    1.000
    C195     C        0.48710    0.47740    0.59780    1.000
    H156     H        0.50220    0.51900    0.61060    1.000
    C196     C        0.14360    0.46110    0.75980    1.000
    H157     H        0.17860    0.47700    0.79170    1.000
    C197     C        0.08390    0.46240    0.78480    1.000
    H158     H        0.07900    0.47690    0.83400    1.000
    C198     C        0.03200    0.44250    0.73760    1.000
    C199     C        0.04190    0.42090    0.66700    1.000
    H159     H        0.00740    0.40790    0.63220    1.000
    C200     C        0.10300    0.41840    0.64790    1.000
    H160     H        0.10950    0.40170    0.60010    1.000
    N36      N        0.31860    0.35280    0.37970    1.000
    N37      N        0.25530    0.16170    0.05630    1.000
    N38      N        0.68900    0.44600    0.77830    1.000
    N39      N        0.40680    0.41220    0.53000    1.000
    N40      N        0.15310    0.43820    0.69270    1.000
