# CIF file generated by openbabel 3.1.0, see https://openbabel.org
data_I
_chemical_name_common 'LULHUW_clean'
_cell_length_a 6.929
_cell_length_b 8.185
_cell_length_c 10.4415
_cell_angle_alpha 108.751
_cell_angle_beta 109.378
_cell_angle_gamma 90
_space_group_name_H-M_alt 'P 1'
_space_group_name_Hall 'P 1'
loop_
    _symmetry_equiv_pos_as_xyz
    x,y,z
loop_
    _atom_site_label
    _atom_site_type_symbol
    _atom_site_fract_x
    _atom_site_fract_y
    _atom_site_fract_z
    _atom_site_occupancy
    Ni1      Ni       0.00000    0.00000    0.50000    1.000
    Ni2      Ni       0.50000    0.50000    0.50000    1.000
    H1       H        0.06330    0.01180    0.80480    1.000
    H2       H        0.82060    0.85170    0.92620    1.000
    H3       H        0.25850    0.48820    0.19520    1.000
    H4       H        0.89440    0.64830    0.07380    1.000
    H5       H        0.93670    0.98820    0.19520    1.000
    H6       H        0.17940    0.14830    0.07380    1.000
    H7       H        0.74150    0.51180    0.80480    1.000
    H8       H        0.10560    0.35170    0.92620    1.000
    C1       C        0.81630    0.81970    0.66360    1.000
    C2       C        0.95420    0.94000    0.80660    1.000
    C3       C        0.93290    0.94170    0.92920    1.000
    C4       C        0.15270    0.68030    0.33640    1.000
    C5       C        0.14760    0.56000    0.19340    1.000
    C6       C        0.00370    0.55830    0.07080    1.000
    C7       C        0.18370    0.18030    0.33640    1.000
    C8       C        0.04580    0.06000    0.19340    1.000
    C9       C        0.06710    0.05830    0.07080    1.000
    C10      C        0.84730    0.31970    0.66360    1.000
    C11      C        0.85240    0.44000    0.80660    1.000
    C12      C        0.99630    0.44170    0.92920    1.000
    O1       O        0.83887    0.82870    0.55034    1.000
    O2       O        0.68250    0.71310    0.66060    1.000
    O3       O        0.28853    0.67130    0.44966    1.000
    O4       O        0.02190    0.78690    0.33940    1.000
    O5       O        0.16113    0.17130    0.44966    1.000
    O6       O        0.31750    0.28690    0.33940    1.000
    O7       O        0.71147    0.32870    0.55034    1.000
    O8       O        0.97810    0.21310    0.66060    1.000
