data_functionalizedCrystal
_audit_creation_method	'EQeq! by Chris Wilmer'
_symmetry_space_group_name_H-M	'P1'
_symmetry_Int_Tables_number	1
_symmetry_cell_setting	triclinic
loop_
_symmetry_equiv_pos_as_xyz
  x,y,z
_cell_length_a	12.8842
_cell_length_b	14.5956
_cell_length_c	14.5956
_cell_angle_alpha	90
_cell_angle_beta	90
_cell_angle_gamma	90
loop_
_atom_site_label
_atom_site_type_symbol
_atom_site_fract_x
_atom_site_fract_y
_atom_site_fract_z
_atom_site_charge
Mof_Zn	Zn	-0	0.5	-0	1.166
Mof_Zn	Zn	0.5	0	0.5	1.172
Mof_H 	H 	0.9784	0.1917	0.1886	-0.001
Mof_H 	H 	0.862	0.0985	0.2703	0.081
Mof_H 	H 	0.6231	0.2437	0.1688	0.102
Mof_H 	H 	0.7365	0.338	0.0904	-0.026
Mof_H 	H 	0.5636	0.0578	0.1788	-0.033
Mof_H 	H 	0.7873	0.0957	0.443	0.233
Mof_H 	H 	0.7478	0.1951	0.4168	0.264
Mof_H 	H 	0.6919	0.1394	0.4958	0.247
Mof_H 	H 	0.9784	0.8083	0.8114	0.03
Mof_H 	H 	0.862	0.9015	0.7297	0.133
Mof_H 	H 	0.6231	0.7563	0.8312	0.131
Mof_H 	H 	0.7365	0.662	0.9096	0.023
Mof_H 	H 	0.5636	0.9422	0.8212	0.04
Mof_H 	H 	0.7873	0.9043	0.557	0.302
Mof_H 	H 	0.7478	0.8049	0.5832	0.288
Mof_H 	H 	0.6919	0.8606	0.5042	0.289
Mof_H 	H 	0.4784	0.6917	0.3114	0.014
Mof_H 	H 	0.362	0.5985	0.2297	0.102
Mof_H 	H 	0.1231	0.7437	0.3312	0.11
Mof_H 	H 	0.2365	0.838	0.4096	0.018
Mof_H 	H 	0.0636	0.5578	0.3212	0.001
Mof_H 	H 	0.2873	0.5957	0.057	0.215
Mof_H 	H 	0.2478	0.6951	0.0832	0.235
Mof_H 	H 	0.1919	0.6394	0.0042	0.195
Mof_H 	H 	0.4784	0.3083	0.6886	0.007
Mof_H 	H 	0.362	0.4015	0.7703	0.106
Mof_H 	H 	0.1231	0.2563	0.6688	0.115
Mof_H 	H 	0.2365	0.162	0.5904	-0.015
Mof_H 	H 	0.0636	0.4422	0.6788	0.001
Mof_H 	H 	0.2873	0.4043	0.943	0.311
Mof_H 	H 	0.2478	0.3049	0.9168	0.305
Mof_H 	H 	0.1919	0.3606	0.9958	0.332
Mof_C 	C 	0.9445	0.3353	0.0802	0.385
Mof_C 	C 	0.8699	0.2734	0.1289	-0.186
Mof_C 	C 	0.9066	0.2023	0.1842	0.095
Mof_C 	C 	0.8376	0.1465	0.2333	-0.209
Mof_C 	C 	0.7323	0.1642	0.2256	0.168
Mof_C 	C 	0.695	0.2337	0.1728	-0.222
Mof_C 	C 	0.7625	0.2891	0.1254	0.112
Mof_C 	C 	0.5788	0.0607	0.2417	0.082
Mof_C 	C 	0.6553	0.0947	0.3695	0.294
Mof_C 	C 	0.7266	0.1346	0.437	-0.779
Mof_C 	C 	0.9445	0.6647	0.9198	0.364
Mof_C 	C 	0.8699	0.7266	0.8711	-0.136
Mof_C 	C 	0.9066	0.7977	0.8158	0.107
Mof_C 	C 	0.8376	0.8535	0.7667	-0.196
Mof_C 	C 	0.7323	0.8358	0.7744	0.201
Mof_C 	C 	0.695	0.7663	0.8272	-0.203
Mof_C 	C 	0.7625	0.7109	0.8746	0.119
Mof_C 	C 	0.5788	0.9393	0.7583	0.113
Mof_C 	C 	0.6553	0.9053	0.6305	0.356
Mof_C 	C 	0.7266	0.8654	0.563	-0.862
Mof_C 	C 	0.4445	0.8353	0.4198	0.345
Mof_C 	C 	0.3699	0.7734	0.3711	-0.139
Mof_C 	C 	0.4066	0.7023	0.3158	0.086
Mof_C 	C 	0.3376	0.6465	0.2667	-0.191
Mof_C 	C 	0.2323	0.6642	0.2744	0.173
Mof_C 	C 	0.195	0.7337	0.3272	-0.196
Mof_C 	C 	0.2625	0.7891	0.3746	0.1
Mof_C 	C 	0.0788	0.5607	0.2583	0.094
Mof_C 	C 	0.1553	0.5947	0.1305	0.282
Mof_C 	C 	0.2266	0.6346	0.063	-0.722
Mof_C 	C 	0.4445	0.1647	0.5802	0.35
Mof_C 	C 	0.3699	0.2266	0.6289	-0.167
Mof_C 	C 	0.4066	0.2977	0.6842	0.098
Mof_C 	C 	0.3376	0.3535	0.7333	-0.208
Mof_C 	C 	0.2323	0.3358	0.7256	0.186
Mof_C 	C 	0.195	0.2663	0.6728	-0.219
Mof_C 	C 	0.2625	0.2109	0.6254	0.115
Mof_C 	C 	0.0788	0.4393	0.7417	0.097
Mof_C 	C 	0.1553	0.4053	0.8695	0.359
Mof_C 	C 	0.2266	0.3654	0.937	-0.902
Mof_N 	N 	0.524	0.0198	0.3048	-0.146
Mof_N 	N 	0.574	0.0417	0.3862	-0.303
Mof_N 	N 	0.6605	0.1083	0.2775	-0.207
Mof_N 	N 	0.524	0.9802	0.6952	-0.086
Mof_N 	N 	0.574	0.9583	0.6138	-0.261
Mof_N 	N 	0.6605	0.8917	0.7225	-0.204
Mof_N 	N 	0.024	0.5198	0.1952	-0.124
Mof_N 	N 	0.074	0.5417	0.1138	-0.296
Mof_N 	N 	0.1605	0.6083	0.2225	-0.197
Mof_N 	N 	0.024	0.4802	0.8048	-0.118
Mof_N 	N 	0.074	0.4583	0.8862	-0.271
Mof_N 	N 	0.1605	0.3917	0.7775	-0.212
Mof_O 	O 	0.9027	0.4043	0.0401	-0.519
Mof_O 	O 	0.0392	0.3181	0.08	-0.401
Mof_O 	O 	0.9027	0.5957	0.9599	-0.414
Mof_O 	O 	0.0392	0.6819	0.92	-0.295
Mof_O 	O 	0.4027	0.9043	0.4599	-0.428
Mof_O 	O 	0.5392	0.8181	0.42	-0.314
Mof_O 	O 	0.4027	0.0957	0.5401	-0.507
Mof_O 	O 	0.5392	0.1819	0.58	-0.339
Mof_Zn	Zn	2.12371e-33	0	0.5	1.167
Mof_Zn	Zn	0.5	0.5	-0	1.173
Mof_H 	H 	0.9784	0.8114	0.1917	0.021
Mof_H 	H 	0.862	0.7297	0.0985	0.079
Mof_H 	H 	0.6231	0.8312	0.2437	0.121
Mof_H 	H 	0.7365	0.9096	0.338	0.027
Mof_H 	H 	0.5636	0.8212	0.0578	0.002
Mof_H 	H 	0.7873	0.557	0.0957	0.233
Mof_H 	H 	0.7478	0.5832	0.1951	0.264
Mof_H 	H 	0.6919	0.5042	0.1394	0.246
Mof_H 	H 	0.9784	0.1886	0.8083	0.009
Mof_H 	H 	0.862	0.2703	0.9015	0.136
Mof_H 	H 	0.6231	0.1688	0.7563	0.113
Mof_H 	H 	0.7365	0.0904	0.662	-0.03
Mof_H 	H 	0.5636	0.1788	0.9422	0.006
Mof_H 	H 	0.7873	0.443	0.9043	0.302
Mof_H 	H 	0.7478	0.4168	0.8049	0.289
Mof_H 	H 	0.6919	0.4958	0.8606	0.289
Mof_H 	H 	0.4784	0.3114	0.3083	0.009
Mof_H 	H 	0.362	0.2297	0.4015	0.105
Mof_H 	H 	0.1231	0.3312	0.2563	0.112
Mof_H 	H 	0.2365	0.4096	0.162	-0.014
Mof_H 	H 	0.0636	0.3212	0.4422	0.002
Mof_H 	H 	0.2873	0.057	0.4043	0.204
Mof_H 	H 	0.2478	0.0832	0.3049	0.213
Mof_H 	H 	0.1919	0.0042	0.3606	0.182
Mof_H 	H 	0.4784	0.6886	0.6917	0.013
Mof_H 	H 	0.362	0.7703	0.5985	0.103
Mof_H 	H 	0.1231	0.6688	0.7437	0.113
Mof_H 	H 	0.2365	0.5904	0.838	0.017
Mof_H 	H 	0.0636	0.6788	0.5578	0.001
Mof_H 	H 	0.2873	0.943	0.5957	0.322
Mof_H 	H 	0.2478	0.9168	0.6951	0.328
Mof_H 	H 	0.1919	0.9958	0.6394	0.346
Mof_C 	C 	0.9445	0.9198	0.3353	0.362
Mof_C 	C 	0.8699	0.8711	0.2734	-0.131
Mof_C 	C 	0.9066	0.8158	0.2023	0.079
Mof_C 	C 	0.8376	0.7667	0.1465	-0.182
Mof_C 	C 	0.7323	0.7744	0.1642	0.166
Mof_C 	C 	0.695	0.8272	0.2337	-0.188
Mof_C 	C 	0.7625	0.8746	0.2891	0.101
Mof_C 	C 	0.5788	0.7583	0.0607	0.083
Mof_C 	C 	0.6553	0.6305	0.0947	0.295
Mof_C 	C 	0.7266	0.563	0.1346	-0.778
Mof_C 	C 	0.9445	0.0802	0.6647	0.387
Mof_C 	C 	0.8699	0.1289	0.7266	-0.19
Mof_C 	C 	0.9066	0.1842	0.7977	0.122
Mof_C 	C 	0.8376	0.2333	0.8535	-0.224
Mof_C 	C 	0.7323	0.2256	0.8358	0.204
Mof_C 	C 	0.695	0.1728	0.7663	-0.238
Mof_C 	C 	0.7625	0.1254	0.7109	0.131
Mof_C 	C 	0.5788	0.2417	0.9393	0.112
Mof_C 	C 	0.6553	0.3695	0.9053	0.356
Mof_C 	C 	0.7266	0.437	0.8654	-0.863
Mof_C 	C 	0.4445	0.4198	0.1647	0.348
Mof_C 	C 	0.3699	0.3711	0.2266	-0.167
Mof_C 	C 	0.4066	0.3158	0.2977	0.092
Mof_C 	C 	0.3376	0.2667	0.3535	-0.204
Mof_C 	C 	0.2323	0.2744	0.3358	0.178
Mof_C 	C 	0.195	0.3272	0.2663	-0.218
Mof_C 	C 	0.2625	0.3746	0.2109	0.109
Mof_C 	C 	0.0788	0.2583	0.4393	0.094
Mof_C 	C 	0.1553	0.1305	0.4053	0.271
Mof_C 	C 	0.2266	0.063	0.3654	-0.693
Mof_C 	C 	0.4445	0.5802	0.8353	0.347
Mof_C 	C 	0.3699	0.6289	0.7734	-0.14
Mof_C 	C 	0.4066	0.6842	0.7023	0.092
Mof_C 	C 	0.3376	0.7333	0.6465	-0.195
Mof_C 	C 	0.2323	0.7256	0.6642	0.182
Mof_C 	C 	0.195	0.6728	0.7337	-0.198
Mof_C 	C 	0.2625	0.6254	0.7891	0.106
Mof_C 	C 	0.0788	0.7417	0.5607	0.097
Mof_C 	C 	0.1553	0.8695	0.5947	0.37
Mof_C 	C 	0.2266	0.937	0.6346	-0.931
Mof_N 	N 	0.524	0.6952	0.0198	-0.139
Mof_N 	N 	0.574	0.6138	0.0417	-0.302
Mof_N 	N 	0.6605	0.7225	0.1083	-0.201
Mof_N 	N 	0.524	0.3048	0.9802	-0.093
Mof_N 	N 	0.574	0.3862	0.9583	-0.261
Mof_N 	N 	0.6605	0.2775	0.8917	-0.209
Mof_N 	N 	0.024	0.1952	0.4802	-0.124
Mof_N 	N 	0.074	0.1138	0.4583	-0.295
Mof_N 	N 	0.1605	0.2225	0.3917	-0.197
Mof_N 	N 	0.024	0.8048	0.5198	-0.118
Mof_N 	N 	0.074	0.8862	0.5417	-0.273
Mof_N 	N 	0.1605	0.7775	0.6083	-0.212
Mof_O 	O 	0.9027	0.9599	0.4043	-0.415
Mof_O 	O 	0.0392	0.92	0.3181	-0.307
Mof_O 	O 	0.9027	0.0401	0.5957	-0.519
Mof_O 	O 	0.0392	0.08	0.6819	-0.389
Mof_O 	O 	0.4027	0.4599	0.0957	-0.507
Mof_O 	O 	0.5392	0.42	0.1819	-0.339
Mof_O 	O 	0.4027	0.5401	0.9043	-0.428
Mof_O 	O 	0.5392	0.58	0.8181	-0.314
_end
