data_functionalizedCrystal
_audit_creation_method	'EQeq! by Chris Wilmer'
_symmetry_space_group_name_H-M	'P1'
_symmetry_Int_Tables_number	1
_symmetry_cell_setting	triclinic
loop_
_symmetry_equiv_pos_as_xyz
  x,y,z
_cell_length_a	29.372
_cell_length_b	15.784
_cell_length_c	19.14
_cell_angle_alpha	90
_cell_angle_beta	107.16
_cell_angle_gamma	90
loop_
_atom_site_label
_atom_site_type_symbol
_atom_site_fract_x
_atom_site_fract_y
_atom_site_fract_z
_atom_site_charge
Mof_Zn	Zn	0.74047	0.82928	0.53567	1.199
Mof_Zn	Zn	0.58477	0.81496	0.79837	1.154
Mof_Zn	Zn	0.51353	0.89549	0.82074	1.175
Mof_O 	O 	0.5553	0.2888	0.3628	2.52
Mof_O 	O 	0.5371	0.168	0.4107	0.488
Mof_O 	O 	0.5812	0.7499	0.7038	-0.466
Mof_O 	O 	0.53906	0.6346	0.7067	-0.541
Mof_O 	O 	0.69117	0.7484	0.5544	-0.494
Mof_O 	O 	0.70541	0.6304	0.5022	-0.487
Mof_O 	O 	0.71104	0.2682	0.88283	-0.492
Mof_O 	O 	0.69525	0.1503	0.93461	-0.484
Mof_O 	O 	0.5637	0.9695	0.8115	-0.248
Mof_O 	O 	0.5365	0.9755	0.6814	-0.515
Mof_C 	C 	0.60086	0.4046	0.5704	0.134
Mof_C 	C 	0.60594	0.3505	0.6306	-0.174
Mof_H 	H 	0.6133	0.3734	0.6774	0.099
Mof_C 	C 	0.60015	0.2635	0.6217	0.096
Mof_C 	C 	0.5867	0.2305	0.5502	-0.11
Mof_H 	H 	0.582	0.1725	0.543	0.092
Mof_C 	C 	0.5803	0.2835	0.4905	0.062
Mof_C 	C 	0.5881	0.3704	0.501	-0.206
Mof_H 	H 	0.5848	0.4056	0.4608	0.158
Mof_C 	C 	0.60834	0.498	0.5827	-0.069
Mof_C 	C 	0.58642	0.5415	0.6263	0.041
Mof_H 	H 	0.5663	0.5126	0.6476	0.049
Mof_C 	C 	0.59377	0.6281	0.6389	-0.129
Mof_C 	C 	0.62551	0.6694	0.6102	0.078
Mof_H 	H 	0.6314	0.7268	0.6197	0.025
Mof_C 	C 	0.64878	0.6267	0.5674	-0.134
Mof_C 	C 	0.63937	0.5406	0.5527	0.036
Mof_H 	H 	0.654	0.5119	0.5227	0.031
Mof_C 	C 	0.60944	0.2066	0.687	-0.063
Mof_C 	C 	0.64271	0.227	0.7502	0.035
Mof_H 	H 	0.6596	0.2774	0.7529	0.027
Mof_C 	C 	0.65235	0.1746	0.8113	-0.138
Mof_C 	C 	0.6273	0.1002	0.8073	0.086
Mof_H 	H 	0.6338	0.0642	0.8475	0.031
Mof_C 	C 	0.5927	0.0791	0.7439	-0.143
Mof_C 	C 	0.5843	0.1312	0.6835	0.035
Mof_H 	H 	0.5616	0.1159	0.6401	0.035
Mof_C 	C 	0.5543	0.2444	0.4142	-3.087
Mof_C 	C 	0.56857	0.675	0.6847	0.441
Mof_C 	C 	0.68485	0.6727	0.5388	0.433
Mof_C 	C 	0.68899	0.2003	0.882	0.42
Mof_C 	C 	0.5566	0.0076	0.7512	-0.213
Mof_Zn	Zn	0.51025	0.70113	0.76106	0.744
Mof_O 	O 	0.576	0.305	0.3643	-3.049
Mof_O 	O 	0.5855	0.1756	0.4096	-0.85
Mof_O 	O 	0.5605	0.7554	0.6697	-0.094
Mof_O 	O 	0.59	0.9396	0.7805	-0.539
Mof_O 	O 	0.5159	0.0073	0.7033	-0.075
Mof_C 	C 	0.5845	0.2539	0.4185	2.953
Mof_C 	C 	0.5743	0.9884	0.7318	0.696
Mof_Zn	Zn	0.24047	0.32928	0.53567	1.2
Mof_Zn	Zn	0.08477	0.31496	0.79837	1.155
Mof_Zn	Zn	0.01353	0.39549	0.82074	1.182
Mof_O 	O 	0.0553	0.7888	0.3628	2.534
Mof_O 	O 	0.0371	0.668	0.4107	0.498
Mof_O 	O 	0.0812	0.2499	0.7038	-0.471
Mof_O 	O 	0.03906	0.1346	0.7067	-0.528
Mof_O 	O 	0.19117	0.2484	0.5544	-0.491
Mof_O 	O 	0.20541	0.1304	0.5022	-0.486
Mof_O 	O 	0.21104	0.7682	0.88283	-0.492
Mof_O 	O 	0.19525	0.6503	0.93461	-0.484
Mof_O 	O 	0.0637	0.4695	0.8115	-0.255
Mof_O 	O 	0.0365	0.4755	0.6814	-0.496
Mof_C 	C 	0.10086	0.9046	0.5704	0.136
Mof_C 	C 	0.10594	0.8505	0.6306	-0.174
Mof_H 	H 	0.1133	0.8734	0.6774	0.1
Mof_C 	C 	0.10015	0.7635	0.6217	0.098
Mof_C 	C 	0.0867	0.7305	0.5502	-0.11
Mof_H 	H 	0.082	0.6725	0.543	0.095
Mof_C 	C 	0.0803	0.7835	0.4905	0.067
Mof_C 	C 	0.0881	0.8704	0.501	-0.206
Mof_H 	H 	0.0848	0.9056	0.4608	0.161
Mof_C 	C 	0.10834	0.998	0.5827	-0.067
Mof_C 	C 	0.08642	0.0415	0.6263	0.041
Mof_H 	H 	0.0663	0.0126	0.6476	0.053
Mof_C 	C 	0.09377	0.1281	0.6389	-0.124
Mof_C 	C 	0.12551	0.1694	0.6102	0.078
Mof_H 	H 	0.1314	0.2268	0.6197	0.027
Mof_C 	C 	0.14878	0.1267	0.5674	-0.132
Mof_C 	C 	0.13937	0.0406	0.5527	0.037
Mof_H 	H 	0.154	0.0119	0.5227	0.032
Mof_C 	C 	0.10944	0.7066	0.687	-0.06
Mof_C 	C 	0.14271	0.727	0.7502	0.033
Mof_H 	H 	0.1596	0.7774	0.7529	0.028
Mof_C 	C 	0.15235	0.6746	0.8113	-0.135
Mof_C 	C 	0.1273	0.6002	0.8073	0.083
Mof_H 	H 	0.1338	0.5642	0.8475	0.033
Mof_C 	C 	0.0927	0.5791	0.7439	-0.135
Mof_C 	C 	0.0843	0.6312	0.6835	0.032
Mof_H 	H 	0.0616	0.6159	0.6401	0.04
Mof_C 	C 	0.0543	0.7444	0.4142	-3.088
Mof_C 	C 	0.06857	0.175	0.6847	0.439
Mof_C 	C 	0.18485	0.1727	0.5388	0.433
Mof_C 	C 	0.18899	0.7003	0.882	0.42
Mof_C 	C 	0.0566	0.5076	0.7512	-0.167
Mof_Zn	Zn	0.01025	0.20113	0.76106	0.76
Mof_O 	O 	0.076	0.805	0.3643	-3.056
Mof_O 	O 	0.0855	0.6756	0.4096	-0.85
Mof_O 	O 	0.0605	0.2554	0.6697	-0.081
Mof_O 	O 	0.09	0.4396	0.7805	-0.526
Mof_O 	O 	0.0159	0.5073	0.7033	-0.076
Mof_C 	C 	0.0845	0.7539	0.4185	2.952
Mof_C 	C 	0.0743	0.4884	0.7318	0.646
Mof_Zn	Zn	0.25953	0.82928	0.96433	1.199
Mof_Zn	Zn	0.41523	0.81496	0.70163	1.155
Mof_Zn	Zn	0.48647	0.89549	0.67926	1.176
Mof_O 	O 	0.4447	0.2888	0.1372	2.524
Mof_O 	O 	0.4629	0.168	0.0893	0.489
Mof_O 	O 	0.4188	0.7499	0.7962	-0.465
Mof_O 	O 	0.46094	0.6346	0.7933	-0.539
Mof_O 	O 	0.30883	0.7484	0.9456	-0.493
Mof_O 	O 	0.29459	0.6304	0.9978	-0.487
Mof_O 	O 	0.28896	0.2682	0.61717	-0.492
Mof_O 	O 	0.30475	0.1503	0.56539	-0.485
Mof_O 	O 	0.4363	0.9695	0.6885	-0.249
Mof_O 	O 	0.4635	0.9755	0.8186	-0.515
Mof_C 	C 	0.39914	0.4046	0.9296	0.13
Mof_C 	C 	0.39406	0.3505	0.8694	-0.17
Mof_H 	H 	0.3867	0.3734	0.8226	0.097
Mof_C 	C 	0.39985	0.2635	0.8783	0.092
Mof_C 	C 	0.4133	0.2305	0.9498	-0.104
Mof_H 	H 	0.418	0.1725	0.957	0.091
Mof_C 	C 	0.4197	0.2835	0.0095	0.055
Mof_C 	C 	0.4119	0.3704	0.999	-0.198
Mof_H 	H 	0.4152	0.4056	0.0392	0.155
Mof_C 	C 	0.39166	0.498	0.9173	-0.066
Mof_C 	C 	0.41358	0.5415	0.8737	0.04
Mof_H 	H 	0.4337	0.5126	0.8524	0.049
Mof_C 	C 	0.40623	0.6281	0.8611	-0.128
Mof_C 	C 	0.37449	0.6694	0.8898	0.078
Mof_H 	H 	0.3686	0.7268	0.8803	0.025
Mof_C 	C 	0.35122	0.6267	0.9326	-0.134
Mof_C 	C 	0.36063	0.5406	0.9473	0.035
Mof_H 	H 	0.346	0.5119	0.9773	0.032
Mof_C 	C 	0.39056	0.2066	0.813	-0.061
Mof_C 	C 	0.35729	0.227	0.7498	0.034
Mof_H 	H 	0.3404	0.2774	0.7471	0.028
Mof_C 	C 	0.34765	0.1746	0.6887	-0.138
Mof_C 	C 	0.3727	0.1002	0.6927	0.085
Mof_H 	H 	0.3662	0.0642	0.6525	0.031
Mof_C 	C 	0.4073	0.0791	0.7561	-0.142
Mof_C 	C 	0.4157	0.1312	0.8165	0.034
Mof_H 	H 	0.4384	0.1159	0.8599	0.035
Mof_C 	C 	0.4457	0.2444	0.0858	-3.089
Mof_C 	C 	0.43143	0.675	0.8153	0.44
Mof_C 	C 	0.31515	0.6727	0.9612	0.432
Mof_C 	C 	0.31101	0.2003	0.618	0.42
Mof_C 	C 	0.4434	0.0076	0.7488	-0.209
Mof_Zn	Zn	0.48975	0.70113	0.73894	0.744
Mof_O 	O 	0.424	0.305	0.1357	-3.052
Mof_O 	O 	0.4145	0.1756	0.0904	-0.851
Mof_O 	O 	0.4395	0.7554	0.8303	-0.094
Mof_O 	O 	0.41	0.9396	0.7195	-0.538
Mof_O 	O 	0.4841	0.0073	0.7967	-0.075
Mof_C 	C 	0.4155	0.2539	0.0815	2.957
Mof_C 	C 	0.4257	0.9884	0.7682	0.692
Mof_Zn	Zn	0.75953	0.32928	0.96433	1.2
Mof_Zn	Zn	0.91523	0.31496	0.70163	1.153
Mof_Zn	Zn	0.98647	0.39549	0.67926	1.166
Mof_O 	O 	0.9447	0.7888	0.1372	2.521
Mof_O 	O 	0.9629	0.668	0.0893	0.483
Mof_O 	O 	0.9188	0.2499	0.7962	-0.46
Mof_O 	O 	0.96094	0.1346	0.7933	-0.551
Mof_O 	O 	0.80883	0.2484	0.9456	-0.493
Mof_O 	O 	0.79459	0.1304	0.9978	-0.487
Mof_O 	O 	0.78896	0.7682	0.61717	-0.493
Mof_O 	O 	0.80475	0.6503	0.56539	-0.485
Mof_O 	O 	0.9363	0.4695	0.6885	-0.26
Mof_O 	O 	0.9635	0.4755	0.8186	-0.513
Mof_C 	C 	0.89914	0.9046	0.9296	0.135
Mof_C 	C 	0.89406	0.8505	0.8694	-0.177
Mof_H 	H 	0.8867	0.8734	0.8226	0.098
Mof_C 	C 	0.89985	0.7635	0.8783	0.095
Mof_C 	C 	0.9133	0.7305	0.9498	-0.11
Mof_H 	H 	0.918	0.6725	0.957	0.09
Mof_C 	C 	0.9197	0.7835	0.0095	0.059
Mof_C 	C 	0.9119	0.8704	0.999	-0.209
Mof_H 	H 	0.9152	0.9056	0.0392	0.156
Mof_C 	C 	0.89166	0.998	0.9173	-0.079
Mof_C 	C 	0.91358	0.0415	0.8737	0.049
Mof_H 	H 	0.9337	0.0126	0.8524	0.042
Mof_C 	C 	0.90623	0.1281	0.8611	-0.137
Mof_C 	C 	0.87449	0.1694	0.8898	0.083
Mof_H 	H 	0.8686	0.2268	0.8803	0.022
Mof_C 	C 	0.85122	0.1267	0.9326	-0.14
Mof_C 	C 	0.86063	0.0406	0.9473	0.043
Mof_H 	H 	0.846	0.0119	0.9773	0.029
Mof_C 	C 	0.89056	0.7066	0.813	-0.066
Mof_C 	C 	0.85729	0.727	0.7498	0.036
Mof_H 	H 	0.8404	0.7774	0.7471	0.026
Mof_C 	C 	0.84765	0.6746	0.6887	-0.141
Mof_C 	C 	0.8727	0.6002	0.6927	0.087
Mof_H 	H 	0.8662	0.5642	0.6525	0.029
Mof_C 	C 	0.9073	0.5791	0.7561	-0.147
Mof_C 	C 	0.9157	0.6312	0.8165	0.036
Mof_H 	H 	0.9384	0.6159	0.8599	0.03
Mof_C 	C 	0.9457	0.7444	0.0858	-3.104
Mof_C 	C 	0.93143	0.175	0.8153	0.444
Mof_C 	C 	0.81515	0.1727	0.9612	0.434
Mof_C 	C 	0.81101	0.7003	0.618	0.42
Mof_C 	C 	0.9434	0.5076	0.7488	-0.195
Mof_Zn	Zn	0.98975	0.20113	0.73894	0.725
Mof_O 	O 	0.924	0.805	0.1357	-3.056
Mof_O 	O 	0.9145	0.6756	0.0904	-0.853
Mof_O 	O 	0.9395	0.2554	0.8303	-0.109
Mof_O 	O 	0.91	0.4396	0.7195	-0.535
Mof_O 	O 	0.9841	0.5073	0.7967	-0.098
Mof_C 	C 	0.9155	0.7539	0.0815	2.968
Mof_C 	C 	0.9257	0.4884	0.7682	0.678
Mof_Zn	Zn	0.25953	0.17072	0.46433	1.2
Mof_Zn	Zn	0.41523	0.18504	0.20163	1.155
Mof_Zn	Zn	0.48647	0.10451	0.17926	1.176
Mof_O 	O 	0.4447	0.7112	0.6372	2.521
Mof_O 	O 	0.4629	0.832	0.5893	0.489
Mof_O 	O 	0.4188	0.2501	0.2962	-0.465
Mof_O 	O 	0.46094	0.3654	0.2933	-0.54
Mof_O 	O 	0.30883	0.2516	0.4456	-0.493
Mof_O 	O 	0.29459	0.3696	0.4978	-0.487
Mof_O 	O 	0.28896	0.7318	0.11717	-0.492
Mof_O 	O 	0.30475	0.8497	0.06539	-0.484
Mof_O 	O 	0.4363	0.0305	0.1885	-0.248
Mof_O 	O 	0.4635	0.0245	0.3186	-0.516
Mof_C 	C 	0.39914	0.5954	0.4296	0.134
Mof_C 	C 	0.39406	0.6495	0.3694	-0.174
Mof_H 	H 	0.3867	0.6266	0.3226	0.099
Mof_C 	C 	0.39985	0.7365	0.3783	0.096
Mof_C 	C 	0.4133	0.7695	0.4498	-0.11
Mof_H 	H 	0.418	0.8275	0.457	0.092
Mof_C 	C 	0.4197	0.7165	0.5095	0.062
Mof_C 	C 	0.4119	0.6296	0.499	-0.206
Mof_H 	H 	0.4152	0.5944	0.5392	0.158
Mof_C 	C 	0.39166	0.502	0.4173	-0.069
Mof_C 	C 	0.41358	0.4585	0.3737	0.041
Mof_H 	H 	0.4337	0.4874	0.3524	0.049
Mof_C 	C 	0.40623	0.3719	0.3611	-0.129
Mof_C 	C 	0.37449	0.3306	0.3898	0.078
Mof_H 	H 	0.3686	0.2732	0.3803	0.025
Mof_C 	C 	0.35122	0.3733	0.4326	-0.134
Mof_C 	C 	0.36063	0.4594	0.4473	0.036
Mof_H 	H 	0.346	0.4881	0.4773	0.031
Mof_C 	C 	0.39056	0.7934	0.313	-0.063
Mof_C 	C 	0.35729	0.773	0.2498	0.035
Mof_H 	H 	0.3404	0.7226	0.2471	0.027
Mof_C 	C 	0.34765	0.8254	0.1887	-0.139
Mof_C 	C 	0.3727	0.8998	0.1927	0.086
Mof_H 	H 	0.3662	0.9358	0.1525	0.03
Mof_C 	C 	0.4073	0.9209	0.2561	-0.143
Mof_C 	C 	0.4157	0.8688	0.3165	0.035
Mof_H 	H 	0.4384	0.8841	0.3599	0.035
Mof_C 	C 	0.4457	0.7556	0.5858	-3.087
Mof_C 	C 	0.43143	0.325	0.3153	0.441
Mof_C 	C 	0.31515	0.3273	0.4612	0.433
Mof_C 	C 	0.31101	0.7997	0.118	0.42
Mof_C 	C 	0.4434	0.9924	0.2488	-0.214
Mof_Zn	Zn	0.48975	0.29887	0.23894	0.744
Mof_O 	O 	0.424	0.695	0.6357	-3.049
Mof_O 	O 	0.4145	0.8244	0.5904	-0.85
Mof_O 	O 	0.4395	0.2446	0.3303	-0.094
Mof_O 	O 	0.41	0.0604	0.2195	-0.54
Mof_O 	O 	0.4841	0.9927	0.2967	-0.074
Mof_C 	C 	0.4155	0.7461	0.5815	2.953
Mof_C 	C 	0.4257	0.0116	0.2682	0.697
Mof_Zn	Zn	0.75953	0.67072	0.46433	1.199
Mof_Zn	Zn	0.91523	0.68504	0.20163	1.153
Mof_Zn	Zn	0.98647	0.60451	0.17926	1.166
Mof_O 	O 	0.9447	0.2112	0.6372	2.521
Mof_O 	O 	0.9629	0.332	0.5893	0.483
Mof_O 	O 	0.9188	0.7501	0.2962	-0.459
Mof_O 	O 	0.96094	0.8654	0.2933	-0.551
Mof_O 	O 	0.80883	0.7516	0.4456	-0.494
Mof_O 	O 	0.79459	0.8696	0.4978	-0.488
Mof_O 	O 	0.78896	0.2318	0.11717	-0.493
Mof_O 	O 	0.80475	0.3497	0.06539	-0.486
Mof_O 	O 	0.9363	0.5305	0.1885	-0.26
Mof_O 	O 	0.9635	0.5245	0.3186	-0.513
Mof_C 	C 	0.89914	0.0954	0.4296	0.132
Mof_C 	C 	0.89406	0.1495	0.3694	-0.175
Mof_H 	H 	0.8867	0.1266	0.3226	0.097
Mof_C 	C 	0.89985	0.2365	0.3783	0.094
Mof_C 	C 	0.9133	0.2695	0.4498	-0.109
Mof_H 	H 	0.918	0.3275	0.457	0.09
Mof_C 	C 	0.9197	0.2165	0.5095	0.058
Mof_C 	C 	0.9119	0.1296	0.499	-0.207
Mof_H 	H 	0.9152	0.0944	0.5392	0.155
Mof_C 	C 	0.89166	0.002	0.4173	-0.074
Mof_C 	C 	0.91358	0.9585	0.3737	0.044
Mof_H 	H 	0.9337	0.9874	0.3524	0.043
Mof_C 	C 	0.90623	0.8719	0.3611	-0.135
Mof_C 	C 	0.87449	0.8306	0.3898	0.081
Mof_H 	H 	0.8686	0.7732	0.3803	0.023
Mof_C 	C 	0.85122	0.8733	0.4326	-0.138
Mof_C 	C 	0.86063	0.9594	0.4473	0.038
Mof_H 	H 	0.846	0.9881	0.4773	0.03
Mof_C 	C 	0.89056	0.2934	0.313	-0.066
Mof_C 	C 	0.85729	0.273	0.2498	0.035
Mof_H 	H 	0.8404	0.2226	0.2471	0.026
Mof_C 	C 	0.84765	0.3254	0.1887	-0.141
Mof_C 	C 	0.8727	0.3998	0.1927	0.087
Mof_H 	H 	0.8662	0.4358	0.1525	0.029
Mof_C 	C 	0.9073	0.4209	0.2561	-0.147
Mof_C 	C 	0.9157	0.3688	0.3165	0.036
Mof_H 	H 	0.9384	0.3841	0.3599	0.03
Mof_C 	C 	0.9457	0.2556	0.5858	-3.104
Mof_C 	C 	0.93143	0.825	0.3153	0.443
Mof_C 	C 	0.81515	0.8273	0.4612	0.433
Mof_C 	C 	0.81101	0.2997	0.118	0.42
Mof_C 	C 	0.9434	0.4924	0.2488	-0.195
Mof_Zn	Zn	0.98975	0.79887	0.23894	0.725
Mof_O 	O 	0.924	0.195	0.6357	-3.056
Mof_O 	O 	0.9145	0.3244	0.5904	-0.853
Mof_O 	O 	0.9395	0.7446	0.3303	-0.109
Mof_O 	O 	0.91	0.5604	0.2195	-0.535
Mof_O 	O 	0.9841	0.4927	0.2967	-0.098
Mof_C 	C 	0.9155	0.2461	0.5815	2.969
Mof_C 	C 	0.9257	0.5116	0.2682	0.679
Mof_Zn	Zn	0.74047	0.17072	0.03567	1.199
Mof_Zn	Zn	0.58477	0.18504	0.29837	1.155
Mof_Zn	Zn	0.51353	0.10451	0.32074	1.176
Mof_O 	O 	0.5553	0.7112	0.8628	2.522
Mof_O 	O 	0.5371	0.832	0.9107	0.489
Mof_O 	O 	0.5812	0.2501	0.2038	-0.465
Mof_O 	O 	0.53906	0.3654	0.2067	-0.54
Mof_O 	O 	0.69117	0.2516	0.0544	-0.493
Mof_O 	O 	0.70541	0.3696	0.0022	-0.488
Mof_O 	O 	0.71104	0.7318	0.38283	-0.492
Mof_O 	O 	0.69525	0.8497	0.43461	-0.485
Mof_O 	O 	0.5637	0.0305	0.3115	-0.249
Mof_O 	O 	0.5365	0.0245	0.1814	-0.515
Mof_C 	C 	0.60086	0.5954	0.0704	0.133
Mof_C 	C 	0.60594	0.6495	0.1306	-0.174
Mof_H 	H 	0.6133	0.6266	0.1774	0.098
Mof_C 	C 	0.60015	0.7365	0.1217	0.095
Mof_C 	C 	0.5867	0.7695	0.0502	-0.109
Mof_H 	H 	0.582	0.8275	0.043	0.092
Mof_C 	C 	0.5803	0.7165	0.9905	0.061
Mof_C 	C 	0.5881	0.6296	0.001	-0.205
Mof_H 	H 	0.5848	0.5944	0.9608	0.158
Mof_C 	C 	0.60834	0.502	0.0827	-0.069
Mof_C 	C 	0.58642	0.4585	0.1263	0.041
Mof_H 	H 	0.5663	0.4874	0.1476	0.049
Mof_C 	C 	0.59377	0.3719	0.1389	-0.129
Mof_C 	C 	0.62551	0.3306	0.1102	0.078
Mof_H 	H 	0.6314	0.2732	0.1197	0.025
Mof_C 	C 	0.64878	0.3733	0.0674	-0.135
Mof_C 	C 	0.63937	0.4594	0.0527	0.036
Mof_H 	H 	0.654	0.4881	0.0227	0.031
Mof_C 	C 	0.60944	0.7934	0.187	-0.063
Mof_C 	C 	0.64271	0.773	0.2502	0.035
Mof_H 	H 	0.6596	0.7226	0.2529	0.027
Mof_C 	C 	0.65235	0.8254	0.3113	-0.138
Mof_C 	C 	0.6273	0.8998	0.3073	0.086
Mof_H 	H 	0.6338	0.9358	0.3475	0.03
Mof_C 	C 	0.5927	0.9209	0.2439	-0.143
Mof_C 	C 	0.5843	0.8688	0.1835	0.035
Mof_H 	H 	0.5616	0.8841	0.1401	0.035
Mof_C 	C 	0.5543	0.7556	0.9142	-3.088
Mof_C 	C 	0.56857	0.325	0.1847	0.441
Mof_C 	C 	0.68485	0.3273	0.0388	0.433
Mof_C 	C 	0.68899	0.7997	0.382	0.42
Mof_C 	C 	0.5566	0.9924	0.2512	-0.21
Mof_Zn	Zn	0.51025	0.29887	0.26106	0.744
Mof_O 	O 	0.576	0.695	0.8643	-3.05
Mof_O 	O 	0.5855	0.8244	0.9096	-0.85
Mof_O 	O 	0.5605	0.2446	0.1697	-0.094
Mof_O 	O 	0.59	0.0604	0.2805	-0.539
Mof_O 	O 	0.5159	0.9927	0.2033	-0.075
Mof_C 	C 	0.5845	0.7461	0.9185	2.954
Mof_C 	C 	0.5743	0.0116	0.2318	0.693
Mof_Zn	Zn	0.24047	0.67072	0.03567	1.2
Mof_Zn	Zn	0.08477	0.68504	0.29837	1.155
Mof_Zn	Zn	0.01353	0.60451	0.32074	1.182
Mof_O 	O 	0.0553	0.2112	0.8628	2.531
Mof_O 	O 	0.0371	0.332	0.9107	0.497
Mof_O 	O 	0.0812	0.7501	0.2038	-0.471
Mof_O 	O 	0.03906	0.8654	0.2067	-0.529
Mof_O 	O 	0.19117	0.7516	0.0544	-0.492
Mof_O 	O 	0.20541	0.8696	0.0022	-0.486
Mof_O 	O 	0.21104	0.2318	0.38283	-0.492
Mof_O 	O 	0.19525	0.3497	0.43461	-0.484
Mof_O 	O 	0.0637	0.5305	0.3115	-0.255
Mof_O 	O 	0.0365	0.5245	0.1814	-0.497
Mof_C 	C 	0.10086	0.0954	0.0704	0.146
Mof_C 	C 	0.10594	0.1495	0.1306	-0.181
Mof_H 	H 	0.1133	0.1266	0.1774	0.102
Mof_C 	C 	0.10015	0.2365	0.1217	0.104
Mof_C 	C 	0.0867	0.2695	0.0502	-0.12
Mof_H 	H 	0.082	0.3275	0.043	0.097
Mof_C 	C 	0.0803	0.2165	0.9905	0.079
Mof_C 	C 	0.0881	0.1296	0.001	-0.222
Mof_H 	H 	0.0848	0.0944	0.9608	0.169
Mof_C 	C 	0.10834	0.002	0.0827	-0.077
Mof_C 	C 	0.08642	0.9585	0.1263	0.048
Mof_H 	H 	0.0663	0.9874	0.1476	0.051
Mof_C 	C 	0.09377	0.8719	0.1389	-0.128
Mof_C 	C 	0.12551	0.8306	0.1102	0.081
Mof_H 	H 	0.1314	0.7732	0.1197	0.026
Mof_C 	C 	0.14878	0.8733	0.0674	-0.136
Mof_C 	C 	0.13937	0.9594	0.0527	0.044
Mof_H 	H 	0.154	0.9881	0.0227	0.03
Mof_C 	C 	0.10944	0.2934	0.187	-0.063
Mof_C 	C 	0.14271	0.273	0.2502	0.035
Mof_H 	H 	0.1596	0.2226	0.2529	0.027
Mof_C 	C 	0.15235	0.3254	0.3113	-0.136
Mof_C 	C 	0.1273	0.3998	0.3073	0.084
Mof_H 	H 	0.1338	0.4358	0.3475	0.032
Mof_C 	C 	0.0927	0.4209	0.2439	-0.136
Mof_C 	C 	0.0843	0.3688	0.1835	0.034
Mof_H 	H 	0.0616	0.3841	0.1401	0.039
Mof_C 	C 	0.0543	0.2556	0.9142	-3.085
Mof_C 	C 	0.06857	0.825	0.1847	0.44
Mof_C 	C 	0.18485	0.8273	0.0388	0.434
Mof_C 	C 	0.18899	0.2997	0.382	0.42
Mof_C 	C 	0.0566	0.4924	0.2512	-0.167
Mof_Zn	Zn	0.01025	0.79887	0.26106	0.76
Mof_O 	O 	0.076	0.195	0.8643	-3.053
Mof_O 	O 	0.0855	0.3244	0.9096	-0.848
Mof_O 	O 	0.0605	0.7446	0.1697	-0.082
Mof_O 	O 	0.09	0.5604	0.2805	-0.526
Mof_O 	O 	0.0159	0.4927	0.2033	-0.076
Mof_C 	C 	0.0845	0.2461	0.9185	2.946
Mof_C 	C 	0.0743	0.5116	0.2318	0.646
Mof_O 	O 	0.5	0.82	0.75	-1.154
Mof_O 	O 	2.37309e-33	0.32	0.75	-1.134
Mof_O 	O 	0.5	0.18	0.25	-1.154
Mof_O 	O 	-6.70446e-18	0.68	0.25	-1.134
_end
