data_functionalizedCrystal
_audit_creation_method	'EQeq! by Chris Wilmer'
_symmetry_space_group_name_H-M	'P1'
_symmetry_Int_Tables_number	1
_symmetry_cell_setting	triclinic
loop_
_symmetry_equiv_pos_as_xyz
  x,y,z
_cell_length_a	11.21
_cell_length_b	12.383
_cell_length_c	13.696
_cell_angle_alpha	90
_cell_angle_beta	93.01
_cell_angle_gamma	90
loop_
_atom_site_label
_atom_site_type_symbol
_atom_site_fract_x
_atom_site_fract_y
_atom_site_fract_z
_atom_site_charge
Mof_C 	C 	0.0494	0.9516	0.1743	0.46
Mof_C 	C 	0.318	0.8665	0.0625	0.594
Mof_C 	C 	0.4134	0.9208	0.1302	-0.25
Mof_C 	C 	0.4458	0.0383	0.1086	0.464
Mof_Nd	Nd	0.15371	0.10204	0.03351	2.26
Mof_O 	O 	0.1404	0.0078	0.199	-0.53
Mof_O 	O 	0.9997	0.9595	0.0898	-0.697
Mof_O 	O 	0.2354	0.9188	0.0254	-0.596
Mof_O 	O 	0.3384	0.7678	0.0499	-0.643
Mof_O 	O 	0.361	0.1033	0.0891	-0.586
Mof_O 	O 	0.5502	0.0656	0.1215	-0.366
Mof_C 	C 	0.5494	0.4516	0.6743	0.445
Mof_C 	C 	0.818	0.3665	0.5625	0.599
Mof_C 	C 	0.9134	0.4208	0.6302	-0.269
Mof_C 	C 	0.9458	0.5383	0.6086	0.458
Mof_Nd	Nd	0.65371	0.60204	0.53351	2.302
Mof_O 	O 	0.6404	0.5078	0.699	-0.523
Mof_O 	O 	0.4997	0.4595	0.5898	-0.702
Mof_O 	O 	0.7354	0.4188	0.5254	-0.611
Mof_O 	O 	0.8384	0.2678	0.5499	-0.65
Mof_O 	O 	0.861	0.6033	0.5891	-0.588
Mof_O 	O 	0.0502	0.5656	0.6215	-0.35
Mof_C 	C 	0.9506	0.9516	0.3257	0.429
Mof_C 	C 	0.682	0.8665	0.4375	0.598
Mof_C 	C 	0.5866	0.9208	0.3698	-0.26
Mof_C 	C 	0.5542	0.0383	0.3914	0.474
Mof_Nd	Nd	0.84629	0.10204	0.46649	2.29
Mof_O 	O 	0.8596	0.0078	0.301	-0.526
Mof_O 	O 	0.0003	0.9595	0.4102	-0.687
Mof_O 	O 	0.7646	0.9188	0.4746	-0.612
Mof_O 	O 	0.6616	0.7678	0.4501	-0.649
Mof_O 	O 	0.639	0.1033	0.4109	-0.588
Mof_O 	O 	0.4498	0.0656	0.3785	-0.366
Mof_C 	C 	0.4506	0.4516	0.8257	0.445
Mof_C 	C 	0.182	0.3665	0.9375	0.597
Mof_C 	C 	0.0866	0.4208	0.8698	-0.262
Mof_C 	C 	0.0542	0.5383	0.8914	0.504
Mof_Nd	Nd	0.34629	0.60204	0.96649	2.305
Mof_O 	O 	0.3596	0.5078	0.801	-0.523
Mof_O 	O 	0.5003	0.4595	0.9102	-0.7
Mof_O 	O 	0.2646	0.4188	0.9746	-0.607
Mof_O 	O 	0.1616	0.2678	0.9501	-0.633
Mof_O 	O 	0.139	0.6033	0.9109	-0.593
Mof_O 	O 	0.9498	0.5656	0.8785	-0.388
Mof_C 	C 	0.9506	0.0484	0.8257	0.411
Mof_C 	C 	0.682	0.1335	0.9375	0.594
Mof_C 	C 	0.5866	0.0792	0.8698	-0.249
Mof_C 	C 	0.5542	0.9617	0.8914	0.462
Mof_Nd	Nd	0.84629	0.89796	0.96649	2.235
Mof_O 	O 	0.8596	0.9922	0.801	-0.522
Mof_O 	O 	0.0003	0.0405	0.9102	-0.66
Mof_O 	O 	0.7646	0.0812	0.9746	-0.598
Mof_O 	O 	0.6616	0.2322	0.9501	-0.644
Mof_O 	O 	0.639	0.8967	0.9109	-0.583
Mof_O 	O 	0.4498	0.9344	0.8785	-0.365
Mof_C 	C 	0.4506	0.5484	0.3257	0.445
Mof_C 	C 	0.182	0.6335	0.4375	0.601
Mof_C 	C 	0.0866	0.5792	0.3698	-0.265
Mof_C 	C 	0.0542	0.4617	0.3914	0.495
Mof_Nd	Nd	0.34629	0.39796	0.46649	2.309
Mof_O 	O 	0.3596	0.4922	0.301	-0.523
Mof_O 	O 	0.5003	0.5405	0.4102	-0.702
Mof_O 	O 	0.2646	0.5812	0.4746	-0.612
Mof_O 	O 	0.1616	0.7322	0.4501	-0.649
Mof_O 	O 	0.139	0.3967	0.4109	-0.592
Mof_O 	O 	0.9498	0.4344	0.3785	-0.38
Mof_C 	C 	0.0494	0.0484	0.6743	0.47
Mof_C 	C 	0.318	0.1335	0.5625	0.599
Mof_C 	C 	0.4134	0.0792	0.6302	-0.26
Mof_C 	C 	0.4458	0.9617	0.6086	0.474
Mof_Nd	Nd	0.15371	0.89796	0.53351	2.317
Mof_O 	O 	0.1404	0.9922	0.699	-0.532
Mof_O 	O 	0.9997	0.0405	0.5898	-0.722
Mof_O 	O 	0.2354	0.0812	0.5254	-0.61
Mof_O 	O 	0.3384	0.2322	0.5499	-0.648
Mof_O 	O 	0.361	0.8967	0.5891	-0.591
Mof_O 	O 	0.5502	0.9344	0.6215	-0.367
Mof_C 	C 	0.5494	0.5484	0.1743	0.445
Mof_C 	C 	0.818	0.6335	0.0625	0.595
Mof_C 	C 	0.9134	0.5792	0.1302	-0.265
Mof_C 	C 	0.9458	0.4617	0.1086	0.467
Mof_Nd	Nd	0.65371	0.39796	0.03351	2.298
Mof_O 	O 	0.6404	0.4922	0.199	-0.523
Mof_O 	O 	0.4997	0.5405	0.0898	-0.701
Mof_O 	O 	0.7354	0.5812	0.0254	-0.605
Mof_O 	O 	0.8384	0.7322	0.0499	-0.634
Mof_O 	O 	0.861	0.3967	0.0891	-0.589
Mof_O 	O 	0.0502	0.4344	0.1215	-0.358
Mof_C 	C 	1.20536e-33	0.8762	0.25	-0.231
Mof_C 	C 	0.5	0.3762	0.75	-0.242
Mof_C 	C 	7.48505e-18	0.1238	0.75	-0.222
Mof_C 	C 	0.5	0.6238	0.25	-0.242
_end
