data_functionalizedCrystal
_audit_creation_method	'EQeq! by Chris Wilmer'
_symmetry_space_group_name_H-M	'P1'
_symmetry_Int_Tables_number	1
_symmetry_cell_setting	triclinic
loop_
_symmetry_equiv_pos_as_xyz
  x,y,z
_cell_length_a	18.9522
_cell_length_b	15.9644
_cell_length_c	9.0028
_cell_angle_alpha	90
_cell_angle_beta	97.927
_cell_angle_gamma	90
loop_
_atom_site_label
_atom_site_type_symbol
_atom_site_fract_x
_atom_site_fract_y
_atom_site_fract_z
_atom_site_charge
Mof_Ga	Ga	0.23686	0.38119	0.92241	4.104
Mof_Ga	Ga	0.17235	0.13109	0.60289	4.516
Mof_P 	P 	0.14485	0.22424	0.90789	0.931
Mof_P 	P 	0.27649	0.52195	0.16057	1.095
Mof_F 	F 	0.07292	0.1262	0.5898	-1.096
Mof_O 	O 	0.0651	0.2125	0.8823	-0.434
Mof_O 	O 	0.1604	0.3172	0.9508	-1.151
Mof_O 	O 	0.1756	0.1693	0.0435	-1.162
Mof_O 	O 	0.1834	0.2031	0.7752	-1.219
Mof_O 	O 	0.2266	0.4699	0.0466	-1.205
Mof_O 	O 	0.2271	0.5852	0.2263	-1.157
Mof_O 	O 	0.3322	0.5681	0.0833	-1.041
Mof_O 	O 	0.3157	0.4703	0.2866	-1.215
Mof_O 	O 	0.2761	0.1568	0.5958	-0.909
Mof_O 	O 	0.342	0.2632	0.5253	-0.83
Mof_O 	O 	0.0501	0.0317	0.9175	-0.131
Mof_O 	O 	0.032	0.001	0.846	-0.134
Mof_C 	C 	0.2844	0.2264	0.5351	0.331
Mof_Ga	Ga	0.73686	0.88119	0.92241	4.095
Mof_Ga	Ga	0.67235	0.63109	0.60289	4.529
Mof_P 	P 	0.64485	0.72424	0.90789	0.928
Mof_P 	P 	0.77649	0.02195	0.16057	1.089
Mof_F 	F 	0.57292	0.6262	0.5898	-1.087
Mof_O 	O 	0.5651	0.7125	0.8823	-0.42
Mof_O 	O 	0.6604	0.8172	0.9508	-1.141
Mof_O 	O 	0.6756	0.6693	0.0435	-1.159
Mof_O 	O 	0.6834	0.7031	0.7752	-1.221
Mof_O 	O 	0.7266	0.9699	0.0466	-1.189
Mof_O 	O 	0.7271	0.0852	0.2263	-1.153
Mof_O 	O 	0.8322	0.0681	0.0833	-1.04
Mof_O 	O 	0.8157	0.9703	0.2866	-1.207
Mof_O 	O 	0.7761	0.6568	0.5958	-0.904
Mof_O 	O 	0.842	0.7632	0.5253	-0.817
Mof_O 	O 	0.5501	0.5317	0.9175	-0.138
Mof_O 	O 	0.532	0.501	0.846	-0.092
Mof_C 	C 	0.7844	0.7264	0.5351	0.33
Mof_Ga	Ga	0.76314	0.38119	0.57759	4.12
Mof_Ga	Ga	0.82765	0.13109	0.89711	4.542
Mof_P 	P 	0.85515	0.22424	0.59211	0.927
Mof_P 	P 	0.72351	0.52195	0.33943	1.096
Mof_F 	F 	0.92708	0.1262	0.9102	-1.045
Mof_O 	O 	0.9349	0.2125	0.6177	-0.36
Mof_O 	O 	0.8396	0.3172	0.5492	-1.131
Mof_O 	O 	0.8244	0.1693	0.4565	-1.15
Mof_O 	O 	0.8166	0.2031	0.7248	-1.218
Mof_O 	O 	0.7734	0.4699	0.4534	-1.193
Mof_O 	O 	0.7729	0.5852	0.2737	-1.149
Mof_O 	O 	0.6678	0.5681	0.4167	-1.042
Mof_O 	O 	0.6843	0.4703	0.2134	-1.214
Mof_O 	O 	0.7239	0.1568	0.9042	-0.913
Mof_O 	O 	0.658	0.2632	0.9747	-0.83
Mof_O 	O 	0.9499	0.0317	0.5825	-0.119
Mof_O 	O 	0.968	0.001	0.654	-0.031
Mof_C 	C 	0.7156	0.2264	0.9649	0.336
Mof_Ga	Ga	0.26314	0.88119	0.57759	4.105
Mof_Ga	Ga	0.32765	0.63109	0.89711	4.524
Mof_P 	P 	0.35515	0.72424	0.59211	0.929
Mof_P 	P 	0.22351	0.02195	0.33943	1.091
Mof_F 	F 	0.42708	0.6262	0.9102	-1.086
Mof_O 	O 	0.4349	0.7125	0.6177	-0.42
Mof_O 	O 	0.3396	0.8172	0.5492	-1.141
Mof_O 	O 	0.3244	0.6693	0.4565	-1.156
Mof_O 	O 	0.3166	0.7031	0.7248	-1.222
Mof_O 	O 	0.2734	0.9699	0.4534	-1.196
Mof_O 	O 	0.2729	0.0852	0.2737	-1.15
Mof_O 	O 	0.1678	0.0681	0.4167	-1.045
Mof_O 	O 	0.1843	0.9703	0.2134	-1.213
Mof_O 	O 	0.2239	0.6568	0.9042	-0.918
Mof_O 	O 	0.158	0.7632	0.9747	-0.844
Mof_O 	O 	0.4499	0.5317	0.5825	-0.138
Mof_O 	O 	0.468	0.501	0.654	-0.093
Mof_C 	C 	0.2156	0.7264	0.9649	0.332
Mof_Ga	Ga	0.76314	0.61881	0.07759	4.123
Mof_Ga	Ga	0.82765	0.86891	0.39711	4.532
Mof_P 	P 	0.85515	0.77576	0.09211	0.929
Mof_P 	P 	0.72351	0.47805	0.83943	1.096
Mof_F 	F 	0.92708	0.8738	0.4102	-1.043
Mof_O 	O 	0.9349	0.7875	0.1177	-0.359
Mof_O 	O 	0.8396	0.6828	0.0492	-1.131
Mof_O 	O 	0.8244	0.8307	0.9565	-1.151
Mof_O 	O 	0.8166	0.7969	0.2248	-1.216
Mof_O 	O 	0.7734	0.5301	0.9534	-1.194
Mof_O 	O 	0.7729	0.4148	0.7737	-1.148
Mof_O 	O 	0.6678	0.4319	0.9167	-1.041
Mof_O 	O 	0.6843	0.5297	0.7134	-1.215
Mof_O 	O 	0.7239	0.8432	0.4042	-0.912
Mof_O 	O 	0.658	0.7368	0.4747	-0.831
Mof_O 	O 	0.9499	0.9683	0.0825	-0.116
Mof_O 	O 	0.968	0.999	0.154	-0.03
Mof_C 	C 	0.7156	0.7736	0.4649	0.333
Mof_Ga	Ga	0.26314	0.11881	0.07759	4.089
Mof_Ga	Ga	0.32765	0.36891	0.39711	4.526
Mof_P 	P 	0.35515	0.27576	0.09211	0.927
Mof_P 	P 	0.22351	0.97805	0.83943	1.088
Mof_F 	F 	0.42708	0.3738	0.4102	-1.086
Mof_O 	O 	0.4349	0.2875	0.1177	-0.42
Mof_O 	O 	0.3396	0.1828	0.0492	-1.139
Mof_O 	O 	0.3244	0.3307	0.9565	-1.154
Mof_O 	O 	0.3166	0.2969	0.2248	-1.221
Mof_O 	O 	0.2734	0.0301	0.9534	-1.187
Mof_O 	O 	0.2729	0.9148	0.7737	-1.153
Mof_O 	O 	0.1678	0.9319	0.9167	-1.047
Mof_O 	O 	0.1843	0.0297	0.7134	-1.21
Mof_O 	O 	0.2239	0.3432	0.4042	-0.918
Mof_O 	O 	0.158	0.2368	0.4747	-0.843
Mof_O 	O 	0.4499	0.4683	0.0825	-0.138
Mof_O 	O 	0.468	0.499	0.154	-0.093
Mof_C 	C 	0.2156	0.2736	0.4649	0.334
Mof_Ga	Ga	0.23686	0.61881	0.42241	4.099
Mof_Ga	Ga	0.17235	0.86891	0.10289	4.526
Mof_P 	P 	0.14485	0.77576	0.40789	0.928
Mof_P 	P 	0.27649	0.47805	0.66057	1.095
Mof_F 	F 	0.07292	0.8738	0.0898	-1.096
Mof_O 	O 	0.0651	0.7875	0.3823	-0.435
Mof_O 	O 	0.1604	0.6828	0.4508	-1.152
Mof_O 	O 	0.1756	0.8307	0.5435	-1.161
Mof_O 	O 	0.1834	0.7969	0.2752	-1.221
Mof_O 	O 	0.2266	0.5301	0.5466	-1.203
Mof_O 	O 	0.2271	0.4148	0.7263	-1.158
Mof_O 	O 	0.3322	0.4319	0.5833	-1.041
Mof_O 	O 	0.3157	0.5297	0.7866	-1.214
Mof_O 	O 	0.2761	0.8432	0.0958	-0.91
Mof_O 	O 	0.342	0.7368	0.0253	-0.829
Mof_O 	O 	0.0501	0.9683	0.4175	-0.135
Mof_O 	O 	0.032	0.999	0.346	-0.134
Mof_C 	C 	0.2844	0.7736	0.0351	0.333
Mof_Ga	Ga	0.73686	0.11881	0.42241	4.11
Mof_Ga	Ga	0.67235	0.36891	0.10289	4.524
Mof_P 	P 	0.64485	0.27576	0.40789	0.93
Mof_P 	P 	0.77649	0.97805	0.66057	1.092
Mof_F 	F 	0.57292	0.3738	0.0898	-1.087
Mof_O 	O 	0.5651	0.2875	0.3823	-0.42
Mof_O 	O 	0.6604	0.1828	0.4508	-1.142
Mof_O 	O 	0.6756	0.3307	0.5435	-1.16
Mof_O 	O 	0.6834	0.2969	0.2752	-1.221
Mof_O 	O 	0.7266	0.0301	0.5466	-1.197
Mof_O 	O 	0.7271	0.9148	0.7263	-1.15
Mof_O 	O 	0.8322	0.9319	0.5833	-1.037
Mof_O 	O 	0.8157	0.0297	0.7866	-1.209
Mof_O 	O 	0.7761	0.3432	0.0958	-0.903
Mof_O 	O 	0.842	0.2368	0.0253	-0.819
Mof_O 	O 	0.5501	0.4683	0.4175	-0.138
Mof_O 	O 	0.532	0.499	0.346	-0.093
Mof_C 	C 	0.7844	0.2736	0.0351	0.327
Mof_Mn	Mn	1.52002e-33	0.1252	0.75	1.09
Mof_Mn	Mn	0.5	0.6252	0.75	1.231
Mof_Mn	Mn	5.06673e-34	0.8748	0.25	1.087
Mof_Mn	Mn	0.5	0.3748	0.25	1.231
_end
