# CIF file generated by openbabel 3.1.0, see https://openbabel.org
data_I
_chemical_name_common 'image0'
_cell_length_a 19.676
_cell_length_b 19.676
_cell_length_c 19.3
_cell_angle_alpha 90
_cell_angle_beta 90
_cell_angle_gamma 120
_space_group_name_H-M_alt 'P 1'
_space_group_name_Hall 'P 1'
loop_
    _symmetry_equiv_pos_as_xyz
    x,y,z
loop_
    _atom_site_label
    _atom_site_type_symbol
    _atom_site_fract_x
    _atom_site_fract_y
    _atom_site_fract_z
    _atom_site_occupancy
    Cd1      Cd       0.11008    0.12701    0.58647    1.000
    N1       N        0.20281    0.17458    0.67679    1.000
    N2       N        0.31160    0.26615    0.75247    1.000
    O1       O        0.10011    0.01430    0.63600    1.000
    O2       O        0.13961    0.93082    0.65998    1.000
    O3       O        0.40030    0.26078    0.88080    1.000
    O4       O        0.47875    0.22720    0.82871    1.000
    S1       S        0.24743    0.26554    0.70089    1.000
    C1       C        0.14820    0.99740    0.66480    1.000
    C2       C        0.21600    0.05890    0.70618    1.000
    C3       C        0.26010    0.03650    0.74450    1.000
    H1       H        0.24720    0.98420    0.74360    1.000
    C4       C        0.32480    0.09000    0.78580    1.000
    H2       H        0.35390    0.07210    0.80970    1.000
    C5       C        0.34520    0.16690    0.79102    1.000
    C6       C        0.30030    0.19270    0.75348    1.000
    C7       C        0.23661    0.13901    0.71028    1.000
    C8       C        0.41227    0.22252    0.83619    1.000
    Cd2      Cd       0.77675    0.46034    0.91980    1.000
    N3       N        0.86948    0.50791    0.01012    1.000
    N4       N        0.97827    0.59948    0.08580    1.000
    O5       O        0.76678    0.34763    0.96933    1.000
    O6       O        0.80628    0.26415    0.99331    1.000
    O7       O        0.06697    0.59411    0.21413    1.000
    O8       O        0.14542    0.56053    0.16204    1.000
    S2       S        0.91410    0.59887    0.03422    1.000
    C9       C        0.81487    0.33073    0.99813    1.000
    C10      C        0.88267    0.39223    0.03951    1.000
    C11      C        0.92677    0.36983    0.07783    1.000
    H3       H        0.91387    0.31753    0.07693    1.000
    C12      C        0.99147    0.42333    0.11913    1.000
    H4       H        0.02057    0.40543    0.14303    1.000
    C13      C        0.01187    0.50023    0.12435    1.000
    C14      C        0.96697    0.52603    0.08681    1.000
    C15      C        0.90328    0.47234    0.04361    1.000
    C16      C        0.07894    0.55585    0.16952    1.000
    Cd3      Cd       0.44341    0.79368    0.25314    1.000
    N5       N        0.53614    0.84125    0.34346    1.000
    N6       N        0.64493    0.93282    0.41914    1.000
    O9       O        0.43344    0.68097    0.30267    1.000
    O10      O        0.47294    0.59749    0.32665    1.000
    O11      O        0.73363    0.92745    0.54747    1.000
    O12      O        0.81208    0.89387    0.49538    1.000
    S3       S        0.58076    0.93221    0.36756    1.000
    C17      C        0.48153    0.66407    0.33147    1.000
    C18      C        0.54933    0.72557    0.37285    1.000
    C19      C        0.59343    0.70317    0.41117    1.000
    H5       H        0.58053    0.65087    0.41027    1.000
    C20      C        0.65813    0.75667    0.45247    1.000
    H6       H        0.68723    0.73877    0.47637    1.000
    C21      C        0.67853    0.83357    0.45769    1.000
    C22      C        0.63363    0.85937    0.42015    1.000
    C23      C        0.56994    0.80568    0.37695    1.000
    C24      C        0.74560    0.88919    0.50286    1.000
    Cd4      Cd       0.87299    0.98307    0.58647    1.000
    N7       N        0.82542    0.02823    0.67679    1.000
    N8       N        0.73385    0.04545    0.75247    1.000
    O13      O        0.98570    0.08581    0.63600    1.000
    O14      O        0.06918    0.20879    0.65998    1.000
    O15      O        0.73922    0.13952    0.88080    1.000
    O16      O        0.77280    0.25155    0.82871    1.000
    S4       S        0.73446    0.98189    0.70089    1.000
    C25      C        0.00260    0.15080    0.66480    1.000
    C26      C        0.94110    0.15710    0.70618    1.000
    C27      C        0.96350    0.22360    0.74450    1.000
    H7       H        0.01580    0.26300    0.74360    1.000
    C28      C        0.91000    0.23480    0.78580    1.000
    H8       H        0.92790    0.28180    0.80970    1.000
    C29      C        0.83310    0.17830    0.79102    1.000
    C30      C        0.80730    0.10760    0.75348    1.000
    C31      C        0.86099    0.09760    0.71028    1.000
    C32      C        0.77748    0.18975    0.83619    1.000
    Cd5      Cd       0.53966    0.31640    0.91980    1.000
    N9       N        0.49209    0.36156    0.01012    1.000
    N10      N        0.40052    0.37878    0.08580    1.000
    O17      O        0.65237    0.41914    0.96933    1.000
    O18      O        0.73585    0.54212    0.99331    1.000
    O19      O        0.40589    0.47285    0.21413    1.000
    O20      O        0.43947    0.58488    0.16204    1.000
    S5       S        0.40113    0.31522    0.03422    1.000
    C33      C        0.66927    0.48413    0.99813    1.000
    C34      C        0.60777    0.49043    0.03951    1.000
    C35      C        0.63017    0.55693    0.07783    1.000
    H9       H        0.68247    0.59633    0.07693    1.000
    C36      C        0.57667    0.56813    0.11913    1.000
    H10      H        0.59457    0.61513    0.14303    1.000
    C37      C        0.49977    0.51163    0.12435    1.000
    C38      C        0.47397    0.44093    0.08681    1.000
    C39      C        0.52766    0.43093    0.04361    1.000
    C40      C        0.44415    0.52308    0.16952    1.000
    Cd6      Cd       0.20632    0.64974    0.25314    1.000
    N11      N        0.15875    0.69490    0.34346    1.000
    N12      N        0.06718    0.71212    0.41914    1.000
    O21      O        0.31903    0.75248    0.30267    1.000
    O22      O        0.40251    0.87546    0.32665    1.000
    O23      O        0.07255    0.80619    0.54747    1.000
    O24      O        0.10613    0.91822    0.49538    1.000
    S6       S        0.06779    0.64856    0.36756    1.000
    C41      C        0.33593    0.81747    0.33147    1.000
    C42      C        0.27443    0.82377    0.37285    1.000
    C43      C        0.29683    0.89027    0.41117    1.000
    H11      H        0.34913    0.92967    0.41027    1.000
    C44      C        0.24333    0.90147    0.45247    1.000
    H12      H        0.26123    0.94847    0.47637    1.000
    C45      C        0.16643    0.84497    0.45769    1.000
    C46      C        0.14063    0.77427    0.42015    1.000
    C47      C        0.19432    0.76427    0.37695    1.000
    C48      C        0.11081    0.85642    0.50286    1.000
    Cd7      Cd       0.01693    0.88992    0.58647    1.000
    N13      N        0.97177    0.79719    0.67679    1.000
    N14      N        0.95455    0.68840    0.75247    1.000
    O25      O        0.91419    0.89989    0.63600    1.000
    O26      O        0.79121    0.86039    0.65998    1.000
    O27      O        0.86048    0.59970    0.88080    1.000
    O28      O        0.74845    0.52125    0.82871    1.000
    S7       S        0.01811    0.75257    0.70089    1.000
    C49      C        0.84920    0.85180    0.66480    1.000
    C50      C        0.84290    0.78400    0.70618    1.000
    C51      C        0.77640    0.73990    0.74450    1.000
    H13      H        0.73700    0.75280    0.74360    1.000
    C52      C        0.76520    0.67520    0.78580    1.000
    H14      H        0.71820    0.64610    0.80970    1.000
    C53      C        0.82170    0.65480    0.79102    1.000
    C54      C        0.89240    0.69970    0.75348    1.000
    C55      C        0.90240    0.76339    0.71028    1.000
    C56      C        0.81025    0.58773    0.83619    1.000
    Cd8      Cd       0.68360    0.22325    0.91980    1.000
    N15      N        0.63844    0.13052    0.01012    1.000
    N16      N        0.62122    0.02173    0.08580    1.000
    O29      O        0.58086    0.23322    0.96933    1.000
    O30      O        0.45788    0.19372    0.99331    1.000
    O31      O        0.52715    0.93303    0.21413    1.000
    O32      O        0.41512    0.85458    0.16204    1.000
    S8       S        0.68478    0.08590    0.03422    1.000
    C57      C        0.51587    0.18513    0.99813    1.000
    C58      C        0.50957    0.11733    0.03951    1.000
    C59      C        0.44307    0.07323    0.07783    1.000
    H15      H        0.40367    0.08613    0.07693    1.000
    C60      C        0.43187    0.00853    0.11913    1.000
    H16      H        0.38487    0.97943    0.14303    1.000
    C61      C        0.48837    0.98813    0.12435    1.000
    C62      C        0.55907    0.03303    0.08681    1.000
    C63      C        0.56907    0.09672    0.04361    1.000
    C64      C        0.47692    0.92106    0.16952    1.000
    Cd9      Cd       0.35026    0.55659    0.25314    1.000
    N17      N        0.30510    0.46386    0.34346    1.000
    N18      N        0.28788    0.35507    0.41914    1.000
    O33      O        0.24752    0.56656    0.30267    1.000
    O34      O        0.12454    0.52706    0.32665    1.000
    O35      O        0.19381    0.26637    0.54747    1.000
    O36      O        0.08178    0.18792    0.49538    1.000
    S9       S        0.35144    0.41924    0.36756    1.000
    C65      C        0.18253    0.51847    0.33147    1.000
    C66      C        0.17623    0.45067    0.37285    1.000
    C67      C        0.10973    0.40657    0.41117    1.000
    H17      H        0.07033    0.41947    0.41027    1.000
    C68      C        0.09853    0.34187    0.45247    1.000
    H18      H        0.05153    0.31277    0.47637    1.000
    C69      C        0.15503    0.32147    0.45769    1.000
    C70      C        0.22573    0.36637    0.42015    1.000
    C71      C        0.23573    0.43006    0.37695    1.000
    C72      C        0.14358    0.25440    0.50286    1.000
    Cd10     Cd       0.88992    0.87299    0.41353    1.000
    N19      N        0.79719    0.82542    0.32321    1.000
    N20      N        0.68840    0.73385    0.24753    1.000
    O37      O        0.89989    0.98570    0.36400    1.000
    O38      O        0.86039    0.06918    0.34002    1.000
    O39      O        0.59970    0.73922    0.11920    1.000
    O40      O        0.52125    0.77280    0.17129    1.000
    S10      S        0.75257    0.73446    0.29911    1.000
    C73      C        0.85180    0.00260    0.33520    1.000
    C74      C        0.78400    0.94110    0.29382    1.000
    C75      C        0.73990    0.96350    0.25550    1.000
    H19      H        0.75280    0.01580    0.25640    1.000
    C76      C        0.67520    0.91000    0.21420    1.000
    H20      H        0.64610    0.92790    0.19030    1.000
    C77      C        0.65480    0.83310    0.20898    1.000
    C78      C        0.69970    0.80730    0.24652    1.000
    C79      C        0.76339    0.86099    0.28972    1.000
    C80      C        0.58773    0.77748    0.16381    1.000
    Cd11     Cd       0.55659    0.20632    0.74686    1.000
    N21      N        0.46386    0.15875    0.65654    1.000
    N22      N        0.35507    0.06718    0.58086    1.000
    O41      O        0.56656    0.31903    0.69733    1.000
    O42      O        0.52706    0.40251    0.67335    1.000
    O43      O        0.26637    0.07255    0.45253    1.000
    O44      O        0.18792    0.10613    0.50462    1.000
    S11      S        0.41924    0.06779    0.63244    1.000
    C81      C        0.51847    0.33593    0.66853    1.000
    C82      C        0.45067    0.27443    0.62715    1.000
    C83      C        0.40657    0.29683    0.58883    1.000
    H21      H        0.41947    0.34913    0.58973    1.000
    C84      C        0.34187    0.24333    0.54753    1.000
    H22      H        0.31277    0.26123    0.52363    1.000
    C85      C        0.32147    0.16643    0.54231    1.000
    C86      C        0.36637    0.14063    0.57985    1.000
    C87      C        0.43006    0.19432    0.62305    1.000
    C88      C        0.25440    0.11081    0.49714    1.000
    Cd12     Cd       0.22325    0.53966    0.08020    1.000
    N23      N        0.13052    0.49209    0.98988    1.000
    N24      N        0.02173    0.40052    0.91420    1.000
    O45      O        0.23322    0.65237    0.03067    1.000
    O46      O        0.19372    0.73585    0.00669    1.000
    O47      O        0.93303    0.40589    0.78587    1.000
    O48      O        0.85458    0.43947    0.83796    1.000
    S12      S        0.08590    0.40113    0.96578    1.000
    C89      C        0.18513    0.66927    0.00187    1.000
    C90      C        0.11733    0.60777    0.96049    1.000
    C91      C        0.07323    0.63017    0.92217    1.000
    H23      H        0.08613    0.68247    0.92307    1.000
    C92      C        0.00853    0.57667    0.88087    1.000
    H24      H        0.97943    0.59457    0.85697    1.000
    C93      C        0.98813    0.49977    0.87565    1.000
    C94      C        0.03303    0.47397    0.91319    1.000
    C95      C        0.09672    0.52766    0.95639    1.000
    C96      C        0.92106    0.44415    0.83048    1.000
    Cd13     Cd       0.12701    0.01693    0.41353    1.000
    N25      N        0.17458    0.97177    0.32321    1.000
    N26      N        0.26615    0.95455    0.24753    1.000
    O49      O        0.01430    0.91419    0.36400    1.000
    O50      O        0.93082    0.79121    0.34002    1.000
    O51      O        0.26078    0.86048    0.11920    1.000
    O52      O        0.22720    0.74845    0.17129    1.000
    S13      S        0.26554    0.01811    0.29911    1.000
    C97      C        0.99740    0.84920    0.33520    1.000
    C98      C        0.05890    0.84290    0.29382    1.000
    C99      C        0.03650    0.77640    0.25550    1.000
    H25      H        0.98420    0.73700    0.25640    1.000
    C100     C        0.09000    0.76520    0.21420    1.000
    H26      H        0.07210    0.71820    0.19030    1.000
    C101     C        0.16690    0.82170    0.20898    1.000
    C102     C        0.19270    0.89240    0.24652    1.000
    C103     C        0.13901    0.90240    0.28972    1.000
    C104     C        0.22252    0.81025    0.16381    1.000
    Cd14     Cd       0.79368    0.35026    0.74686    1.000
    N27      N        0.84125    0.30510    0.65654    1.000
    N28      N        0.93282    0.28788    0.58086    1.000
    O53      O        0.68097    0.24752    0.69733    1.000
    O54      O        0.59749    0.12454    0.67335    1.000
    O55      O        0.92745    0.19381    0.45253    1.000
    O56      O        0.89387    0.08178    0.50462    1.000
    S14      S        0.93221    0.35144    0.63244    1.000
    C105     C        0.66407    0.18253    0.66853    1.000
    C106     C        0.72557    0.17623    0.62715    1.000
    C107     C        0.70317    0.10973    0.58883    1.000
    H27      H        0.65087    0.07033    0.58973    1.000
    C108     C        0.75667    0.09853    0.54753    1.000
    H28      H        0.73877    0.05153    0.52363    1.000
    C109     C        0.83357    0.15503    0.54231    1.000
    C110     C        0.85937    0.22573    0.57985    1.000
    C111     C        0.80568    0.23573    0.62305    1.000
    C112     C        0.88919    0.14358    0.49714    1.000
    Cd15     Cd       0.46034    0.68360    0.08020    1.000
    N29      N        0.50791    0.63844    0.98988    1.000
    N30      N        0.59948    0.62122    0.91420    1.000
    O57      O        0.34763    0.58086    0.03067    1.000
    O58      O        0.26415    0.45788    0.00669    1.000
    O59      O        0.59411    0.52715    0.78587    1.000
    O60      O        0.56053    0.41512    0.83796    1.000
    S15      S        0.59887    0.68478    0.96578    1.000
    C113     C        0.33073    0.51587    0.00187    1.000
    C114     C        0.39223    0.50957    0.96049    1.000
    C115     C        0.36983    0.44307    0.92217    1.000
    H29      H        0.31753    0.40367    0.92307    1.000
    C116     C        0.42333    0.43187    0.88087    1.000
    H30      H        0.40543    0.38487    0.85697    1.000
    C117     C        0.50023    0.48837    0.87565    1.000
    C118     C        0.52603    0.55907    0.91319    1.000
    C119     C        0.47234    0.56907    0.95639    1.000
    C120     C        0.55585    0.47692    0.83048    1.000
    Cd16     Cd       0.98307    0.11008    0.41353    1.000
    N31      N        0.02823    0.20281    0.32321    1.000
    N32      N        0.04545    0.31160    0.24753    1.000
    O61      O        0.08581    0.10011    0.36400    1.000
    O62      O        0.20879    0.13961    0.34002    1.000
    O63      O        0.13952    0.40030    0.11920    1.000
    O64      O        0.25155    0.47875    0.17129    1.000
    S16      S        0.98189    0.24743    0.29911    1.000
    C121     C        0.15080    0.14820    0.33520    1.000
    C122     C        0.15710    0.21600    0.29382    1.000
    C123     C        0.22360    0.26010    0.25550    1.000
    H31      H        0.26300    0.24720    0.25640    1.000
    C124     C        0.23480    0.32480    0.21420    1.000
    H32      H        0.28180    0.35390    0.19030    1.000
    C125     C        0.17830    0.34520    0.20898    1.000
    C126     C        0.10760    0.30030    0.24652    1.000
    C127     C        0.09760    0.23661    0.28972    1.000
    C128     C        0.18975    0.41227    0.16381    1.000
    Cd17     Cd       0.64974    0.44341    0.74686    1.000
    N33      N        0.69490    0.53614    0.65654    1.000
    N34      N        0.71212    0.64493    0.58086    1.000
    O65      O        0.75248    0.43344    0.69733    1.000
    O66      O        0.87546    0.47294    0.67335    1.000
    O67      O        0.80619    0.73363    0.45253    1.000
    O68      O        0.91822    0.81208    0.50462    1.000
    S17      S        0.64856    0.58076    0.63244    1.000
    C129     C        0.81747    0.48153    0.66853    1.000
    C130     C        0.82377    0.54933    0.62715    1.000
    C131     C        0.89027    0.59343    0.58883    1.000
    H33      H        0.92967    0.58053    0.58973    1.000
    C132     C        0.90147    0.65813    0.54753    1.000
    H34      H        0.94847    0.68723    0.52363    1.000
    C133     C        0.84497    0.67853    0.54231    1.000
    C134     C        0.77427    0.63363    0.57985    1.000
    C135     C        0.76427    0.56994    0.62305    1.000
    C136     C        0.85642    0.74560    0.49714    1.000
    Cd18     Cd       0.31640    0.77675    0.08020    1.000
    N35      N        0.36156    0.86948    0.98988    1.000
    N36      N        0.37878    0.97827    0.91420    1.000
    O69      O        0.41914    0.76678    0.03067    1.000
    O70      O        0.54212    0.80628    0.00669    1.000
    O71      O        0.47285    0.06697    0.78587    1.000
    O72      O        0.58488    0.14542    0.83796    1.000
    S18      S        0.31522    0.91410    0.96578    1.000
    C137     C        0.48413    0.81487    0.00187    1.000
    C138     C        0.49043    0.88267    0.96049    1.000
    C139     C        0.55693    0.92677    0.92217    1.000
    H35      H        0.59633    0.91387    0.92307    1.000
    C140     C        0.56813    0.99147    0.88087    1.000
    H36      H        0.61513    0.02057    0.85697    1.000
    C141     C        0.51163    0.01187    0.87565    1.000
    C142     C        0.44093    0.96697    0.91319    1.000
    C143     C        0.43093    0.90328    0.95639    1.000
    C144     C        0.52308    0.07894    0.83048    1.000
