# CIF file generated by openbabel 3.1.0, see https://openbabel.org
data_I
_chemical_name_common 'HIWLOO_clean_h'
_cell_length_a 10.5429
_cell_length_b 11.6345
_cell_length_c 11.7303
_cell_angle_alpha 110.116
_cell_angle_beta 100.445
_cell_angle_gamma 104.339
_space_group_name_H-M_alt 'P 1'
_space_group_name_Hall 'P 1'
loop_
    _symmetry_equiv_pos_as_xyz
    x,y,z
loop_
    _atom_site_label
    _atom_site_type_symbol
    _atom_site_fract_x
    _atom_site_fract_y
    _atom_site_fract_z
    _atom_site_occupancy
    In1      In       0.04631    0.04462    0.79474    1.000
    In2      In       0.95369    0.95538    0.20526    1.000
    In3      In       0.50000    0.00000    0.00000    1.000
    In4      In       0.50000    0.00000    0.50000    1.000
    P1       P        0.19360    0.99740    0.04980    1.000
    P2       P        0.36760    0.09770    0.76350    1.000
    P3       P        0.84540    0.16210    0.63330    1.000
    P4       P        0.80640    0.00260    0.95020    1.000
    P5       P        0.63240    0.90230    0.23650    1.000
    P6       P        0.15460    0.83790    0.36670    1.000
    C1       C        0.87220    0.82320    0.52160    1.000
    C2       C        0.92770    0.73540    0.66520    1.000
    C3       C        0.81010    0.69950    0.42350    1.000
    C4       C        0.86860    0.60880    0.57200    1.000
    C5       C        0.80670    0.59030    0.44550    1.000
    C6       C        0.73920    0.45800    0.34540    1.000
    C7       C        0.63510    0.43290    0.23520    1.000
    C8       C        0.77300    0.35290    0.35310    1.000
    C9       C        0.57070    0.30770    0.14440    1.000
    C10      C        0.70720    0.22860    0.25600    1.000
    C11      C        0.56850    0.79850    0.60480    1.000
    C12      C        0.42540    0.69160    0.39420    1.000
    C13      C        0.57010    0.68080    0.60740    1.000
    C14      C        0.42570    0.57270    0.39270    1.000
    C15      C        0.49930    0.56450    0.50010    1.000
    C16      C        0.12780    0.17680    0.47840    1.000
    C17      C        0.07230    0.26460    0.33480    1.000
    C18      C        0.18990    0.30050    0.57650    1.000
    C19      C        0.13140    0.39120    0.42800    1.000
    C20      C        0.19330    0.40970    0.55450    1.000
    C21      C        0.26080    0.54200    0.65460    1.000
    C22      C        0.36490    0.56710    0.76480    1.000
    C23      C        0.22700    0.64710    0.64690    1.000
    C24      C        0.42930    0.69230    0.85560    1.000
    C25      C        0.29280    0.77140    0.74400    1.000
    C26      C        0.43150    0.20150    0.39520    1.000
    C27      C        0.57460    0.30840    0.60580    1.000
    C28      C        0.42990    0.31920    0.39260    1.000
    C29      C        0.57430    0.42730    0.60730    1.000
    C30      C        0.50070    0.43550    0.49990    1.000
    N1       N        0.93010    0.84080    0.64180    1.000
    N2       N        0.60440    0.20580    0.15410    1.000
    N3       N        0.49550    0.80450    0.49900    1.000
    N4       N        0.06990    0.15920    0.35820    1.000
    N5       N        0.39560    0.79420    0.84590    1.000
    N6       N        0.50450    0.19550    0.50100    1.000
    O1       O        0.12130    0.95770    0.91100    1.000
    O2       O        0.10760    0.93210    0.11530    1.000
    O3       O        0.32780    0.96850    0.06790    1.000
    O4       O        0.22730    0.15020    0.12030    1.000
    O5       O        0.21110    0.04100    0.70610    1.000
    O6       O        0.41070    0.08120    0.88480    1.000
    O7       O        0.43540    0.03990    0.66650    1.000
    O8       O        0.41410    0.25030    0.80060    1.000
    O9       O        0.95930    0.11070    0.66430    1.000
    O10      O        0.70530    0.07850    0.61990    1.000
    O11      O        0.84510    0.18120    0.50610    1.000
    O12      O        0.87700    0.30120    0.73680    1.000
    O13      O        0.87870    0.04230    0.08900    1.000
    O14      O        0.89240    0.06790    0.88470    1.000
    O15      O        0.67220    0.03150    0.93210    1.000
    O16      O        0.77270    0.84980    0.87970    1.000
    O17      O        0.78890    0.95900    0.29390    1.000
    O18      O        0.58930    0.91880    0.11520    1.000
    O19      O        0.56460    0.96010    0.33350    1.000
    O20      O        0.58590    0.74970    0.19940    1.000
    O21      O        0.04070    0.88930    0.33570    1.000
    O22      O        0.29470    0.92150    0.38010    1.000
    O23      O        0.15490    0.81880    0.49390    1.000
    O24      O        0.12300    0.69880    0.26320    1.000
    H1       H        0.87509    0.91282    0.50150    1.000
    H2       H        0.97727    0.75325    0.76733    1.000
    H3       H        0.76125    0.68797    0.32342    1.000
    H4       H        0.87053    0.52316    0.59778    1.000
    H5       H        0.60522    0.51632    0.22226    1.000
    H6       H        0.85534    0.36709    0.43932    1.000
    H7       H        0.48567    0.28702    0.05718    1.000
    H8       H        0.73956    0.14361    0.26129    1.000
    H9       H        0.62870    0.89290    0.69181    1.000
    H10      H        0.36549    0.69743    0.30631    1.000
    H11      H        0.62938    0.67807    0.69739    1.000
    H12      H        0.36579    0.48015    0.30366    1.000
    H13      H        0.12491    0.08718    0.49850    1.000
    H14      H        0.23875    0.31203    0.67658    1.000
    H15      H        0.39478    0.48368    0.77774    1.000
    H16      H        0.14466    0.63291    0.56068    1.000
    H17      H        0.51433    0.71298    0.94282    1.000
    H18      H        0.26044    0.85639    0.73871    1.000
    H19      H        0.37130    0.10710    0.30819    1.000
    H20      H        0.63451    0.30257    0.69369    1.000
    H21      H        0.37062    0.32193    0.30261    1.000
    H22      H        0.63421    0.51985    0.69634    1.000
    H23      H        0.02273    0.24675    0.23267    1.000
    H24      H        0.12947    0.47684    0.40222    1.000
