data_functionalizedCrystal
_audit_creation_method	'EQeq! by Chris Wilmer'
_symmetry_space_group_name_H-M	'P1'
_symmetry_Int_Tables_number	1
_symmetry_cell_setting	triclinic
loop_
_symmetry_equiv_pos_as_xyz
  x,y,z
_cell_length_a	10.724
_cell_length_b	11.831
_cell_length_c	14.593
_cell_angle_alpha	73.66
_cell_angle_beta	71.98
_cell_angle_gamma	66.9
loop_
_atom_site_label
_atom_site_type_symbol
_atom_site_fract_x
_atom_site_fract_y
_atom_site_fract_z
_atom_site_charge
Mof_Eu	Eu	0.01243	0.44879	0.37223	2.341
Mof_Eu	Eu	0.98757	0.55121	0.62777	2.341
Mof_P 	P 	0.85726	0.28055	0.2738	0.256
Mof_P 	P 	0.14274	0.71945	0.7262	0.256
Mof_H 	H 	0.4923	0.3677	0.5574	0.028
Mof_H 	H 	0.0458	0.1024	0.3838	0.042
Mof_H 	H 	0.7201	0.3214	0.465	0.065
Mof_H 	H 	0.0314	0.1783	0.1041	0.029
Mof_H 	H 	0.3585	0.3832	0.3218	-0.027
Mof_H 	H 	0.5891	0.3282	0.2286	0.062
Mof_H 	H 	0.8126	0.0809	0.2201	0.053
Mof_H 	H 	0.7493	0.5765	0.9831	0.039
Mof_H 	H 	0.0642	0.2532	0.9368	0.057
Mof_H 	H 	0.1141	0.8851	0.4346	0.019
Mof_H 	H 	0.8887	0.8637	0.2663	0.026
Mof_H 	H 	0.7241	0.5044	0.1518	0.051
Mof_H 	H 	0.5077	0.6323	0.4426	0.028
Mof_H 	H 	0.9542	0.8976	0.6162	0.042
Mof_H 	H 	0.2799	0.6786	0.535	0.065
Mof_H 	H 	0.9686	0.8217	0.8959	0.029
Mof_H 	H 	0.6415	0.6168	0.6782	-0.027
Mof_H 	H 	0.4109	0.6718	0.7714	0.062
Mof_H 	H 	0.1874	0.9191	0.7799	0.053
Mof_H 	H 	0.2507	0.4235	0.0169	0.039
Mof_H 	H 	0.9358	0.7468	0.0632	0.057
Mof_H 	H 	0.8859	0.1149	0.5654	0.019
Mof_H 	H 	0.1113	0.1363	0.7337	0.026
Mof_H 	H 	0.2759	0.4956	0.8482	0.051
Mof_C 	C 	0.8713	0.3325	0.1443	-0.045
Mof_C 	C 	0.5118	0.3607	0.4908	0.051
Mof_C 	C 	0.9218	0.1131	0.2973	-0.015
Mof_C 	C 	0.6775	0.3224	0.3373	-0.005
Mof_C 	C 	0.0122	0.0543	0.3611	-0.085
Mof_C 	C 	0.6471	0.3332	0.4358	-0.082
Mof_C 	C 	0.4048	0.3782	0.4486	-0.175
Mof_C 	C 	0.9741	0.2592	0.0797	-0.019
Mof_C 	C 	0.4328	0.3687	0.3507	0.073
Mof_C 	C 	0.5696	0.3382	0.2945	-0.109
Mof_C 	C 	0.8745	0.0412	0.2631	-0.082
Mof_C 	C 	0.9092	0.4205	0.9438	-0.058
Mof_C 	C 	0.9328	0.4647	0.8346	0.311
Mof_C 	C 	0.8071	0.496	0.0077	-0.005
Mof_C 	C 	0.9929	0.3035	0.9807	-0.034
Mof_C 	C 	0.0043	0.854	0.3579	-0.154
Mof_C 	C 	0.0528	0.9251	0.3911	0.039
Mof_C 	C 	0.9179	0.9124	0.2918	0.034
Mof_C 	C 	0.0387	0.7171	0.3977	0.47
Mof_C 	C 	0.2584	0.415	0.5072	0.462
Mof_C 	C 	0.7909	0.4522	0.1076	-0.041
Mof_C 	C 	0.1287	0.6675	0.8557	-0.045
Mof_C 	C 	0.4882	0.6393	0.5092	0.051
Mof_C 	C 	0.0782	0.8869	0.7027	-0.015
Mof_C 	C 	0.3225	0.6776	0.6627	-0.005
Mof_C 	C 	0.9878	0.9457	0.6389	-0.085
Mof_C 	C 	0.3529	0.6668	0.5642	-0.082
Mof_C 	C 	0.5952	0.6218	0.5514	-0.175
Mof_C 	C 	0.0259	0.7408	0.9203	-0.019
Mof_C 	C 	0.5672	0.6313	0.6493	0.073
Mof_C 	C 	0.4304	0.6618	0.7055	-0.109
Mof_C 	C 	0.1255	0.9588	0.7369	-0.082
Mof_C 	C 	0.0908	0.5795	0.0562	-0.058
Mof_C 	C 	0.0672	0.5353	0.1654	0.311
Mof_C 	C 	0.1929	0.504	0.9923	-0.005
Mof_C 	C 	0.0071	0.6965	0.0193	-0.034
Mof_C 	C 	0.9957	0.146	0.6421	-0.154
Mof_C 	C 	0.9472	0.0749	0.6089	0.039
Mof_C 	C 	0.0821	0.0876	0.7082	0.034
Mof_C 	C 	0.9613	0.2829	0.6023	0.47
Mof_C 	C 	0.7416	0.585	0.4928	0.462
Mof_C 	C 	0.2091	0.5478	0.8924	-0.041
Mof_O 	O 	0.0532	0.4248	0.7836	-0.415
Mof_O 	O 	0.2357	0.4393	0.5905	-0.493
Mof_O 	O 	0.0673	0.6806	0.4823	-0.55
Mof_O 	O 	0.8322	0.541	0.7963	-0.449
Mof_O 	O 	0.0335	0.6488	0.3473	-0.534
Mof_O 	O 	0.1597	0.425	0.4715	-0.656
Mof_O 	O 	0.9359	0.329	0.313	-0.475
Mof_O 	O 	0.9468	0.5752	0.2164	-0.415
Mof_O 	O 	0.7643	0.5607	0.4095	-0.493
Mof_O 	O 	0.9327	0.3194	0.5177	-0.55
Mof_O 	O 	0.1678	0.459	0.2037	-0.449
Mof_O 	O 	0.9665	0.3512	0.6527	-0.534
Mof_O 	O 	0.8403	0.575	0.5285	-0.656
Mof_O 	O 	0.0641	0.671	0.687	-0.475
_end
