data_functionalizedCrystal
_audit_creation_method	'EQeq! by Chris Wilmer'
_symmetry_space_group_name_H-M	'P1'
_symmetry_Int_Tables_number	1
_symmetry_cell_setting	triclinic
loop_
_symmetry_equiv_pos_as_xyz
  x,y,z
_cell_length_a	10.97
_cell_length_b	23.744
_cell_length_c	15.906
_cell_angle_alpha	90
_cell_angle_beta	90
_cell_angle_gamma	90
loop_
_atom_site_label
_atom_site_type_symbol
_atom_site_fract_x
_atom_site_fract_y
_atom_site_fract_z
_atom_site_charge
Mof_C 	C 	0.1017	0.3331	0.3481	0.003
Mof_N 	N 	0.1559	0.307	0.3939	-0.132
Mof_C 	C 	0.7491	0.1064	0.6148	0.004
Mof_N 	N 	0.1844	0.3872	0.1673	-0.14
Mof_C 	C 	0.6017	0.8331	0.3481	0.011
Mof_N 	N 	0.6559	0.807	0.3939	-0.13
Mof_C 	C 	0.2491	0.6064	0.6148	-0.004
Mof_N 	N 	0.6844	0.8872	0.1673	-0.138
Mof_C 	C 	0.8983	0.6669	0.3481	0.03
Mof_N 	N 	0.8441	0.693	0.3939	-0.132
Mof_C 	C 	0.2509	0.8936	0.6148	-0.005
Mof_N 	N 	0.8156	0.6128	0.1673	-0.131
Mof_C 	C 	0.3983	0.1669	0.3481	0.008
Mof_N 	N 	0.3441	0.193	0.3939	-0.132
Mof_C 	C 	0.7509	0.3936	0.6148	0.006
Mof_N 	N 	0.3156	0.1128	0.1673	-0.139
Mof_C 	C 	0.8983	0.3331	0.1519	0.026
Mof_N 	N 	0.8441	0.307	0.1061	-0.134
Mof_C 	C 	0.2509	0.1064	0.8852	0.022
Mof_N 	N 	0.8156	0.3872	0.3327	-0.13
Mof_C 	C 	0.3983	0.8331	0.1519	0.004
Mof_N 	N 	0.3441	0.807	0.1061	-0.133
Mof_C 	C 	0.7509	0.6064	0.8852	0.033
Mof_N 	N 	0.3156	0.8872	0.3327	-0.139
Mof_C 	C 	0.1017	0.6669	0.1519	-0.001
Mof_N 	N 	0.1559	0.693	0.1061	-0.134
Mof_C 	C 	0.7491	0.8936	0.8852	0.032
Mof_N 	N 	0.1844	0.6128	0.3327	-0.139
Mof_C 	C 	0.6017	0.1669	0.1519	0.007
Mof_N 	N 	0.6559	0.193	0.1061	-0.132
Mof_C 	C 	0.2491	0.3936	0.8852	0.024
Mof_N 	N 	0.6844	0.1128	0.3327	-0.137
Mof_C 	C 	0.8983	0.6669	0.6519	0.033
Mof_N 	N 	0.8441	0.693	0.6061	-0.132
Mof_C 	C 	0.2509	0.8936	0.3852	-0.008
Mof_N 	N 	0.8156	0.6128	0.8327	-0.132
Mof_C 	C 	0.3983	0.1669	0.6519	0.01
Mof_N 	N 	0.3441	0.193	0.6061	-0.131
Mof_C 	C 	0.7509	0.3936	0.3852	0.003
Mof_N 	N 	0.3156	0.1128	0.8327	-0.141
Mof_C 	C 	0.1017	0.3331	0.6519	0.005
Mof_N 	N 	0.1559	0.307	0.6061	-0.131
Mof_C 	C 	0.7491	0.1064	0.3852	0.002
Mof_N 	N 	0.1844	0.3872	0.8327	-0.142
Mof_C 	C 	0.6017	0.8331	0.6519	0.013
Mof_N 	N 	0.6559	0.807	0.6061	-0.13
Mof_C 	C 	0.2491	0.6064	0.3852	-0.006
Mof_N 	N 	0.6844	0.8872	0.8327	-0.14
Mof_C 	C 	0.1017	0.6669	0.8481	0.012
Mof_N 	N 	0.1559	0.693	0.8939	-0.119
Mof_C 	C 	0.7491	0.8936	0.1148	-0.003
Mof_N 	N 	0.1844	0.6128	0.6673	-0.138
Mof_C 	C 	0.6017	0.1669	0.8481	0.021
Mof_N 	N 	0.6559	0.193	0.8939	-0.117
Mof_C 	C 	0.2491	0.3936	0.1148	-0.011
Mof_N 	N 	0.6844	0.1128	0.6673	-0.136
Mof_C 	C 	0.8983	0.3331	0.8481	0.04
Mof_N 	N 	0.8441	0.307	0.8939	-0.119
Mof_C 	C 	0.2509	0.1064	0.1148	-0.012
Mof_N 	N 	0.8156	0.3872	0.6673	-0.129
Mof_C 	C 	0.3983	0.8331	0.8481	0.018
Mof_N 	N 	0.3441	0.807	0.8939	-0.119
Mof_C 	C 	0.7509	0.6064	0.1148	-0.002
Mof_N 	N 	0.3156	0.8872	0.6673	-0.138
Mof_Cd	Cd	0.25	0.25	0.5	0.386
Mof_Cd	Cd	0.75	0.75	0.5	0.394
Mof_Cd	Cd	0.75	0.25	-0	0.37
Mof_Cd	Cd	0.25	0.75	-0	0.362
Mof_Cd	Cd	4.4056e-33	0.3818	0.25	0.286
Mof_C 	C 	-1.38733e-32	0.4766	0.25	-0.062
Mof_Cd	Cd	0.5	0.8818	0.25	0.307
Mof_C 	C 	0.5	0.9766	0.25	-0.055
Mof_Cd	Cd	1.04986e-32	0.6182	0.25	0.286
Mof_C 	C 	-1.68737e-33	0.5234	0.25	-0.062
Mof_Cd	Cd	0.5	0.1182	0.25	0.307
Mof_C 	C 	0.5	0.0234	0.25	-0.055
Mof_Cd	Cd	2.84492e-32	0.6182	0.75	0.293
Mof_C 	C 	2.84492e-32	0.5234	0.75	-0.057
Mof_Cd	Cd	0.5	0.1182	0.75	0.314
Mof_C 	C 	0.5	0.0234	0.75	-0.05
Mof_Cd	Cd	1.62633e-32	0.3818	0.75	0.293
Mof_C 	C 	-8.10859e-33	0.4766	0.75	-0.057
Mof_Cd	Cd	0.5	0.8818	0.75	0.314
Mof_C 	C 	0.5	0.9766	0.75	-0.05
Mof_Cd	Cd	0.8602	0.09851	0.5	0.285
Mof_C 	C 	0.0114	0.1615	0.5	-0.016
Mof_N 	N 	0.0871	0.1929	0.5	-0.135
Mof_C 	C 	0.9695	0.0204	0.5	-0.017
Mof_Cd	Cd	0.3602	0.59851	0.5	0.273
Mof_C 	C 	0.5114	0.6615	0.5	0.006
Mof_N 	N 	0.5871	0.6929	0.5	-0.136
Mof_C 	C 	0.4695	0.5204	0.5	-0.064
Mof_Cd	Cd	0.1398	0.90149	0.5	0.264
Mof_C 	C 	0.9886	0.8385	0.5	0.029
Mof_N 	N 	0.9129	0.8071	0.5	-0.138
Mof_C 	C 	0.0305	0.9796	0.5	-0.111
Mof_Cd	Cd	0.6398	0.40149	0.5	0.278
Mof_C 	C 	0.4886	0.3385	0.5	0.007
Mof_N 	N 	0.4129	0.3071	0.5	-0.136
Mof_C 	C 	0.5305	0.4796	0.5	-0.063
Mof_Cd	Cd	0.1398	0.09851	-0	0.242
Mof_C 	C 	0.9886	0.1615	-0	0.017
Mof_N 	N 	0.9129	0.1929	-0	-0.142
Mof_C 	C 	0.0305	0.0204	-0	-0.118
Mof_Cd	Cd	0.6398	0.59851	-0	0.255
Mof_C 	C 	0.4886	0.6615	-0	-0.005
Mof_N 	N 	0.4129	0.6929	-0	-0.141
Mof_C 	C 	0.5305	0.5204	-0	-0.071
Mof_Cd	Cd	0.8602	0.90149	-0	0.262
Mof_C 	C 	0.0114	0.8385	-0	-0.027
Mof_N 	N 	0.0871	0.8071	-0	-0.139
Mof_C 	C 	0.9695	0.9796	-0	-0.026
Mof_Cd	Cd	0.3602	0.40149	-0	0.251
Mof_C 	C 	0.5114	0.3385	-0	-0.005
Mof_N 	N 	0.5871	0.3071	-0	-0.14
Mof_C 	C 	0.4695	0.4796	-0	-0.072
_end
