data_functionalizedCrystal
_audit_creation_method	'EQeq! by Chris Wilmer'
_symmetry_space_group_name_H-M	'P1'
_symmetry_Int_Tables_number	1
_symmetry_cell_setting	triclinic
loop_
_symmetry_equiv_pos_as_xyz
  x,y,z
_cell_length_a	11.2049
_cell_length_b	16.726
_cell_length_c	17.152
_cell_angle_alpha	64.592
_cell_angle_beta	80.095
_cell_angle_gamma	85.225
loop_
_atom_site_label
_atom_site_type_symbol
_atom_site_fract_x
_atom_site_fract_y
_atom_site_fract_z
_atom_site_charge
Mof_Li	Li	0.6758	0.6227	0.8847	1.251
Mof_Li	Li	0.8945	0.6616	0.8572	2.807
Mof_Li	Li	0.9665	0.6454	0.7142	-2.064
Mof_Li	Li	0.9606	0.8075	0.6023	3.192
Mof_Li	Li	0.0486	0.5999	0.5927	3.392
Mof_Li	Li	0.3242	0.3773	0.1153	1.25
Mof_Li	Li	0.1055	0.3384	0.1428	2.806
Mof_Li	Li	0.0335	0.3546	0.2858	-2.065
Mof_Li	Li	0.0394	0.1925	0.3977	3.191
Mof_Li	Li	0.9514	0.4001	0.4073	3.392
Mof_H 	H 	0.4489	0.7149	0.8743	0.055
Mof_H 	H 	0.4491	0.6679	0.8102	0.057
Mof_H 	H 	0.3413	0.6499	0.89	0.092
Mof_H 	H 	0.4869	0.6284	0.0224	0.004
Mof_H 	H 	0.3775	0.565	0.0373	-0.008
Mof_H 	H 	0.3782	0.4941	0.9401	-0.037
Mof_H 	H 	0.488	0.5108	0.8616	0.006
Mof_H 	H 	0.1019	0.71	0.9038	0.041
Mof_H 	H 	0.99	0.711	0.9753	0.02
Mof_H 	H 	0.1101	0.6555	0.0055	0.099
Mof_H 	H 	0.1523	0.5726	0.8853	-0.019
Mof_H 	H 	0.1631	0.5285	0.9872	-0.076
Mof_H 	H 	0.9886	0.5331	0.092	0.022
Mof_H 	H 	0.866	0.5808	0.0578	-0.022
Mof_H 	H 	0.7389	0.887	0.5949	-0.003
Mof_H 	H 	0.7334	0.9739	0.5058	0.118
Mof_H 	H 	0.7708	0.8805	0.5032	0.034
Mof_H 	H 	0.8637	0.0493	0.5439	-0.031
Mof_H 	H 	0.8776	0.9657	0.6341	-0.036
Mof_H 	H 	0.9557	0.9412	0.4078	-0.015
Mof_H 	H 	0.911	0.0346	0.4079	-0.043
Mof_H 	H 	0.2694	0.5259	0.5472	0.002
Mof_H 	H 	0.2746	0.5225	0.4548	0.115
Mof_H 	H 	0.2529	0.6149	0.4622	0.013
Mof_H 	H 	0.0679	0.6396	0.3987	-0.022
Mof_H 	H 	0.0935	0.5482	0.3895	-0.064
Mof_H 	H 	0.1219	0.4131	0.5155	-0.04
Mof_H 	H 	0.1147	0.4147	0.609	-0.028
Mof_H 	H 	0.76	0.695	0.96	0.075
Mof_H 	H 	0.7623	0.8419	0.9567	0.034
Mof_H 	H 	0.7057	0.9893	0.8882	0.006
Mof_H 	H 	0.6172	0.0419	0.7611	0.051
Mof_H 	H 	0.5897	0.9445	0.7026	-0.014
Mof_H 	H 	0.6468	0.798	0.7677	-0.043
Mof_H 	H 	0.848	0.524	0.848	0.096
Mof_H 	H 	0.6982	0.7008	0.7099	-0.055
Mof_H 	H 	0.5656	0.6915	0.6241	-0.034
Mof_H 	H 	0.5243	0.5562	0.6277	0.044
Mof_H 	H 	0.6191	0.429	0.7176	-0.013
Mof_H 	H 	0.7546	0.4354	0.8027	0.059
Mof_H 	H 	0.903	0.785	0.746	-0.199
Mof_H 	H 	0.9657	0.8827	0.7929	-0.055
Mof_H 	H 	0.1293	0.9522	0.8028	0.053
Mof_H 	H 	0.3248	0.9201	0.7565	0.007
Mof_H 	H 	0.36	0.8181	0.695	0.032
Mof_H 	H 	0.1974	0.7465	0.6847	-0.073
Mof_H 	H 	0.854	0.694	0.582	0.118
Mof_H 	H 	0.8259	0.7595	0.4341	-0.098
Mof_H 	H 	0.9131	0.8368	0.2903	0.07
Mof_H 	H 	0.1156	0.8768	0.2544	0.013
Mof_H 	H 	0.2336	0.8362	0.364	-0.013
Mof_H 	H 	0.1517	0.7566	0.5098	-0.185
Mof_H 	H 	0.183	0.611	0.683	0.045
Mof_H 	H 	0.3287	0.5116	0.7541	0.038
Mof_H 	H 	0.3859	0.3672	0.832	-0
Mof_H 	H 	0.2544	0.253	0.8692	0.049
Mof_H 	H 	0.0611	0.285	0.8273	-0.005
Mof_H 	H 	0.0007	0.4296	0.7515	-0.008
Mof_H 	H 	0.5511	0.2851	0.1257	0.055
Mof_H 	H 	0.5509	0.3321	0.1898	0.057
Mof_H 	H 	0.6587	0.3501	0.11	0.092
Mof_H 	H 	0.5131	0.3716	0.9776	0.004
Mof_H 	H 	0.6225	0.435	0.9627	-0.008
Mof_H 	H 	0.6218	0.5059	0.0599	-0.037
Mof_H 	H 	0.512	0.4892	0.1384	0.006
Mof_H 	H 	0.8981	0.29	0.0962	0.041
Mof_H 	H 	0.01	0.289	0.0247	0.02
Mof_H 	H 	0.8899	0.3445	0.9945	0.099
Mof_H 	H 	0.8477	0.4274	0.1147	-0.019
Mof_H 	H 	0.8369	0.4715	0.0128	-0.076
Mof_H 	H 	0.0114	0.4669	0.908	0.022
Mof_H 	H 	0.134	0.4192	0.9422	-0.022
Mof_H 	H 	0.2611	0.113	0.4051	-0.003
Mof_H 	H 	0.2666	0.0261	0.4942	0.118
Mof_H 	H 	0.2292	0.1195	0.4968	0.034
Mof_H 	H 	0.1363	0.9507	0.4561	-0.031
Mof_H 	H 	0.1224	0.0343	0.3659	-0.036
Mof_H 	H 	0.0443	0.0588	0.5922	-0.015
Mof_H 	H 	0.089	0.9654	0.5921	-0.043
Mof_H 	H 	0.7306	0.4741	0.4528	0.002
Mof_H 	H 	0.7254	0.4775	0.5452	0.115
Mof_H 	H 	0.7471	0.3851	0.5378	0.013
Mof_H 	H 	0.9321	0.3604	0.6013	-0.022
Mof_H 	H 	0.9065	0.4518	0.6105	-0.064
Mof_H 	H 	0.8781	0.5869	0.4845	-0.04
Mof_H 	H 	0.8853	0.5853	0.391	-0.028
Mof_H 	H 	0.24	0.305	0.04	0.075
Mof_H 	H 	0.2377	0.1581	0.0433	0.034
Mof_H 	H 	0.2943	0.0107	0.1118	0.006
Mof_H 	H 	0.3828	0.9581	0.2389	0.051
Mof_H 	H 	0.4103	0.0555	0.2974	-0.014
Mof_H 	H 	0.3532	0.202	0.2323	-0.043
Mof_H 	H 	0.152	0.476	0.152	0.096
Mof_H 	H 	0.3018	0.2992	0.2901	-0.055
Mof_H 	H 	0.4344	0.3085	0.3759	-0.034
Mof_H 	H 	0.4757	0.4438	0.3723	0.044
Mof_H 	H 	0.3809	0.571	0.2824	-0.013
Mof_H 	H 	0.2454	0.5646	0.1973	0.059
Mof_H 	H 	0.097	0.215	0.254	-0.199
Mof_H 	H 	0.0343	0.1173	0.2071	-0.055
Mof_H 	H 	0.8707	0.0478	0.1972	0.053
Mof_H 	H 	0.6752	0.0799	0.2435	0.007
Mof_H 	H 	0.64	0.1819	0.305	0.032
Mof_H 	H 	0.8026	0.2535	0.3153	-0.073
Mof_H 	H 	0.146	0.306	0.418	0.118
Mof_H 	H 	0.1741	0.2405	0.5659	-0.098
Mof_H 	H 	0.0869	0.1632	0.7097	0.07
Mof_H 	H 	0.8844	0.1232	0.7456	0.013
Mof_H 	H 	0.7664	0.1638	0.636	-0.013
Mof_H 	H 	0.8483	0.2434	0.4902	-0.185
Mof_H 	H 	0.817	0.389	0.317	0.045
Mof_H 	H 	0.6713	0.4884	0.2459	0.038
Mof_H 	H 	0.6141	0.6328	0.168	-0
Mof_H 	H 	0.7456	0.747	0.1308	0.049
Mof_H 	H 	0.9389	0.715	0.1727	-0.005
Mof_H 	H 	0.9993	0.5704	0.2485	-0.008
Mof_C 	C 	0.4283	0.6608	0.8707	-0.266
Mof_C 	C 	0.4658	0.5742	0.0183	-0.095
Mof_C 	C 	0.4665	0.5043	0.9225	-0.05
Mof_C 	C 	0.0561	0.6749	0.9613	-0.311
Mof_C 	C 	0.107	0.5405	0.9447	-0.013
Mof_C 	C 	0.9365	0.5452	0.0469	-0.111
Mof_C 	C 	0.7761	0.9176	0.5337	-0.367
Mof_C 	C 	0.912	0.995	0.5715	-0.101
Mof_C 	C 	0.9586	0.9804	0.4373	-0.06
Mof_C 	C 	0.2364	0.5514	0.4921	-0.346
Mof_C 	C 	0.0532	0.5751	0.4287	-0.076
Mof_C 	C 	0.0812	0.4414	0.5534	-0.11
Mof_C 	C 	0.7111	0.7995	0.8717	0.058
Mof_C 	C 	0.7272	0.8613	0.9049	-0.127
Mof_C 	C 	0.693	0.9498	0.8639	0.013
Mof_C 	C 	0.641	0.9815	0.7884	-0.125
Mof_C 	C 	0.625	0.9239	0.7545	0.028
Mof_C 	C 	0.659	0.8359	0.794	-0.16
Mof_C 	C 	0.7429	0.5689	0.7668	0.126
Mof_C 	C 	0.6834	0.6447	0.7119	-0.207
Mof_C 	C 	0.6038	0.6392	0.6608	0.038
Mof_C 	C 	0.5793	0.5596	0.6626	-0.162
Mof_C 	C 	0.6358	0.4846	0.7158	0.047
Mof_C 	C 	0.7165	0.4883	0.7669	-0.21
Mof_C 	C 	0.0625	0.806	0.7375	-0.257
Mof_C 	C 	0.0455	0.8685	0.7728	0.045
Mof_C 	C 	0.1433	0.91	0.7788	-0.13
Mof_C 	C 	0.2588	0.8915	0.7512	0.009
Mof_C 	C 	0.2796	0.8308	0.7153	-0.119
Mof_C 	C 	0.1821	0.7885	0.709	0.002
Mof_C 	C 	0.9794	0.7486	0.4899	-0.582
Mof_C 	C 	0.9093	0.7744	0.421	0.21
Mof_C 	C 	0.9613	0.8207	0.3354	-0.19
Mof_C 	C 	0.0814	0.8443	0.3137	-0.012
Mof_C 	C 	0.1506	0.8203	0.3786	-0.007
Mof_C 	C 	0.1014	0.7728	0.4659	-0.196
Mof_C 	C 	0.1569	0.4887	0.7437	0.024
Mof_C 	C 	0.2727	0.4658	0.7693	-0.119
Mof_C 	C 	0.3074	0.3798	0.8154	0.01
Mof_C 	C 	0.2303	0.3126	0.8373	-0.128
Mof_C 	C 	0.1153	0.3318	0.8126	0.036
Mof_C 	C 	0.0797	0.4179	0.7673	-0.168
Mof_C 	C 	0.5717	0.3392	0.1293	-0.266
Mof_C 	C 	0.5342	0.4258	0.9817	-0.095
Mof_C 	C 	0.5335	0.4957	0.0775	-0.05
Mof_C 	C 	0.9439	0.3251	0.0387	-0.311
Mof_C 	C 	0.893	0.4595	0.0553	-0.013
Mof_C 	C 	0.0635	0.4548	0.9531	-0.111
Mof_C 	C 	0.2239	0.0824	0.4663	-0.367
Mof_C 	C 	0.088	0.005	0.4285	-0.101
Mof_C 	C 	0.0414	0.0196	0.5627	-0.06
Mof_C 	C 	0.7636	0.4486	0.5079	-0.346
Mof_C 	C 	0.9468	0.4249	0.5713	-0.076
Mof_C 	C 	0.9188	0.5586	0.4466	-0.11
Mof_C 	C 	0.2889	0.2005	0.1283	0.058
Mof_C 	C 	0.2728	0.1387	0.0951	-0.127
Mof_C 	C 	0.307	0.0502	0.1361	0.013
Mof_C 	C 	0.359	0.0185	0.2116	-0.125
Mof_C 	C 	0.375	0.0761	0.2455	0.028
Mof_C 	C 	0.341	0.1641	0.206	-0.16
Mof_C 	C 	0.2571	0.4311	0.2332	0.126
Mof_C 	C 	0.3166	0.3553	0.2881	-0.207
Mof_C 	C 	0.3962	0.3608	0.3392	0.038
Mof_C 	C 	0.4207	0.4404	0.3374	-0.162
Mof_C 	C 	0.3642	0.5154	0.2842	0.047
Mof_C 	C 	0.2835	0.5117	0.2331	-0.21
Mof_C 	C 	0.9375	0.194	0.2625	-0.257
Mof_C 	C 	0.9545	0.1315	0.2272	0.045
Mof_C 	C 	0.8567	0.09	0.2212	-0.13
Mof_C 	C 	0.7412	0.1085	0.2488	0.009
Mof_C 	C 	0.7204	0.1692	0.2847	-0.119
Mof_C 	C 	0.8179	0.2115	0.291	0.002
Mof_C 	C 	0.0206	0.2514	0.5101	-0.582
Mof_C 	C 	0.0907	0.2256	0.579	0.21
Mof_C 	C 	0.0387	0.1793	0.6646	-0.19
Mof_C 	C 	0.9186	0.1557	0.6863	-0.012
Mof_C 	C 	0.8494	0.1797	0.6214	-0.007
Mof_C 	C 	0.8986	0.2272	0.5341	-0.196
Mof_C 	C 	0.8431	0.5113	0.2563	0.024
Mof_C 	C 	0.7273	0.5342	0.2307	-0.119
Mof_C 	C 	0.6926	0.6202	0.1846	0.01
Mof_C 	C 	0.7697	0.6874	0.1627	-0.128
Mof_C 	C 	0.8847	0.6682	0.1874	0.036
Mof_C 	C 	0.9203	0.5821	0.2327	-0.168
Mof_N 	N 	0.4968	0.5855	0.9271	-0.25
Mof_N 	N 	0.0053	0.5965	0.96026	-0.378
Mof_N 	N 	0.9033	0.93481	0.52978	-0.46
Mof_N 	N 	0.1051	0.5375	0.51	-0.473
Mof_N 	N 	0.7417	0.7112	0.9093	-0.752
Mof_N 	N 	0.8201	0.5768	0.8183	-0.563
Mof_N 	N 	0.9675	0.7613	0.73153	-0.518
Mof_N 	N 	0.9333	0.7028	0.5773	-0.775
Mof_N 	N 	0.1195	0.5744	0.6974	-0.477
Mof_N 	N 	0.5032	0.4145	0.0729	-0.25
Mof_N 	N 	0.9947	0.4035	0.03974	-0.378
Mof_N 	N 	0.0967	0.06519	0.47022	-0.46
Mof_N 	N 	0.8949	0.4625	0.49	-0.473
Mof_N 	N 	0.2583	0.2888	0.0907	-0.752
Mof_N 	N 	0.1799	0.4232	0.1817	-0.563
Mof_N 	N 	0.0325	0.2387	0.26847	-0.518
Mof_N 	N 	0.0667	0.2972	0.4227	-0.775
Mof_N 	N 	0.8805	0.4256	0.3026	-0.477
_end
