# CIF file generated by openbabel 3.1.0, see https://openbabel.org
data_I
_chemical_name_common 'VEHPUU_clean'
_cell_length_a 4.7109
_cell_length_b 11.002
_cell_length_c 31.858
_cell_angle_alpha 90
_cell_angle_beta 90
_cell_angle_gamma 96.008
_space_group_name_H-M_alt 'P 1'
_space_group_name_Hall 'P 1'
loop_
    _symmetry_equiv_pos_as_xyz
    x,y,z
loop_
    _atom_site_label
    _atom_site_type_symbol
    _atom_site_fract_x
    _atom_site_fract_y
    _atom_site_fract_z
    _atom_site_occupancy
    Cu1      Cu       0.50100    0.41100    0.80420    1.000
    Cu2      Cu       0.49900    0.08900    0.30420    1.000
    Cu3      Cu       0.49900    0.58900    0.19580    1.000
    Cu4      Cu       0.50100    0.91100    0.69580    1.000
    H1       H        0.63130    0.46100    0.70810    1.000
    H2       H        0.44890    0.36410    0.64680    1.000
    H3       H        0.73330    0.46060    0.01300    1.000
    H4       H        0.45210    0.59090    0.87140    1.000
    H5       H        0.61630    0.62380    0.94040    1.000
    H6       H        0.78250    0.26440    0.86940    1.000
    H7       H        0.94680    0.29730    0.93840    1.000
    H8       H        0.36870    0.03900    0.20810    1.000
    H9       H        0.55110    0.13590    0.14680    1.000
    H10      H        0.26670    0.03940    0.51300    1.000
    H11      H        0.54790    0.90910    0.37140    1.000
    H12      H        0.38370    0.87620    0.44040    1.000
    H13      H        0.21750    0.23560    0.36940    1.000
    H14      H        0.05320    0.20270    0.43840    1.000
    H15      H        0.36870    0.53900    0.29190    1.000
    H16      H        0.55110    0.63590    0.35320    1.000
    H17      H        0.26670    0.53940    0.98700    1.000
    H18      H        0.54790    0.40910    0.12860    1.000
    H19      H        0.38370    0.37620    0.05960    1.000
    H20      H        0.21750    0.73560    0.13060    1.000
    H21      H        0.05320    0.70270    0.06160    1.000
    H22      H        0.63130    0.96100    0.79190    1.000
    H23      H        0.44890    0.86410    0.85320    1.000
    H24      H        0.73330    0.96060    0.48700    1.000
    H25      H        0.45210    0.09090    0.62860    1.000
    H26      H        0.61630    0.12380    0.55960    1.000
    H27      H        0.78250    0.76440    0.63060    1.000
    H28      H        0.94680    0.79730    0.56160    1.000
    C1       C        0.88268    0.48055    0.99341    1.000
    C2       C        0.21650    0.17700    0.79470    1.000
    C3       C        0.26740    0.22940    0.74930    1.000
    C4       C        0.50950    0.38670    0.70980    1.000
    C5       C        0.39750    0.32860    0.67330    1.000
    C6       C        0.15520    0.17530    0.71210    1.000
    C7       C        0.96830    0.05720    0.70840    1.000
    C8       C        0.74890    0.33720    0.88380    1.000
    C9       C        0.55230    0.53150    0.88500    1.000
    C10      C        0.65000    0.55100    0.92600    1.000
    C11      C        0.84660    0.35680    0.92480    1.000
    C12      C        0.79710    0.46370    0.94590    1.000
    C13      C        0.11732    0.01945    0.49341    1.000
    C14      C        0.78350    0.32300    0.29470    1.000
    C15      C        0.73260    0.27060    0.24930    1.000
    C16      C        0.49050    0.11330    0.20980    1.000
    C17      C        0.60250    0.17140    0.17330    1.000
    C18      C        0.84480    0.32470    0.21210    1.000
    C19      C        0.03170    0.44280    0.20840    1.000
    C20      C        0.25110    0.16280    0.38380    1.000
    C21      C        0.44770    0.96850    0.38500    1.000
    C22      C        0.35000    0.94900    0.42600    1.000
    C23      C        0.15340    0.14320    0.42480    1.000
    C24      C        0.20290    0.03630    0.44590    1.000
    C25      C        0.11732    0.51945    0.00659    1.000
    C26      C        0.78350    0.82300    0.20530    1.000
    C27      C        0.73260    0.77060    0.25070    1.000
    C28      C        0.49050    0.61330    0.29020    1.000
    C29      C        0.60250    0.67140    0.32670    1.000
    C30      C        0.84480    0.82470    0.28790    1.000
    C31      C        0.03170    0.94280    0.29160    1.000
    C32      C        0.25110    0.66280    0.11620    1.000
    C33      C        0.44770    0.46850    0.11500    1.000
    C34      C        0.35000    0.44900    0.07400    1.000
    C35      C        0.15340    0.64320    0.07520    1.000
    C36      C        0.20290    0.53630    0.05410    1.000
    C37      C        0.88268    0.98055    0.50659    1.000
    C38      C        0.21650    0.67700    0.70530    1.000
    C39      C        0.26740    0.72940    0.75070    1.000
    C40      C        0.50950    0.88670    0.79020    1.000
    C41      C        0.39750    0.82860    0.82670    1.000
    C42      C        0.15520    0.67530    0.78790    1.000
    C43      C        0.96830    0.55720    0.79160    1.000
    C44      C        0.74890    0.83720    0.61620    1.000
    C45      C        0.55230    0.03150    0.61500    1.000
    C46      C        0.65000    0.05100    0.57400    1.000
    C47      C        0.84660    0.85680    0.57520    1.000
    C48      C        0.79710    0.96370    0.55410    1.000
    N1       N        0.43950    0.33400    0.74810    1.000
    N2       N        0.22330    0.22640    0.67430    1.000
    N3       N        0.60170    0.42460    0.86390    1.000
    N4       N        0.56050    0.16600    0.24810    1.000
    N5       N        0.77670    0.27360    0.17430    1.000
    N6       N        0.39830    0.07540    0.36390    1.000
    N7       N        0.56050    0.66600    0.25190    1.000
    N8       N        0.77670    0.77360    0.32570    1.000
    N9       N        0.39830    0.57540    0.13610    1.000
    N10      N        0.43950    0.83400    0.75190    1.000
    N11      N        0.22330    0.72640    0.82570    1.000
    N12      N        0.60170    0.92460    0.63610    1.000
    O1       O        0.31485    0.24416    0.82296    1.000
    O2       O        0.01927    0.06993    0.80030    1.000
    O3       O        0.70819    0.00789    0.71735    1.000
    O4       O        0.10582    0.98899    0.69724    1.000
    O5       O        0.68515    0.25584    0.32296    1.000
    O6       O        0.98073    0.43007    0.30030    1.000
    O7       O        0.29181    0.49211    0.21735    1.000
    O8       O        0.89418    0.51101    0.19724    1.000
    O9       O        0.68515    0.75584    0.17704    1.000
    O10      O        0.98073    0.93007    0.19970    1.000
    O11      O        0.29181    0.99211    0.28265    1.000
    O12      O        0.89418    0.01101    0.30276    1.000
    O13      O        0.31485    0.74416    0.67704    1.000
    O14      O        0.01927    0.56993    0.69970    1.000
    O15      O        0.70819    0.50789    0.78265    1.000
    O16      O        0.10582    0.48899    0.80276    1.000
