data_functionalizedCrystal
_audit_creation_method	'EQeq! by Chris Wilmer'
_symmetry_space_group_name_H-M	'P1'
_symmetry_Int_Tables_number	1
_symmetry_cell_setting	triclinic
loop_
_symmetry_equiv_pos_as_xyz
  x,y,z
_cell_length_a	10.8237
_cell_length_b	12.1862
_cell_length_c	12.2493
_cell_angle_alpha	94.301
_cell_angle_beta	106.53
_cell_angle_gamma	101.281
loop_
_atom_site_label
_atom_site_type_symbol
_atom_site_fract_x
_atom_site_fract_y
_atom_site_fract_z
_atom_site_charge
Mof_Dy	Dy	0.08325	0.30978	0.49819	2.113
Mof_C 	C 	0.3515	0.5339	0.5651	0.082
Mof_H 	H 	0.2873	0.5682	0.523	-0.003
Mof_C 	C 	0.4807	0.5967	0.6082	-0.093
Mof_H 	H 	0.501	0.6713	0.5952	0.068
Mof_C 	C 	0.5778	0.5499	0.6691	-0.032
Mof_H 	H 	0.6649	0.5912	0.6971	0.051
Mof_C 	C 	0.5436	0.4375	0.6891	0.01
Mof_C 	C 	0.4106	0.3789	0.6437	0.025
Mof_C 	C 	0.3722	0.2638	0.6635	0.042
Mof_C 	C 	0.2086	0.1065	0.6436	0.092
Mof_H 	H 	0.12	0.0692	0.6151	-0.002
Mof_C 	C 	0.2978	0.0505	0.7064	-0.123
Mof_H 	H 	0.2687	0.9775	0.7206	0.085
Mof_C 	C 	0.4266	0.1017	0.7468	-0.007
Mof_H 	H 	0.4874	0.0636	0.7876	0.033
Mof_C 	C 	0.4698	0.2134	0.7274	-0.01
Mof_C 	C 	0.603	0.2732	0.7679	-0.042
Mof_H 	H 	0.6675	0.2375	0.8067	0.048
Mof_C 	C 	0.6381	0.381	0.7514	-0.065
Mof_H 	H 	0.7263	0.4195	0.7813	0.058
Mof_C 	C 	0.0877	0.1811	0.3058	0.316
Mof_C 	C 	0.0757	0.1232	0.191	-0.083
Mof_C 	C 	0.179	0.1453	0.1445	0.007
Mof_H 	H 	0.2563	0.1982	0.1845	0.035
Mof_C 	C 	0.9636	0.0478	0.1326	-0.024
Mof_H 	H 	0.8948	0.0332	0.1646	0.054
Mof_C 	C 	0.9479	0.9892	0.0217	0.014
Mof_C 	C 	0.8323	0.9102	0.9598	-0.091
Mof_H 	H 	0.7621	0.8952	0.9902	0.061
Mof_C 	C 	0.0097	0.4947	0.676	0.59
Mof_C 	C 	0.0062	0.4786	0.7977	-0.185
Mof_C 	C 	0.0162	0.3741	0.8356	0.077
Mof_H 	H 	0.0236	0.315	0.787	0.006
Mof_C 	C 	0.9938	0.5644	0.865	0.017
Mof_H 	H 	0.9844	0.6319	0.8365	0.028
Mof_C 	C 	0.9949	0.5531	0.9816	0.02
Mof_C 	C 	0.985	0.6399	0.054	-0.125
Mof_H 	H 	0.9791	0.7092	0.0283	0.076
Mof_C 	C 	0.8502	0.1944	0.5297	0.324
Mof_C 	C 	0.7298	0.1174	0.5352	-0.074
Mof_C 	C 	0.6085	0.1169	0.4628	-0.044
Mof_H 	H 	0.6017	0.1699	0.4118	0.056
Mof_C 	C 	0.494	0.0406	0.4616	0.029
Mof_C 	C 	0.7394	0.0398	0.6129	0.017
Mof_H 	H 	0.8218	0.0396	0.6632	0.041
Mof_C 	C 	0.6319	0.9649	0.6171	-0.098
Mof_H 	H 	0.6407	0.9162	0.6723	0.068
Mof_N 	N 	0.2436	0.2115	0.6221	-0.248
Mof_N 	N 	0.315	0.4277	0.5809	-0.238
Mof_O 	O 	0.0689	0.4347	0.6348	-0.608
Mof_O 	O 	0.9612	0.1824	0.5868	-0.453
Mof_O 	O 	0.8426	0.2686	0.4614	-0.411
Mof_O 	O 	0.9921	0.1615	0.3464	-0.453
Mof_O 	O 	0.1921	0.2517	0.3629	-0.437
Mof_O 	O 	0.9544	0.5661	0.6279	-0.595
Mof_Dy	Dy	0.91675	0.69022	0.50181	2.114
Mof_C 	C 	0.6485	0.4661	0.4349	0.083
Mof_H 	H 	0.7127	0.4318	0.477	-0.003
Mof_C 	C 	0.5193	0.4033	0.3918	-0.093
Mof_H 	H 	0.499	0.3287	0.4048	0.068
Mof_C 	C 	0.4222	0.4501	0.3309	-0.032
Mof_H 	H 	0.3351	0.4088	0.3029	0.051
Mof_C 	C 	0.4564	0.5625	0.3109	0.01
Mof_C 	C 	0.5894	0.6211	0.3563	0.025
Mof_C 	C 	0.6278	0.7362	0.3365	0.042
Mof_C 	C 	0.7914	0.8935	0.3564	0.092
Mof_H 	H 	0.88	0.9308	0.3849	-0.002
Mof_C 	C 	0.7022	0.9495	0.2936	-0.123
Mof_H 	H 	0.7313	0.0225	0.2794	0.085
Mof_C 	C 	0.5734	0.8983	0.2532	-0.007
Mof_H 	H 	0.5126	0.9364	0.2124	0.033
Mof_C 	C 	0.5302	0.7866	0.2726	-0.01
Mof_C 	C 	0.397	0.7268	0.2321	-0.042
Mof_H 	H 	0.3325	0.7625	0.1933	0.048
Mof_C 	C 	0.3619	0.619	0.2486	-0.065
Mof_H 	H 	0.2737	0.5805	0.2187	0.058
Mof_C 	C 	0.9123	0.8189	0.6942	0.316
Mof_C 	C 	0.9243	0.8768	0.809	-0.083
Mof_C 	C 	0.821	0.8547	0.8555	0.007
Mof_H 	H 	0.7437	0.8018	0.8155	0.035
Mof_C 	C 	0.0364	0.9522	0.8674	-0.024
Mof_H 	H 	0.1052	0.9668	0.8354	0.054
Mof_C 	C 	0.0521	0.0108	0.9783	0.014
Mof_C 	C 	0.1677	0.0898	0.0402	-0.091
Mof_H 	H 	0.2379	0.1048	0.0098	0.061
Mof_C 	C 	0.9903	0.5053	0.324	0.59
Mof_C 	C 	0.9938	0.5214	0.2023	-0.185
Mof_C 	C 	0.9838	0.6259	0.1644	0.077
Mof_H 	H 	0.9764	0.685	0.213	0.006
Mof_C 	C 	0.0062	0.4356	0.135	0.017
Mof_H 	H 	0.0156	0.3681	0.1635	0.028
Mof_C 	C 	0.0051	0.4469	0.0184	0.02
Mof_C 	C 	0.015	0.3601	0.946	-0.125
Mof_H 	H 	0.0209	0.2908	0.9717	0.076
Mof_C 	C 	0.1498	0.8056	0.4703	0.324
Mof_C 	C 	0.2702	0.8826	0.4648	-0.074
Mof_C 	C 	0.3915	0.8831	0.5372	-0.044
Mof_H 	H 	0.3983	0.8301	0.5882	0.056
Mof_C 	C 	0.506	0.9594	0.5384	0.029
Mof_C 	C 	0.2606	0.9602	0.3871	0.017
Mof_H 	H 	0.1782	0.9604	0.3368	0.041
Mof_C 	C 	0.3681	0.0351	0.3829	-0.098
Mof_H 	H 	0.3593	0.0838	0.3277	0.068
Mof_N 	N 	0.7564	0.7885	0.3779	-0.248
Mof_N 	N 	0.685	0.5723	0.4191	-0.238
Mof_O 	O 	0.9311	0.5653	0.3652	-0.608
Mof_O 	O 	0.0388	0.8176	0.4132	-0.453
Mof_O 	O 	0.1574	0.7314	0.5386	-0.411
Mof_O 	O 	0.0079	0.8385	0.6536	-0.453
Mof_O 	O 	0.8079	0.7483	0.6371	-0.437
Mof_O 	O 	0.0456	0.4339	0.3721	-0.595
_end
