# CIF file generated by openbabel 3.1.0, see https://openbabel.org
data_I
_chemical_name_common 'image0'
_cell_length_a 26.2885
_cell_length_b 26.2885
_cell_length_c 7.0608
_cell_angle_alpha 90
_cell_angle_beta 90
_cell_angle_gamma 120
_space_group_name_H-M_alt 'P 1'
_space_group_name_Hall 'P 1'
loop_
    _symmetry_equiv_pos_as_xyz
    x,y,z
loop_
    _atom_site_label
    _atom_site_type_symbol
    _atom_site_fract_x
    _atom_site_fract_y
    _atom_site_fract_z
    _atom_site_occupancy
    Mn1      Mn       0.95090    0.63460    0.02200    1.000
    C1       C        0.01560    0.59280    0.75900    1.000
    C2       C        0.00690    0.54570    0.89000    1.000
    C3       C        0.98790    0.54210    0.08700    1.000
    C4       C        0.98330    0.49500    0.19000    1.000
    H1       H        0.97257    0.49750    0.33724    1.000
    O1       O        0.02860    0.59240    0.58600    1.000
    O2       O        0.00450    0.63460    0.80100    1.000
    O3       O        0.97730    0.58340    0.13900    1.000
    Mn2      Mn       0.61757    0.96793    0.35533    1.000
    C5       C        0.68227    0.92613    0.09233    1.000
    C6       C        0.67357    0.87903    0.22333    1.000
    C7       C        0.65457    0.87543    0.42033    1.000
    C8       C        0.64997    0.82833    0.52333    1.000
    H2       H        0.63924    0.83083    0.67057    1.000
    O4       O        0.69527    0.92573    0.91933    1.000
    O5       O        0.67117    0.96793    0.13433    1.000
    O6       O        0.64397    0.91673    0.47233    1.000
    Mn3      Mn       0.28423    0.30127    0.68867    1.000
    C9       C        0.34893    0.25947    0.42567    1.000
    C10      C        0.34023    0.21237    0.55667    1.000
    C11      C        0.32123    0.20877    0.75367    1.000
    C12      C        0.31663    0.16167    0.85667    1.000
    H3       H        0.30590    0.16417    0.00391    1.000
    O7       O        0.36193    0.25907    0.25267    1.000
    O8       O        0.33783    0.30127    0.46767    1.000
    O9       O        0.31063    0.25007    0.80567    1.000
    Mn4      Mn       0.36540    0.31630    0.02200    1.000
    C13      C        0.40720    0.42280    0.75900    1.000
    C14      C        0.45430    0.46120    0.89000    1.000
    C15      C        0.45790    0.44580    0.08700    1.000
    C16      C        0.50500    0.48830    0.19000    1.000
    H4       H        0.50250    0.47507    0.33724    1.000
    O10      O        0.40760    0.43620    0.58600    1.000
    O11      O        0.36540    0.36990    0.80100    1.000
    O12      O        0.41660    0.39390    0.13900    1.000
    Mn5      Mn       0.03207    0.64963    0.35533    1.000
    C17      C        0.07387    0.75613    0.09233    1.000
    C18      C        0.12097    0.79453    0.22333    1.000
    C19      C        0.12457    0.77913    0.42033    1.000
    C20      C        0.17167    0.82163    0.52333    1.000
    H5       H        0.16917    0.80840    0.67057    1.000
    O13      O        0.07427    0.76953    0.91933    1.000
    O14      O        0.03207    0.70323    0.13433    1.000
    O15      O        0.08327    0.72723    0.47233    1.000
    Mn6      Mn       0.69873    0.98297    0.68867    1.000
    C21      C        0.74053    0.08947    0.42567    1.000
    C22      C        0.78763    0.12787    0.55667    1.000
    C23      C        0.79123    0.11247    0.75367    1.000
    C24      C        0.83833    0.15497    0.85667    1.000
    H6       H        0.83583    0.14174    0.00391    1.000
    O16      O        0.74093    0.10287    0.25267    1.000
    O17      O        0.69873    0.03657    0.46767    1.000
    O18      O        0.74993    0.06057    0.80567    1.000
    Mn7      Mn       0.68370    0.04910    0.02200    1.000
    C25      C        0.57720    0.98440    0.75900    1.000
    C26      C        0.53880    0.99310    0.89000    1.000
    C27      C        0.55420    0.01210    0.08700    1.000
    C28      C        0.51170    0.01670    0.19000    1.000
    H7       H        0.52493    0.02743    0.33724    1.000
    O19      O        0.56380    0.97140    0.58600    1.000
    O20      O        0.63010    0.99550    0.80100    1.000
    O21      O        0.60610    0.02270    0.13900    1.000
    Mn8      Mn       0.35037    0.38243    0.35533    1.000
    C29      C        0.24387    0.31773    0.09233    1.000
    C30      C        0.20547    0.32643    0.22333    1.000
    C31      C        0.22087    0.34543    0.42033    1.000
    C32      C        0.17837    0.35003    0.52333    1.000
    H8       H        0.19160    0.36076    0.67057    1.000
    O22      O        0.23047    0.30473    0.91933    1.000
    O23      O        0.29677    0.32883    0.13433    1.000
    O24      O        0.27277    0.35603    0.47233    1.000
    Mn9      Mn       0.01703    0.71577    0.68867    1.000
    C33      C        0.91053    0.65107    0.42567    1.000
    C34      C        0.87213    0.65977    0.55667    1.000
    C35      C        0.88753    0.67877    0.75367    1.000
    C36      C        0.84503    0.68337    0.85667    1.000
    H9       H        0.85826    0.69410    0.00391    1.000
    O25      O        0.89713    0.63807    0.25267    1.000
    O26      O        0.96343    0.66217    0.46767    1.000
    O27      O        0.93943    0.68937    0.80567    1.000
    Mn10     Mn       0.04910    0.36540    0.97800    1.000
    C37      C        0.98440    0.40720    0.24100    1.000
    C38      C        0.99310    0.45430    0.11000    1.000
    C39      C        0.01210    0.45790    0.91300    1.000
    C40      C        0.01670    0.50500    0.81000    1.000
    H10      H        0.02743    0.50250    0.66276    1.000
    O28      O        0.97140    0.40760    0.41400    1.000
    O29      O        0.99550    0.36540    0.19900    1.000
    O30      O        0.02270    0.41660    0.86100    1.000
    Mn11     Mn       0.71577    0.69873    0.31133    1.000
    C41      C        0.65107    0.74053    0.57433    1.000
    C42      C        0.65977    0.78763    0.44333    1.000
    C43      C        0.67877    0.79123    0.24633    1.000
    C44      C        0.68337    0.83833    0.14333    1.000
    H11      H        0.69410    0.83583    0.99609    1.000
    O31      O        0.63807    0.74093    0.74733    1.000
    O32      O        0.66217    0.69873    0.53233    1.000
    O33      O        0.68937    0.74993    0.19433    1.000
    Mn12     Mn       0.38243    0.03207    0.64467    1.000
    C45      C        0.31773    0.07387    0.90767    1.000
    C46      C        0.32643    0.12097    0.77667    1.000
    C47      C        0.34543    0.12457    0.57967    1.000
    C48      C        0.35003    0.17167    0.47667    1.000
    H12      H        0.36076    0.16917    0.32943    1.000
    O34      O        0.30473    0.07427    0.08067    1.000
    O35      O        0.32883    0.03207    0.86567    1.000
    O36      O        0.35603    0.08327    0.52767    1.000
    Mn13     Mn       0.63460    0.68370    0.97800    1.000
    C49      C        0.59280    0.57720    0.24100    1.000
    C50      C        0.54570    0.53880    0.11000    1.000
    C51      C        0.54210    0.55420    0.91300    1.000
    C52      C        0.49500    0.51170    0.81000    1.000
    H13      H        0.49750    0.52493    0.66276    1.000
    O37      O        0.59240    0.56380    0.41400    1.000
    O38      O        0.63460    0.63010    0.19900    1.000
    O39      O        0.58340    0.60610    0.86100    1.000
    Mn14     Mn       0.30127    0.01703    0.31133    1.000
    C53      C        0.25947    0.91053    0.57433    1.000
    C54      C        0.21237    0.87213    0.44333    1.000
    C55      C        0.20877    0.88753    0.24633    1.000
    C56      C        0.16167    0.84503    0.14333    1.000
    H14      H        0.16417    0.85826    0.99609    1.000
    O40      O        0.25907    0.89713    0.74733    1.000
    O41      O        0.30127    0.96343    0.53233    1.000
    O42      O        0.25007    0.93943    0.19433    1.000
    Mn15     Mn       0.96793    0.35037    0.64467    1.000
    C57      C        0.92613    0.24387    0.90767    1.000
    C58      C        0.87903    0.20547    0.77667    1.000
    C59      C        0.87543    0.22087    0.57967    1.000
    C60      C        0.82833    0.17837    0.47667    1.000
    H15      H        0.83083    0.19160    0.32943    1.000
    O43      O        0.92573    0.23047    0.08067    1.000
    O44      O        0.96793    0.29677    0.86567    1.000
    O45      O        0.91673    0.27277    0.52767    1.000
    Mn16     Mn       0.31630    0.95090    0.97800    1.000
    C61      C        0.42280    0.01560    0.24100    1.000
    C62      C        0.46120    0.00690    0.11000    1.000
    C63      C        0.44580    0.98790    0.91300    1.000
    C64      C        0.48830    0.98330    0.81000    1.000
    H16      H        0.47507    0.97257    0.66276    1.000
    O46      O        0.43620    0.02860    0.41400    1.000
    O47      O        0.36990    0.00450    0.19900    1.000
    O48      O        0.39390    0.97730    0.86100    1.000
    Mn17     Mn       0.98297    0.28423    0.31133    1.000
    C65      C        0.08947    0.34893    0.57433    1.000
    C66      C        0.12787    0.34023    0.44333    1.000
    C67      C        0.11247    0.32123    0.24633    1.000
    C68      C        0.15497    0.31663    0.14333    1.000
    H17      H        0.14174    0.30590    0.99609    1.000
    O49      O        0.10287    0.36193    0.74733    1.000
    O50      O        0.03657    0.33783    0.53233    1.000
    O51      O        0.06057    0.31063    0.19433    1.000
    Mn18     Mn       0.64963    0.61757    0.64467    1.000
    C69      C        0.75613    0.68227    0.90767    1.000
    C70      C        0.79453    0.67357    0.77667    1.000
    C71      C        0.77913    0.65457    0.57967    1.000
    C72      C        0.82163    0.64997    0.47667    1.000
    H18      H        0.80840    0.63924    0.32943    1.000
    O52      O        0.76953    0.69527    0.08067    1.000
    O53      O        0.70323    0.67117    0.86567    1.000
    O54      O        0.72723    0.64397    0.52767    1.000
