data_functionalizedCrystal
_audit_creation_method	'EQeq! by Chris Wilmer'
_symmetry_space_group_name_H-M	'P1'
_symmetry_Int_Tables_number	1
_symmetry_cell_setting	triclinic
loop_
_symmetry_equiv_pos_as_xyz
  x,y,z
_cell_length_a	7.028
_cell_length_b	7.01
_cell_length_c	6.725
_cell_angle_alpha	90
_cell_angle_beta	90
_cell_angle_gamma	90
loop_
_atom_site_label
_atom_site_type_symbol
_atom_site_fract_x
_atom_site_fract_y
_atom_site_fract_z
_atom_site_charge
Mof_Ni	Ni	0.5	0.5	-0	1.054
Mof_Fe	Fe	-0	0	-0	0.589
Mof_N 	N 	0.8049	0.1969	-0	-0.105
Mof_C 	C 	0.6865	0.3104	-0	-0.228
Mof_N 	N 	0.1951	0.8031	-0	-0.119
Mof_C 	C 	0.3135	0.6896	-0	-0.235
Mof_N 	N 	0.1951	0.1969	-0	-0.135
Mof_C 	C 	0.3135	0.3104	-0	-0.245
Mof_N 	N 	0.8049	0.8031	-0	-0.091
Mof_C 	C 	0.6865	0.6896	-0	-0.219
Mof_N 	N 	2.53618e-33	-4.76199e-33	0.7069	-0.174
Mof_N 	N 	1.05157e-33	-2.38099e-33	0.2931	-0.196
Mof_C 	C 	2.16054e-33	0.1636	0.6022	-0.004
Mof_H 	H 	7.16973e-33	0.2818	0.6711	0.025
Mof_C 	C 	2.16054e-33	0.8364	0.6022	0.025
Mof_H 	H 	2.40774e-33	0.7182	0.6711	0.019
Mof_C 	C 	1.09512e-32	0.1636	0.3978	-0.002
Mof_H 	H 	1.18001e-33	0.2818	0.3289	0.008
Mof_C 	C 	1.57132e-32	0.8364	0.3978	0.031
Mof_H 	H 	1.18001e-33	0.7182	0.3289	0.002
_end
