data_functionalizedCrystal
_audit_creation_method	'EQeq! by Chris Wilmer'
_symmetry_space_group_name_H-M	'P1'
_symmetry_Int_Tables_number	1
_symmetry_cell_setting	triclinic
loop_
_symmetry_equiv_pos_as_xyz
  x,y,z
_cell_length_a	17.995
_cell_length_b	15.57
_cell_length_c	12.36
_cell_angle_alpha	90
_cell_angle_beta	92.6
_cell_angle_gamma	90
loop_
_atom_site_label
_atom_site_type_symbol
_atom_site_fract_x
_atom_site_fract_y
_atom_site_fract_z
_atom_site_charge
Mof_Sn	Sn	0.7249	0.539	0.2997	0.83
Mof_C 	C 	0.7681	0.3583	0.4372	-0.108
Mof_C 	C 	0.6574	0.2509	0.419	-0.103
Mof_C 	C 	0.7922	0.1915	0.3822	-0.109
Mof_C 	C 	0.8013	0.6261	0.3809	-0.171
Mof_C 	C 	0.6176	0.518	0.3634	-0.185
Mof_C 	C 	0.7436	0.4725	0.1527	-0.201
Mof_C 	C 	0.5639	0.3304	0.1389	-0.197
Mof_N 	N 	0.7762	0.4254	0.3964	-0.144
Mof_N 	N 	0.6023	0.2552	0.3686	-0.151
Mof_N 	N 	0.8155	0.1562	0.3091	-0.138
Mof_Sn	Sn	0.2249	0.039	0.2997	0.821
Mof_C 	C 	0.2681	0.8583	0.4372	-0.114
Mof_C 	C 	0.1574	0.7509	0.419	-0.109
Mof_C 	C 	0.2922	0.6915	0.3822	-0.114
Mof_C 	C 	0.3013	0.1261	0.3809	-0.184
Mof_C 	C 	0.1176	0.018	0.3634	-0.198
Mof_C 	C 	0.2436	0.9725	0.1527	-0.206
Mof_C 	C 	0.0639	0.8304	0.1389	-0.201
Mof_N 	N 	0.2762	0.9254	0.3964	-0.147
Mof_N 	N 	0.1023	0.7552	0.3686	-0.151
Mof_N 	N 	0.3155	0.6562	0.3091	-0.142
Mof_Sn	Sn	0.2751	0.539	0.2003	0.818
Mof_C 	C 	0.2319	0.3583	0.0628	-0.118
Mof_C 	C 	0.3426	0.2509	0.081	-0.104
Mof_C 	C 	0.2078	0.1915	0.1178	-0.117
Mof_C 	C 	0.1987	0.6261	0.1191	-0.204
Mof_C 	C 	0.3824	0.518	0.1366	-0.198
Mof_C 	C 	0.2564	0.4725	0.3473	-0.189
Mof_C 	C 	0.4361	0.3304	0.3611	-0.181
Mof_N 	N 	0.2238	0.4254	0.1036	-0.156
Mof_N 	N 	0.3977	0.2552	0.1314	-0.158
Mof_N 	N 	0.1845	0.1562	0.1909	-0.149
Mof_Sn	Sn	0.7751	0.039	0.2003	0.822
Mof_C 	C 	0.7319	0.8583	0.0628	-0.114
Mof_C 	C 	0.8426	0.7509	0.081	-0.099
Mof_C 	C 	0.7078	0.6915	0.1178	-0.112
Mof_C 	C 	0.6987	0.1261	0.1191	-0.201
Mof_C 	C 	0.8824	0.018	0.1366	-0.181
Mof_C 	C 	0.7564	0.9725	0.3473	-0.183
Mof_C 	C 	0.9361	0.8304	0.3611	-0.132
Mof_N 	N 	0.7238	0.9254	0.1036	-0.154
Mof_N 	N 	0.8977	0.7552	0.1314	-0.137
Mof_N 	N 	0.6845	0.6562	0.1909	-0.146
Mof_Sn	Sn	0.2751	0.461	0.7003	0.831
Mof_C 	C 	0.2319	0.6417	0.5628	-0.114
Mof_C 	C 	0.3426	0.7491	0.581	-0.104
Mof_C 	C 	0.2078	0.8085	0.6178	-0.115
Mof_C 	C 	0.1987	0.3739	0.6191	-0.187
Mof_C 	C 	0.3824	0.482	0.6366	-0.179
Mof_C 	C 	0.2564	0.5275	0.8473	-0.17
Mof_C 	C 	0.4361	0.6696	0.8611	-0.166
Mof_N 	N 	0.2238	0.5746	0.6036	-0.148
Mof_N 	N 	0.3977	0.7448	0.6314	-0.152
Mof_N 	N 	0.1845	0.8438	0.6909	-0.142
Mof_Sn	Sn	0.7751	0.961	0.7003	0.832
Mof_C 	C 	0.7319	0.1417	0.5628	-0.11
Mof_C 	C 	0.8426	0.2491	0.581	-0.099
Mof_C 	C 	0.7078	0.3085	0.6178	-0.11
Mof_C 	C 	0.6987	0.8739	0.6191	-0.182
Mof_C 	C 	0.8824	0.982	0.6366	-0.162
Mof_C 	C 	0.7564	0.0275	0.8473	-0.162
Mof_C 	C 	0.9361	0.1696	0.8611	-0.117
Mof_N 	N 	0.7238	0.0746	0.6036	-0.146
Mof_N 	N 	0.8977	0.2448	0.6314	-0.131
Mof_N 	N 	0.6845	0.3438	0.6909	-0.139
Mof_Sn	Sn	0.7249	0.461	0.7997	0.843
Mof_C 	C 	0.7681	0.6417	0.9372	-0.058
Mof_C 	C 	0.6574	0.7491	0.919	-0.059
Mof_C 	C 	0.7922	0.8085	0.8822	-0.062
Mof_C 	C 	0.8013	0.3739	0.8809	-0.154
Mof_C 	C 	0.6176	0.482	0.8634	-0.167
Mof_C 	C 	0.7436	0.5275	0.6527	-0.181
Mof_C 	C 	0.5639	0.6696	0.6389	-0.182
Mof_N 	N 	0.7762	0.5746	0.8964	-0.149
Mof_N 	N 	0.6023	0.7448	0.8686	-0.159
Mof_N 	N 	0.8155	0.8438	0.8091	-0.144
Mof_Sn	Sn	0.2249	0.961	0.7997	0.832
Mof_C 	C 	0.2681	0.1417	0.9372	-0.061
Mof_C 	C 	0.1574	0.2491	0.919	-0.06
Mof_C 	C 	0.2922	0.3085	0.8822	-0.064
Mof_C 	C 	0.3013	0.8739	0.8809	-0.168
Mof_C 	C 	0.1176	0.982	0.8634	-0.182
Mof_C 	C 	0.2436	0.0275	0.6527	-0.186
Mof_C 	C 	0.0639	0.1696	0.6389	-0.187
Mof_N 	N 	0.2762	0.0746	0.8964	-0.151
Mof_N 	N 	0.1023	0.2448	0.8686	-0.158
Mof_N 	N 	0.3155	0.3438	0.8091	-0.148
Mof_Sn	Sn	0.5	0.2594	0.25	0.812
Mof_C 	C 	0.5	0.1172	0.25	-0.18
Mof_Sn	Sn	6.73032e-34	0.7594	0.25	0.731
Mof_C 	C 	-1.02695e-18	0.6172	0.25	-0.195
Mof_Sn	Sn	0.5	0.7406	0.75	0.822
Mof_C 	C 	0.5	0.8828	0.75	-0.167
Mof_Sn	Sn	2.01909e-33	0.2406	0.75	0.741
Mof_C 	C 	2.01909e-33	0.3828	0.75	-0.182
Mof_Fe	Fe	0.75	0.25	0.5	0.704
Mof_Fe	Fe	0.25	0.25	-0	0.598
Mof_Fe	Fe	0.25	0.75	0.5	0.704
Mof_Fe	Fe	0.75	0.75	-0	0.604
_end
