data_functionalizedCrystal
_audit_creation_method	'EQeq! by Chris Wilmer'
_symmetry_space_group_name_H-M	'P1'
_symmetry_Int_Tables_number	1
_symmetry_cell_setting	triclinic
loop_
_symmetry_equiv_pos_as_xyz
  x,y,z
_cell_length_a	10.1353
_cell_length_b	17.3501
_cell_length_c	11.3594
_cell_angle_alpha	90
_cell_angle_beta	109.798
_cell_angle_gamma	90
loop_
_atom_site_label
_atom_site_type_symbol
_atom_site_fract_x
_atom_site_fract_y
_atom_site_fract_z
_atom_site_charge
Mof_Dy	Dy	0.00801	0.49312	0.68018	2.224
Mof_O 	O 	0.2276	0.51499	0.6552	-0.498
Mof_O 	O 	0.8559	0.58307	0.7246	-0.328
Mof_O 	O 	0.2092	0.54737	0.4585	-0.512
Mof_O 	O 	0.911	0.43243	0.8168	-0.321
Mof_N 	N 	0.2308	0.5304	0.9083	0.066
Mof_O 	O 	0.0599	0.13947	0.1583	-0.453
Mof_O 	O 	0.145	0.58142	0.8435	-0.292
Mof_O 	O 	0.027	0.08401	0.9763	-0.579
Mof_N 	N 	0.717	0.57514	0.69	-0.043
Mof_O 	O 	0.3346	0.54783	0.9955	-0.106
Mof_N 	N 	0.9459	0.3634	0.8694	-0.06
Mof_C 	C 	0.6349	0.6016	0.576	0.012
Mof_H 	H 	0.6748	0.6266	0.5239	0.041
Mof_C 	C 	0.0374	0.1435	0.0424	0.384
Mof_C 	C 	0.5183	0.5319	0.7347	-0.01
Mof_H 	H 	0.4801	0.5097	0.7904	0.076
Mof_C 	C 	0.4925	0.5909	0.5386	-0.011
Mof_H 	H 	0.4364	0.6079	0.4599	0.055
Mof_C 	C 	0.9368	0.2282	0.8528	-0.049
Mof_H 	H 	0.9098	0.1842	0.8036	0.058
Mof_C 	C 	0.4303	0.5551	0.6164	-0.099
Mof_C 	C 	0.2764	0.5379	0.5741	0.469
Mof_O 	O 	0.2011	0.46079	0.8769	-0.267
Mof_C 	C 	0.6607	0.5418	0.769	0.011
Mof_H 	H 	0.7187	0.5253	0.8473	0.072
Mof_C 	C 	0.0102	0.2212	0.9801	-0.03
Mof_C 	C 	0.0193	0.3588	0.9928	0.103
Mof_H 	H 	0.0488	0.4036	0.0391	0.024
Mof_C 	C 	0.0509	0.2882	0.0505	-0.097
Mof_H 	H 	0.0991	0.2852	0.1361	0.094
Mof_C 	C 	0.9042	0.2991	0.7998	0.045
Mof_H 	H 	0.8528	0.3034	0.715	0.039
Mof_Dy	Dy	0.99199	0.99312	0.81982	2.162
Mof_O 	O 	0.7724	0.01499	0.8448	-0.488
Mof_O 	O 	0.1441	0.08307	0.7754	-0.322
Mof_O 	O 	0.7908	0.04737	0.0415	-0.503
Mof_O 	O 	0.089	0.93243	0.6832	-0.312
Mof_N 	N 	0.7692	0.0304	0.5917	0.069
Mof_O 	O 	0.9401	0.63947	0.3417	-0.465
Mof_O 	O 	0.855	0.08142	0.6565	-0.288
Mof_O 	O 	0.973	0.58401	0.5237	-0.609
Mof_N 	N 	0.283	0.07514	0.81	-0.043
Mof_O 	O 	0.6654	0.04783	0.5045	-0.105
Mof_N 	N 	0.0541	0.8634	0.6306	-0.037
Mof_C 	C 	0.3651	0.1016	0.924	0.009
Mof_H 	H 	0.3252	0.1266	0.9761	0.044
Mof_C 	C 	0.9626	0.6435	0.4576	0.434
Mof_C 	C 	0.4817	0.0319	0.7653	-0.01
Mof_H 	H 	0.5199	0.0097	0.7096	0.077
Mof_C 	C 	0.5075	0.0909	0.9614	-0.005
Mof_H 	H 	0.5636	0.1079	0.0401	0.05
Mof_C 	C 	0.0632	0.7282	0.6472	0.007
Mof_H 	H 	0.0902	0.6842	0.6964	0.038
Mof_C 	C 	0.5697	0.0551	0.8836	-0.099
Mof_C 	C 	0.7236	0.0379	0.9259	0.464
Mof_O 	O 	0.7989	0.96079	0.6231	-0.269
Mof_C 	C 	0.3393	0.0418	0.731	0.012
Mof_H 	H 	0.2813	0.0253	0.6527	0.072
Mof_C 	C 	0.9898	0.7212	0.5199	-0.101
Mof_C 	C 	0.9807	0.8588	0.5072	0.028
Mof_H 	H 	0.9512	0.9036	0.4609	0.055
Mof_C 	C 	0.9491	0.7882	0.4495	-0.013
Mof_H 	H 	0.9009	0.7852	0.3639	0.067
Mof_C 	C 	0.0958	0.7991	0.7002	0.014
Mof_H 	H 	0.1472	0.8034	0.785	0.051
Mof_Dy	Dy	0.99199	0.50688	0.31982	2.223
Mof_O 	O 	0.7724	0.48501	0.3448	-0.499
Mof_O 	O 	0.1441	0.41693	0.2754	-0.329
Mof_O 	O 	0.7908	0.45263	0.5415	-0.513
Mof_O 	O 	0.089	0.56757	0.1832	-0.321
Mof_N 	N 	0.7692	0.4696	0.0917	0.066
Mof_O 	O 	0.9401	0.86053	0.8417	-0.453
Mof_O 	O 	0.855	0.41858	0.1565	-0.292
Mof_O 	O 	0.973	0.91599	0.0237	-0.579
Mof_N 	N 	0.283	0.42486	0.31	-0.043
Mof_O 	O 	0.6654	0.45217	0.0045	-0.106
Mof_N 	N 	0.0541	0.6366	0.1306	-0.06
Mof_C 	C 	0.3651	0.3984	0.424	0.012
Mof_H 	H 	0.3252	0.3734	0.4761	0.041
Mof_C 	C 	0.9626	0.8565	0.9576	0.384
Mof_C 	C 	0.4817	0.4681	0.2653	-0.01
Mof_H 	H 	0.5199	0.4903	0.2096	0.076
Mof_C 	C 	0.5075	0.4091	0.4614	-0.011
Mof_H 	H 	0.5636	0.3921	0.5401	0.055
Mof_C 	C 	0.0632	0.7718	0.1472	-0.049
Mof_H 	H 	0.0902	0.8158	0.1964	0.058
Mof_C 	C 	0.5697	0.4449	0.3836	-0.099
Mof_C 	C 	0.7236	0.4621	0.4259	0.469
Mof_O 	O 	0.7989	0.53921	0.1231	-0.267
Mof_C 	C 	0.3393	0.4582	0.231	0.011
Mof_H 	H 	0.2813	0.4747	0.1527	0.072
Mof_C 	C 	0.9898	0.7788	0.0199	-0.03
Mof_C 	C 	0.9807	0.6412	0.0072	0.103
Mof_H 	H 	0.9512	0.5964	0.9609	0.024
Mof_C 	C 	0.9491	0.7118	0.9495	-0.097
Mof_H 	H 	0.9009	0.7148	0.8639	0.094
Mof_C 	C 	0.0958	0.7009	0.2002	0.045
Mof_H 	H 	0.1472	0.6966	0.285	0.039
Mof_Dy	Dy	0.00801	0.00688	0.18018	2.162
Mof_O 	O 	0.2276	0.98501	0.1552	-0.488
Mof_O 	O 	0.8559	0.91693	0.2246	-0.322
Mof_O 	O 	0.2092	0.95263	0.9585	-0.503
Mof_O 	O 	0.911	0.06757	0.3168	-0.312
Mof_N 	N 	0.2308	0.9696	0.4083	0.069
Mof_O 	O 	0.0599	0.36053	0.6583	-0.465
Mof_O 	O 	0.145	0.91858	0.3435	-0.288
Mof_O 	O 	0.027	0.41599	0.4763	-0.609
Mof_N 	N 	0.717	0.92486	0.19	-0.043
Mof_O 	O 	0.3346	0.95217	0.4955	-0.105
Mof_N 	N 	0.9459	0.1366	0.3694	-0.037
Mof_C 	C 	0.6349	0.8984	0.076	0.009
Mof_H 	H 	0.6748	0.8734	0.0239	0.044
Mof_C 	C 	0.0374	0.3565	0.5424	0.434
Mof_C 	C 	0.5183	0.9681	0.2347	-0.01
Mof_H 	H 	0.4801	0.9903	0.2904	0.077
Mof_C 	C 	0.4925	0.9091	0.0386	-0.005
Mof_H 	H 	0.4364	0.8921	0.9599	0.05
Mof_C 	C 	0.9368	0.2718	0.3528	0.007
Mof_H 	H 	0.9098	0.3158	0.3036	0.038
Mof_C 	C 	0.4303	0.9449	0.1164	-0.099
Mof_C 	C 	0.2764	0.9621	0.0741	0.464
Mof_O 	O 	0.2011	0.03921	0.3769	-0.269
Mof_C 	C 	0.6607	0.9582	0.269	0.012
Mof_H 	H 	0.7187	0.9747	0.3473	0.072
Mof_C 	C 	0.0102	0.2788	0.4801	-0.101
Mof_C 	C 	0.0193	0.1412	0.4928	0.028
Mof_H 	H 	0.0488	0.0964	0.5391	0.055
Mof_C 	C 	0.0509	0.2118	0.5505	-0.013
Mof_H 	H 	0.0991	0.2148	0.6361	0.067
Mof_C 	C 	0.9042	0.2009	0.2998	0.014
Mof_H 	H 	0.8528	0.1966	0.215	0.051
_end
