data_functionalizedCrystal
_audit_creation_method	'EQeq! by Chris Wilmer'
_symmetry_space_group_name_H-M	'P1'
_symmetry_Int_Tables_number	1
_symmetry_cell_setting	triclinic
loop_
_symmetry_equiv_pos_as_xyz
  x,y,z
_cell_length_a	9.8383
_cell_length_b	13.1984
_cell_length_c	11.3829
_cell_angle_alpha	90
_cell_angle_beta	101.437
_cell_angle_gamma	90
loop_
_atom_site_label
_atom_site_type_symbol
_atom_site_fract_x
_atom_site_fract_y
_atom_site_fract_z
_atom_site_charge
Mof_Cd	Cd	0.25809	0.99503	0.49313	0.473
Mof_O 	O 	0.4182	0.881	0.5861	-0.282
Mof_O 	O 	0.6203	0.9599	0.6549	-0.271
Mof_N 	N 	0.6658	0.6324	0.8816	-0.135
Mof_C 	C 	0.537	0.8876	0.6496	0.293
Mof_C 	C 	0.5821	0.7977	0.7316	-0.022
Mof_C 	C 	0.5584	0.6994	0.6902	-0.072
Mof_H 	H 	0.5125	0.6869	0.6099	0.065
Mof_C 	C 	0.6484	0.8116	0.8511	-0.071
Mof_H 	H 	0.6667	0.8779	0.8827	0.066
Mof_C 	C 	0.6027	0.6192	0.7674	0.052
Mof_H 	H 	0.5875	0.552	0.7378	0.028
Mof_C 	C 	0.6869	0.7278	0.9224	0.045
Mof_H 	H 	0.7302	0.738	0.0038	0.031
Mof_O 	O 	0.0989	0.1033	0.3895	-0.273
Mof_O 	O 	0.8819	0.0429	0.3706	-0.275
Mof_C 	C 	0.9706	0.1052	0.3497	0.297
Mof_C 	C 	0.9188	0.192	0.2657	-0.021
Mof_C 	C 	0.0112	0.2525	0.219	-0.059
Mof_H 	H 	0.1079	0.2389	0.2376	0.072
Mof_C 	C 	0.7786	0.2144	0.2347	-0.071
Mof_H 	H 	0.7124	0.1737	0.2632	0.077
Mof_C 	C 	0.9603	0.3327	0.1452	0.042
Mof_H 	H 	0.0236	0.373	0.1123	0.045
Mof_C 	C 	0.7366	0.2967	0.1619	0.056
Mof_H 	H 	0.6405	0.3122	0.142	0.035
Mof_N 	N 	0.8248	0.3556	0.1181	-0.13
Mof_Cd	Cd	0.74191	0.49503	0.00687	0.476
Mof_O 	O 	0.5818	0.381	0.9139	-0.281
Mof_O 	O 	0.3797	0.4599	0.8451	-0.271
Mof_N 	N 	0.3342	0.1324	0.6184	-0.133
Mof_C 	C 	0.463	0.3876	0.8504	0.294
Mof_C 	C 	0.4179	0.2977	0.7684	-0.023
Mof_C 	C 	0.4416	0.1994	0.8098	-0.071
Mof_H 	H 	0.4875	0.1869	0.8901	0.065
Mof_C 	C 	0.3516	0.3116	0.6489	-0.071
Mof_H 	H 	0.3333	0.3779	0.6173	0.066
Mof_C 	C 	0.3973	0.1192	0.7326	0.052
Mof_H 	H 	0.4125	0.052	0.7622	0.028
Mof_C 	C 	0.3131	0.2278	0.5776	0.044
Mof_H 	H 	0.2698	0.238	0.4962	0.032
Mof_O 	O 	0.9011	0.6033	0.1105	-0.276
Mof_O 	O 	0.1181	0.5429	0.1294	-0.275
Mof_C 	C 	0.0294	0.6052	0.1503	0.3
Mof_C 	C 	0.0812	0.692	0.2343	-0.02
Mof_C 	C 	0.9888	0.7525	0.281	-0.06
Mof_H 	H 	0.8921	0.7389	0.2624	0.072
Mof_C 	C 	0.2214	0.7144	0.2653	-0.071
Mof_H 	H 	0.2876	0.6737	0.2368	0.077
Mof_C 	C 	0.0397	0.8327	0.3548	0.042
Mof_H 	H 	0.9764	0.873	0.3877	0.046
Mof_C 	C 	0.2634	0.7967	0.3381	0.056
Mof_H 	H 	0.3595	0.8122	0.358	0.035
Mof_N 	N 	0.1752	0.8556	0.3819	-0.13
Mof_Cd	Cd	0.74191	0.00497	0.50687	0.474
Mof_O 	O 	0.5818	0.119	0.4139	-0.281
Mof_O 	O 	0.3797	0.0401	0.3451	-0.27
Mof_N 	N 	0.3342	0.3676	0.1184	-0.134
Mof_C 	C 	0.463	0.1124	0.3504	0.293
Mof_C 	C 	0.4179	0.2023	0.2684	-0.022
Mof_C 	C 	0.4416	0.3006	0.3098	-0.072
Mof_H 	H 	0.4875	0.3131	0.3901	0.065
Mof_C 	C 	0.3516	0.1884	0.1489	-0.071
Mof_H 	H 	0.3333	0.1221	0.1173	0.066
Mof_C 	C 	0.3973	0.3808	0.2326	0.052
Mof_H 	H 	0.4125	0.448	0.2622	0.028
Mof_C 	C 	0.3131	0.2722	0.0776	0.045
Mof_H 	H 	0.2698	0.262	0.9962	0.031
Mof_O 	O 	0.9011	0.8967	0.6105	-0.273
Mof_O 	O 	0.1181	0.9571	0.6294	-0.275
Mof_C 	C 	0.0294	0.8948	0.6503	0.297
Mof_C 	C 	0.0812	0.808	0.7343	-0.021
Mof_C 	C 	0.9888	0.7475	0.781	-0.059
Mof_H 	H 	0.8921	0.7611	0.7624	0.072
Mof_C 	C 	0.2214	0.7856	0.7653	-0.071
Mof_H 	H 	0.2876	0.8263	0.7368	0.077
Mof_C 	C 	0.0397	0.6673	0.8548	0.042
Mof_H 	H 	0.9764	0.627	0.8877	0.045
Mof_C 	C 	0.2634	0.7033	0.8381	0.056
Mof_H 	H 	0.3595	0.6878	0.858	0.035
Mof_N 	N 	0.1752	0.6444	0.8819	-0.13
Mof_Cd	Cd	0.25809	0.50497	0.99313	0.476
Mof_O 	O 	0.4182	0.619	0.0861	-0.281
Mof_O 	O 	0.6203	0.5401	0.1549	-0.271
Mof_N 	N 	0.6658	0.8676	0.3816	-0.133
Mof_C 	C 	0.537	0.6124	0.1496	0.294
Mof_C 	C 	0.5821	0.7023	0.2316	-0.023
Mof_C 	C 	0.5584	0.8006	0.1902	-0.071
Mof_H 	H 	0.5125	0.8131	0.1099	0.065
Mof_C 	C 	0.6484	0.6884	0.3511	-0.071
Mof_H 	H 	0.6667	0.6221	0.3827	0.066
Mof_C 	C 	0.6027	0.8808	0.2674	0.052
Mof_H 	H 	0.5875	0.948	0.2378	0.028
Mof_C 	C 	0.6869	0.7722	0.4224	0.044
Mof_H 	H 	0.7302	0.762	0.5038	0.032
Mof_O 	O 	0.0989	0.3967	0.8895	-0.276
Mof_O 	O 	0.8819	0.4571	0.8706	-0.275
Mof_C 	C 	0.9706	0.3948	0.8497	0.3
Mof_C 	C 	0.9188	0.308	0.7657	-0.02
Mof_C 	C 	0.0112	0.2475	0.719	-0.06
Mof_H 	H 	0.1079	0.2611	0.7376	0.072
Mof_C 	C 	0.7786	0.2856	0.7347	-0.071
Mof_H 	H 	0.7124	0.3263	0.7632	0.077
Mof_C 	C 	0.9603	0.1673	0.6452	0.042
Mof_H 	H 	0.0236	0.127	0.6123	0.046
Mof_C 	C 	0.7366	0.2033	0.6619	0.056
Mof_H 	H 	0.6405	0.1878	0.642	0.035
Mof_N 	N 	0.8248	0.1444	0.6181	-0.13
_end
