data_functionalizedCrystal
_audit_creation_method	'EQeq! by Chris Wilmer'
_symmetry_space_group_name_H-M	'P1'
_symmetry_Int_Tables_number	1
_symmetry_cell_setting	triclinic
loop_
_symmetry_equiv_pos_as_xyz
  x,y,z
_cell_length_a	3.6769
_cell_length_b	8.2042
_cell_length_c	26.292
_cell_angle_alpha	90
_cell_angle_beta	92.924
_cell_angle_gamma	90
loop_
_atom_site_label
_atom_site_type_symbol
_atom_site_fract_x
_atom_site_fract_y
_atom_site_fract_z
_atom_site_charge
Mof_K 	K 	0.93767	0.27204	0.77711	2.391
Mof_K 	K 	0.06233	0.77204	0.72289	2.384
Mof_K 	K 	0.06233	0.72796	0.22289	2.391
Mof_K 	K 	0.93767	0.22796	0.27711	2.384
Mof_H 	H 	0.501	0.546	0.8252	0.365
Mof_H 	H 	0.472	0.461	0.868	0.45
Mof_H 	H 	0.4648	0.6625	0.6208	-0.17
Mof_H 	H 	0.0862	0.2032	0.6137	-0.11
Mof_H 	H 	0.8894	0.249	0.5293	0.078
Mof_H 	H 	0.499	0.046	0.6748	0.367
Mof_H 	H 	0.528	0.961	0.632	0.449
Mof_H 	H 	0.5352	0.1625	0.8792	-0.169
Mof_H 	H 	0.9138	0.7032	0.8863	-0.111
Mof_H 	H 	0.1106	0.749	0.9707	0.078
Mof_H 	H 	0.499	0.454	0.1748	0.365
Mof_H 	H 	0.528	0.539	0.132	0.45
Mof_H 	H 	0.5352	0.3375	0.3792	-0.17
Mof_H 	H 	0.9138	0.7968	0.3863	-0.11
Mof_H 	H 	0.1106	0.751	0.4707	0.078
Mof_H 	H 	0.501	0.954	0.3252	0.367
Mof_H 	H 	0.472	0.039	0.368	0.449
Mof_H 	H 	0.4648	0.8375	0.1208	-0.169
Mof_H 	H 	0.0862	0.2968	0.1137	-0.111
Mof_H 	H 	0.8894	0.251	0.0293	0.078
Mof_C 	C 	0.065	0.4832	0.5269	0.091
Mof_C 	C 	0.3473	0.5766	0.60212	0.173
Mof_C 	C 	0.3019	0.4296	0.62636	-0.347
Mof_C 	C 	0.1256	0.3062	0.59838	0.193
Mof_C 	C 	0.0084	0.3331	0.54857	-0.224
Mof_C 	C 	0.4418	0.404	0.68102	0.507
Mof_C 	C 	0.935	0.9832	0.9731	0.092
Mof_C 	C 	0.6527	0.0766	0.89788	0.171
Mof_C 	C 	0.6981	0.9296	0.87364	-0.347
Mof_C 	C 	0.8744	0.8062	0.90162	0.194
Mof_C 	C 	0.9916	0.8331	0.95143	-0.224
Mof_C 	C 	0.5582	0.904	0.81898	0.503
Mof_C 	C 	0.935	0.5168	0.4731	0.091
Mof_C 	C 	0.6527	0.4234	0.39788	0.173
Mof_C 	C 	0.6981	0.5704	0.37364	-0.347
Mof_C 	C 	0.8744	0.6938	0.40162	0.193
Mof_C 	C 	0.9916	0.6669	0.45143	-0.224
Mof_C 	C 	0.5582	0.596	0.31898	0.507
Mof_C 	C 	0.065	0.0168	0.0269	0.092
Mof_C 	C 	0.3473	0.9234	0.10212	0.171
Mof_C 	C 	0.3019	0.0704	0.12636	-0.347
Mof_C 	C 	0.1256	0.1938	0.09838	0.194
Mof_C 	C 	0.0084	0.1669	0.04857	-0.224
Mof_C 	C 	0.4418	0.096	0.18102	0.503
Mof_N 	N 	0.2341	0.6053	0.55333	-0.192
Mof_N 	N 	0.7659	0.1053	0.94667	-0.194
Mof_N 	N 	0.7659	0.3947	0.44667	-0.192
Mof_N 	N 	0.2341	0.8947	0.05333	-0.194
Mof_O 	O 	0.4091	0.2632	0.69934	-0.893
Mof_O 	O 	0.5784	0.5238	0.70422	-0.993
Mof_O 	O 	0.4507	0.4534	0.83661	-1.313
Mof_O 	O 	0.5909	0.7632	0.80066	-0.892
Mof_O 	O 	0.4216	0.0238	0.79578	-0.991
Mof_O 	O 	0.5493	0.9534	0.66339	-1.316
Mof_O 	O 	0.5909	0.7368	0.30066	-0.893
Mof_O 	O 	0.4216	0.4762	0.29578	-0.993
Mof_O 	O 	0.5493	0.5466	0.16339	-1.313
Mof_O 	O 	0.4091	0.2368	0.19934	-0.892
Mof_O 	O 	0.5784	0.9762	0.20422	-0.991
Mof_O 	O 	0.4507	0.0466	0.33661	-1.316
_end
