# CIF file generated by openbabel 3.1.0, see https://openbabel.org
data_I
_chemical_name_common 'image0'
_cell_length_a 24.042
_cell_length_b 12.49
_cell_length_c 31.15
_cell_angle_alpha 90
_cell_angle_beta 107.8
_cell_angle_gamma 90
_space_group_name_H-M_alt 'P 1'
_space_group_name_Hall 'P 1'
loop_
    _symmetry_equiv_pos_as_xyz
    x,y,z
loop_
    _atom_site_label
    _atom_site_type_symbol
    _atom_site_fract_x
    _atom_site_fract_y
    _atom_site_fract_z
    _atom_site_occupancy
    Pt1      Pt       0.28217    0.49248    0.39029    1.000
    Cu1      Cu       0.53736    0.80281    0.45702    1.000
    Cu2      Cu       0.59980    0.87048    0.57071    1.000
    N1       N        0.29200    0.53440    0.33030    1.000
    H1       H        0.27060    0.59280    0.31920    1.000
    H2       H        0.32970    0.54880    0.33340    1.000
    N2       N        0.27330    0.34160    0.36430    1.000
    H3       H        0.29970    0.29800    0.38280    1.000
    H4       H        0.23740    0.31650    0.36190    1.000
    N3       N        0.29460    0.64460    0.41430    1.000
    N4       N        0.77570    0.94290    0.45010    1.000
    N5       N        0.52920    0.61240    0.79530    1.000
    H5       H        0.56720    0.62220    0.81050    1.000
    H6       H        0.50870    0.61100    0.81510    1.000
    N6       N        0.46920    0.84570    0.70160    1.000
    O1       O        0.42270    0.93520    0.46740    1.000
    O2       O        0.45140    0.78820    0.43810    1.000
    O3       O        0.62010    0.83550    0.46690    1.000
    O4       O        0.66000    0.84930    0.54210    1.000
    O5       O        0.47760    0.00240    0.56720    1.000
    O6       O        0.54800    0.89440    0.60630    1.000
    O7       O        0.53450    0.85800    0.51520    1.000
    C1       C        0.27130    0.44000    0.29920    1.000
    H7       H        0.22960    0.44680    0.28480    1.000
    H8       H        0.29000    0.44290    0.27560    1.000
    C2       C        0.28210    0.34300    0.31930    1.000
    H9       H        0.32210    0.32210    0.32240    1.000
    H10      H        0.25650    0.29010    0.30020    1.000
    C3       C        0.34410    0.69570    0.42080    1.000
    H11      H        0.37420    0.66160    0.41310    1.000
    C4       C        0.35380    0.79790    0.43850    1.000
    C5       C        0.31010    0.85150    0.44780    1.000
    H12      H        0.31580    0.91990    0.46030    1.000
    C6       C        0.25690    0.80110    0.43820    1.000
    H13      H        0.22520    0.83800    0.44210    1.000
    C7       C        0.24970    0.69880    0.42300    1.000
    H14      H        0.21380    0.66500    0.41850    1.000
    C8       C        0.41420    0.84510    0.44840    1.000
    C9       C        0.72530    0.90590    0.45540    1.000
    H15      H        0.69310    0.89650    0.43000    1.000
    C10      C        0.71980    0.88130    0.49790    1.000
    C11      C        0.76860    0.88970    0.53500    1.000
    H16      H        0.76740    0.87110    0.56360    1.000
    C12      C        0.81920    0.92650    0.52840    1.000
    H17      H        0.85290    0.93410    0.55270    1.000
    C13      C        0.81990    0.95220    0.48540    1.000
    H18      H        0.85460    0.97780    0.48190    1.000
    C14      C        0.66060    0.85290    0.50110    1.000
    C15      C        0.52100    0.50860    0.76890    1.000
    H19      H        0.55710    0.49160    0.76290    1.000
    H20      H        0.51350    0.45190    0.78770    1.000
    C16      C        0.49350    0.85790    0.66850    1.000
    H21      H        0.52430    0.81380    0.66760    1.000
    C17      C        0.47370    0.93380    0.63630    1.000
    C18      C        0.42530    0.99580    0.63640    1.000
    H22      H        0.40960    0.04530    0.61360    1.000
    C19      C        0.40240    0.98300    0.66970    1.000
    H23      H        0.37160    0.02590    0.67110    1.000
    C20      C        0.42360    0.90500    0.70200    1.000
    H24      H        0.40580    0.89500    0.72440    1.000
    C21      C        0.50160    0.94710    0.59970    1.000
    Pt2      Pt       0.78217    0.99248    0.39029    1.000
    Cu3      Cu       0.03736    0.30281    0.45702    1.000
    Cu4      Cu       0.09980    0.37048    0.57071    1.000
    N7       N        0.79200    0.03440    0.33030    1.000
    H25      H        0.77060    0.09280    0.31920    1.000
    H26      H        0.82970    0.04880    0.33340    1.000
    N8       N        0.77330    0.84160    0.36430    1.000
    H27      H        0.79970    0.79800    0.38280    1.000
    H28      H        0.73740    0.81650    0.36190    1.000
    N9       N        0.79460    0.14460    0.41430    1.000
    N10      N        0.27570    0.44290    0.45010    1.000
    N11      N        0.02920    0.11240    0.79530    1.000
    H29      H        0.06720    0.12220    0.81050    1.000
    H30      H        0.00870    0.11100    0.81510    1.000
    N12      N        0.96920    0.34570    0.70160    1.000
    O8       O        0.92270    0.43520    0.46740    1.000
    O9       O        0.95140    0.28820    0.43810    1.000
    O10      O        0.12010    0.33550    0.46690    1.000
    O11      O        0.16000    0.34930    0.54210    1.000
    O12      O        0.97760    0.50240    0.56720    1.000
    O13      O        0.04800    0.39440    0.60630    1.000
    O14      O        0.03450    0.35800    0.51520    1.000
    C22      C        0.77130    0.94000    0.29920    1.000
    H31      H        0.72960    0.94680    0.28480    1.000
    H32      H        0.79000    0.94290    0.27560    1.000
    C23      C        0.78210    0.84300    0.31930    1.000
    H33      H        0.82210    0.82210    0.32240    1.000
    H34      H        0.75650    0.79010    0.30020    1.000
    C24      C        0.84410    0.19570    0.42080    1.000
    H35      H        0.87420    0.16160    0.41310    1.000
    C25      C        0.85380    0.29790    0.43850    1.000
    C26      C        0.81010    0.35150    0.44780    1.000
    H36      H        0.81580    0.41990    0.46030    1.000
    C27      C        0.75690    0.30110    0.43820    1.000
    H37      H        0.72520    0.33800    0.44210    1.000
    C28      C        0.74970    0.19880    0.42300    1.000
    H38      H        0.71380    0.16500    0.41850    1.000
    C29      C        0.91420    0.34510    0.44840    1.000
    C30      C        0.22530    0.40590    0.45540    1.000
    H39      H        0.19310    0.39650    0.43000    1.000
    C31      C        0.21980    0.38130    0.49790    1.000
    C32      C        0.26860    0.38970    0.53500    1.000
    H40      H        0.26740    0.37110    0.56360    1.000
    C33      C        0.31920    0.42650    0.52840    1.000
    H41      H        0.35290    0.43410    0.55270    1.000
    C34      C        0.31990    0.45220    0.48540    1.000
    H42      H        0.35460    0.47780    0.48190    1.000
    C35      C        0.16060    0.35290    0.50110    1.000
    C36      C        0.02100    0.00860    0.76890    1.000
    H43      H        0.05710    0.99160    0.76290    1.000
    H44      H        0.01350    0.95190    0.78770    1.000
    C37      C        0.99350    0.35790    0.66850    1.000
    H45      H        0.02430    0.31380    0.66760    1.000
    C38      C        0.97370    0.43380    0.63630    1.000
    C39      C        0.92530    0.49580    0.63640    1.000
    H46      H        0.90960    0.54530    0.61360    1.000
    C40      C        0.90240    0.48300    0.66970    1.000
    H47      H        0.87160    0.52590    0.67110    1.000
    C41      C        0.92360    0.40500    0.70200    1.000
    H48      H        0.90580    0.39500    0.72440    1.000
    C42      C        0.00160    0.44710    0.59970    1.000
    Pt3      Pt       0.71783    0.49248    0.10971    1.000
    Cu5      Cu       0.46264    0.80281    0.04298    1.000
    Cu6      Cu       0.40020    0.87048    0.92929    1.000
    N13      N        0.70800    0.53440    0.16970    1.000
    H49      H        0.72940    0.59280    0.18080    1.000
    H50      H        0.67030    0.54880    0.16660    1.000
    N14      N        0.72670    0.34160    0.13570    1.000
    H51      H        0.70030    0.29800    0.11720    1.000
    H52      H        0.76260    0.31650    0.13810    1.000
    N15      N        0.70540    0.64460    0.08570    1.000
    N16      N        0.22430    0.94290    0.04990    1.000
    N17      N        0.47080    0.61240    0.70470    1.000
    H53      H        0.43280    0.62220    0.68950    1.000
    H54      H        0.49130    0.61100    0.68490    1.000
    N18      N        0.53080    0.84570    0.79840    1.000
    O15      O        0.57730    0.93520    0.03260    1.000
    O16      O        0.54860    0.78820    0.06190    1.000
    O17      O        0.37990    0.83550    0.03310    1.000
    O18      O        0.34000    0.84930    0.95790    1.000
    O19      O        0.52240    0.00240    0.93280    1.000
    O20      O        0.45200    0.89440    0.89370    1.000
    O21      O        0.46550    0.85800    0.98480    1.000
    C43      C        0.72870    0.44000    0.20080    1.000
    H55      H        0.77040    0.44680    0.21520    1.000
    H56      H        0.71000    0.44290    0.22440    1.000
    C44      C        0.71790    0.34300    0.18070    1.000
    H57      H        0.67790    0.32210    0.17760    1.000
    H58      H        0.74350    0.29010    0.19980    1.000
    C45      C        0.65590    0.69570    0.07920    1.000
    H59      H        0.62580    0.66160    0.08690    1.000
    C46      C        0.64620    0.79790    0.06150    1.000
    C47      C        0.68990    0.85150    0.05220    1.000
    H60      H        0.68420    0.91990    0.03970    1.000
    C48      C        0.74310    0.80110    0.06180    1.000
    H61      H        0.77480    0.83800    0.05790    1.000
    C49      C        0.75030    0.69880    0.07700    1.000
    H62      H        0.78620    0.66500    0.08150    1.000
    C50      C        0.58580    0.84510    0.05160    1.000
    C51      C        0.27470    0.90590    0.04460    1.000
    H63      H        0.30690    0.89650    0.07000    1.000
    C52      C        0.28020    0.88130    0.00210    1.000
    C53      C        0.23140    0.88970    0.96500    1.000
    H64      H        0.23260    0.87110    0.93640    1.000
    C54      C        0.18080    0.92650    0.97160    1.000
    H65      H        0.14710    0.93410    0.94730    1.000
    C55      C        0.18010    0.95220    0.01460    1.000
    H66      H        0.14540    0.97780    0.01810    1.000
    C56      C        0.33940    0.85290    0.99890    1.000
    C57      C        0.47900    0.50860    0.73110    1.000
    H67      H        0.44290    0.49160    0.73710    1.000
    H68      H        0.48650    0.45190    0.71230    1.000
    C58      C        0.50650    0.85790    0.83150    1.000
    H69      H        0.47570    0.81380    0.83240    1.000
    C59      C        0.52630    0.93380    0.86370    1.000
    C60      C        0.57470    0.99580    0.86360    1.000
    H70      H        0.59040    0.04530    0.88640    1.000
    C61      C        0.59760    0.98300    0.83030    1.000
    H71      H        0.62840    0.02590    0.82890    1.000
    C62      C        0.57640    0.90500    0.79800    1.000
    H72      H        0.59420    0.89500    0.77560    1.000
    C63      C        0.49840    0.94710    0.90030    1.000
    Pt4      Pt       0.21783    0.99248    0.10971    1.000
    Cu7      Cu       0.96264    0.30281    0.04298    1.000
    Cu8      Cu       0.90020    0.37048    0.92929    1.000
    N19      N        0.20800    0.03440    0.16970    1.000
    H73      H        0.22940    0.09280    0.18080    1.000
    H74      H        0.17030    0.04880    0.16660    1.000
    N20      N        0.22670    0.84160    0.13570    1.000
    H75      H        0.20030    0.79800    0.11720    1.000
    H76      H        0.26260    0.81650    0.13810    1.000
    N21      N        0.20540    0.14460    0.08570    1.000
    N22      N        0.72430    0.44290    0.04990    1.000
    N23      N        0.97080    0.11240    0.70470    1.000
    H77      H        0.93280    0.12220    0.68950    1.000
    H78      H        0.99130    0.11100    0.68490    1.000
    N24      N        0.03080    0.34570    0.79840    1.000
    O22      O        0.07730    0.43520    0.03260    1.000
    O23      O        0.04860    0.28820    0.06190    1.000
    O24      O        0.87990    0.33550    0.03310    1.000
    O25      O        0.84000    0.34930    0.95790    1.000
    O26      O        0.02240    0.50240    0.93280    1.000
    O27      O        0.95200    0.39440    0.89370    1.000
    O28      O        0.96550    0.35800    0.98480    1.000
    C64      C        0.22870    0.94000    0.20080    1.000
    H79      H        0.27040    0.94680    0.21520    1.000
    H80      H        0.21000    0.94290    0.22440    1.000
    C65      C        0.21790    0.84300    0.18070    1.000
    H81      H        0.17790    0.82210    0.17760    1.000
    H82      H        0.24350    0.79010    0.19980    1.000
    C66      C        0.15590    0.19570    0.07920    1.000
    H83      H        0.12580    0.16160    0.08690    1.000
    C67      C        0.14620    0.29790    0.06150    1.000
    C68      C        0.18990    0.35150    0.05220    1.000
    H84      H        0.18420    0.41990    0.03970    1.000
    C69      C        0.24310    0.30110    0.06180    1.000
    H85      H        0.27480    0.33800    0.05790    1.000
    C70      C        0.25030    0.19880    0.07700    1.000
    H86      H        0.28620    0.16500    0.08150    1.000
    C71      C        0.08580    0.34510    0.05160    1.000
    C72      C        0.77470    0.40590    0.04460    1.000
    H87      H        0.80690    0.39650    0.07000    1.000
    C73      C        0.78020    0.38130    0.00210    1.000
    C74      C        0.73140    0.38970    0.96500    1.000
    H88      H        0.73260    0.37110    0.93640    1.000
    C75      C        0.68080    0.42650    0.97160    1.000
    H89      H        0.64710    0.43410    0.94730    1.000
    C76      C        0.68010    0.45220    0.01460    1.000
    H90      H        0.64540    0.47780    0.01810    1.000
    C77      C        0.83940    0.35290    0.99890    1.000
    C78      C        0.97900    0.00860    0.73110    1.000
    H91      H        0.94290    0.99160    0.73710    1.000
    H92      H        0.98650    0.95190    0.71230    1.000
    C79      C        0.00650    0.35790    0.83150    1.000
    H93      H        0.97570    0.31380    0.83240    1.000
    C80      C        0.02630    0.43380    0.86370    1.000
    C81      C        0.07470    0.49580    0.86360    1.000
    H94      H        0.09040    0.54530    0.88640    1.000
    C82      C        0.09760    0.48300    0.83030    1.000
    H95      H        0.12840    0.52590    0.82890    1.000
    C83      C        0.07640    0.40500    0.79800    1.000
    H96      H        0.09420    0.39500    0.77560    1.000
    C84      C        0.99840    0.44710    0.90030    1.000
    Pt5      Pt       0.71783    0.50752    0.60971    1.000
    Cu9      Cu       0.46264    0.19719    0.54298    1.000
    Cu10     Cu       0.40020    0.12952    0.42929    1.000
    N25      N        0.70800    0.46560    0.66970    1.000
    H97      H        0.72940    0.40720    0.68080    1.000
    H98      H        0.67030    0.45120    0.66660    1.000
    N26      N        0.72670    0.65840    0.63570    1.000
    H99      H        0.70030    0.70200    0.61720    1.000
    H100     H        0.76260    0.68350    0.63810    1.000
    N27      N        0.70540    0.35540    0.58570    1.000
    N28      N        0.22430    0.05710    0.54990    1.000
    N29      N        0.47080    0.38760    0.20470    1.000
    H101     H        0.43280    0.37780    0.18950    1.000
    H102     H        0.49130    0.38900    0.18490    1.000
    N30      N        0.53080    0.15430    0.29840    1.000
    O29      O        0.57730    0.06480    0.53260    1.000
    O30      O        0.54860    0.21180    0.56190    1.000
    O31      O        0.37990    0.16450    0.53310    1.000
    O32      O        0.34000    0.15070    0.45790    1.000
    O33      O        0.52240    0.99760    0.43280    1.000
    O34      O        0.45200    0.10560    0.39370    1.000
    O35      O        0.46550    0.14200    0.48480    1.000
    C85      C        0.72870    0.56000    0.70080    1.000
    H103     H        0.77040    0.55320    0.71520    1.000
    H104     H        0.71000    0.55710    0.72440    1.000
    C86      C        0.71790    0.65700    0.68070    1.000
    H105     H        0.67790    0.67790    0.67760    1.000
    H106     H        0.74350    0.70990    0.69980    1.000
    C87      C        0.65590    0.30430    0.57920    1.000
    H107     H        0.62580    0.33840    0.58690    1.000
    C88      C        0.64620    0.20210    0.56150    1.000
    C89      C        0.68990    0.14850    0.55220    1.000
    H108     H        0.68420    0.08010    0.53970    1.000
    C90      C        0.74310    0.19890    0.56180    1.000
    H109     H        0.77480    0.16200    0.55790    1.000
    C91      C        0.75030    0.30120    0.57700    1.000
    H110     H        0.78620    0.33500    0.58150    1.000
    C92      C        0.58580    0.15490    0.55160    1.000
    C93      C        0.27470    0.09410    0.54460    1.000
    H111     H        0.30690    0.10350    0.57000    1.000
    C94      C        0.28020    0.11870    0.50210    1.000
    C95      C        0.23140    0.11030    0.46500    1.000
    H112     H        0.23260    0.12890    0.43640    1.000
    C96      C        0.18080    0.07350    0.47160    1.000
    H113     H        0.14710    0.06590    0.44730    1.000
    C97      C        0.18010    0.04780    0.51460    1.000
    H114     H        0.14540    0.02220    0.51810    1.000
    C98      C        0.33940    0.14710    0.49890    1.000
    C99      C        0.47900    0.49140    0.23110    1.000
    H115     H        0.44290    0.50840    0.23710    1.000
    H116     H        0.48650    0.54810    0.21230    1.000
    C100     C        0.50650    0.14210    0.33150    1.000
    H117     H        0.47570    0.18620    0.33240    1.000
    C101     C        0.52630    0.06620    0.36370    1.000
    C102     C        0.57470    0.00420    0.36360    1.000
    H118     H        0.59040    0.95470    0.38640    1.000
    C103     C        0.59760    0.01700    0.33030    1.000
    H119     H        0.62840    0.97410    0.32890    1.000
    C104     C        0.57640    0.09500    0.29800    1.000
    H120     H        0.59420    0.10500    0.27560    1.000
    C105     C        0.49840    0.05290    0.40030    1.000
    Pt6      Pt       0.21783    0.00752    0.60971    1.000
    Cu11     Cu       0.96264    0.69719    0.54298    1.000
    Cu12     Cu       0.90020    0.62952    0.42929    1.000
    N31      N        0.20800    0.96560    0.66970    1.000
    H121     H        0.22940    0.90720    0.68080    1.000
    H122     H        0.17030    0.95120    0.66660    1.000
    N32      N        0.22670    0.15840    0.63570    1.000
    H123     H        0.20030    0.20200    0.61720    1.000
    H124     H        0.26260    0.18350    0.63810    1.000
    N33      N        0.20540    0.85540    0.58570    1.000
    N34      N        0.72430    0.55710    0.54990    1.000
    N35      N        0.97080    0.88760    0.20470    1.000
    H125     H        0.93280    0.87780    0.18950    1.000
    H126     H        0.99130    0.88900    0.18490    1.000
    N36      N        0.03080    0.65430    0.29840    1.000
    O36      O        0.07730    0.56480    0.53260    1.000
    O37      O        0.04860    0.71180    0.56190    1.000
    O38      O        0.87990    0.66450    0.53310    1.000
    O39      O        0.84000    0.65070    0.45790    1.000
    O40      O        0.02240    0.49760    0.43280    1.000
    O41      O        0.95200    0.60560    0.39370    1.000
    O42      O        0.96550    0.64200    0.48480    1.000
    C106     C        0.22870    0.06000    0.70080    1.000
    H127     H        0.27040    0.05320    0.71520    1.000
    H128     H        0.21000    0.05710    0.72440    1.000
    C107     C        0.21790    0.15700    0.68070    1.000
    H129     H        0.17790    0.17790    0.67760    1.000
    H130     H        0.24350    0.20990    0.69980    1.000
    C108     C        0.15590    0.80430    0.57920    1.000
    H131     H        0.12580    0.83840    0.58690    1.000
    C109     C        0.14620    0.70210    0.56150    1.000
    C110     C        0.18990    0.64850    0.55220    1.000
    H132     H        0.18420    0.58010    0.53970    1.000
    C111     C        0.24310    0.69890    0.56180    1.000
    H133     H        0.27480    0.66200    0.55790    1.000
    C112     C        0.25030    0.80120    0.57700    1.000
    H134     H        0.28620    0.83500    0.58150    1.000
    C113     C        0.08580    0.65490    0.55160    1.000
    C114     C        0.77470    0.59410    0.54460    1.000
    H135     H        0.80690    0.60350    0.57000    1.000
    C115     C        0.78020    0.61870    0.50210    1.000
    C116     C        0.73140    0.61030    0.46500    1.000
    H136     H        0.73260    0.62890    0.43640    1.000
    C117     C        0.68080    0.57350    0.47160    1.000
    H137     H        0.64710    0.56590    0.44730    1.000
    C118     C        0.68010    0.54780    0.51460    1.000
    H138     H        0.64540    0.52220    0.51810    1.000
    C119     C        0.83940    0.64710    0.49890    1.000
    C120     C        0.97900    0.99140    0.23110    1.000
    H139     H        0.94290    0.00840    0.23710    1.000
    H140     H        0.98650    0.04810    0.21230    1.000
    C121     C        0.00650    0.64210    0.33150    1.000
    H141     H        0.97570    0.68620    0.33240    1.000
    C122     C        0.02630    0.56620    0.36370    1.000
    C123     C        0.07470    0.50420    0.36360    1.000
    H142     H        0.09040    0.45470    0.38640    1.000
    C124     C        0.09760    0.51700    0.33030    1.000
    H143     H        0.12840    0.47410    0.32890    1.000
    C125     C        0.07640    0.59500    0.29800    1.000
    H144     H        0.09420    0.60500    0.27560    1.000
    C126     C        0.99840    0.55290    0.40030    1.000
    Pt7      Pt       0.28217    0.50752    0.89029    1.000
    Cu13     Cu       0.53736    0.19719    0.95702    1.000
    Cu14     Cu       0.59980    0.12952    0.07071    1.000
    N37      N        0.29200    0.46560    0.83030    1.000
    H145     H        0.27060    0.40720    0.81920    1.000
    H146     H        0.32970    0.45120    0.83340    1.000
    N38      N        0.27330    0.65840    0.86430    1.000
    H147     H        0.29970    0.70200    0.88280    1.000
    H148     H        0.23740    0.68350    0.86190    1.000
    N39      N        0.29460    0.35540    0.91430    1.000
    N40      N        0.77570    0.05710    0.95010    1.000
    N41      N        0.52920    0.38760    0.29530    1.000
    H149     H        0.56720    0.37780    0.31050    1.000
    H150     H        0.50870    0.38900    0.31510    1.000
    N42      N        0.46920    0.15430    0.20160    1.000
    O43      O        0.42270    0.06480    0.96740    1.000
    O44      O        0.45140    0.21180    0.93810    1.000
    O45      O        0.62010    0.16450    0.96690    1.000
    O46      O        0.66000    0.15070    0.04210    1.000
    O47      O        0.47760    0.99760    0.06720    1.000
    O48      O        0.54800    0.10560    0.10630    1.000
    O49      O        0.53450    0.14200    0.01520    1.000
    C127     C        0.27130    0.56000    0.79920    1.000
    H151     H        0.22960    0.55320    0.78480    1.000
    H152     H        0.29000    0.55710    0.77560    1.000
    C128     C        0.28210    0.65700    0.81930    1.000
    H153     H        0.32210    0.67790    0.82240    1.000
    H154     H        0.25650    0.70990    0.80020    1.000
    C129     C        0.34410    0.30430    0.92080    1.000
    H155     H        0.37420    0.33840    0.91310    1.000
    C130     C        0.35380    0.20210    0.93850    1.000
    C131     C        0.31010    0.14850    0.94780    1.000
    H156     H        0.31580    0.08010    0.96030    1.000
    C132     C        0.25690    0.19890    0.93820    1.000
    H157     H        0.22520    0.16200    0.94210    1.000
    C133     C        0.24970    0.30120    0.92300    1.000
    H158     H        0.21380    0.33500    0.91850    1.000
    C134     C        0.41420    0.15490    0.94840    1.000
    C135     C        0.72530    0.09410    0.95540    1.000
    H159     H        0.69310    0.10350    0.93000    1.000
    C136     C        0.71980    0.11870    0.99790    1.000
    C137     C        0.76860    0.11030    0.03500    1.000
    H160     H        0.76740    0.12890    0.06360    1.000
    C138     C        0.81920    0.07350    0.02840    1.000
    H161     H        0.85290    0.06590    0.05270    1.000
    C139     C        0.81990    0.04780    0.98540    1.000
    H162     H        0.85460    0.02220    0.98190    1.000
    C140     C        0.66060    0.14710    0.00110    1.000
    C141     C        0.52100    0.49140    0.26890    1.000
    H163     H        0.55710    0.50840    0.26290    1.000
    H164     H        0.51350    0.54810    0.28770    1.000
    C142     C        0.49350    0.14210    0.16850    1.000
    H165     H        0.52430    0.18620    0.16760    1.000
    C143     C        0.47370    0.06620    0.13630    1.000
    C144     C        0.42530    0.00420    0.13640    1.000
    H166     H        0.40960    0.95470    0.11360    1.000
    C145     C        0.40240    0.01700    0.16970    1.000
    H167     H        0.37160    0.97410    0.17110    1.000
    C146     C        0.42360    0.09500    0.20200    1.000
    H168     H        0.40580    0.10500    0.22440    1.000
    C147     C        0.50160    0.05290    0.09970    1.000
    Pt8      Pt       0.78217    0.00752    0.89029    1.000
    Cu15     Cu       0.03736    0.69719    0.95702    1.000
    Cu16     Cu       0.09980    0.62952    0.07071    1.000
    N43      N        0.79200    0.96560    0.83030    1.000
    H169     H        0.77060    0.90720    0.81920    1.000
    H170     H        0.82970    0.95120    0.83340    1.000
    N44      N        0.77330    0.15840    0.86430    1.000
    H171     H        0.79970    0.20200    0.88280    1.000
    H172     H        0.73740    0.18350    0.86190    1.000
    N45      N        0.79460    0.85540    0.91430    1.000
    N46      N        0.27570    0.55710    0.95010    1.000
    N47      N        0.02920    0.88760    0.29530    1.000
    H173     H        0.06720    0.87780    0.31050    1.000
    H174     H        0.00870    0.88900    0.31510    1.000
    N48      N        0.96920    0.65430    0.20160    1.000
    O50      O        0.92270    0.56480    0.96740    1.000
    O51      O        0.95140    0.71180    0.93810    1.000
    O52      O        0.12010    0.66450    0.96690    1.000
    O53      O        0.16000    0.65070    0.04210    1.000
    O54      O        0.97760    0.49760    0.06720    1.000
    O55      O        0.04800    0.60560    0.10630    1.000
    O56      O        0.03450    0.64200    0.01520    1.000
    C148     C        0.77130    0.06000    0.79920    1.000
    H175     H        0.72960    0.05320    0.78480    1.000
    H176     H        0.79000    0.05710    0.77560    1.000
    C149     C        0.78210    0.15700    0.81930    1.000
    H177     H        0.82210    0.17790    0.82240    1.000
    H178     H        0.75650    0.20990    0.80020    1.000
    C150     C        0.84410    0.80430    0.92080    1.000
    H179     H        0.87420    0.83840    0.91310    1.000
    C151     C        0.85380    0.70210    0.93850    1.000
    C152     C        0.81010    0.64850    0.94780    1.000
    H180     H        0.81580    0.58010    0.96030    1.000
    C153     C        0.75690    0.69890    0.93820    1.000
    H181     H        0.72520    0.66200    0.94210    1.000
    C154     C        0.74970    0.80120    0.92300    1.000
    H182     H        0.71380    0.83500    0.91850    1.000
    C155     C        0.91420    0.65490    0.94840    1.000
    C156     C        0.22530    0.59410    0.95540    1.000
    H183     H        0.19310    0.60350    0.93000    1.000
    C157     C        0.21980    0.61870    0.99790    1.000
    C158     C        0.26860    0.61030    0.03500    1.000
    H184     H        0.26740    0.62890    0.06360    1.000
    C159     C        0.31920    0.57350    0.02840    1.000
    H185     H        0.35290    0.56590    0.05270    1.000
    C160     C        0.31990    0.54780    0.98540    1.000
    H186     H        0.35460    0.52220    0.98190    1.000
    C161     C        0.16060    0.64710    0.00110    1.000
    C162     C        0.02100    0.99140    0.26890    1.000
    H187     H        0.05710    0.00840    0.26290    1.000
    H188     H        0.01350    0.04810    0.28770    1.000
    C163     C        0.99350    0.64210    0.16850    1.000
    H189     H        0.02430    0.68620    0.16760    1.000
    C164     C        0.97370    0.56620    0.13630    1.000
    C165     C        0.92530    0.50420    0.13640    1.000
    H190     H        0.90960    0.45470    0.11360    1.000
    C166     C        0.90240    0.51700    0.16970    1.000
    H191     H        0.87160    0.47410    0.17110    1.000
    C167     C        0.92360    0.59500    0.20200    1.000
    H192     H        0.90580    0.60500    0.22440    1.000
    C168     C        0.00160    0.55290    0.09970    1.000
    Pt9      Pt       0.50000    0.73117    0.75000    1.000
    Pt10     Pt       0.00000    0.23117    0.75000    1.000
    Pt11     Pt       0.50000    0.26883    0.25000    1.000
    Pt12     Pt       0.00000    0.76883    0.25000    1.000
    Cu17     Cu       0.50000    0.00000    0.50000    1.000
    Cu18     Cu       0.00000    0.50000    0.50000    1.000
    Cu19     Cu       0.50000    0.00000    0.00000    1.000
    Cu20     Cu       0.00000    0.50000    0.00000    1.000
