data_functionalizedCrystal
_audit_creation_method	'EQeq! by Chris Wilmer'
_symmetry_space_group_name_H-M	'P1'
_symmetry_Int_Tables_number	1
_symmetry_cell_setting	triclinic
loop_
_symmetry_equiv_pos_as_xyz
  x,y,z
_cell_length_a	11.1399
_cell_length_b	18.0497
_cell_length_c	29.338
_cell_angle_alpha	90
_cell_angle_beta	90
_cell_angle_gamma	90
loop_
_atom_site_label
_atom_site_type_symbol
_atom_site_fract_x
_atom_site_fract_y
_atom_site_fract_z
_atom_site_charge
Mof_Eu	Eu	0.45728	0.91743	0.79	2.432
Mof_Eu	Eu	0.46851	0.70715	0.73142	2.18
Mof_Eu	Eu	0.04272	0.08257	0.29	2.423
Mof_Eu	Eu	0.03149	0.29285	0.23142	2.174
Mof_Eu	Eu	0.54272	0.41743	0.71	2.433
Mof_Eu	Eu	0.53149	0.20715	0.76858	2.178
Mof_Eu	Eu	0.95728	0.58257	0.21	2.429
Mof_Eu	Eu	0.96851	0.79285	0.26858	2.17
Mof_H 	H 	0.6878	0.8995	0.3691	0.124
Mof_H 	H 	0.3298	0.6713	0.1202	0.162
Mof_H 	H 	0.6156	0.8453	0.5981	0.15
Mof_H 	H 	0.269	0.0479	0.6303	0.158
Mof_H 	H 	0.2816	0.9586	0.3987	0.141
Mof_H 	H 	0.5153	0.8398	0.9678	0.092
Mof_H 	H 	0.2951	0.6915	0.8928	0.127
Mof_H 	H 	0.5306	0.0459	0.8793	-0.04
Mof_H 	H 	0.133	0.7677	0.8403	0.051
Mof_H 	H 	0.1973	0.8271	0.3654	0.05
Mof_H 	H 	0.1366	0.9619	0.6862	0.009
Mof_H 	H 	0.5452	0.06	0.9561	0.094
Mof_H 	H 	0.7241	0.0344	0.3278	0.043
Mof_H 	H 	0.5079	0.8329	0.8897	-0.026
Mof_H 	H 	0.3233	0.7815	0.1824	0.024
Mof_H 	H 	0.5404	0.9448	0.6618	0.044
Mof_H 	H 	0.394	0.6629	0.0443	0.068
Mof_H 	H 	0.4747	0.6955	0.1925	0.175
Mof_H 	H 	0.3907	0.6913	0.2353	0.157
Mof_H 	H 	0.3815	0.6309	0.197	0.175
Mof_H 	H 	0.2349	0.1025	0.7074	0.203
Mof_H 	H 	0.1035	0.0894	0.6901	0.195
Mof_H 	H 	0.1421	0.0613	0.7385	0.183
Mof_H 	H 	0.1216	0.6445	0.823	0.115
Mof_H 	H 	0.1725	0.6861	0.7803	0.074
Mof_H 	H 	0.2593	0.6413	0.812	0.083
Mof_H 	H 	0.3606	0.6609	0.9618	0.044
Mof_H 	H 	0.2907	0.0327	0.4676	0.043
Mof_H 	H 	0.2958	0.0624	0.5483	0.055
Mof_H 	H 	0.5823	0.0636	0.027	0.077
Mof_H 	H 	0.4844	0.8653	0.1146	0.009
Mof_H 	H 	0.5779	0.0691	0.1058	0.006
Mof_H 	H 	0.4804	0.8531	0.0369	0.082
Mof_H 	H 	0.6628	0.8397	0.4379	0.033
Mof_H 	H 	0.7718	0.8825	0.6738	0.146
Mof_H 	H 	0.7468	0.9669	0.6656	0.155
Mof_H 	H 	0.7056	0.9293	0.7111	0.13
Mof_H 	H 	0.64	0.8191	0.5206	0.054
Mof_H 	H 	0.3993	0.8963	0.3257	0.148
Mof_H 	H 	0.4067	0.8248	0.3559	0.16
Mof_H 	H 	0.3416	0.8221	0.3086	0.144
Mof_H 	H 	0.5376	0.997	0.301	0.144
Mof_H 	H 	0.6291	0.993	0.2605	0.127
Mof_H 	H 	0.5898	0.9203	0.2857	0.13
Mof_H 	H 	0.8122	0.1005	0.8691	0.125
Mof_H 	H 	0.1702	0.3287	0.6202	0.162
Mof_H 	H 	0.8844	0.1547	0.0981	0.15
Mof_H 	H 	0.231	0.9521	0.1303	0.159
Mof_H 	H 	0.2184	0.0414	0.8987	0.14
Mof_H 	H 	0.9847	0.1602	0.4678	0.095
Mof_H 	H 	0.2049	0.3085	0.3928	0.127
Mof_H 	H 	0.9694	0.9541	0.3793	-0.04
Mof_H 	H 	0.367	0.2323	0.3403	0.05
Mof_H 	H 	0.3027	0.1729	0.8654	0.051
Mof_H 	H 	0.3634	0.0381	0.1862	0.011
Mof_H 	H 	0.9548	0.94	0.4561	0.096
Mof_H 	H 	0.7759	0.9656	0.8278	0.034
Mof_H 	H 	0.9921	0.1671	0.3897	-0.026
Mof_H 	H 	0.1767	0.2185	0.6824	0.024
Mof_H 	H 	0.9596	0.0552	0.1618	0.045
Mof_H 	H 	0.106	0.3371	0.5443	0.068
Mof_H 	H 	0.0253	0.3045	0.6925	0.174
Mof_H 	H 	0.1093	0.3087	0.7353	0.156
Mof_H 	H 	0.1185	0.3691	0.697	0.175
Mof_H 	H 	0.2651	0.8975	0.2074	0.199
Mof_H 	H 	0.3965	0.9106	0.1901	0.192
Mof_H 	H 	0.3579	0.9387	0.2385	0.18
Mof_H 	H 	0.3784	0.3555	0.323	0.114
Mof_H 	H 	0.3275	0.3139	0.2803	0.074
Mof_H 	H 	0.2407	0.3587	0.312	0.082
Mof_H 	H 	0.1394	0.3391	0.4618	0.044
Mof_H 	H 	0.2093	0.9673	0.9676	0.055
Mof_H 	H 	0.2042	0.9376	0.0483	0.048
Mof_H 	H 	0.9177	0.9364	0.527	0.077
Mof_H 	H 	0.0156	0.1347	0.6146	0.005
Mof_H 	H 	0.9221	0.9309	0.6058	0.007
Mof_H 	H 	0.0196	0.1469	0.5369	0.077
Mof_H 	H 	0.8372	0.1603	0.9379	0.033
Mof_H 	H 	0.7282	0.1175	0.1738	0.148
Mof_H 	H 	0.7532	0.0331	0.1656	0.159
Mof_H 	H 	0.7944	0.0707	0.2111	0.134
Mof_H 	H 	0.86	0.1809	0.0206	0.055
Mof_H 	H 	0.1007	0.1037	0.8257	0.145
Mof_H 	H 	0.0933	0.1752	0.8559	0.158
Mof_H 	H 	0.1584	0.1779	0.8086	0.142
Mof_H 	H 	0.9624	0.003	0.801	0.152
Mof_H 	H 	0.8709	0.007	0.7605	0.134
Mof_H 	H 	0.9102	0.0797	0.7857	0.136
Mof_H 	H 	0.3122	0.3995	0.1309	0.124
Mof_H 	H 	0.6702	0.1713	0.3798	0.162
Mof_H 	H 	0.3844	0.3453	0.9019	0.15
Mof_H 	H 	0.731	0.5479	0.8697	0.158
Mof_H 	H 	0.7184	0.4586	0.1013	0.141
Mof_H 	H 	0.4847	0.3398	0.5322	0.093
Mof_H 	H 	0.7049	0.1915	0.6072	0.127
Mof_H 	H 	0.4694	0.5459	0.6207	-0.04
Mof_H 	H 	0.867	0.2677	0.6597	0.05
Mof_H 	H 	0.8027	0.3271	0.1346	0.05
Mof_H 	H 	0.8634	0.4619	0.8138	0.01
Mof_H 	H 	0.4548	0.56	0.5439	0.095
Mof_H 	H 	0.2759	0.5344	0.1722	0.04
Mof_H 	H 	0.4921	0.3329	0.6103	-0.026
Mof_H 	H 	0.6767	0.2815	0.3176	0.024
Mof_H 	H 	0.4596	0.4448	0.8382	0.043
Mof_H 	H 	0.606	0.1629	0.4557	0.068
Mof_H 	H 	0.5253	0.1955	0.3075	0.175
Mof_H 	H 	0.6093	0.1913	0.2647	0.157
Mof_H 	H 	0.6185	0.1309	0.303	0.175
Mof_H 	H 	0.7651	0.6025	0.7926	0.201
Mof_H 	H 	0.8965	0.5894	0.8099	0.194
Mof_H 	H 	0.8579	0.5613	0.7615	0.182
Mof_H 	H 	0.8784	0.1445	0.677	0.116
Mof_H 	H 	0.8275	0.1861	0.7197	0.074
Mof_H 	H 	0.7407	0.1413	0.688	0.083
Mof_H 	H 	0.6394	0.1609	0.5382	0.044
Mof_H 	H 	0.7093	0.5327	0.0324	0.049
Mof_H 	H 	0.7042	0.5624	0.9517	0.051
Mof_H 	H 	0.4177	0.5636	0.473	0.076
Mof_H 	H 	0.5156	0.3653	0.3854	0.01
Mof_H 	H 	0.4221	0.5691	0.3942	0.006
Mof_H 	H 	0.5196	0.3531	0.4631	0.082
Mof_H 	H 	0.3372	0.3397	0.0621	0.033
Mof_H 	H 	0.2282	0.3825	0.8262	0.147
Mof_H 	H 	0.2532	0.4669	0.8344	0.157
Mof_H 	H 	0.2944	0.4293	0.7889	0.132
Mof_H 	H 	0.36	0.3191	0.9794	0.054
Mof_H 	H 	0.6007	0.3963	0.1743	0.147
Mof_H 	H 	0.5933	0.3248	0.1441	0.159
Mof_H 	H 	0.6584	0.3221	0.1914	0.143
Mof_H 	H 	0.4624	0.497	0.199	0.146
Mof_H 	H 	0.3709	0.493	0.2395	0.129
Mof_H 	H 	0.4102	0.4203	0.2143	0.131
Mof_H 	H 	0.1878	0.6005	0.6309	0.125
Mof_H 	H 	0.8298	0.8287	0.8798	0.162
Mof_H 	H 	0.1156	0.6547	0.4019	0.15
Mof_H 	H 	0.769	0.4521	0.3697	0.158
Mof_H 	H 	0.7816	0.5414	0.6013	0.141
Mof_H 	H 	0.0153	0.6602	0.0322	0.094
Mof_H 	H 	0.7951	0.8085	0.1072	0.127
Mof_H 	H 	0.0306	0.4541	0.1207	-0.04
Mof_H 	H 	0.633	0.7323	0.1597	0.05
Mof_H 	H 	0.6973	0.6729	0.6346	0.051
Mof_H 	H 	0.6366	0.5381	0.3138	0.009
Mof_H 	H 	0.0452	0.44	0.0439	0.095
Mof_H 	H 	0.2241	0.4656	0.6722	0.04
Mof_H 	H 	0.0079	0.6671	0.1103	-0.025
Mof_H 	H 	0.8233	0.7185	0.8176	0.025
Mof_H 	H 	0.0404	0.5552	0.3382	0.044
Mof_H 	H 	0.894	0.8371	0.9557	0.068
Mof_H 	H 	0.9747	0.8045	0.8075	0.172
Mof_H 	H 	0.8907	0.8087	0.7647	0.154
Mof_H 	H 	0.8815	0.8691	0.803	0.173
Mof_H 	H 	0.7349	0.3975	0.2926	0.202
Mof_H 	H 	0.6035	0.4106	0.3099	0.195
Mof_H 	H 	0.6421	0.4387	0.2615	0.182
Mof_H 	H 	0.6216	0.8555	0.177	0.114
Mof_H 	H 	0.6725	0.8139	0.2197	0.074
Mof_H 	H 	0.7593	0.8587	0.188	0.082
Mof_H 	H 	0.8606	0.8391	0.0382	0.044
Mof_H 	H 	0.7907	0.4673	0.5324	0.049
Mof_H 	H 	0.7958	0.4376	0.4517	0.052
Mof_H 	H 	0.0823	0.4364	0.973	0.076
Mof_H 	H 	0.9844	0.6347	0.8854	0.007
Mof_H 	H 	0.0779	0.4309	0.8942	0.006
Mof_H 	H 	0.9804	0.6469	0.9631	0.078
Mof_H 	H 	0.1628	0.6603	0.5621	0.033
Mof_H 	H 	0.2718	0.6175	0.3262	0.148
Mof_H 	H 	0.2468	0.5331	0.3344	0.158
Mof_H 	H 	0.2056	0.5707	0.2889	0.133
Mof_H 	H 	0.14	0.6809	0.4794	0.054
Mof_H 	H 	0.8993	0.6037	0.6743	0.147
Mof_H 	H 	0.9067	0.6752	0.6441	0.158
Mof_H 	H 	0.8416	0.6779	0.6914	0.142
Mof_H 	H 	0.0376	0.503	0.699	0.146
Mof_H 	H 	0.1291	0.507	0.7395	0.129
Mof_H 	H 	0.0898	0.5797	0.7143	0.132
Mof_C 	C 	0.1797	0.7156	0.20034	0.451
Mof_C 	C 	0.1624	0.9158	0.32416	0.463
Mof_C 	C 	0.5321	0.9569	0.02255	0.052
Mof_C 	C 	0.3009	0.9614	0.71864	0.272
Mof_C 	C 	0.3047	0.7926	0.82194	0.409
Mof_C 	C 	0.2644	0.924	0.4822	-0.068
Mof_C 	C 	0.8245	0.9488	0.30234	0.473
Mof_C 	C 	0.5189	0.8829	0.95051	-0.166
Mof_C 	C 	0.5431	0.8358	0.68082	0.379
Mof_C 	C 	0.5275	0.0036	0.89735	0.146
Mof_C 	C 	0.2331	0.7407	0.96837	-0.069
Mof_C 	C 	0.2589	0.7618	0.09998	0.232
Mof_C 	C 	0.1845	0.7568	0.92221	0.23
Mof_C 	C 	0.2088	0.7402	0.83987	-0.034
Mof_C 	C 	0.2396	0.8731	0.35784	-0.004
Mof_C 	C 	0.6153	0.9292	0.52946	-0.069
Mof_C 	C 	0.5298	0.9511	0.97182	0.084
Mof_C 	C 	0.2064	0.9949	0.68697	0.121
Mof_C 	C 	0.5357	0.0129	0.94369	-0.178
Mof_C 	C 	0.6	0.9454	0.57871	0.241
Mof_C 	C 	0.7111	0.9813	0.32281	-0.029
Mof_C 	C 	0.5134	0.8794	0.90326	0.129
Mof_C 	C 	0.3025	0.7292	0.17834	0.031
Mof_C 	C 	0.5952	0.903	0.65713	0.023
Mof_C 	C 	0.3385	0.6928	0.02941	-0.032
Mof_C 	C 	0.2635	0.945	0.61432	0.249
Mof_C 	C 	0.2668	0.7425	0.05097	-0.063
Mof_C 	C 	0.396	0.6824	0.20308	-0.491
Mof_C 	C 	0.1682	0.0689	0.70765	-0.568
Mof_C 	C 	0.1887	0.6718	0.8112	-0.317
Mof_C 	C 	0.3192	0.6917	0.98181	-0.022
Mof_C 	C 	0.2742	0.9539	0.56417	-0.063
Mof_C 	C 	0.2821	0.9975	0.4905	-0.016
Mof_C 	C 	0.2452	0.8812	0.43993	0.222
Mof_C 	C 	0.2861	0.0146	0.53709	-0.029
Mof_C 	C 	0.5614	0.0219	0.04382	-0.126
Mof_C 	C 	0.5042	0.9063	0.09695	0.079
Mof_C 	C 	0.6558	0.9878	0.4032	0.22
Mof_C 	C 	0.6408	0.9495	0.44727	-0.075
Mof_C 	C 	0.5591	0.0243	0.09178	0.078
Mof_C 	C 	0.5021	0.8981	0.04981	-0.127
Mof_C 	C 	0.6494	0.8775	0.45883	-0.018
Mof_C 	C 	0.7161	0.9222	0.67893	-0.425
Mof_C 	C 	0.6356	0.8654	0.50679	-0.032
Mof_C 	C 	0.3577	0.8521	0.33487	-0.437
Mof_C 	C 	0.6073	0.9721	0.2894	-0.409
Mof_C 	C 	0.3203	0.2844	0.70034	0.452
Mof_C 	C 	0.3376	0.0842	0.82416	0.465
Mof_C 	C 	0.9679	0.0431	0.52255	0.051
Mof_C 	C 	0.1991	0.0386	0.21864	0.274
Mof_C 	C 	0.1953	0.2074	0.32194	0.409
Mof_C 	C 	0.2356	0.076	0.9822	-0.059
Mof_C 	C 	0.6755	0.0512	0.80234	0.469
Mof_C 	C 	0.9811	0.1171	0.45051	-0.17
Mof_C 	C 	0.9569	0.1642	0.18082	0.378
Mof_C 	C 	0.9725	0.9964	0.39735	0.143
Mof_C 	C 	0.2669	0.2593	0.46837	-0.069
Mof_C 	C 	0.2411	0.2382	0.59998	0.232
Mof_C 	C 	0.3155	0.2432	0.42221	0.23
Mof_C 	C 	0.2912	0.2598	0.33987	-0.034
Mof_C 	C 	0.2604	0.1269	0.85784	-0.007
Mof_C 	C 	0.8847	0.0708	0.02946	-0.064
Mof_C 	C 	0.9702	0.0489	0.47182	0.094
Mof_C 	C 	0.2936	0.0051	0.18697	0.109
Mof_C 	C 	0.9643	0.9871	0.44369	-0.188
Mof_C 	C 	0.9	0.0546	0.07871	0.247
Mof_C 	C 	0.7889	0.0187	0.82281	-0.013
Mof_C 	C 	0.9866	0.1206	0.40326	0.133
Mof_C 	C 	0.1975	0.2708	0.67834	0.03
Mof_C 	C 	0.9048	0.097	0.15713	0.026
Mof_C 	C 	0.1615	0.3072	0.52941	-0.033
Mof_C 	C 	0.2365	0.055	0.11432	0.248
Mof_C 	C 	0.2332	0.2575	0.55097	-0.063
Mof_C 	C 	0.104	0.3176	0.70308	-0.489
Mof_C 	C 	0.3318	0.9311	0.20765	-0.553
Mof_C 	C 	0.3113	0.3282	0.3112	-0.316
Mof_C 	C 	0.1808	0.3083	0.48181	-0.022
Mof_C 	C 	0.2258	0.0461	0.06417	-0.075
Mof_C 	C 	0.2179	0.0025	0.9905	-0.04
Mof_C 	C 	0.2548	0.1188	0.93993	0.218
Mof_C 	C 	0.2139	0.9854	0.03709	-0.003
Mof_C 	C 	0.9386	0.9781	0.54382	-0.128
Mof_C 	C 	0.9958	0.0937	0.59695	0.083
Mof_C 	C 	0.8442	0.0122	0.9032	0.228
Mof_C 	C 	0.8592	0.0505	0.94727	-0.07
Mof_C 	C 	0.9409	0.9757	0.59178	0.072
Mof_C 	C 	0.9979	0.1019	0.54981	-0.121
Mof_C 	C 	0.8506	0.1225	0.95883	-0.017
Mof_C 	C 	0.7839	0.0778	0.17893	-0.432
Mof_C 	C 	0.8644	0.1346	0.00679	-0.035
Mof_C 	C 	0.1423	0.1479	0.83487	-0.432
Mof_C 	C 	0.8927	0.0279	0.7894	-0.427
Mof_C 	C 	0.8203	0.2156	0.29966	0.451
Mof_C 	C 	0.8376	0.4158	0.17584	0.464
Mof_C 	C 	0.4679	0.4569	0.47745	0.049
Mof_C 	C 	0.6991	0.4614	0.78136	0.273
Mof_C 	C 	0.6953	0.2926	0.67806	0.409
Mof_C 	C 	0.7356	0.424	0.0178	-0.064
Mof_C 	C 	0.1755	0.4488	0.19766	0.472
Mof_C 	C 	0.4811	0.3829	0.54949	-0.168
Mof_C 	C 	0.4569	0.3358	0.81918	0.378
Mof_C 	C 	0.4725	0.5036	0.60265	0.146
Mof_C 	C 	0.7669	0.2407	0.53163	-0.069
Mof_C 	C 	0.7411	0.2618	0.40002	0.232
Mof_C 	C 	0.8155	0.2568	0.57779	0.23
Mof_C 	C 	0.7912	0.2402	0.66013	-0.033
Mof_C 	C 	0.7604	0.3731	0.14216	-0.005
Mof_C 	C 	0.3847	0.4292	0.97054	-0.068
Mof_C 	C 	0.4702	0.4511	0.52818	0.088
Mof_C 	C 	0.7936	0.4949	0.81303	0.117
Mof_C 	C 	0.4643	0.5129	0.55631	-0.181
Mof_C 	C 	0.4	0.4454	0.92129	0.243
Mof_C 	C 	0.2889	0.4813	0.17719	-0.024
Mof_C 	C 	0.4866	0.3794	0.59674	0.131
Mof_C 	C 	0.6975	0.2292	0.32166	0.031
Mof_C 	C 	0.4048	0.403	0.84287	0.025
Mof_C 	C 	0.6615	0.1928	0.47059	-0.033
Mof_C 	C 	0.7365	0.445	0.88568	0.249
Mof_C 	C 	0.7332	0.2425	0.44903	-0.063
Mof_C 	C 	0.604	0.1824	0.29692	-0.491
Mof_C 	C 	0.8318	0.5689	0.79235	-0.562
Mof_C 	C 	0.8113	0.1718	0.6888	-0.318
Mof_C 	C 	0.6808	0.1917	0.51819	-0.021
Mof_C 	C 	0.7258	0.4539	0.93583	-0.068
Mof_C 	C 	0.7179	0.4975	0.0095	-0.027
Mof_C 	C 	0.7548	0.3812	0.06007	0.22
Mof_C 	C 	0.7139	0.5146	0.96291	-0.018
Mof_C 	C 	0.4386	0.5219	0.45618	-0.123
Mof_C 	C 	0.4958	0.4063	0.40305	0.078
Mof_C 	C 	0.3442	0.4878	0.0968	0.222
Mof_C 	C 	0.3592	0.4495	0.05273	-0.073
Mof_C 	C 	0.4409	0.5243	0.40822	0.077
Mof_C 	C 	0.4979	0.3981	0.45019	-0.125
Mof_C 	C 	0.3506	0.3775	0.04117	-0.019
Mof_C 	C 	0.2839	0.4222	0.82107	-0.43
Mof_C 	C 	0.3644	0.3654	0.99321	-0.031
Mof_C 	C 	0.6423	0.3521	0.16513	-0.435
Mof_C 	C 	0.3927	0.4721	0.2106	-0.414
Mof_C 	C 	0.6797	0.7844	0.79966	0.452
Mof_C 	C 	0.6624	0.5842	0.67584	0.464
Mof_C 	C 	0.0321	0.5431	0.97745	0.047
Mof_C 	C 	0.8009	0.5386	0.28136	0.272
Mof_C 	C 	0.8047	0.7074	0.17806	0.409
Mof_C 	C 	0.7644	0.576	0.5178	-0.064
Mof_C 	C 	0.3245	0.5512	0.69766	0.472
Mof_C 	C 	0.0189	0.6171	0.04949	-0.168
Mof_C 	C 	0.0431	0.6642	0.31918	0.378
Mof_C 	C 	0.0275	0.4964	0.10265	0.147
Mof_C 	C 	0.7331	0.7593	0.03163	-0.069
Mof_C 	C 	0.7589	0.7382	0.90002	0.231
Mof_C 	C 	0.6845	0.7432	0.07779	0.23
Mof_C 	C 	0.7088	0.7598	0.16013	-0.034
Mof_C 	C 	0.7396	0.6269	0.64216	-0.006
Mof_C 	C 	0.1153	0.5708	0.47054	-0.068
Mof_C 	C 	0.0298	0.5489	0.02818	0.089
Mof_C 	C 	0.7064	0.5051	0.31303	0.117
Mof_C 	C 	0.0357	0.4871	0.05631	-0.182
Mof_C 	C 	0.1	0.5546	0.42129	0.243
Mof_C 	C 	0.2111	0.5187	0.67719	-0.024
Mof_C 	C 	0.0134	0.6206	0.09674	0.131
Mof_C 	C 	0.8025	0.7708	0.82166	0.028
Mof_C 	C 	0.0952	0.597	0.34287	0.025
Mof_C 	C 	0.8385	0.8072	0.97059	-0.034
Mof_C 	C 	0.7635	0.555	0.38568	0.249
Mof_C 	C 	0.7668	0.7575	0.94903	-0.062
Mof_C 	C 	0.896	0.8176	0.79692	-0.485
Mof_C 	C 	0.6682	0.4311	0.29235	-0.563
Mof_C 	C 	0.6887	0.8282	0.1888	-0.316
Mof_C 	C 	0.8192	0.8083	0.01819	-0.021
Mof_C 	C 	0.7742	0.5461	0.43583	-0.068
Mof_C 	C 	0.7821	0.5025	0.5095	-0.027
Mof_C 	C 	0.7452	0.6188	0.56007	0.22
Mof_C 	C 	0.7861	0.4854	0.46291	-0.018
Mof_C 	C 	0.0614	0.4781	0.95618	-0.122
Mof_C 	C 	0.0042	0.5937	0.90305	0.08
Mof_C 	C 	0.1558	0.5122	0.5968	0.223
Mof_C 	C 	0.1408	0.5505	0.55273	-0.074
Mof_C 	C 	0.0591	0.4757	0.90822	0.077
Mof_C 	C 	0.0021	0.6019	0.95019	-0.121
Mof_C 	C 	0.1494	0.6225	0.54117	-0.018
Mof_C 	C 	0.2161	0.5778	0.32107	-0.43
Mof_C 	C 	0.1356	0.6346	0.49321	-0.032
Mof_C 	C 	0.8577	0.6479	0.66513	-0.434
Mof_C 	C 	0.1073	0.5279	0.7106	-0.415
Mof_S 	S 	0.61582	0.00361	0.49369	0.061
Mof_S 	S 	0.17609	0.78912	0.01326	0.044
Mof_S 	S 	0.2563	0.87522	0.53237	0.056
Mof_S 	S 	0.88418	0.99639	0.99369	0.049
Mof_S 	S 	0.32391	0.21088	0.51326	0.041
Mof_S 	S 	0.2437	0.12478	0.03237	0.053
Mof_S 	S 	0.38418	0.50361	0.00631	0.058
Mof_S 	S 	0.82391	0.28912	0.48674	0.042
Mof_S 	S 	0.7437	0.37522	0.96763	0.056
Mof_S 	S 	0.11582	0.49639	0.50631	0.059
Mof_S 	S 	0.67609	0.71088	0.98674	0.04
Mof_S 	S 	0.7563	0.62478	0.46763	0.055
Mof_N 	N 	0.5154	0.93854	0.8762	-0.262
Mof_N 	N 	0.6848	0.947	0.36662	-0.22
Mof_N 	N 	0.302	0.71292	0.1298	-0.235
Mof_N 	N 	0.6057	0.8898	0.60797	-0.233
Mof_N 	N 	0.2511	0.00464	0.64046	-0.25
Mof_N 	N 	0.2596	0.913	0.39985	-0.227
Mof_N 	N 	0.2398	0.72353	0.88724	-0.218
Mof_N 	N 	0.5324	0.9679	0.11826	-0.145
Mof_N 	N 	0.9846	0.06146	0.3762	-0.258
Mof_N 	N 	0.8152	0.053	0.86662	-0.223
Mof_N 	N 	0.198	0.28708	0.6298	-0.235
Mof_N 	N 	0.8943	0.1102	0.10797	-0.234
Mof_N 	N 	0.2489	0.99536	0.14046	-0.244
Mof_N 	N 	0.2404	0.087	0.89985	-0.226
Mof_N 	N 	0.2602	0.27647	0.38724	-0.218
Mof_N 	N 	0.9676	0.0321	0.61826	-0.142
Mof_N 	N 	0.4846	0.43854	0.6238	-0.262
Mof_N 	N 	0.3152	0.447	0.13338	-0.221
Mof_N 	N 	0.698	0.21292	0.3702	-0.235
Mof_N 	N 	0.3943	0.3898	0.89203	-0.233
Mof_N 	N 	0.7489	0.50464	0.85954	-0.247
Mof_N 	N 	0.7404	0.413	0.10015	-0.227
Mof_N 	N 	0.7602	0.22353	0.61276	-0.218
Mof_N 	N 	0.4676	0.4679	0.38174	-0.144
Mof_N 	N 	0.0154	0.56146	0.1238	-0.261
Mof_N 	N 	0.1848	0.553	0.63338	-0.221
Mof_N 	N 	0.802	0.78708	0.8702	-0.234
Mof_N 	N 	0.1057	0.6102	0.39203	-0.233
Mof_N 	N 	0.7511	0.49536	0.35954	-0.247
Mof_N 	N 	0.7596	0.587	0.60015	-0.227
Mof_N 	N 	0.7398	0.77647	0.11276	-0.218
Mof_N 	N 	0.0324	0.5321	0.88174	-0.144
Mof_O 	O 	0.3826	0.77134	0.79384	-0.662
Mof_O 	O 	0.5096	0.84425	0.72181	-0.649
Mof_O 	O 	0.1014	0.8765	0.29764	-0.583
Mof_O 	O 	0.8372	0.87992	0.30412	-0.575
Mof_O 	O 	0.1473	0.76267	0.22924	-0.552
Mof_O 	O 	0.403	0.98958	0.72111	-0.446
Mof_O 	O 	0.1242	0.65811	0.18941	-0.558
Mof_O 	O 	0.8956	0.99252	0.28323	-0.615
Mof_O 	O 	0.2705	0.90728	0.74347	-0.445
Mof_O 	O 	0.3073	0.85728	0.83751	-0.49
Mof_O 	O 	0.1655	0.98555	0.323	-0.521
Mof_O 	O 	0.2623	0.88274	0.63087	-0.253
Mof_O 	O 	0.5818	0.00864	0.59072	-0.242
Mof_O 	O 	0.2149	0.8145	0.44388	-0.231
Mof_O 	O 	0.2153	0.82197	0.11166	-0.251
Mof_O 	O 	0.5391	0.77481	0.66168	-0.465
Mof_O 	O 	0.6422	0.05572	0.40088	-0.239
Mof_O 	O 	0.0974	0.7976	0.91794	-0.229
Mof_O 	O 	0.1174	0.22866	0.29384	-0.662
Mof_O 	O 	0.9904	0.15575	0.22181	-0.645
Mof_O 	O 	0.3986	0.1235	0.79764	-0.587
Mof_O 	O 	0.6628	0.12008	0.80412	-0.575
Mof_O 	O 	0.3527	0.23733	0.72924	-0.554
Mof_O 	O 	0.097	0.01042	0.22111	-0.448
Mof_O 	O 	0.3758	0.34189	0.68941	-0.56
Mof_O 	O 	0.6044	0.00748	0.78323	-0.612
Mof_O 	O 	0.2295	0.09272	0.24347	-0.446
Mof_O 	O 	0.1927	0.14272	0.33751	-0.491
Mof_O 	O 	0.3345	0.01445	0.823	-0.525
Mof_O 	O 	0.2377	0.11726	0.13087	-0.254
Mof_O 	O 	0.9182	0.99136	0.09072	-0.248
Mof_O 	O 	0.2851	0.1855	0.94388	-0.23
Mof_O 	O 	0.2847	0.17803	0.61166	-0.253
Mof_O 	O 	0.9609	0.22519	0.16168	-0.464
Mof_O 	O 	0.8578	0.94428	0.90088	-0.245
Mof_O 	O 	0.4026	0.2024	0.41794	-0.231
Mof_O 	O 	0.6174	0.27134	0.70616	-0.662
Mof_O 	O 	0.4904	0.34425	0.77819	-0.649
Mof_O 	O 	0.8986	0.3765	0.20236	-0.585
Mof_O 	O 	0.1628	0.37992	0.19588	-0.575
Mof_O 	O 	0.8527	0.26267	0.27076	-0.553
Mof_O 	O 	0.597	0.48958	0.77889	-0.446
Mof_O 	O 	0.8758	0.15811	0.31059	-0.557
Mof_O 	O 	0.1044	0.49252	0.21677	-0.613
Mof_O 	O 	0.7295	0.40728	0.75653	-0.446
Mof_O 	O 	0.6927	0.35728	0.66249	-0.49
Mof_O 	O 	0.8345	0.48555	0.177	-0.524
Mof_O 	O 	0.7377	0.38274	0.86913	-0.253
Mof_O 	O 	0.4182	0.50864	0.90928	-0.244
Mof_O 	O 	0.7851	0.3145	0.05612	-0.231
Mof_O 	O 	0.7847	0.32197	0.38834	-0.252
Mof_O 	O 	0.4609	0.27481	0.83832	-0.465
Mof_O 	O 	0.3578	0.55572	0.09912	-0.24
Mof_O 	O 	0.9026	0.2976	0.58206	-0.23
Mof_O 	O 	0.8826	0.72866	0.20616	-0.662
Mof_O 	O 	0.0096	0.65575	0.27819	-0.646
Mof_O 	O 	0.6014	0.6235	0.70236	-0.587
Mof_O 	O 	0.3372	0.62008	0.69588	-0.575
Mof_O 	O 	0.6473	0.73733	0.77076	-0.554
Mof_O 	O 	0.903	0.51042	0.27889	-0.445
Mof_O 	O 	0.6242	0.84189	0.81059	-0.56
Mof_O 	O 	0.3956	0.50748	0.71677	-0.614
Mof_O 	O 	0.7705	0.59272	0.25653	-0.445
Mof_O 	O 	0.8073	0.64272	0.16249	-0.49
Mof_O 	O 	0.6655	0.51445	0.677	-0.525
Mof_O 	O 	0.7623	0.61726	0.36913	-0.254
Mof_O 	O 	0.0818	0.49136	0.40928	-0.244
Mof_O 	O 	0.7149	0.6855	0.55612	-0.231
Mof_O 	O 	0.7153	0.67803	0.88834	-0.253
Mof_O 	O 	0.0391	0.72519	0.33832	-0.463
Mof_O 	O 	0.1422	0.44428	0.59912	-0.24
Mof_O 	O 	0.5974	0.7024	0.08206	-0.231
_end
