data_functionalizedCrystal
_audit_creation_method	'EQeq! by Chris Wilmer'
_symmetry_space_group_name_H-M	'P1'
_symmetry_Int_Tables_number	1
_symmetry_cell_setting	triclinic
loop_
_symmetry_equiv_pos_as_xyz
  x,y,z
_cell_length_a	20.7748
_cell_length_b	12.0341
_cell_length_c	10.3486
_cell_angle_alpha	90
_cell_angle_beta	90
_cell_angle_gamma	90
loop_
_atom_site_label
_atom_site_type_symbol
_atom_site_fract_x
_atom_site_fract_y
_atom_site_fract_z
_atom_site_charge
Mof_C 	C 	0.2157	0.2689	0.3452	-0.365
Mof_H 	H 	0.1884	0.2901	0.4145	-0.002
Mof_C 	C 	0.197	0.2324	0.2257	-0.135
Mof_C 	C 	0.1276	0.2097	0.1789	-0.222
Mof_C 	C 	0.1085	0.0906	0.2181	0.005
Mof_C 	C 	0.9294	0.9425	0.6785	0.373
Mof_H 	H 	0.9512	0.8954	0.6191	-0.102
Mof_C 	C 	0.1224	0.2247	0.032	0.21
Mof_C 	C 	0.1414	0.3356	0.9761	-0.264
Mof_H 	H 	0.1273	0.3951	0.0343	-0.033
Mof_H 	H 	0.121	0.3451	0.8915	0.039
Mof_H 	H 	0.1883	0.3387	0.9663	-0.061
Mof_C 	C 	0.0834	0.2956	0.249	0.153
Mof_H 	H 	0.0831	0.2782	0.3425	-0.085
Mof_H 	H 	0.1025	0.3705	0.2386	-0.154
Mof_C 	C 	0.0126	0.2991	0.2	-0.315
Mof_H 	H 	0.0119	0.3225	0.1094	0.067
Mof_H 	H 	0.9879	0.352	0.2523	0.061
Mof_H 	H 	0.9934	0.225	0.2077	0.021
Mof_C 	C 	0.2275	0.165	0.735	-0.103
Mof_H 	H 	0.1494	0.167	0.9905	-0.255
Mof_H 	H 	0.0772	0.2098	0.0068	-0.184
Mof_O 	O 	0.107	0.064	0.682	-0.235
Mof_C 	C 	0.164	0.129	0.673	-0.023
Mof_C 	C 	0.2843	0.7311	0.3452	-0.341
Mof_H 	H 	0.3116	0.7099	0.4145	0.001
Mof_C 	C 	0.303	0.7676	0.2257	-0.119
Mof_C 	C 	0.3724	0.7903	0.1789	-0.122
Mof_C 	C 	0.3915	0.9094	0.2181	-0.036
Mof_C 	C 	0.5706	0.0575	0.6785	-0.686
Mof_H 	H 	0.5488	0.1046	0.6191	0.157
Mof_C 	C 	0.3776	0.7753	0.032	0.076
Mof_C 	C 	0.3586	0.6644	0.9761	-0.141
Mof_H 	H 	0.3727	0.6049	0.0343	-0.071
Mof_H 	H 	0.379	0.6549	0.8915	0.007
Mof_H 	H 	0.3117	0.6613	0.9663	-0.091
Mof_C 	C 	0.4166	0.7044	0.249	0.114
Mof_H 	H 	0.4169	0.7218	0.3425	-0.066
Mof_H 	H 	0.3975	0.6295	0.2386	-0.144
Mof_C 	C 	0.4874	0.7009	0.2	-0.32
Mof_H 	H 	0.4881	0.6775	0.1094	0.072
Mof_H 	H 	0.5121	0.648	0.2523	0.069
Mof_H 	H 	0.5066	0.775	0.2077	0.054
Mof_C 	C 	0.2725	0.835	0.735	-0.085
Mof_H 	H 	0.3506	0.833	0.9905	-0.132
Mof_H 	H 	0.4228	0.7902	0.0068	-0.104
Mof_O 	O 	0.393	0.936	0.682	0.114
Mof_C 	C 	0.336	0.871	0.673	0.046
Mof_C 	C 	0.7843	0.2689	0.6548	-0.365
Mof_H 	H 	0.8116	0.2901	0.5855	-0.002
Mof_C 	C 	0.803	0.2324	0.7743	-0.135
Mof_C 	C 	0.8724	0.2097	0.8211	-0.222
Mof_C 	C 	0.8915	0.0906	0.7819	0.005
Mof_C 	C 	0.0706	0.9425	0.3215	0.373
Mof_H 	H 	0.0488	0.8954	0.3809	-0.102
Mof_C 	C 	0.8776	0.2247	0.968	0.21
Mof_C 	C 	0.8586	0.3356	0.0239	-0.264
Mof_H 	H 	0.8727	0.3951	0.9657	-0.033
Mof_H 	H 	0.879	0.3451	0.1085	0.039
Mof_H 	H 	0.8117	0.3387	0.0337	-0.061
Mof_C 	C 	0.9166	0.2956	0.751	0.153
Mof_H 	H 	0.9169	0.2782	0.6575	-0.085
Mof_H 	H 	0.8975	0.3705	0.7614	-0.154
Mof_C 	C 	0.9874	0.2991	0.8	-0.315
Mof_H 	H 	0.9881	0.3225	0.8906	0.067
Mof_H 	H 	0.0121	0.352	0.7477	0.061
Mof_H 	H 	0.0066	0.225	0.7923	0.021
Mof_C 	C 	0.7725	0.165	0.265	-0.103
Mof_H 	H 	0.8506	0.167	0.0095	-0.255
Mof_H 	H 	0.9228	0.2098	0.9932	-0.184
Mof_O 	O 	0.893	0.064	0.318	-0.235
Mof_C 	C 	0.836	0.129	0.327	-0.023
Mof_C 	C 	0.7157	0.7311	0.6548	-0.341
Mof_H 	H 	0.6884	0.7099	0.5855	0.001
Mof_C 	C 	0.697	0.7676	0.7743	-0.119
Mof_C 	C 	0.6276	0.7903	0.8211	-0.122
Mof_C 	C 	0.6085	0.9094	0.7819	-0.036
Mof_C 	C 	0.4294	0.0575	0.3215	-0.686
Mof_H 	H 	0.4512	0.1046	0.3809	0.157
Mof_C 	C 	0.6224	0.7753	0.968	0.076
Mof_C 	C 	0.6414	0.6644	0.0239	-0.141
Mof_H 	H 	0.6273	0.6049	0.9657	-0.071
Mof_H 	H 	0.621	0.6549	0.1085	0.007
Mof_H 	H 	0.6883	0.6613	0.0337	-0.091
Mof_C 	C 	0.5834	0.7044	0.751	0.114
Mof_H 	H 	0.5831	0.7218	0.6575	-0.066
Mof_H 	H 	0.6025	0.6295	0.7614	-0.144
Mof_C 	C 	0.5126	0.7009	0.8	-0.32
Mof_H 	H 	0.5119	0.6775	0.8906	0.072
Mof_H 	H 	0.4879	0.648	0.7477	0.069
Mof_H 	H 	0.4934	0.775	0.7923	0.054
Mof_C 	C 	0.7275	0.835	0.265	-0.085
Mof_H 	H 	0.6494	0.833	0.0095	-0.132
Mof_H 	H 	0.5772	0.7902	0.9932	-0.104
Mof_O 	O 	0.607	0.936	0.318	0.114
Mof_C 	C 	0.664	0.871	0.327	0.046
Mof_C 	C 	0.7843	0.7311	0.6548	-0.341
Mof_H 	H 	0.8116	0.7099	0.5855	0.001
Mof_C 	C 	0.803	0.7676	0.7743	-0.118
Mof_C 	C 	0.8724	0.7903	0.8211	-0.123
Mof_C 	C 	0.8915	0.9094	0.7819	-0.035
Mof_C 	C 	0.0706	0.0575	0.3215	-0.682
Mof_H 	H 	0.0488	0.1046	0.3809	0.156
Mof_C 	C 	0.8776	0.7753	0.968	0.087
Mof_C 	C 	0.8586	0.6644	0.0239	-0.158
Mof_H 	H 	0.8727	0.6049	0.9657	-0.066
Mof_H 	H 	0.879	0.6549	0.1085	0.011
Mof_H 	H 	0.8117	0.6613	0.0337	-0.086
Mof_C 	C 	0.9166	0.7044	0.751	0.109
Mof_H 	H 	0.9169	0.7218	0.6575	-0.065
Mof_H 	H 	0.8975	0.6295	0.7614	-0.143
Mof_C 	C 	0.9874	0.7009	0.8	-0.304
Mof_H 	H 	0.9881	0.6775	0.8906	0.068
Mof_H 	H 	0.0121	0.648	0.7477	0.063
Mof_H 	H 	0.0066	0.775	0.7923	0.047
Mof_C 	C 	0.7725	0.835	0.265	-0.085
Mof_H 	H 	0.8506	0.833	0.0095	-0.137
Mof_H 	H 	0.9228	0.7902	0.9932	-0.106
Mof_O 	O 	0.893	0.936	0.318	0.112
Mof_C 	C 	0.836	0.871	0.327	0.046
Mof_C 	C 	0.7157	0.2689	0.6548	-0.365
Mof_H 	H 	0.6884	0.2901	0.5855	-0.002
Mof_C 	C 	0.697	0.2324	0.7743	-0.135
Mof_C 	C 	0.6276	0.2097	0.8211	-0.222
Mof_C 	C 	0.6085	0.0906	0.7819	0.005
Mof_C 	C 	0.4294	0.9425	0.3215	0.377
Mof_H 	H 	0.4512	0.8954	0.3809	-0.103
Mof_C 	C 	0.6224	0.2247	0.968	0.199
Mof_C 	C 	0.6414	0.3356	0.0239	-0.247
Mof_H 	H 	0.6273	0.3951	0.9657	-0.038
Mof_H 	H 	0.621	0.3451	0.1085	0.035
Mof_H 	H 	0.6883	0.3387	0.0337	-0.065
Mof_C 	C 	0.5834	0.2956	0.751	0.159
Mof_H 	H 	0.5831	0.2782	0.6575	-0.087
Mof_H 	H 	0.6025	0.3705	0.7614	-0.156
Mof_C 	C 	0.5126	0.2991	0.8	-0.331
Mof_H 	H 	0.5119	0.3225	0.8906	0.071
Mof_H 	H 	0.4879	0.352	0.7477	0.068
Mof_H 	H 	0.4934	0.225	0.7923	0.028
Mof_C 	C 	0.7275	0.165	0.265	-0.103
Mof_H 	H 	0.6494	0.167	0.0095	-0.251
Mof_H 	H 	0.5772	0.2098	0.9932	-0.183
Mof_O 	O 	0.607	0.064	0.318	-0.236
Mof_C 	C 	0.664	0.129	0.327	-0.023
Mof_C 	C 	0.2157	0.7311	0.3452	-0.341
Mof_H 	H 	0.1884	0.7099	0.4145	0.001
Mof_C 	C 	0.197	0.7676	0.2257	-0.118
Mof_C 	C 	0.1276	0.7903	0.1789	-0.123
Mof_C 	C 	0.1085	0.9094	0.2181	-0.035
Mof_C 	C 	0.9294	0.0575	0.6785	-0.682
Mof_H 	H 	0.9512	0.1046	0.6191	0.156
Mof_C 	C 	0.1224	0.7753	0.032	0.087
Mof_C 	C 	0.1414	0.6644	0.9761	-0.158
Mof_H 	H 	0.1273	0.6049	0.0343	-0.066
Mof_H 	H 	0.121	0.6549	0.8915	0.011
Mof_H 	H 	0.1883	0.6613	0.9663	-0.086
Mof_C 	C 	0.0834	0.7044	0.249	0.109
Mof_H 	H 	0.0831	0.7218	0.3425	-0.065
Mof_H 	H 	0.1025	0.6295	0.2386	-0.143
Mof_C 	C 	0.0126	0.7009	0.2	-0.304
Mof_H 	H 	0.0119	0.6775	0.1094	0.068
Mof_H 	H 	0.9879	0.648	0.2523	0.063
Mof_H 	H 	0.9934	0.775	0.2077	0.047
Mof_C 	C 	0.2275	0.835	0.735	-0.085
Mof_H 	H 	0.1494	0.833	0.9905	-0.137
Mof_H 	H 	0.0772	0.7902	0.0068	-0.106
Mof_O 	O 	0.107	0.936	0.682	0.112
Mof_C 	C 	0.164	0.871	0.673	0.046
Mof_C 	C 	0.2843	0.2689	0.3452	-0.365
Mof_H 	H 	0.3116	0.2901	0.4145	-0.002
Mof_C 	C 	0.303	0.2324	0.2257	-0.135
Mof_C 	C 	0.3724	0.2097	0.1789	-0.222
Mof_C 	C 	0.3915	0.0906	0.2181	0.005
Mof_C 	C 	0.5706	0.9425	0.6785	0.377
Mof_H 	H 	0.5488	0.8954	0.6191	-0.103
Mof_C 	C 	0.3776	0.2247	0.032	0.199
Mof_C 	C 	0.3586	0.3356	0.9761	-0.247
Mof_H 	H 	0.3727	0.3951	0.0343	-0.038
Mof_H 	H 	0.379	0.3451	0.8915	0.035
Mof_H 	H 	0.3117	0.3387	0.9663	-0.065
Mof_C 	C 	0.4166	0.2956	0.249	0.159
Mof_H 	H 	0.4169	0.2782	0.3425	-0.087
Mof_H 	H 	0.3975	0.3705	0.2386	-0.156
Mof_C 	C 	0.4874	0.2991	0.2	-0.331
Mof_H 	H 	0.4881	0.3225	0.1094	0.071
Mof_H 	H 	0.5121	0.352	0.2523	0.068
Mof_H 	H 	0.5066	0.225	0.2077	0.028
Mof_C 	C 	0.2725	0.165	0.735	-0.103
Mof_H 	H 	0.3506	0.167	0.9905	-0.251
Mof_H 	H 	0.4228	0.2098	0.0068	-0.183
Mof_O 	O 	0.393	0.064	0.682	-0.236
Mof_C 	C 	0.336	0.129	0.673	-0.023
Mof_Cs	Cs	0.25	0	0.96634	2.294
Mof_Cs	Cs	0.25	0	0.35131	2.502
Mof_Cs	Cs	0.75	0	0.03366	2.294
Mof_Cs	Cs	0.75	-4.87852e-33	0.64869	2.502
Mof_Cs	Cs	0.01411	-9.75705e-33	0.97218	1.022
Mof_N 	N 	0.1311	0	0.1536	-0.556
Mof_O 	O 	0.136	0	0.748	-0.519
Mof_Cs	Cs	0.48589	-9.75705e-33	0.97218	1.024
Mof_N 	N 	0.3689	0	0.1536	-0.558
Mof_O 	O 	0.364	0	0.748	-0.521
Mof_Cs	Cs	0.98589	-3.04908e-34	0.02782	1.022
Mof_N 	N 	0.8689	0	0.8464	-0.556
Mof_O 	O 	0.864	2.43926e-33	0.252	-0.519
Mof_Cs	Cs	0.51411	-3.04908e-34	0.02782	1.024
Mof_N 	N 	0.6311	0	0.8464	-0.558
Mof_O 	O 	0.636	2.43926e-33	0.252	-0.521
Mof_Cs	Cs	0.25	0.5	0.1653	1.664
Mof_Cs	Cs	0.25	0.5	0.2755	1.598
Mof_Cs	Cs	0.75	0.5	0.8347	1.664
Mof_Cs	Cs	0.75	0.5	0.7245	1.598
Mof_N 	N 	0.25	0.2086	0.1512	-0.346
Mof_O 	O 	0.25	0.078	0.653	-0.43
Mof_N 	N 	0.25	0.7914	0.1512	-0.295
Mof_O 	O 	0.25	0.922	0.653	-0.168
Mof_N 	N 	0.75	0.2086	0.8488	-0.346
Mof_O 	O 	0.75	0.078	0.347	-0.43
Mof_N 	N 	0.75	0.7914	0.8488	-0.295
Mof_O 	O 	0.75	0.922	0.347	-0.168
_end
