data_functionalizedCrystal
_audit_creation_method	'EQeq! by Chris Wilmer'
_symmetry_space_group_name_H-M	'P1'
_symmetry_Int_Tables_number	1
_symmetry_cell_setting	triclinic
loop_
_symmetry_equiv_pos_as_xyz
  x,y,z
_cell_length_a	10.4511
_cell_length_b	11.5252
_cell_length_c	12.9767
_cell_angle_alpha	106.487
_cell_angle_beta	90.202
_cell_angle_gamma	93.46
loop_
_atom_site_label
_atom_site_type_symbol
_atom_site_fract_x
_atom_site_fract_y
_atom_site_fract_z
_atom_site_charge
Mof_Ce	Ce	0.52662	0.54629	0.66503	2.31
Mof_O 	O 	0.6148	0.72386	0.81689	-0.498
Mof_O 	O 	0.40563	0.71658	0.78693	-0.462
Mof_O 	O 	0.64595	0.49083	0.49178	-0.665
Mof_O 	O 	0.71564	0.52709	0.34353	-0.483
Mof_O 	O 	0.5118	0.32731	0.58558	-0.593
Mof_O 	O 	0.46141	0.27339	0.41021	-0.536
Mof_C 	C 	0.5069	0.7685	0.8349	0.328
Mof_C 	C 	0.5006	0.8884	0.9188	-0.098
Mof_C 	C 	0.5534	0.9949	0.8984	0.04
Mof_C 	C 	0.6039	0.995	0.7957	-0.067
Mof_H 	H 	0.6032	0.9212	0.7396	0.067
Mof_C 	C 	0.6526	0.099	0.7777	-0.037
Mof_H 	H 	0.685	0.0973	0.709	0.041
Mof_C 	C 	0.6557	0.2108	0.8604	-0.029
Mof_H 	H 	0.6912	0.2828	0.8469	0.003
Mof_C 	C 	0.6081	0.2151	0.9585	-0.073
Mof_H 	H 	0.6107	0.2904	0.0129	0.033
Mof_C 	C 	0.5541	0.1081	0.9818	0.034
Mof_C 	C 	0.7367	0.511	0.4324	0.424
Mof_C 	C 	0.8725	0.506	0.4679	-0.154
Mof_C 	C 	0.9254	0.5953	0.5568	0.025
Mof_C 	C 	0.8539	0.694	0.6156	-0.082
Mof_H 	H 	0.7683	0.6999	0.5935	0.022
Mof_C 	C 	0.9068	0.7795	0.7027	-0.043
Mof_H 	H 	0.8576	0.8437	0.7414	0.042
Mof_C 	C 	0.0354	0.7733	0.7361	-0.029
Mof_H 	H 	0.0714	0.8336	0.7969	0.04
Mof_C 	C 	0.1071	0.6822	0.682	-0.087
Mof_H 	H 	0.193	0.6799	0.705	0.066
Mof_C 	C 	0.0554	0.5897	0.5908	0.043
Mof_C 	C 	0.4885	0.2513	0.496	0.509
Mof_C 	C 	0.4936	0.1203	0.49563	-0.153
Mof_C 	C 	0.3838	0.0606	0.5263	0.03
Mof_C 	C 	0.2691	0.1195	0.5518	-0.018
Mof_H 	H 	0.2655	0.2014	0.5511	0.012
Mof_C 	C 	0.1642	0.0601	0.5774	0.003
Mof_H 	H 	0.0863	0.0996	0.592	0.015
Mof_C 	C 	0.1691	0.9391	0.5827	-0.012
Mof_H 	H 	0.095	0.8988	0.6021	0.025
Mof_C 	C 	0.2795	0.8802	0.5599	-0.03
Mof_H 	H 	0.281	0.7993	0.5639	0.044
Mof_C 	C 	0.393	0.9373	0.5303	0.011
Mof_C 	C 	0.388	0.054	0.505	0.011
Mof_C 	C 	0.255	0.0983	0.5114	-0.045
Mof_H 	H 	0.2443	0.1785	0.5081	0.037
Mof_C 	C 	0.149	0.0273	0.5218	-0.045
Mof_H 	H 	0.0667	0.059	0.5264	0.031
Mof_C 	C 	0.1609	0.9057	0.5258	-0.034
Mof_H 	H 	0.0859	0.8587	0.534	0.027
Mof_C 	C 	0.2725	0.8565	0.5184	-0.025
Mof_H 	H 	0.279	0.7749	0.5191	-0.004
Mof_C 	C 	0.386	0.934	0.509	0.026
Mof_Ce	Ce	0.47338	0.45371	0.33497	2.311
Mof_O 	O 	0.3852	0.27614	0.18311	-0.497
Mof_O 	O 	0.59437	0.28342	0.21307	-0.461
Mof_O 	O 	0.35405	0.50917	0.50822	-0.664
Mof_O 	O 	0.28436	0.47291	0.65647	-0.482
Mof_O 	O 	0.4882	0.67269	0.41442	-0.592
Mof_O 	O 	0.53859	0.72661	0.58979	-0.536
Mof_C 	C 	0.4931	0.2315	0.1651	0.328
Mof_C 	C 	0.4994	0.1116	0.0812	-0.098
Mof_C 	C 	0.4466	0.0051	0.1016	0.04
Mof_C 	C 	0.3961	0.005	0.2043	-0.067
Mof_H 	H 	0.3968	0.0788	0.2604	0.067
Mof_C 	C 	0.3474	0.901	0.2223	-0.037
Mof_H 	H 	0.315	0.9027	0.291	0.041
Mof_C 	C 	0.3443	0.7892	0.1396	-0.029
Mof_H 	H 	0.3088	0.7172	0.1531	0.003
Mof_C 	C 	0.3919	0.7849	0.0415	-0.073
Mof_H 	H 	0.3893	0.7096	0.9871	0.033
Mof_C 	C 	0.4459	0.8919	0.0182	0.034
Mof_C 	C 	0.2633	0.489	0.5676	0.424
Mof_C 	C 	0.1275	0.494	0.5321	-0.154
Mof_C 	C 	0.0746	0.4047	0.4432	0.025
Mof_C 	C 	0.1461	0.306	0.3844	-0.082
Mof_H 	H 	0.2317	0.3001	0.4065	0.022
Mof_C 	C 	0.0932	0.2205	0.2973	-0.043
Mof_H 	H 	0.1424	0.1563	0.2586	0.042
Mof_C 	C 	0.9646	0.2267	0.2639	-0.029
Mof_H 	H 	0.9286	0.1664	0.2031	0.04
Mof_C 	C 	0.8929	0.3178	0.318	-0.087
Mof_H 	H 	0.807	0.3201	0.295	0.066
Mof_C 	C 	0.9446	0.4103	0.4092	0.043
Mof_C 	C 	0.5115	0.7487	0.504	0.509
Mof_C 	C 	0.5064	0.8797	0.50437	-0.153
Mof_C 	C 	0.6162	0.9394	0.4737	0.03
Mof_C 	C 	0.7309	0.8805	0.4482	-0.018
Mof_H 	H 	0.7345	0.7986	0.4489	0.012
Mof_C 	C 	0.8358	0.9399	0.4226	0.003
Mof_H 	H 	0.9137	0.9004	0.408	0.015
Mof_C 	C 	0.8309	0.0609	0.4173	-0.012
Mof_H 	H 	0.905	0.1012	0.3979	0.025
Mof_C 	C 	0.7205	0.1198	0.4401	-0.03
Mof_H 	H 	0.719	0.2007	0.4361	0.044
Mof_C 	C 	0.607	0.0627	0.4697	0.011
Mof_C 	C 	0.612	0.946	0.495	0.011
Mof_C 	C 	0.745	0.9017	0.4886	-0.045
Mof_H 	H 	0.7557	0.8215	0.4919	0.037
Mof_C 	C 	0.851	0.9727	0.4782	-0.045
Mof_H 	H 	0.9333	0.941	0.4736	0.031
Mof_C 	C 	0.8391	0.0943	0.4742	-0.034
Mof_H 	H 	0.9141	0.1413	0.466	0.027
Mof_C 	C 	0.7275	0.1435	0.4816	-0.025
Mof_H 	H 	0.721	0.2251	0.4809	-0.004
Mof_C 	C 	0.614	0.066	0.491	0.026
_end
