# CIF file generated by openbabel 3.1.0, see https://openbabel.org
data_I
_chemical_name_common 'image0'
_cell_length_a 14.944
_cell_length_b 16.94
_cell_length_c 10.384
_cell_angle_alpha 90
_cell_angle_beta 123.74
_cell_angle_gamma 90
_space_group_name_H-M_alt 'P 1'
_space_group_name_Hall 'P 1'
loop_
    _symmetry_equiv_pos_as_xyz
    x,y,z
loop_
    _atom_site_label
    _atom_site_type_symbol
    _atom_site_fract_x
    _atom_site_fract_y
    _atom_site_fract_z
    _atom_site_occupancy
    Co1      Co       0.15470    0.45180    0.67146    1.000
    O1       O        0.14317    0.49604    0.85270    1.000
    N1       N        0.99090    0.47405    0.48980    1.000
    N2       N        0.19940    0.57668    0.68700    1.000
    O2       O        0.18549    0.40247    0.51450    1.000
    N3       N        0.11150    0.33807    0.70280    1.000
    C1       C        0.17420    0.56537    0.89820    1.000
    C2       C        0.93400    0.53750    0.47990    1.000
    C3       C        0.94060    0.42296    0.37080    1.000
    S1       S        0.23794    0.63992    0.60764    1.000
    C4       C        0.20180    0.61408    0.80310    1.000
    C5       C        0.83100    0.55240    0.35340    1.000
    H1       H        0.96520    0.57320    0.56170    1.000
    C6       C        0.83870    0.43427    0.24040    1.000
    H2       H        0.97690    0.37700    0.37700    1.000
    N4       N        0.25710    0.71612    0.71820    1.000
    C7       C        0.23350    0.69454    0.81890    1.000
    H3       H        0.79490    0.59750    0.35170    1.000
    C8       C        0.78110    0.50088    0.22950    1.000
    H4       H        0.80890    0.39750    0.16040    1.000
    C9       C        0.24160    0.75506    0.93480    1.000
    C10      C        0.67080    0.51820    0.08520    1.000
    O3       O        0.15850    0.79226    0.89410    1.000
    O4       O        0.33170    0.76317    0.05720    1.000
    H5       H        0.61960    0.52640    0.11360    1.000
    H6       H        0.64670    0.47330    0.01550    1.000
    C11      C        0.67490    0.59130    0.00360    1.000
    C12      C        0.56960    0.61150    0.85320    1.000
    H7       H        0.69660    0.63590    0.07340    1.000
    H8       H        0.72970    0.58350    0.98210    1.000
    H9       H        0.55170    0.57050    0.77740    1.000
    H10      H        0.51240    0.61400    0.87090    1.000
    C13      C        0.57840    0.68981    0.79150    1.000
    C14      C        0.51720    0.75540    0.77700    1.000
    C15      C        0.65340    0.70110    0.75440    1.000
    H11      H        0.46390    0.75080    0.79690    1.000
    C16      C        0.53580    0.82720    0.73330    1.000
    H12      H        0.69480    0.65880    0.75900    1.000
    C17      C        0.66720    0.77413    0.71100    1.000
    H13      H        0.49390    0.87010    0.72440    1.000
    H14      H        0.71770    0.77950    0.68590    1.000
    Co2      Co       0.65470    0.95180    0.67146    1.000
    O5       O        0.64317    0.99604    0.85270    1.000
    N5       N        0.49090    0.97405    0.48980    1.000
    N6       N        0.69940    0.07668    0.68700    1.000
    O6       O        0.68549    0.90247    0.51450    1.000
    N7       N        0.61150    0.83807    0.70280    1.000
    C18      C        0.67420    0.06537    0.89820    1.000
    C19      C        0.43400    0.03750    0.47990    1.000
    C20      C        0.44060    0.92296    0.37080    1.000
    S2       S        0.73794    0.13992    0.60764    1.000
    C21      C        0.70180    0.11408    0.80310    1.000
    C22      C        0.33100    0.05240    0.35340    1.000
    H15      H        0.46520    0.07320    0.56170    1.000
    C23      C        0.33870    0.93427    0.24040    1.000
    H16      H        0.47690    0.87700    0.37700    1.000
    N8       N        0.75710    0.21612    0.71820    1.000
    C24      C        0.73350    0.19454    0.81890    1.000
    H17      H        0.29490    0.09750    0.35170    1.000
    C25      C        0.28110    0.00088    0.22950    1.000
    H18      H        0.30890    0.89750    0.16040    1.000
    C26      C        0.74160    0.25506    0.93480    1.000
    C27      C        0.17080    0.01820    0.08520    1.000
    O7       O        0.65850    0.29226    0.89410    1.000
    O8       O        0.83170    0.26317    0.05720    1.000
    H19      H        0.11960    0.02640    0.11360    1.000
    H20      H        0.14670    0.97330    0.01550    1.000
    C28      C        0.17490    0.09130    0.00360    1.000
    C29      C        0.06960    0.11150    0.85320    1.000
    H21      H        0.19660    0.13590    0.07340    1.000
    H22      H        0.22970    0.08350    0.98210    1.000
    H23      H        0.05170    0.07050    0.77740    1.000
    H24      H        0.01240    0.11400    0.87090    1.000
    C30      C        0.07840    0.18981    0.79150    1.000
    C31      C        0.01720    0.25540    0.77700    1.000
    C32      C        0.15340    0.20110    0.75440    1.000
    H25      H        0.96390    0.25080    0.79690    1.000
    C33      C        0.03580    0.32720    0.73330    1.000
    H26      H        0.19480    0.15880    0.75900    1.000
    C34      C        0.16720    0.27413    0.71100    1.000
    H27      H        0.99390    0.37010    0.72440    1.000
    H28      H        0.21770    0.27950    0.68590    1.000
    Co3      Co       0.15470    0.54820    0.17146    1.000
    O9       O        0.14317    0.50396    0.35270    1.000
    N9       N        0.99090    0.52595    0.98980    1.000
    N10      N        0.19940    0.42332    0.18700    1.000
    O10      O        0.18549    0.59753    0.01450    1.000
    N11      N        0.11150    0.66193    0.20280    1.000
    C35      C        0.17420    0.43463    0.39820    1.000
    C36      C        0.93400    0.46250    0.97990    1.000
    C37      C        0.94060    0.57704    0.87080    1.000
    S3       S        0.23794    0.36008    0.10764    1.000
    C38      C        0.20180    0.38592    0.30310    1.000
    C39      C        0.83100    0.44760    0.85340    1.000
    H29      H        0.96520    0.42680    0.06170    1.000
    C40      C        0.83870    0.56573    0.74040    1.000
    H30      H        0.97690    0.62300    0.87700    1.000
    N12      N        0.25710    0.28388    0.21820    1.000
    C41      C        0.23350    0.30546    0.31890    1.000
    H31      H        0.79490    0.40250    0.85170    1.000
    C42      C        0.78110    0.49912    0.72950    1.000
    H32      H        0.80890    0.60250    0.66040    1.000
    C43      C        0.24160    0.24494    0.43480    1.000
    C44      C        0.67080    0.48180    0.58520    1.000
    O11      O        0.15850    0.20774    0.39410    1.000
    O12      O        0.33170    0.23683    0.55720    1.000
    H33      H        0.61960    0.47360    0.61360    1.000
    H34      H        0.64670    0.52670    0.51550    1.000
    C45      C        0.67490    0.40870    0.50360    1.000
    C46      C        0.56960    0.38850    0.35320    1.000
    H35      H        0.69660    0.36410    0.57340    1.000
    H36      H        0.72970    0.41650    0.48210    1.000
    H37      H        0.55170    0.42950    0.27740    1.000
    H38      H        0.51240    0.38600    0.37090    1.000
    C47      C        0.57840    0.31019    0.29150    1.000
    C48      C        0.51720    0.24460    0.27700    1.000
    C49      C        0.65340    0.29890    0.25440    1.000
    H39      H        0.46390    0.24920    0.29690    1.000
    C50      C        0.53580    0.17280    0.23330    1.000
    H40      H        0.69480    0.34120    0.25900    1.000
    C51      C        0.66720    0.22587    0.21100    1.000
    H41      H        0.49390    0.12990    0.22440    1.000
    H42      H        0.71770    0.22050    0.18590    1.000
    Co4      Co       0.65470    0.04820    0.17146    1.000
    O13      O        0.64317    0.00396    0.35270    1.000
    N13      N        0.49090    0.02595    0.98980    1.000
    N14      N        0.69940    0.92332    0.18700    1.000
    O14      O        0.68549    0.09753    0.01450    1.000
    N15      N        0.61150    0.16193    0.20280    1.000
    C52      C        0.67420    0.93463    0.39820    1.000
    C53      C        0.43400    0.96250    0.97990    1.000
    C54      C        0.44060    0.07704    0.87080    1.000
    S4       S        0.73794    0.86008    0.10764    1.000
    C55      C        0.70180    0.88592    0.30310    1.000
    C56      C        0.33100    0.94760    0.85340    1.000
    H43      H        0.46520    0.92680    0.06170    1.000
    C57      C        0.33870    0.06573    0.74040    1.000
    H44      H        0.47690    0.12300    0.87700    1.000
    N16      N        0.75710    0.78388    0.21820    1.000
    C58      C        0.73350    0.80546    0.31890    1.000
    H45      H        0.29490    0.90250    0.85170    1.000
    C59      C        0.28110    0.99912    0.72950    1.000
    H46      H        0.30890    0.10250    0.66040    1.000
    C60      C        0.74160    0.74494    0.43480    1.000
    C61      C        0.17080    0.98180    0.58520    1.000
    O15      O        0.65850    0.70774    0.39410    1.000
    O16      O        0.83170    0.73683    0.55720    1.000
    H47      H        0.11960    0.97360    0.61360    1.000
    H48      H        0.14670    0.02670    0.51550    1.000
    C62      C        0.17490    0.90870    0.50360    1.000
    C63      C        0.06960    0.88850    0.35320    1.000
    H49      H        0.19660    0.86410    0.57340    1.000
    H50      H        0.22970    0.91650    0.48210    1.000
    H51      H        0.05170    0.92950    0.27740    1.000
    H52      H        0.01240    0.88600    0.37090    1.000
    C64      C        0.07840    0.81019    0.29150    1.000
    C65      C        0.01720    0.74460    0.27700    1.000
    C66      C        0.15340    0.79890    0.25440    1.000
    H53      H        0.96390    0.74920    0.29690    1.000
    C67      C        0.03580    0.67280    0.23330    1.000
    H54      H        0.19480    0.84120    0.25900    1.000
    C68      C        0.16720    0.72587    0.21100    1.000
    H55      H        0.99390    0.62990    0.22440    1.000
    H56      H        0.21770    0.72050    0.18590    1.000
