data_functionalizedCrystal
_audit_creation_method	'EQeq! by Chris Wilmer'
_symmetry_space_group_name_H-M	'P1'
_symmetry_Int_Tables_number	1
_symmetry_cell_setting	triclinic
loop_
_symmetry_equiv_pos_as_xyz
  x,y,z
_cell_length_a	8.4411
_cell_length_b	9.1066
_cell_length_c	14.2327
_cell_angle_alpha	71.709
_cell_angle_beta	72.7501
_cell_angle_gamma	62.3893
loop_
_atom_site_label
_atom_site_type_symbol
_atom_site_fract_x
_atom_site_fract_y
_atom_site_fract_z
_atom_site_charge
Mof_Zn	Zn	0.28989	0.92134	0.63332	1.181
Mof_Zn	Zn	0.41067	0.2801	0.52926	1.181
Mof_Zn	Zn	0.84455	0.57866	0.86668	1.18
Mof_Zn	Zn	0.22003	0.2199	0.97074	1.182
Mof_Zn	Zn	0.71011	0.07866	0.36668	1.181
Mof_Zn	Zn	0.58933	0.7199	0.47074	1.181
Mof_Zn	Zn	0.15545	0.42134	0.13332	1.181
Mof_Zn	Zn	0.77997	0.7801	0.02926	1.183
Mof_Zn	Zn	0.1222	0.25	0.75	1.181
Mof_Zn	Zn	0.8778	0.75	0.25	1.181
Mof_H 	H 	0.146	0.23	0.578	0.292
Mof_H 	H 	0.371	0.994	0.45	0.286
Mof_H 	H 	0.954	0.27	0.922	0.287
Mof_H 	H 	0.815	0.506	0.05	0.286
Mof_H 	H 	0.854	0.77	0.422	0.292
Mof_H 	H 	0.629	0.006	0.55	0.286
Mof_H 	H 	0.046	0.73	0.078	0.287
Mof_H 	H 	0.185	0.494	0.95	0.286
Mof_C 	C 	0.02769	0.81145	0.81957	0.131
Mof_C 	C 	0.18157	0.59955	0.72531	0.136
Mof_C 	C 	0.65871	0.68855	0.68043	0.13
Mof_C 	C 	0.50643	0.90045	0.77469	0.137
Mof_C 	C 	0.97231	0.18855	0.18043	0.131
Mof_C 	C 	0.81843	0.40045	0.27469	0.136
Mof_C 	C 	0.34129	0.31145	0.31957	0.13
Mof_C 	C 	0.49357	0.09955	0.22531	0.137
Mof_N 	N 	0.05837	0.65711	0.80715	-0.331
Mof_N 	N 	0.09204	0.92571	0.75861	-0.257
Mof_N 	N 	0.01562	0.05832	0.80504	-0.189
Mof_N 	N 	0.91175	0.02794	0.88916	-0.106
Mof_N 	N 	0.91679	0.87337	0.90105	-0.278
Mof_N 	N 	0.28274	0.67686	0.65566	-0.23
Mof_N 	N 	0.37872	0.57864	0.58772	-0.138
Mof_N 	N 	0.34009	0.44708	0.61534	-0.218
Mof_N 	N 	0.21754	0.45309	0.70223	-0.252
Mof_N 	N 	0.52263	0.84289	0.69285	-0.331
Mof_N 	N 	0.77636	0.57429	0.74139	-0.257
Mof_N 	N 	0.87898	0.44168	0.69496	-0.193
Mof_N 	N 	0.82885	0.47206	0.61084	-0.104
Mof_N 	N 	0.69121	0.62663	0.59895	-0.278
Mof_N 	N 	0.61526	0.82314	0.84434	-0.23
Mof_N 	N 	0.54508	0.92136	0.91228	-0.138
Mof_N 	N 	0.40251	0.05292	0.88466	-0.218
Mof_N 	N 	0.37286	0.04691	0.79777	-0.252
Mof_N 	N 	0.94163	0.34289	0.19285	-0.331
Mof_N 	N 	0.90796	0.07429	0.24139	-0.257
Mof_N 	N 	0.98438	0.94168	0.19496	-0.189
Mof_N 	N 	0.08825	0.97206	0.11084	-0.106
Mof_N 	N 	0.08321	0.12663	0.09895	-0.278
Mof_N 	N 	0.71726	0.32314	0.34434	-0.23
Mof_N 	N 	0.62128	0.42136	0.41228	-0.138
Mof_N 	N 	0.65991	0.55292	0.38466	-0.218
Mof_N 	N 	0.78246	0.54691	0.29777	-0.252
Mof_N 	N 	0.47737	0.15711	0.30715	-0.331
Mof_N 	N 	0.22364	0.42571	0.25861	-0.257
Mof_N 	N 	0.12102	0.55832	0.30504	-0.193
Mof_N 	N 	0.17115	0.52794	0.38916	-0.104
Mof_N 	N 	0.30879	0.37337	0.40105	-0.278
Mof_N 	N 	0.38474	0.17686	0.15566	-0.23
Mof_N 	N 	0.45492	0.07864	0.08772	-0.138
Mof_N 	N 	0.59749	0.94708	0.11534	-0.218
Mof_N 	N 	0.62714	0.95309	0.20223	-0.252
Mof_O 	O 	0.22545	0.17979	0.61231	-0.94
Mof_O 	O 	0.36202	0.91091	0.48885	-0.859
Mof_O 	O 	0.01755	0.32021	0.88769	-0.934
Mof_O 	O 	0.76178	0.58909	0.01115	-0.858
Mof_O 	O 	0.77455	0.82021	0.38769	-0.94
Mof_O 	O 	0.63798	0.08909	0.51115	-0.859
Mof_O 	O 	0.98245	0.67979	0.11231	-0.934
Mof_O 	O 	0.23822	0.41091	0.98885	-0.858
_end
