# CIF file generated by openbabel 3.1.0, see https://openbabel.org
data_I
_chemical_name_common 'image0'
_cell_length_a 9.905
_cell_length_b 10.333
_cell_length_c 13.562
_cell_angle_alpha 82
_cell_angle_beta 86.62
_cell_angle_gamma 65.76
_space_group_name_H-M_alt 'P 1'
_space_group_name_Hall 'P 1'
loop_
    _symmetry_equiv_pos_as_xyz
    x,y,z
loop_
    _atom_site_label
    _atom_site_type_symbol
    _atom_site_fract_x
    _atom_site_fract_y
    _atom_site_fract_z
    _atom_site_occupancy
    Sm1      Sm       0.16645    0.28325    0.81630    1.000
    Mo1      Mo       0.75600    0.87660    0.75886    1.000
    Cs1      Cs       0.64854    0.05038    0.38411    1.000
    O1       O        0.14740    0.05240    0.81510    1.000
    H1       H        0.10780    0.03940    0.75690    1.000
    N1       N        0.42070    0.08510    0.82830    1.000
    N2       N        0.59610    0.16050    0.59340    1.000
    N3       N        0.75000    0.76410    0.54210    1.000
    N4       N        0.06750    0.89090    0.66660    1.000
    N5       N        0.82160    0.12660    0.84930    1.000
    N6       N        0.01490    0.54610    0.78920    1.000
    N7       N        0.20660    0.21920    0.99920    1.000
    N8       N        0.55440    0.68520    0.79550    1.000
    C1       C        0.53940    0.00910    0.80890    1.000
    C2       C        0.65640    0.06200    0.64860    1.000
    C3       C        0.75370    0.79980    0.61750    1.000
    C4       C        0.95750    0.88530    0.69510    1.000
    C5       C        0.79690    0.03990    0.81990    1.000
    C6       C        0.92700    0.66160    0.77920    1.000
    C7       C        0.21780    0.18630    0.08350    1.000
    C8       C        0.62760    0.74860    0.78420    1.000
    C9       C        0.19100    0.93640    0.89440    1.000
    H2       H        0.28770    0.92080    0.92000    1.000
    H3       H        0.19760    0.84940    0.86960    1.000
    H4       H        0.11750    0.95980    0.94810    1.000
    Sm2      Sm       0.83355    0.71675    0.18370    1.000
    Mo2      Mo       0.24400    0.12340    0.24114    1.000
    Cs2      Cs       0.35146    0.94962    0.61589    1.000
    O2       O        0.85260    0.94760    0.18490    1.000
    H5       H        0.89220    0.96060    0.24310    1.000
    N9       N        0.57930    0.91490    0.17170    1.000
    N10      N        0.40390    0.83950    0.40660    1.000
    N11      N        0.25000    0.23590    0.45790    1.000
    N12      N        0.93250    0.10910    0.33340    1.000
    N13      N        0.17840    0.87340    0.15070    1.000
    N14      N        0.98510    0.45390    0.21080    1.000
    N15      N        0.79340    0.78080    0.00080    1.000
    N16      N        0.44560    0.31480    0.20450    1.000
    C10      C        0.46060    0.99090    0.19110    1.000
    C11      C        0.34360    0.93800    0.35140    1.000
    C12      C        0.24630    0.20020    0.38250    1.000
    C13      C        0.04250    0.11470    0.30490    1.000
    C14      C        0.20310    0.96010    0.18010    1.000
    C15      C        0.07300    0.33840    0.22080    1.000
    C16      C        0.78220    0.81370    0.91650    1.000
    C17      C        0.37240    0.25140    0.21580    1.000
    C18      C        0.80900    0.06360    0.10560    1.000
    H6       H        0.71230    0.07920    0.08000    1.000
    H7       H        0.80240    0.15060    0.13040    1.000
    H8       H        0.88250    0.04020    0.05190    1.000
