data_functionalizedCrystal
_audit_creation_method	'EQeq! by Chris Wilmer'
_symmetry_space_group_name_H-M	'P1'
_symmetry_Int_Tables_number	1
_symmetry_cell_setting	triclinic
loop_
_symmetry_equiv_pos_as_xyz
  x,y,z
_cell_length_a	16.7446
_cell_length_b	16.7446
_cell_length_c	15.1964
_cell_angle_alpha	90
_cell_angle_beta	90
_cell_angle_gamma	120
loop_
_atom_site_label
_atom_site_type_symbol
_atom_site_fract_x
_atom_site_fract_y
_atom_site_fract_z
_atom_site_charge
Mof_O 	O 	0.478	0.8243	0.346	-0.446
Mof_C 	C 	0.4119	0.9638	0.4698	0.108
Mof_N 	N 	0.3212	0.9306	0.443	-0.308
Mof_H 	H 	0.2964	0.8865	0.4053	0.178
Mof_H 	H 	0.2899	0.9542	0.4641	0.14
Mof_O 	O 	0.1757	0.6537	0.346	-0.446
Mof_C 	C 	0.0362	0.4481	0.4698	0.108
Mof_N 	N 	0.0694	0.3906	0.443	-0.308
Mof_H 	H 	0.1135	0.4099	0.4053	0.179
Mof_H 	H 	0.0458	0.3357	0.4641	0.141
Mof_O 	O 	0.3463	0.522	0.346	-0.445
Mof_C 	C 	0.5519	0.5881	0.4698	0.109
Mof_N 	N 	0.6094	0.6788	0.443	-0.307
Mof_H 	H 	0.5901	0.7036	0.4053	0.179
Mof_H 	H 	0.6643	0.7101	0.4641	0.141
Mof_O 	O 	0.522	0.1757	0.846	-0.445
Mof_C 	C 	0.5881	0.0362	0.9698	0.109
Mof_N 	N 	0.6788	0.0694	0.943	-0.307
Mof_H 	H 	0.7036	0.1135	0.9053	0.179
Mof_H 	H 	0.7101	0.0458	0.9641	0.141
Mof_O 	O 	0.8243	0.3463	0.846	-0.445
Mof_C 	C 	0.9638	0.5519	0.9698	0.109
Mof_N 	N 	0.9306	0.6094	0.943	-0.307
Mof_H 	H 	0.8865	0.5901	0.9053	0.179
Mof_H 	H 	0.9542	0.6643	0.9641	0.141
Mof_O 	O 	0.6537	0.478	0.846	-0.445
Mof_C 	C 	0.4481	0.4119	0.9698	0.109
Mof_N 	N 	0.3906	0.3212	0.943	-0.307
Mof_H 	H 	0.4099	0.2964	0.9053	0.179
Mof_H 	H 	0.3357	0.2899	0.9641	0.141
Mof_O 	O 	0.8243	0.478	0.654	-0.445
Mof_C 	C 	0.9638	0.4119	0.5302	0.109
Mof_N 	N 	0.9306	0.3212	0.557	-0.307
Mof_H 	H 	0.8865	0.2964	0.5947	0.179
Mof_H 	H 	0.9542	0.2899	0.5359	0.141
Mof_O 	O 	0.6537	0.1757	0.654	-0.445
Mof_C 	C 	0.4481	0.0362	0.5302	0.109
Mof_N 	N 	0.3906	0.0694	0.557	-0.307
Mof_H 	H 	0.4099	0.1135	0.5947	0.179
Mof_H 	H 	0.3357	0.0458	0.5359	0.141
Mof_O 	O 	0.522	0.3463	0.654	-0.445
Mof_C 	C 	0.5881	0.5519	0.5302	0.109
Mof_N 	N 	0.6788	0.6094	0.557	-0.307
Mof_H 	H 	0.7036	0.5901	0.5947	0.179
Mof_H 	H 	0.7101	0.6643	0.5359	0.141
Mof_O 	O 	0.1757	0.522	0.154	-0.445
Mof_C 	C 	0.0362	0.5881	0.0302	0.109
Mof_N 	N 	0.0694	0.6788	0.057	-0.307
Mof_H 	H 	0.1135	0.7036	0.0947	0.179
Mof_H 	H 	0.0458	0.7101	0.0359	0.141
Mof_O 	O 	0.3463	0.8243	0.154	-0.445
Mof_C 	C 	0.5519	0.9638	0.0302	0.109
Mof_N 	N 	0.6094	0.9306	0.057	-0.307
Mof_H 	H 	0.5901	0.8865	0.0947	0.179
Mof_H 	H 	0.6643	0.9542	0.0359	0.141
Mof_O 	O 	0.478	0.6537	0.154	-0.445
Mof_C 	C 	0.4119	0.4481	0.0302	0.109
Mof_N 	N 	0.3212	0.3906	0.057	-0.307
Mof_H 	H 	0.2964	0.4099	0.0947	0.179
Mof_H 	H 	0.2899	0.3357	0.0359	0.141
Mof_O 	O 	0.522	0.1757	0.654	-0.445
Mof_C 	C 	0.5881	0.0362	0.5302	0.109
Mof_N 	N 	0.6788	0.0694	0.557	-0.307
Mof_H 	H 	0.7036	0.1135	0.5947	0.179
Mof_H 	H 	0.7101	0.0458	0.5359	0.141
Mof_O 	O 	0.8243	0.3463	0.654	-0.445
Mof_C 	C 	0.9638	0.5519	0.5302	0.109
Mof_N 	N 	0.9306	0.6094	0.557	-0.307
Mof_H 	H 	0.8865	0.5901	0.5947	0.179
Mof_H 	H 	0.9542	0.6643	0.5359	0.141
Mof_O 	O 	0.6537	0.478	0.654	-0.445
Mof_C 	C 	0.4481	0.4119	0.5302	0.109
Mof_N 	N 	0.3906	0.3212	0.557	-0.307
Mof_H 	H 	0.4099	0.2964	0.5947	0.179
Mof_H 	H 	0.3357	0.2899	0.5359	0.141
Mof_O 	O 	0.478	0.8243	0.154	-0.445
Mof_C 	C 	0.4119	0.9638	0.0302	0.109
Mof_N 	N 	0.3212	0.9306	0.057	-0.307
Mof_H 	H 	0.2964	0.8865	0.0947	0.179
Mof_H 	H 	0.2899	0.9542	0.0359	0.141
Mof_O 	O 	0.1757	0.6537	0.154	-0.445
Mof_C 	C 	0.0362	0.4481	0.0302	0.109
Mof_N 	N 	0.0694	0.3906	0.057	-0.307
Mof_H 	H 	0.1135	0.4099	0.0947	0.179
Mof_H 	H 	0.0458	0.3357	0.0359	0.141
Mof_O 	O 	0.3463	0.522	0.154	-0.445
Mof_C 	C 	0.5519	0.5881	0.0302	0.109
Mof_N 	N 	0.6094	0.6788	0.057	-0.307
Mof_H 	H 	0.5901	0.7036	0.0947	0.179
Mof_H 	H 	0.6643	0.7101	0.0359	0.141
Mof_O 	O 	0.1757	0.522	0.346	-0.445
Mof_C 	C 	0.0362	0.5881	0.4698	0.109
Mof_N 	N 	0.0694	0.6788	0.443	-0.307
Mof_H 	H 	0.1135	0.7036	0.4053	0.179
Mof_H 	H 	0.0458	0.7101	0.4641	0.141
Mof_O 	O 	0.3463	0.8243	0.346	-0.445
Mof_C 	C 	0.5519	0.9638	0.4698	0.109
Mof_N 	N 	0.6094	0.9306	0.443	-0.307
Mof_H 	H 	0.5901	0.8865	0.4053	0.179
Mof_H 	H 	0.6643	0.9542	0.4641	0.141
Mof_O 	O 	0.478	0.6537	0.346	-0.445
Mof_C 	C 	0.4119	0.4481	0.4698	0.109
Mof_N 	N 	0.3212	0.3906	0.443	-0.307
Mof_H 	H 	0.2964	0.4099	0.4053	0.179
Mof_H 	H 	0.2899	0.3357	0.4641	0.141
Mof_O 	O 	0.8243	0.478	0.846	-0.445
Mof_C 	C 	0.9638	0.4119	0.9698	0.109
Mof_N 	N 	0.9306	0.3212	0.943	-0.307
Mof_H 	H 	0.8865	0.2964	0.9053	0.179
Mof_H 	H 	0.9542	0.2899	0.9641	0.141
Mof_O 	O 	0.6537	0.1757	0.846	-0.445
Mof_C 	C 	0.4481	0.0362	0.9698	0.109
Mof_N 	N 	0.3906	0.0694	0.943	-0.307
Mof_H 	H 	0.4099	0.1135	0.9053	0.179
Mof_H 	H 	0.3357	0.0458	0.9641	0.141
Mof_O 	O 	0.522	0.3463	0.846	-0.445
Mof_C 	C 	0.5881	0.5519	0.9698	0.109
Mof_N 	N 	0.6788	0.6094	0.943	-0.307
Mof_H 	H 	0.7036	0.5901	0.9053	0.179
Mof_H 	H 	0.7101	0.6643	0.9641	0.141
Mof_Ni	Ni	0.47055	0.73528	0.25	1.137
Mof_N 	N 	0.6156	0.8078	0.25	-0.217
Mof_C 	C 	0.9103	0.95515	0.25	0.093
Mof_C 	C 	0.8069	0.90345	0.25	0.062
Mof_Ni	Ni	0.26472	0.73528	0.25	1.137
Mof_N 	N 	0.1922	0.8078	0.25	-0.217
Mof_C 	C 	0.04485	0.95515	0.25	0.093
Mof_C 	C 	0.09655	0.90345	0.25	0.062
Mof_Ni	Ni	0.26472	0.52945	0.25	1.137
Mof_N 	N 	0.1922	0.3844	0.25	-0.217
Mof_C 	C 	0.04485	0.0897	0.25	0.093
Mof_C 	C 	0.09655	0.1931	0.25	0.062
Mof_Ni	Ni	0.52945	0.26472	0.75	1.137
Mof_N 	N 	0.3844	0.1922	0.75	-0.217
Mof_C 	C 	0.0897	0.04485	0.75	0.093
Mof_C 	C 	0.1931	0.09655	0.75	0.062
Mof_Ni	Ni	0.73528	0.26472	0.75	1.137
Mof_N 	N 	0.8078	0.1922	0.75	-0.217
Mof_C 	C 	0.95515	0.04485	0.75	0.093
Mof_C 	C 	0.90345	0.09655	0.75	0.062
Mof_Ni	Ni	0.73528	0.47055	0.75	1.137
Mof_N 	N 	0.8078	0.6156	0.75	-0.217
Mof_C 	C 	0.95515	0.9103	0.75	0.093
Mof_C 	C 	0.90345	0.8069	0.75	0.062
Mof_O 	O 	0.33333	0.66667	0.25	-0.558
Mof_O 	O 	0.66667	0.33333	0.75	-0.558
Mof_C 	C 	0.42655	0.8531	0.3713	0.446
Mof_C 	C 	0.4642	0.9284	0.438	-0.189
Mof_C 	C 	0.1469	0.57345	0.3713	0.446
Mof_C 	C 	0.0716	0.5358	0.438	-0.189
Mof_C 	C 	0.42655	0.57345	0.3713	0.446
Mof_C 	C 	0.4642	0.5358	0.438	-0.189
Mof_C 	C 	0.57345	0.1469	0.8713	0.446
Mof_C 	C 	0.5358	0.0716	0.938	-0.189
Mof_C 	C 	0.8531	0.42655	0.8713	0.446
Mof_C 	C 	0.9284	0.4642	0.938	-0.189
Mof_C 	C 	0.57345	0.42655	0.8713	0.446
Mof_C 	C 	0.5358	0.4642	0.938	-0.189
Mof_C 	C 	0.8531	0.42655	0.6287	0.446
Mof_C 	C 	0.9284	0.4642	0.562	-0.189
Mof_C 	C 	0.57345	0.1469	0.6287	0.446
Mof_C 	C 	0.5358	0.0716	0.562	-0.189
Mof_C 	C 	0.57345	0.42655	0.6287	0.446
Mof_C 	C 	0.5358	0.4642	0.562	-0.189
Mof_C 	C 	0.1469	0.57345	0.1287	0.446
Mof_C 	C 	0.0716	0.5358	0.062	-0.189
Mof_C 	C 	0.42655	0.8531	0.1287	0.446
Mof_C 	C 	0.4642	0.9284	0.062	-0.189
Mof_C 	C 	0.42655	0.57345	0.1287	0.446
Mof_C 	C 	0.4642	0.5358	0.062	-0.189
Mof_N 	N 	0.9532	0.0468	0.25	-0.143
Mof_N 	N 	0.9532	0.9064	0.25	-0.143
Mof_N 	N 	0.0936	0.0468	0.25	-0.143
Mof_N 	N 	0.0468	0.9532	0.75	-0.143
Mof_N 	N 	0.0468	0.0936	0.75	-0.143
Mof_N 	N 	0.9064	0.9532	0.75	-0.143
Mof_C 	C 	0.7591	0.9496	0.25	-0.142
Mof_H 	H 	0.7902	0.0137	0.25	0.083
Mof_C 	C 	0.6645	0.9001	0.25	0.069
Mof_H 	H 	0.6327	0.9324	0.25	0.007
Mof_C 	C 	0.0504	0.8095	0.25	-0.142
Mof_H 	H 	0.9863	0.7765	0.25	0.083
Mof_C 	C 	0.0999	0.7644	0.25	0.068
Mof_H 	H 	0.0676	0.7003	0.25	0.007
Mof_C 	C 	0.1905	0.2409	0.25	-0.142
Mof_H 	H 	0.2235	0.2098	0.25	0.083
Mof_C 	C 	0.2356	0.3355	0.25	0.069
Mof_H 	H 	0.2997	0.3673	0.25	0.007
Mof_C 	C 	0.2409	0.0504	0.75	-0.142
Mof_H 	H 	0.2098	0.9863	0.75	0.083
Mof_C 	C 	0.3355	0.0999	0.75	0.069
Mof_H 	H 	0.3673	0.0676	0.75	0.007
Mof_C 	C 	0.9496	0.1905	0.75	-0.142
Mof_H 	H 	0.0137	0.2235	0.75	0.083
Mof_C 	C 	0.9001	0.2356	0.75	0.068
Mof_H 	H 	0.9324	0.2997	0.75	0.007
Mof_C 	C 	0.8095	0.7591	0.75	-0.142
Mof_H 	H 	0.7765	0.7902	0.75	0.083
Mof_C 	C 	0.7644	0.6645	0.75	0.069
Mof_H 	H 	0.7003	0.6327	0.75	0.007
Mof_C 	C 	0.9496	0.7591	0.75	-0.142
Mof_H 	H 	0.0137	0.7902	0.75	0.083
Mof_C 	C 	0.9001	0.6645	0.75	0.069
Mof_H 	H 	0.9324	0.6327	0.75	0.007
Mof_C 	C 	0.8095	0.0504	0.75	-0.142
Mof_H 	H 	0.7765	0.9863	0.75	0.083
Mof_C 	C 	0.7644	0.0999	0.75	0.068
Mof_H 	H 	0.7003	0.0676	0.75	0.007
Mof_C 	C 	0.2409	0.1905	0.75	-0.142
Mof_H 	H 	0.2098	0.2235	0.75	0.083
Mof_C 	C 	0.3355	0.2356	0.75	0.069
Mof_H 	H 	0.3673	0.2997	0.75	0.007
Mof_C 	C 	0.0504	0.2409	0.25	-0.142
Mof_H 	H 	0.9863	0.2098	0.25	0.083
Mof_C 	C 	0.0999	0.3355	0.25	0.069
Mof_H 	H 	0.0676	0.3673	0.25	0.007
Mof_C 	C 	0.1905	0.9496	0.25	-0.142
Mof_H 	H 	0.2235	0.0137	0.25	0.083
Mof_C 	C 	0.2356	0.9001	0.25	0.068
Mof_H 	H 	0.2997	0.9324	0.25	0.007
Mof_C 	C 	0.7591	0.8095	0.25	-0.142
Mof_H 	H 	0.7902	0.7765	0.25	0.083
Mof_C 	C 	0.6645	0.7644	0.25	0.069
Mof_H 	H 	0.6327	0.7003	0.25	0.007
_end
