data_functionalizedCrystal
_audit_creation_method	'EQeq! by Chris Wilmer'
_symmetry_space_group_name_H-M	'P1'
_symmetry_Int_Tables_number	1
_symmetry_cell_setting	triclinic
loop_
_symmetry_equiv_pos_as_xyz
  x,y,z
_cell_length_a	27.6549
_cell_length_b	27.6549
_cell_length_c	27.6549
_cell_angle_alpha	60
_cell_angle_beta	60
_cell_angle_gamma	60
loop_
_atom_site_label
_atom_site_type_symbol
_atom_site_fract_x
_atom_site_fract_y
_atom_site_fract_z
_atom_site_charge
Mof_Zr	Zr	0.4547	0.45469	0.98178	3.199
Mof_Zr	Zr	0.4547	0.45469	0.10883	3.175
Mof_Zr	Zr	0.98179	0.10883	0.45469	3.198
Mof_Zr	Zr	0.10884	0.98178	0.45469	3.199
Mof_Zr	Zr	0.4547	0.98178	0.10883	3.199
Mof_Zr	Zr	0.4547	0.10883	0.98178	3.199
Mof_Zr	Zr	0.98179	0.45469	0.45469	3.2
Mof_Zr	Zr	0.10884	0.45469	0.45469	3.176
Mof_Zr	Zr	0.4547	0.10883	0.45469	3.176
Mof_Zr	Zr	0.4547	0.98178	0.45469	3.2
Mof_Zr	Zr	0.98179	0.45469	0.10883	3.199
Mof_Zr	Zr	0.10884	0.45469	0.98178	3.199
Mof_Zr	Zr	0.5453	0.54531	0.01822	3.156
Mof_Zr	Zr	0.5453	0.54531	0.89117	3.179
Mof_Zr	Zr	0.89116	0.01822	0.54531	3.156
Mof_Zr	Zr	0.01821	0.89117	0.54531	3.156
Mof_Zr	Zr	0.01821	0.54531	0.89117	3.156
Mof_Zr	Zr	0.89116	0.54531	0.01822	3.156
Mof_Zr	Zr	0.5453	0.01822	0.54531	3.156
Mof_Zr	Zr	0.5453	0.89117	0.54531	3.179
Mof_Zr	Zr	0.89116	0.54531	0.54531	3.179
Mof_Zr	Zr	0.01821	0.54531	0.54531	3.156
Mof_Zr	Zr	0.5453	0.01822	0.89117	3.156
Mof_Zr	Zr	0.5453	0.89117	0.01822	3.156
Mof_Zr	Zr	0.58934	0.41066	-0	3.18
Mof_Zr	Zr	0.41066	0.58934	-0	3.18
Mof_Zr	Zr	-7.60167e-17	-3.04067e-17	0.58934	3.145
Mof_Zr	Zr	-2.2805e-17	1.52033e-17	0.41066	3.145
Mof_Zr	Zr	0.58934	0	-0	3.145
Mof_Zr	Zr	0.41066	0	-0	3.145
Mof_Zr	Zr	-2.2805e-17	0.58934	0.41066	3.18
Mof_Zr	Zr	-1.52033e-17	0.41066	0.58934	3.18
Mof_Zr	Zr	0.58934	1.52033e-17	0.41066	3.18
Mof_Zr	Zr	0.41066	-3.04067e-17	0.58934	3.18
Mof_Zr	Zr	-0	0.41066	-0	3.145
Mof_Zr	Zr	-0	0.58934	-0	3.145
Mof_H 	H 	0.656	0.221	0.1326	-0.014
Mof_H 	H 	0.221	0.656	0.9904	0.084
Mof_H 	H 	0.1326	0.9904	0.656	0.05
Mof_H 	H 	0.9904	0.1326	0.221	0.03
Mof_H 	H 	0.656	0.1326	0.9904	0.05
Mof_H 	H 	0.221	0.9904	0.1326	0.03
Mof_H 	H 	0.1326	0.656	0.221	-0.014
Mof_H 	H 	0.9904	0.221	0.656	0.084
Mof_H 	H 	0.656	0.9904	0.221	0.084
Mof_H 	H 	0.221	0.1326	0.656	-0.014
Mof_H 	H 	0.1326	0.221	0.9904	0.03
Mof_H 	H 	0.9904	0.656	0.1326	0.05
Mof_H 	H 	0.779	0.344	0.8674	0.086
Mof_H 	H 	0.344	0.779	0.0096	-0.01
Mof_H 	H 	0.0096	0.8674	0.344	0.024
Mof_H 	H 	0.8674	0.0096	0.779	0.044
Mof_H 	H 	0.8674	0.344	0.0096	0.024
Mof_H 	H 	0.0096	0.779	0.8674	0.044
Mof_H 	H 	0.344	0.8674	0.779	0.086
Mof_H 	H 	0.779	0.0096	0.344	-0.01
Mof_H 	H 	0.0096	0.344	0.779	-0.01
Mof_H 	H 	0.8674	0.779	0.344	0.086
Mof_H 	H 	0.779	0.8674	0.0096	0.044
Mof_H 	H 	0.344	0.0096	0.8674	0.024
Mof_H 	H 	0.344	0.779	0.8674	0.086
Mof_H 	H 	0.779	0.344	0.0096	-0.01
Mof_H 	H 	0.8674	0.0096	0.344	0.024
Mof_H 	H 	0.0096	0.8674	0.779	0.044
Mof_H 	H 	0.344	0.8674	0.0096	0.024
Mof_H 	H 	0.779	0.0096	0.8674	0.044
Mof_H 	H 	0.8674	0.344	0.779	0.086
Mof_H 	H 	0.0096	0.779	0.344	-0.01
Mof_H 	H 	0.344	0.0096	0.779	-0.01
Mof_H 	H 	0.779	0.8674	0.344	0.086
Mof_H 	H 	0.8674	0.779	0.0096	0.044
Mof_H 	H 	0.0096	0.344	0.8674	0.024
Mof_H 	H 	0.221	0.656	0.1326	-0.014
Mof_H 	H 	0.656	0.221	0.9904	0.084
Mof_H 	H 	0.9904	0.1326	0.656	0.05
Mof_H 	H 	0.1326	0.9904	0.221	0.03
Mof_H 	H 	0.1326	0.656	0.9904	0.05
Mof_H 	H 	0.9904	0.221	0.1326	0.03
Mof_H 	H 	0.656	0.1326	0.221	-0.014
Mof_H 	H 	0.221	0.9904	0.656	0.084
Mof_H 	H 	0.9904	0.656	0.221	0.084
Mof_H 	H 	0.1326	0.221	0.656	-0.014
Mof_H 	H 	0.221	0.1326	0.9904	0.03
Mof_H 	H 	0.656	0.9904	0.1326	0.05
Mof_C 	C 	0.55879	0.32629	0.13463	0.532
Mof_C 	C 	0.57529	0.26629	0.17799	-0.178
Mof_C 	C 	0.6252	0.2196	0.1686	-0.013
Mof_C 	C 	0.32629	0.55879	0.98029	0.528
Mof_C 	C 	0.26629	0.57529	0.98043	-0.122
Mof_C 	C 	0.2196	0.6252	0.9866	0.004
Mof_C 	C 	0.13463	0.98029	0.55879	0.539
Mof_C 	C 	0.17799	0.98043	0.57529	-0.15
Mof_C 	C 	0.1686	0.9866	0.6252	0.029
Mof_C 	C 	0.98029	0.13463	0.32629	0.535
Mof_C 	C 	0.98043	0.17799	0.26629	-0.152
Mof_C 	C 	0.9866	0.1686	0.2196	0.006
Mof_C 	C 	0.55879	0.13463	0.98029	0.539
Mof_C 	C 	0.57529	0.17799	0.98043	-0.15
Mof_C 	C 	0.6252	0.1686	0.9866	0.029
Mof_C 	C 	0.32629	0.98029	0.13463	0.535
Mof_C 	C 	0.26629	0.98043	0.17799	-0.152
Mof_C 	C 	0.2196	0.9866	0.1686	0.006
Mof_C 	C 	0.13463	0.55879	0.32629	0.532
Mof_C 	C 	0.17799	0.57529	0.26629	-0.178
Mof_C 	C 	0.1686	0.6252	0.2196	-0.013
Mof_C 	C 	0.98029	0.32629	0.55879	0.528
Mof_C 	C 	0.98043	0.26629	0.57529	-0.122
Mof_C 	C 	0.9866	0.2196	0.6252	0.004
Mof_C 	C 	0.55879	0.98029	0.32629	0.528
Mof_C 	C 	0.57529	0.98043	0.26629	-0.122
Mof_C 	C 	0.6252	0.9866	0.2196	0.004
Mof_C 	C 	0.32629	0.13463	0.55879	0.532
Mof_C 	C 	0.26629	0.17799	0.57529	-0.178
Mof_C 	C 	0.2196	0.1686	0.6252	-0.013
Mof_C 	C 	0.13463	0.32629	0.98029	0.535
Mof_C 	C 	0.17799	0.26629	0.98043	-0.152
Mof_C 	C 	0.1686	0.2196	0.9866	0.006
Mof_C 	C 	0.98029	0.55879	0.13463	0.539
Mof_C 	C 	0.98043	0.57529	0.17799	-0.15
Mof_C 	C 	0.9866	0.6252	0.1686	0.029
Mof_C 	C 	0.67371	0.44121	0.86537	0.527
Mof_C 	C 	0.73371	0.42471	0.82201	-0.126
Mof_C 	C 	0.7804	0.3748	0.8314	0.022
Mof_C 	C 	0.44121	0.67371	0.01971	0.531
Mof_C 	C 	0.42471	0.73371	0.01957	-0.182
Mof_C 	C 	0.3748	0.7804	0.0134	0.006
Mof_C 	C 	0.01971	0.86537	0.44121	0.518
Mof_C 	C 	0.01957	0.82201	0.42471	-0.153
Mof_C 	C 	0.0134	0.8314	0.3748	-0.02
Mof_C 	C 	0.86537	0.01971	0.67371	0.522
Mof_C 	C 	0.82201	0.01957	0.73371	-0.151
Mof_C 	C 	0.8314	0.0134	0.7804	0.003
Mof_C 	C 	0.86537	0.44121	0.01971	0.518
Mof_C 	C 	0.82201	0.42471	0.01957	-0.153
Mof_C 	C 	0.8314	0.3748	0.0134	-0.02
Mof_C 	C 	0.01971	0.67371	0.86537	0.521
Mof_C 	C 	0.01957	0.73371	0.82201	-0.151
Mof_C 	C 	0.0134	0.7804	0.8314	0.003
Mof_C 	C 	0.44121	0.86537	0.67371	0.527
Mof_C 	C 	0.42471	0.82201	0.73371	-0.126
Mof_C 	C 	0.3748	0.8314	0.7804	0.022
Mof_C 	C 	0.67371	0.01971	0.44121	0.531
Mof_C 	C 	0.73371	0.01957	0.42471	-0.182
Mof_C 	C 	0.7804	0.0134	0.3748	0.006
Mof_C 	C 	0.01971	0.44121	0.67371	0.531
Mof_C 	C 	0.01957	0.42471	0.73371	-0.182
Mof_C 	C 	0.0134	0.3748	0.7804	0.006
Mof_C 	C 	0.86537	0.67371	0.44121	0.527
Mof_C 	C 	0.82201	0.73371	0.42471	-0.126
Mof_C 	C 	0.8314	0.7804	0.3748	0.022
Mof_C 	C 	0.67371	0.86537	0.01971	0.521
Mof_C 	C 	0.73371	0.82201	0.01957	-0.151
Mof_C 	C 	0.7804	0.8314	0.0134	0.003
Mof_C 	C 	0.44121	0.01971	0.86537	0.518
Mof_C 	C 	0.42471	0.01957	0.82201	-0.153
Mof_C 	C 	0.3748	0.0134	0.8314	-0.02
Mof_C 	C 	0.44121	0.67371	0.86537	0.527
Mof_C 	C 	0.42471	0.73371	0.82201	-0.126
Mof_C 	C 	0.3748	0.7804	0.8314	0.022
Mof_C 	C 	0.67371	0.44121	0.01971	0.531
Mof_C 	C 	0.73371	0.42471	0.01957	-0.182
Mof_C 	C 	0.7804	0.3748	0.0134	0.006
Mof_C 	C 	0.86537	0.01971	0.44121	0.518
Mof_C 	C 	0.82201	0.01957	0.42471	-0.153
Mof_C 	C 	0.8314	0.0134	0.3748	-0.02
Mof_C 	C 	0.01971	0.86537	0.67371	0.521
Mof_C 	C 	0.01957	0.82201	0.73371	-0.151
Mof_C 	C 	0.0134	0.8314	0.7804	0.003
Mof_C 	C 	0.44121	0.86537	0.01971	0.518
Mof_C 	C 	0.42471	0.82201	0.01957	-0.153
Mof_C 	C 	0.3748	0.8314	0.0134	-0.02
Mof_C 	C 	0.67371	0.01971	0.86537	0.521
Mof_C 	C 	0.73371	0.01957	0.82201	-0.151
Mof_C 	C 	0.7804	0.0134	0.8314	0.003
Mof_C 	C 	0.86537	0.44121	0.67371	0.527
Mof_C 	C 	0.82201	0.42471	0.73371	-0.126
Mof_C 	C 	0.8314	0.3748	0.7804	0.022
Mof_C 	C 	0.01971	0.67371	0.44121	0.531
Mof_C 	C 	0.01957	0.73371	0.42471	-0.182
Mof_C 	C 	0.0134	0.7804	0.3748	0.006
Mof_C 	C 	0.44121	0.01971	0.67371	0.531
Mof_C 	C 	0.42471	0.01957	0.73371	-0.182
Mof_C 	C 	0.3748	0.0134	0.7804	0.006
Mof_C 	C 	0.67371	0.86537	0.44121	0.527
Mof_C 	C 	0.73371	0.82201	0.42471	-0.126
Mof_C 	C 	0.7804	0.8314	0.3748	0.022
Mof_C 	C 	0.86537	0.67371	0.01971	0.522
Mof_C 	C 	0.82201	0.73371	0.01957	-0.151
Mof_C 	C 	0.8314	0.7804	0.0134	0.003
Mof_C 	C 	0.01971	0.44121	0.86537	0.518
Mof_C 	C 	0.01957	0.42471	0.82201	-0.153
Mof_C 	C 	0.0134	0.3748	0.8314	-0.02
Mof_C 	C 	0.32629	0.55879	0.13463	0.532
Mof_C 	C 	0.26629	0.57529	0.17799	-0.178
Mof_C 	C 	0.2196	0.6252	0.1686	-0.013
Mof_C 	C 	0.55879	0.32629	0.98029	0.528
Mof_C 	C 	0.57529	0.26629	0.98043	-0.122
Mof_C 	C 	0.6252	0.2196	0.9866	0.004
Mof_C 	C 	0.98029	0.13463	0.55879	0.539
Mof_C 	C 	0.98043	0.17799	0.57529	-0.15
Mof_C 	C 	0.9866	0.1686	0.6252	0.029
Mof_C 	C 	0.13463	0.98029	0.32629	0.535
Mof_C 	C 	0.17799	0.98043	0.26629	-0.152
Mof_C 	C 	0.1686	0.9866	0.2196	0.006
Mof_C 	C 	0.13463	0.55879	0.98029	0.539
Mof_C 	C 	0.17799	0.57529	0.98043	-0.15
Mof_C 	C 	0.1686	0.6252	0.9866	0.029
Mof_C 	C 	0.98029	0.32629	0.13463	0.535
Mof_C 	C 	0.98043	0.26629	0.17799	-0.152
Mof_C 	C 	0.9866	0.2196	0.1686	0.006
Mof_C 	C 	0.55879	0.13463	0.32629	0.532
Mof_C 	C 	0.57529	0.17799	0.26629	-0.178
Mof_C 	C 	0.6252	0.1686	0.2196	-0.013
Mof_C 	C 	0.32629	0.98029	0.55879	0.528
Mof_C 	C 	0.26629	0.98043	0.57529	-0.122
Mof_C 	C 	0.2196	0.9866	0.6252	0.004
Mof_C 	C 	0.98029	0.55879	0.32629	0.528
Mof_C 	C 	0.98043	0.57529	0.26629	-0.122
Mof_C 	C 	0.9866	0.6252	0.2196	0.004
Mof_C 	C 	0.13463	0.32629	0.55879	0.532
Mof_C 	C 	0.17799	0.26629	0.57529	-0.178
Mof_C 	C 	0.1686	0.2196	0.6252	-0.013
Mof_C 	C 	0.32629	0.13463	0.98029	0.535
Mof_C 	C 	0.26629	0.17799	0.98043	-0.152
Mof_C 	C 	0.2196	0.1686	0.9866	0.006
Mof_C 	C 	0.55879	0.98029	0.13463	0.539
Mof_C 	C 	0.57529	0.98043	0.17799	-0.15
Mof_C 	C 	0.6252	0.9866	0.1686	0.029
Mof_S 	S 	0.52768	0.24868	0.24868	-0.079
Mof_S 	S 	0.24868	0.52768	0.97496	0.005
Mof_S 	S 	0.24868	0.97496	0.52768	0.005
Mof_S 	S 	0.97496	0.24868	0.24868	-0.008
Mof_S 	S 	0.52768	0.24868	0.97496	0.005
Mof_S 	S 	0.24868	0.97496	0.24868	-0.008
Mof_S 	S 	0.24868	0.52768	0.24868	-0.079
Mof_S 	S 	0.97496	0.24868	0.52768	0.005
Mof_S 	S 	0.52768	0.97496	0.24868	0.005
Mof_S 	S 	0.24868	0.24868	0.52768	-0.079
Mof_S 	S 	0.24868	0.24868	0.97496	-0.008
Mof_S 	S 	0.97496	0.52768	0.24868	0.005
Mof_S 	S 	0.75132	0.47232	0.75132	0.01
Mof_S 	S 	0.47232	0.75132	0.02504	-0.072
Mof_S 	S 	0.02504	0.75132	0.47232	-0.072
Mof_S 	S 	0.75132	0.02504	0.75132	-0.059
Mof_S 	S 	0.75132	0.47232	0.02504	-0.072
Mof_S 	S 	0.02504	0.75132	0.75132	-0.059
Mof_S 	S 	0.47232	0.75132	0.75132	0.01
Mof_S 	S 	0.75132	0.02504	0.47232	-0.072
Mof_S 	S 	0.02504	0.47232	0.75132	-0.072
Mof_S 	S 	0.75132	0.75132	0.47232	0.01
Mof_S 	S 	0.75132	0.75132	0.02504	-0.059
Mof_S 	S 	0.47232	0.02504	0.75132	-0.072
Mof_O 	O 	0.596	0.3354	0.08296	-0.74
Mof_O 	O 	0.50896	0.36218	0.15288	-0.814
Mof_O 	O 	0.3354	0.596	0.98564	-0.557
Mof_O 	O 	0.36218	0.50896	0.97598	-0.726
Mof_O 	O 	0.08296	0.98564	0.596	-0.627
Mof_O 	O 	0.15288	0.97598	0.50896	-0.741
Mof_O 	O 	0.98564	0.08296	0.3354	-0.634
Mof_O 	O 	0.97598	0.15288	0.36218	-0.742
Mof_O 	O 	0.596	0.08296	0.98564	-0.627
Mof_O 	O 	0.50896	0.15288	0.97598	-0.741
Mof_O 	O 	0.3354	0.98564	0.08296	-0.634
Mof_O 	O 	0.36218	0.97598	0.15288	-0.742
Mof_O 	O 	0.08296	0.596	0.3354	-0.74
Mof_O 	O 	0.15288	0.50896	0.36218	-0.814
Mof_O 	O 	0.98564	0.3354	0.596	-0.557
Mof_O 	O 	0.97598	0.36218	0.50896	-0.726
Mof_O 	O 	0.596	0.98564	0.3354	-0.557
Mof_O 	O 	0.50896	0.97598	0.36218	-0.726
Mof_O 	O 	0.3354	0.08296	0.596	-0.74
Mof_O 	O 	0.36218	0.15288	0.50896	-0.814
Mof_O 	O 	0.08296	0.3354	0.98564	-0.634
Mof_O 	O 	0.15288	0.36218	0.97598	-0.742
Mof_O 	O 	0.98564	0.596	0.08296	-0.627
Mof_O 	O 	0.97598	0.50896	0.15288	-0.741
Mof_O 	O 	0.6646	0.404	0.91704	-0.578
Mof_O 	O 	0.63782	0.49104	0.84712	-0.762
Mof_O 	O 	0.404	0.6646	0.01436	-0.761
Mof_O 	O 	0.49104	0.63782	0.02402	-0.848
Mof_O 	O 	0.01436	0.91704	0.404	-0.681
Mof_O 	O 	0.02402	0.84712	0.49104	-0.833
Mof_O 	O 	0.91704	0.01436	0.6646	-0.674
Mof_O 	O 	0.84712	0.02402	0.63782	-0.831
Mof_O 	O 	0.91704	0.404	0.01436	-0.681
Mof_O 	O 	0.84712	0.49104	0.02402	-0.833
Mof_O 	O 	0.01436	0.6646	0.91704	-0.674
Mof_O 	O 	0.02402	0.63782	0.84712	-0.831
Mof_O 	O 	0.404	0.91704	0.6646	-0.578
Mof_O 	O 	0.49104	0.84712	0.63782	-0.762
Mof_O 	O 	0.6646	0.01436	0.404	-0.761
Mof_O 	O 	0.63782	0.02402	0.49104	-0.848
Mof_O 	O 	0.01436	0.404	0.6646	-0.761
Mof_O 	O 	0.02402	0.49104	0.63782	-0.848
Mof_O 	O 	0.91704	0.6646	0.404	-0.578
Mof_O 	O 	0.84712	0.63782	0.49104	-0.762
Mof_O 	O 	0.6646	0.91704	0.01436	-0.674
Mof_O 	O 	0.63782	0.84712	0.02402	-0.831
Mof_O 	O 	0.404	0.01436	0.91704	-0.681
Mof_O 	O 	0.49104	0.02402	0.84712	-0.833
Mof_O 	O 	0.404	0.6646	0.91704	-0.578
Mof_O 	O 	0.49104	0.63782	0.84712	-0.762
Mof_O 	O 	0.6646	0.404	0.01436	-0.761
Mof_O 	O 	0.63782	0.49104	0.02402	-0.848
Mof_O 	O 	0.91704	0.01436	0.404	-0.681
Mof_O 	O 	0.84712	0.02402	0.49104	-0.833
Mof_O 	O 	0.01436	0.91704	0.6646	-0.674
Mof_O 	O 	0.02402	0.84712	0.63782	-0.831
Mof_O 	O 	0.404	0.91704	0.01436	-0.681
Mof_O 	O 	0.49104	0.84712	0.02402	-0.833
Mof_O 	O 	0.6646	0.01436	0.91704	-0.674
Mof_O 	O 	0.63782	0.02402	0.84712	-0.831
Mof_O 	O 	0.91704	0.404	0.6646	-0.578
Mof_O 	O 	0.84712	0.49104	0.63782	-0.762
Mof_O 	O 	0.01436	0.6646	0.404	-0.761
Mof_O 	O 	0.02402	0.63782	0.49104	-0.848
Mof_O 	O 	0.404	0.01436	0.6646	-0.761
Mof_O 	O 	0.49104	0.02402	0.63782	-0.848
Mof_O 	O 	0.6646	0.91704	0.404	-0.578
Mof_O 	O 	0.63782	0.84712	0.49104	-0.762
Mof_O 	O 	0.91704	0.6646	0.01436	-0.674
Mof_O 	O 	0.84712	0.63782	0.02402	-0.831
Mof_O 	O 	0.01436	0.404	0.91704	-0.681
Mof_O 	O 	0.02402	0.49104	0.84712	-0.833
Mof_O 	O 	0.3354	0.596	0.08296	-0.74
Mof_O 	O 	0.36218	0.50896	0.15288	-0.814
Mof_O 	O 	0.596	0.3354	0.98564	-0.557
Mof_O 	O 	0.50896	0.36218	0.97598	-0.726
Mof_O 	O 	0.98564	0.08296	0.596	-0.627
Mof_O 	O 	0.97598	0.15288	0.50896	-0.741
Mof_O 	O 	0.08296	0.98564	0.3354	-0.634
Mof_O 	O 	0.15288	0.97598	0.36218	-0.742
Mof_O 	O 	0.08296	0.596	0.98564	-0.627
Mof_O 	O 	0.15288	0.50896	0.97598	-0.741
Mof_O 	O 	0.98564	0.3354	0.08296	-0.634
Mof_O 	O 	0.97598	0.36218	0.15288	-0.742
Mof_O 	O 	0.596	0.08296	0.3354	-0.74
Mof_O 	O 	0.50896	0.15288	0.36218	-0.814
Mof_O 	O 	0.3354	0.98564	0.596	-0.557
Mof_O 	O 	0.36218	0.97598	0.50896	-0.726
Mof_O 	O 	0.98564	0.596	0.3354	-0.557
Mof_O 	O 	0.97598	0.50896	0.36218	-0.726
Mof_O 	O 	0.08296	0.3354	0.596	-0.74
Mof_O 	O 	0.15288	0.36218	0.50896	-0.814
Mof_O 	O 	0.3354	0.08296	0.98564	-0.634
Mof_O 	O 	0.36218	0.15288	0.97598	-0.742
Mof_O 	O 	0.596	0.98564	0.08296	-0.627
Mof_O 	O 	0.50896	0.97598	0.15288	-0.741
Mof_O 	O 	0.4987	0.4137	0.0438	-1.515
Mof_O 	O 	0.4137	0.4987	0.0438	-1.515
Mof_O 	O 	0.0438	0.0438	0.4987	-1.654
Mof_O 	O 	0.0438	0.0438	0.4137	-1.655
Mof_O 	O 	0.4987	0.0438	0.0438	-1.654
Mof_O 	O 	0.4137	0.0438	0.0438	-1.655
Mof_O 	O 	0.0438	0.4987	0.4137	-1.515
Mof_O 	O 	0.0438	0.4137	0.4987	-1.515
Mof_O 	O 	0.4987	0.0438	0.4137	-1.515
Mof_O 	O 	0.4137	0.0438	0.4987	-1.515
Mof_O 	O 	0.0438	0.4137	0.0438	-1.655
Mof_O 	O 	0.0438	0.4987	0.0438	-1.654
Mof_O 	O 	0.5863	0.5013	0.9562	-1.204
Mof_O 	O 	0.5013	0.5863	0.9562	-1.204
Mof_O 	O 	0.9562	0.9562	0.5013	-1.056
Mof_O 	O 	0.9562	0.9562	0.5863	-1.055
Mof_O 	O 	0.9562	0.5013	0.9562	-1.056
Mof_O 	O 	0.9562	0.5863	0.9562	-1.055
Mof_O 	O 	0.5013	0.9562	0.5863	-1.204
Mof_O 	O 	0.5863	0.9562	0.5013	-1.204
Mof_O 	O 	0.9562	0.5013	0.5863	-1.204
Mof_O 	O 	0.9562	0.5863	0.5013	-1.204
Mof_O 	O 	0.5863	0.9562	0.9562	-1.055
Mof_O 	O 	0.5013	0.9562	0.9562	-1.056
Mof_O 	O 	0.45656	0.54344	0.93644	-1.26
Mof_O 	O 	0.54344	0.45656	0.06356	-1.38
Mof_O 	O 	0.93644	0.06356	0.45656	-1.315
Mof_O 	O 	0.06356	0.93644	0.54344	-1.315
Mof_O 	O 	0.45656	0.93644	0.06356	-1.316
Mof_O 	O 	0.54344	0.06356	0.93644	-1.315
Mof_O 	O 	0.93644	0.45656	0.54344	-1.26
Mof_O 	O 	0.06356	0.54344	0.45656	-1.38
Mof_O 	O 	0.45656	0.06356	0.54344	-1.38
Mof_O 	O 	0.54344	0.93644	0.45656	-1.26
Mof_O 	O 	0.93644	0.54344	0.06356	-1.315
Mof_O 	O 	0.06356	0.45656	0.93644	-1.315
Mof_O 	O 	0.45656	0.54344	0.06356	-1.38
Mof_O 	O 	0.54344	0.45656	0.93644	-1.26
Mof_O 	O 	0.93644	0.06356	0.54344	-1.315
Mof_O 	O 	0.06356	0.93644	0.45656	-1.315
Mof_O 	O 	0.06356	0.54344	0.93644	-1.315
Mof_O 	O 	0.93644	0.45656	0.06356	-1.315
Mof_O 	O 	0.54344	0.06356	0.45656	-1.38
Mof_O 	O 	0.45656	0.93644	0.54344	-1.26
Mof_O 	O 	0.93644	0.54344	0.45656	-1.26
Mof_O 	O 	0.06356	0.45656	0.54344	-1.38
Mof_O 	O 	0.45656	0.06356	0.93644	-1.316
Mof_O 	O 	0.54344	0.93644	0.06356	-1.315
_end
