# CIF file generated by openbabel 3.1.0, see https://openbabel.org
data_I
_chemical_name_common 'KEBDIG_charged'
_cell_length_a 13.922
_cell_length_b 17.031
_cell_length_c 17.031
_cell_angle_alpha 120
_cell_angle_beta 90
_cell_angle_gamma 90
_space_group_name_H-M_alt 'P 1'
_space_group_name_Hall 'P 1'
loop_
    _symmetry_equiv_pos_as_xyz
    x,y,z
loop_
    _atom_site_label
    _atom_site_type_symbol
    _atom_site_fract_x
    _atom_site_fract_y
    _atom_site_fract_z
    _atom_site_occupancy
    Co1      Co       0.89747    0.33333    0.66666    1.000
    Co2      Co       0.60253    0.33333    0.66666    1.000
    Co3      Co       0.10253    0.66667    0.33334    1.000
    Co4      Co       0.39747    0.66667    0.33334    1.000
    H1       H        0.61440    0.06510    0.57400    1.000
    H2       H        0.58560    0.78630    0.36520    1.000
    H3       H        0.35450    0.77470    0.56600    1.000
    H4       H        0.35170    0.88580    0.71560    1.000
    H5       H        0.46220    0.00270    0.77380    1.000
    H6       H        0.57290    0.01880    0.68030    1.000
    H7       H        0.61440    0.50890    0.93490    1.000
    H8       H        0.58560    0.57890    0.21370    1.000
    H9       H        0.35450    0.79130    0.22530    1.000
    H10      H        0.35170    0.82980    0.11420    1.000
    H11      H        0.46220    0.77110    0.99730    1.000
    H12      H        0.57290    0.66150    0.98120    1.000
    H13      H        0.61440    0.42600    0.49110    1.000
    H14      H        0.58560    0.63480    0.42110    1.000
    H15      H        0.35450    0.43400    0.20870    1.000
    H16      H        0.35170    0.28440    0.17020    1.000
    H17      H        0.46220    0.22620    0.22890    1.000
    H18      H        0.57290    0.31970    0.33850    1.000
    H19      H        0.88560    0.50890    0.57400    1.000
    H20      H        0.91440    0.57890    0.36520    1.000
    H21      H        0.14550    0.79130    0.56600    1.000
    H22      H        0.14830    0.82980    0.71560    1.000
    H23      H        0.03780    0.77110    0.77380    1.000
    H24      H        0.92710    0.66150    0.68030    1.000
    H25      H        0.88560    0.42600    0.93490    1.000
    H26      H        0.91440    0.63480    0.21370    1.000
    H27      H        0.14550    0.43400    0.22530    1.000
    H28      H        0.14830    0.28440    0.11420    1.000
    H29      H        0.03780    0.22620    0.99730    1.000
    H30      H        0.92710    0.31970    0.98120    1.000
    H31      H        0.88560    0.06510    0.49110    1.000
    H32      H        0.91440    0.78630    0.42110    1.000
    H33      H        0.14550    0.77470    0.20870    1.000
    H34      H        0.14830    0.88580    0.17020    1.000
    H35      H        0.03780    0.00270    0.22890    1.000
    H36      H        0.92710    0.01880    0.33850    1.000
    H37      H        0.38560    0.93490    0.42600    1.000
    H38      H        0.41440    0.21370    0.63480    1.000
    H39      H        0.64550    0.22530    0.43400    1.000
    H40      H        0.64830    0.11420    0.28440    1.000
    H41      H        0.53780    0.99730    0.22620    1.000
    H42      H        0.42710    0.98120    0.31970    1.000
    H43      H        0.38560    0.49110    0.06510    1.000
    H44      H        0.41440    0.42110    0.78630    1.000
    H45      H        0.64550    0.20870    0.77470    1.000
    H46      H        0.64830    0.17020    0.88580    1.000
    H47      H        0.53780    0.22890    0.00270    1.000
    H48      H        0.42710    0.33850    0.01880    1.000
    H49      H        0.38560    0.57400    0.50890    1.000
    H50      H        0.41440    0.36520    0.57890    1.000
    H51      H        0.64550    0.56600    0.79130    1.000
    H52      H        0.64830    0.71560    0.82980    1.000
    H53      H        0.53780    0.77380    0.77110    1.000
    H54      H        0.42710    0.68030    0.66150    1.000
    H55      H        0.11440    0.49110    0.42600    1.000
    H56      H        0.08560    0.42110    0.63480    1.000
    H57      H        0.85450    0.20870    0.43400    1.000
    H58      H        0.85170    0.17020    0.28440    1.000
    H59      H        0.96220    0.22890    0.22620    1.000
    H60      H        0.07290    0.33850    0.31970    1.000
    H61      H        0.11440    0.57400    0.06510    1.000
    H62      H        0.08560    0.36520    0.78630    1.000
    H63      H        0.85450    0.56600    0.77470    1.000
    H64      H        0.85170    0.71560    0.88580    1.000
    H65      H        0.96220    0.77380    0.00270    1.000
    H66      H        0.07290    0.68030    0.01880    1.000
    H67      H        0.11440    0.93490    0.50890    1.000
    H68      H        0.08560    0.21370    0.57890    1.000
    H69      H        0.85450    0.22530    0.79130    1.000
    H70      H        0.85170    0.11420    0.82980    1.000
    H71      H        0.96220    0.99730    0.77110    1.000
    H72      H        0.07290    0.98120    0.66150    1.000
    H73      H        0.75000    0.83110    0.41555    1.000
    H74      H        0.75000    0.58445    0.16890    1.000
    H75      H        0.75000    0.58445    0.41555    1.000
    H76      H        0.25000    0.16890    0.58445    1.000
    H77      H        0.25000    0.41555    0.83110    1.000
    H78      H        0.25000    0.41555    0.58445    1.000
    C1       C        0.66880    0.03380    0.54190    1.000
    C2       C        0.66980    0.94120    0.49610    1.000
    C3       C        0.55750    0.81070    0.42220    1.000
    C4       C        0.46590    0.82990    0.53180    1.000
    C5       C        0.39770    0.82270    0.58840    1.000
    C6       C        0.39720    0.88840    0.67700    1.000
    C7       C        0.46350    0.96040    0.71220    1.000
    C8       C        0.53050    0.97000    0.65750    1.000
    C9       C        0.53110    0.90370    0.56810    1.000
    C10      C        0.66880    0.50810    0.96620    1.000
    C11      C        0.66980    0.55490    0.05880    1.000
    C12      C        0.55750    0.61150    0.18930    1.000
    C13      C        0.46590    0.70190    0.17010    1.000
    C14      C        0.39770    0.76570    0.17730    1.000
    C15      C        0.39720    0.78860    0.11160    1.000
    C16      C        0.46350    0.75180    0.03960    1.000
    C17      C        0.53050    0.68750    0.03000    1.000
    C18      C        0.53110    0.66440    0.09630    1.000
    C19      C        0.66880    0.45810    0.49190    1.000
    C20      C        0.66980    0.50390    0.44510    1.000
    C21      C        0.55750    0.57780    0.38850    1.000
    C22      C        0.46590    0.46820    0.29810    1.000
    C23      C        0.39770    0.41160    0.23430    1.000
    C24      C        0.39720    0.32300    0.21140    1.000
    C25      C        0.46350    0.28780    0.24820    1.000
    C26      C        0.53050    0.34250    0.31250    1.000
    C27      C        0.53110    0.43190    0.33560    1.000
    C28      C        0.83120    0.50810    0.54190    1.000
    C29      C        0.83020    0.55490    0.49610    1.000
    C30      C        0.94250    0.61150    0.42220    1.000
    C31      C        0.03410    0.70190    0.53180    1.000
    C32      C        0.10230    0.76570    0.58840    1.000
    C33      C        0.10280    0.78860    0.67700    1.000
    C34      C        0.03650    0.75180    0.71220    1.000
    C35      C        0.96950    0.68750    0.65750    1.000
    C36      C        0.96890    0.66440    0.56810    1.000
    C37      C        0.83120    0.45810    0.96620    1.000
    C38      C        0.83020    0.50390    0.05880    1.000
    C39      C        0.94250    0.57780    0.18930    1.000
    C40      C        0.03410    0.46820    0.17010    1.000
    C41      C        0.10230    0.41160    0.17730    1.000
    C42      C        0.10280    0.32300    0.11160    1.000
    C43      C        0.03650    0.28780    0.03960    1.000
    C44      C        0.96950    0.34250    0.03000    1.000
    C45      C        0.96890    0.43190    0.09630    1.000
    C46      C        0.83120    0.03380    0.49190    1.000
    C47      C        0.83020    0.94120    0.44510    1.000
    C48      C        0.94250    0.81070    0.38850    1.000
    C49      C        0.03410    0.82990    0.29810    1.000
    C50      C        0.10230    0.82270    0.23430    1.000
    C51      C        0.10280    0.88840    0.21140    1.000
    C52      C        0.03650    0.96040    0.24820    1.000
    C53      C        0.96950    0.97000    0.31250    1.000
    C54      C        0.96890    0.90370    0.33560    1.000
    C55      C        0.33120    0.96620    0.45810    1.000
    C56      C        0.33020    0.05880    0.50390    1.000
    C57      C        0.44250    0.18930    0.57780    1.000
    C58      C        0.53410    0.17010    0.46820    1.000
    C59      C        0.60230    0.17730    0.41160    1.000
    C60      C        0.60280    0.11160    0.32300    1.000
    C61      C        0.53650    0.03960    0.28780    1.000
    C62      C        0.46950    0.03000    0.34250    1.000
    C63      C        0.46890    0.09630    0.43190    1.000
    C64      C        0.33120    0.49190    0.03380    1.000
    C65      C        0.33020    0.44510    0.94120    1.000
    C66      C        0.44250    0.38850    0.81070    1.000
    C67      C        0.53410    0.29810    0.82990    1.000
    C68      C        0.60230    0.23430    0.82270    1.000
    C69      C        0.60280    0.21140    0.88840    1.000
    C70      C        0.53650    0.24820    0.96040    1.000
    C71      C        0.46950    0.31250    0.97000    1.000
    C72      C        0.46890    0.33560    0.90370    1.000
    C73      C        0.33120    0.54190    0.50810    1.000
    C74      C        0.33020    0.49610    0.55490    1.000
    C75      C        0.44250    0.42220    0.61150    1.000
    C76      C        0.53410    0.53180    0.70190    1.000
    C77      C        0.60230    0.58840    0.76570    1.000
    C78      C        0.60280    0.67700    0.78860    1.000
    C79      C        0.53650    0.71220    0.75180    1.000
    C80      C        0.46950    0.65750    0.68750    1.000
    C81      C        0.46890    0.56810    0.66440    1.000
    C82      C        0.16880    0.49190    0.45810    1.000
    C83      C        0.16980    0.44510    0.50390    1.000
    C84      C        0.05750    0.38850    0.57780    1.000
    C85      C        0.96590    0.29810    0.46820    1.000
    C86      C        0.89770    0.23430    0.41160    1.000
    C87      C        0.89720    0.21140    0.32300    1.000
    C88      C        0.96350    0.24820    0.28780    1.000
    C89      C        0.03050    0.31250    0.34250    1.000
    C90      C        0.03110    0.33560    0.43190    1.000
    C91      C        0.16880    0.54190    0.03380    1.000
    C92      C        0.16980    0.49610    0.94120    1.000
    C93      C        0.05750    0.42220    0.81070    1.000
    C94      C        0.96590    0.53180    0.82990    1.000
    C95      C        0.89770    0.58840    0.82270    1.000
    C96      C        0.89720    0.67700    0.88840    1.000
    C97      C        0.96350    0.71220    0.96040    1.000
    C98      C        0.03050    0.65750    0.97000    1.000
    C99      C        0.03110    0.56810    0.90370    1.000
    C100     C        0.16880    0.96620    0.50810    1.000
    C101     C        0.16980    0.05880    0.55490    1.000
    C102     C        0.05750    0.18930    0.61150    1.000
    C103     C        0.96590    0.17010    0.70190    1.000
    C104     C        0.89770    0.17730    0.76570    1.000
    C105     C        0.89720    0.11160    0.78860    1.000
    C106     C        0.96350    0.03960    0.75180    1.000
    C107     C        0.03050    0.03000    0.68750    1.000
    C108     C        0.03110    0.09630    0.66440    1.000
    C109     C        0.75000    0.18330    0.59165    1.000
    C110     C        0.75000    0.08140    0.54070    1.000
    C111     C        0.75000    0.89410    0.44705    1.000
    C112     C        0.75000    0.40835    0.81670    1.000
    C113     C        0.75000    0.45930    0.91860    1.000
    C114     C        0.75000    0.55295    0.10590    1.000
    C115     C        0.75000    0.40835    0.59165    1.000
    C116     C        0.75000    0.45930    0.54070    1.000
    C117     C        0.75000    0.55295    0.44705    1.000
    C118     C        0.25000    0.81670    0.40835    1.000
    C119     C        0.25000    0.91860    0.45930    1.000
    C120     C        0.25000    0.10590    0.55295    1.000
    C121     C        0.25000    0.59165    0.18330    1.000
    C122     C        0.25000    0.54070    0.08140    1.000
    C123     C        0.25000    0.44705    0.89410    1.000
    C124     C        0.25000    0.59165    0.40835    1.000
    C125     C        0.25000    0.54070    0.45930    1.000
    C126     C        0.25000    0.44705    0.55295    1.000
    N1       N        0.58770    0.89000    0.49550    1.000
    N2       N        0.48520    0.77200    0.43950    1.000
    N3       N        0.58770    0.60550    0.11000    1.000
    N4       N        0.48520    0.66750    0.22800    1.000
    N5       N        0.58770    0.50450    0.39450    1.000
    N6       N        0.48520    0.56050    0.33250    1.000
    N7       N        0.91230    0.60550    0.49550    1.000
    N8       N        0.01480    0.66750    0.43950    1.000
    N9       N        0.91230    0.50450    0.11000    1.000
    N10      N        0.01480    0.56050    0.22800    1.000
    N11      N        0.91230    0.89000    0.39450    1.000
    N12      N        0.01480    0.77200    0.33250    1.000
    N13      N        0.41230    0.11000    0.50450    1.000
    N14      N        0.51480    0.22800    0.56050    1.000
    N15      N        0.41230    0.39450    0.89000    1.000
    N16      N        0.51480    0.33250    0.77200    1.000
    N17      N        0.41230    0.49550    0.60550    1.000
    N18      N        0.51480    0.43950    0.66750    1.000
    N19      N        0.08770    0.39450    0.50450    1.000
    N20      N        0.98520    0.33250    0.56050    1.000
    N21      N        0.08770    0.49550    0.89000    1.000
    N22      N        0.98520    0.43950    0.77200    1.000
    N23      N        0.08770    0.11000    0.60550    1.000
    N24      N        0.98520    0.22800    0.66750    1.000
    O1       O        0.81930    0.22150    0.57567    1.000
    O2       O        0.81930    0.35417    0.77850    1.000
    O3       O        0.81930    0.42433    0.64583    1.000
    O4       O        0.68070    0.35417    0.57567    1.000
    O5       O        0.68070    0.42433    0.77850    1.000
    O6       O        0.68070    0.22150    0.64583    1.000
    O7       O        0.18070    0.77850    0.42433    1.000
    O8       O        0.18070    0.64583    0.22150    1.000
    O9       O        0.18070    0.57567    0.35417    1.000
    O10      O        0.31930    0.64583    0.42433    1.000
    O11      O        0.31930    0.57567    0.22150    1.000
    O12      O        0.31930    0.77850    0.35417    1.000
    Cl1      Cl       0.75000    0.66667    0.33334    1.000
    Cl2      Cl       0.25000    0.33333    0.66666    1.000
