data_functionalizedCrystal
_audit_creation_method	'EQeq! by Chris Wilmer'
_symmetry_space_group_name_H-M	'P1'
_symmetry_Int_Tables_number	1
_symmetry_cell_setting	triclinic
loop_
_symmetry_equiv_pos_as_xyz
  x,y,z
_cell_length_a	12.668
_cell_length_b	12.668
_cell_length_c	12.668
_cell_angle_alpha	90
_cell_angle_beta	90
_cell_angle_gamma	90
loop_
_atom_site_label
_atom_site_type_symbol
_atom_site_fract_x
_atom_site_fract_y
_atom_site_fract_z
_atom_site_charge
Mof_Cd	Cd	0.375	0.375	0.375	0.296
Mof_Cd	Cd	0.375	0.875	0.875	0.296
Mof_Cd	Cd	0.875	0.875	0.375	0.296
Mof_Cd	Cd	0.875	0.375	0.875	0.296
Mof_Cd	Cd	0.125	0.625	0.125	0.296
Mof_Cd	Cd	0.625	0.625	0.625	0.296
Mof_Cd	Cd	0.625	0.125	0.125	0.296
Mof_Cd	Cd	0.125	0.125	0.625	0.296
Mof_C 	C 	0.473	0.473	0.473	-0.074
Mof_C 	C 	0.473	0.973	0.973	-0.074
Mof_C 	C 	0.973	0.473	0.973	-0.074
Mof_C 	C 	0.973	0.973	0.473	-0.074
Mof_C 	C 	0.277	0.777	0.973	-0.074
Mof_C 	C 	0.277	0.277	0.473	-0.074
Mof_C 	C 	0.777	0.973	0.277	-0.074
Mof_C 	C 	0.777	0.473	0.777	-0.074
Mof_C 	C 	0.277	0.473	0.277	-0.074
Mof_C 	C 	0.973	0.277	0.777	-0.074
Mof_C 	C 	0.473	0.277	0.277	-0.074
Mof_C 	C 	0.223	0.723	0.027	-0.074
Mof_C 	C 	0.223	0.223	0.527	-0.074
Mof_C 	C 	0.527	0.527	0.527	-0.074
Mof_C 	C 	0.527	0.027	0.027	-0.074
Mof_C 	C 	0.027	0.527	0.027	-0.074
Mof_C 	C 	0.027	0.027	0.527	-0.074
Mof_C 	C 	0.723	0.027	0.223	-0.074
Mof_C 	C 	0.723	0.527	0.723	-0.074
Mof_C 	C 	0.223	0.527	0.223	-0.074
Mof_C 	C 	0.027	0.223	0.723	-0.074
Mof_C 	C 	0.527	0.223	0.223	-0.074
Mof_C 	C 	0.723	0.223	0.027	-0.074
Mof_C 	C 	0.723	0.723	0.527	-0.074
Mof_C 	C 	0.223	0.027	0.723	-0.074
Mof_C 	C 	0.027	0.723	0.223	-0.074
Mof_C 	C 	0.527	0.723	0.723	-0.074
Mof_C 	C 	0.777	0.277	0.973	-0.074
Mof_C 	C 	0.777	0.777	0.473	-0.074
Mof_C 	C 	0.277	0.973	0.777	-0.074
Mof_C 	C 	0.973	0.777	0.277	-0.074
Mof_C 	C 	0.473	0.777	0.777	-0.074
_end
