data_functionalizedCrystal
_audit_creation_method	'EQeq! by Chris Wilmer'
_symmetry_space_group_name_H-M	'P1'
_symmetry_Int_Tables_number	1
_symmetry_cell_setting	triclinic
loop_
_symmetry_equiv_pos_as_xyz
  x,y,z
_cell_length_a	9.9892
_cell_length_b	10.9251
_cell_length_c	22.6123
_cell_angle_alpha	94.87
_cell_angle_beta	90
_cell_angle_gamma	90
loop_
_atom_site_label
_atom_site_type_symbol
_atom_site_fract_x
_atom_site_fract_y
_atom_site_fract_z
_atom_site_charge
Mof_Ca	Ca	0.98121	0.44822	0.83872	1.554
Mof_Ca	Ca	0.01879	0.55178	0.16128	1.312
Mof_Ca	Ca	0.80628	0.75	0.25	1.16
Mof_Ca	Ca	0.19372	0.25	0.75	1.115
Mof_Ca	Ca	0.98121	0.05178	0.66128	1.497
Mof_Ca	Ca	-0	0.5	-0	1.419
Mof_Ca	Ca	-1.15498e-32	1.1559e-17	0.5	1.414
Mof_Ca	Ca	0.01879	0.94822	0.33872	1.34
Mof_H 	H 	0.6813	0.1628	0.4951	-0.022
Mof_H 	H 	0.144	0.1296	0.012	0.031
Mof_H 	H 	0.5221	0.6923	0.9503	0.034
Mof_H 	H 	0.1704	0.5812	0.4949	0.076
Mof_H 	H 	0.856	0.8704	0.988	-0.058
Mof_H 	H 	0.7193	0.6628	0.0008	0.02
Mof_H 	H 	0.9908	0.8781	0.8211	-0.051
Mof_H 	H 	0.8296	0.4188	0.5051	0.11
Mof_H 	H 	0.4922	0.4077	0.8546	-0.04
Mof_H 	H 	0.856	0.6296	0.512	-0.005
Mof_H 	H 	0.4779	0.1923	0.4503	0.091
Mof_H 	H 	0.3187	0.8372	0.5049	-0.021
Mof_H 	H 	0.0092	0.1219	0.1789	0.027
Mof_H 	H 	0.0092	0.3781	0.3211	-0.003
Mof_H 	H 	0.8296	0.0812	0.9949	0.179
Mof_H 	H 	0.895	0.1915	0.9168	-0.075
Mof_H 	H 	0.5078	0.9077	0.3546	-0.01
Mof_H 	H 	0.144	0.3704	0.488	-0.001
Mof_H 	H 	0.105	0.6915	0.4168	-0.011
Mof_H 	H 	0.3187	0.6628	0.9951	0.056
Mof_H 	H 	0.895	0.3085	0.5832	-0.025
Mof_H 	H 	0.4922	0.0923	0.6454	-0.022
Mof_H 	H 	0.4779	0.3077	0.0497	0.149
Mof_H 	H 	0.2807	0.3372	0.9992	-0.061
Mof_H 	H 	0.1704	0.9188	0.0051	0.026
Mof_H 	H 	0.6813	0.3372	0.0049	-0.088
Mof_H 	H 	0.5078	0.5923	0.1454	0.009
Mof_H 	H 	0.7193	0.8372	0.4992	-0.017
Mof_H 	H 	0.2807	0.1628	0.5008	-0.029
Mof_H 	H 	0.5221	0.8077	0.5497	0.096
Mof_H 	H 	0.105	0.8085	0.0832	0.023
Mof_H 	H 	0.9908	0.6219	0.6789	-0.004
Mof_C 	C 	0.4893	0.3902	0.8941	0.197
Mof_C 	C 	0.9298	0.6471	0.5955	-0.206
Mof_C 	C 	0.0408	0.283	0.0965	0.405
Mof_C 	C 	0.3665	0.3761	0.92179	-0.303
Mof_C 	C 	0.2598	0.5955	0.1029	0.383
Mof_C 	C 	0.005	0.6188	0.31177	0.287
Mof_C 	C 	0.1204	0.0856	0.0438	-0.046
Mof_C 	C 	0.7615	0.9019	0.39066	0.453
Mof_C 	C 	0.051	0.546	0.36129	-0.167
Mof_C 	C 	0.8796	0.5856	0.5438	0.136
Mof_C 	C 	0.0386	0.419	0.3564	0.082
Mof_C 	C 	0.4806	0.17	0.4891	-0.205
Mof_C 	C 	0.0386	0.081	0.1436	-0.028
Mof_C 	C 	0.2385	0.0981	0.60934	0.458
Mof_C 	C 	0.7402	0.4045	0.8971	0.442
Mof_C 	C 	0.9614	0.919	0.8564	0.326
Mof_C 	C 	0.051	0.954	0.13871	-0.067
Mof_C 	C 	0.5194	0.67	0.9891	-0.011
Mof_C 	C 	0.5194	0.83	0.5109	-0.192
Mof_C 	C 	0.7615	0.5981	0.10934	0.428
Mof_C 	C 	0.8646	0.4594	0.5395	-0.21
Mof_C 	C 	0.005	0.8812	0.18823	0.243
Mof_C 	C 	0.9018	0.1063	0.9134	0.314
Mof_C 	C 	0.0702	0.3529	0.4045	-0.185
Mof_C 	C 	0.3976	0.8469	0.4839	0.125
Mof_C 	C 	0.0982	0.6063	0.4134	0.074
Mof_C 	C 	0.995	0.1188	0.81177	0.604
Mof_C 	C 	0.1354	0.9594	0.0395	-0.03
Mof_C 	C 	0.9614	0.581	0.6436	0.16
Mof_C 	C 	0.8796	0.9144	0.9562	0.327
Mof_C 	C 	0.1204	0.4144	0.4562	0.081
Mof_C 	C 	0.949	0.454	0.63871	-0.265
Mof_C 	C 	0.9592	0.783	0.5965	0.447
Mof_C 	C 	0.1354	0.5406	0.4605	-0.163
Mof_C 	C 	0.0408	0.217	0.4035	0.433
Mof_C 	C 	0.949	0.046	0.86129	-0.412
Mof_C 	C 	0.3916	0.8782	0.42558	-0.194
Mof_C 	C 	0.6374	0.6538	0.0195	-0.005
Mof_C 	C 	0.0982	0.8937	0.0866	-0.027
Mof_C 	C 	0.3916	0.6218	0.07442	-0.114
Mof_C 	C 	0.3626	0.3462	0.9805	0.259
Mof_C 	C 	0.4893	0.1098	0.6059	0.127
Mof_C 	C 	0.4806	0.33	0.0109	-0.375
Mof_C 	C 	0.8646	0.0406	0.9605	-0.412
Mof_C 	C 	0.2598	0.9045	0.3971	0.417
Mof_C 	C 	0.3665	0.1239	0.57821	-0.242
Mof_C 	C 	0.5107	0.8902	0.3941	0.127
Mof_C 	C 	0.995	0.3812	0.68823	0.571
Mof_C 	C 	0.5107	0.6098	0.1059	0.051
Mof_C 	C 	0.3626	0.1538	0.5195	0.129
Mof_C 	C 	0.3976	0.6531	0.0161	-0.059
Mof_C 	C 	0.6024	0.3469	0.9839	0.286
Mof_C 	C 	0.6374	0.8462	0.4805	0.131
Mof_C 	C 	0.7402	0.0955	0.6029	0.41
Mof_C 	C 	0.6084	0.3782	0.92558	-0.278
Mof_C 	C 	0.9018	0.3937	0.5866	0.167
Mof_C 	C 	0.9298	0.8529	0.9045	-0.318
Mof_C 	C 	0.2385	0.4019	0.89066	0.483
Mof_C 	C 	0.9592	0.717	0.9035	0.493
Mof_C 	C 	0.6335	0.8761	0.42179	-0.22
Mof_C 	C 	0.0702	0.1471	0.0955	-0.113
Mof_C 	C 	0.6335	0.6239	0.07821	-0.155
Mof_C 	C 	0.6084	0.1218	0.57442	-0.206
Mof_C 	C 	0.6024	0.1531	0.5161	0.119
Mof_O 	O 	0.9657	0.6728	0.9523	-0.473
Mof_O 	O 	0.9924	0.7671	0.17814	-0.427
Mof_O 	O 	0.022	0.4373	0.7375	-0.611
Mof_O 	O 	0.9924	0.7329	0.32186	-0.445
Mof_O 	O 	0.0205	0.3414	0.1464	-0.47
Mof_O 	O 	0.978	0.9373	0.2375	-0.4
Mof_O 	O 	0.0343	0.3272	0.0477	-0.496
Mof_O 	O 	0.8629	0.5699	0.07862	-0.529
Mof_O 	O 	0.1371	0.4301	0.92138	-0.594
Mof_O 	O 	0.8422	0.4183	0.93003	-0.519
Mof_O 	O 	0.1578	0.5817	0.06997	-0.529
Mof_O 	O 	0.8422	0.0817	0.56997	-0.528
Mof_O 	O 	0.2344	0.3962	0.8347	-0.544
Mof_O 	O 	0.7462	0.0892	0.65733	-0.446
Mof_O 	O 	0.2344	0.1038	0.6653	-0.54
Mof_O 	O 	0.978	0.5627	0.2625	-0.427
Mof_O 	O 	0.8629	0.9301	0.42138	-0.521
Mof_O 	O 	0.0205	0.1586	0.3536	-0.49
Mof_O 	O 	0.0076	0.2329	0.82186	-0.626
Mof_O 	O 	0.0076	0.2671	0.67814	-0.615
Mof_O 	O 	0.9657	0.8272	0.5477	-0.452
Mof_O 	O 	0.7656	0.6038	0.1653	-0.505
Mof_O 	O 	0.022	0.0627	0.7625	-0.619
Mof_O 	O 	0.0343	0.1728	0.4523	-0.503
Mof_O 	O 	0.7462	0.4108	0.84267	-0.449
Mof_O 	O 	0.9795	0.6586	0.8536	-0.481
Mof_O 	O 	0.1578	0.9183	0.43003	-0.521
Mof_O 	O 	0.1371	0.0699	0.57862	-0.597
Mof_O 	O 	0.9795	0.8414	0.6464	-0.446
Mof_O 	O 	0.7656	0.8962	0.3347	-0.506
Mof_O 	O 	0.2538	0.9108	0.34267	-0.428
Mof_O 	O 	0.2538	0.5892	0.15733	-0.425
_end
