data_functionalizedCrystal
_audit_creation_method	'EQeq! by Chris Wilmer'
_symmetry_space_group_name_H-M	'P1'
_symmetry_Int_Tables_number	1
_symmetry_cell_setting	triclinic
loop_
_symmetry_equiv_pos_as_xyz
  x,y,z
_cell_length_a	22.2858
_cell_length_b	17.371
_cell_length_c	10.1701
_cell_angle_alpha	90
_cell_angle_beta	110.425
_cell_angle_gamma	90
loop_
_atom_site_label
_atom_site_type_symbol
_atom_site_fract_x
_atom_site_fract_y
_atom_site_fract_z
_atom_site_charge
Mof_Sr	Sr	0.33399	0.09999	0.52781	1.526
Mof_P 	P 	0.47612	0.15303	0.46067	0.44
Mof_O 	O 	0.4577	0.1231	0.5809	-0.535
Mof_C 	C 	0.5617	0.1732	0.5173	0.06
Mof_P 	P 	0.60918	0.08554	0.57937	0.423
Mof_O 	O 	0.4592	0.1005	0.3351	-0.448
Mof_C 	C 	0.5788	0.2324	0.636	-0.469
Mof_H 	H 	0.5703	0.2111	0.7149	0.129
Mof_H 	H 	0.5534	0.2779	0.6043	0.189
Mof_H 	H 	0.6233	0.2454	0.6633	0.183
Mof_P 	P 	0.19124	0.17668	0.5916	0.425
Mof_O 	O 	0.4459	0.2339	0.4125	-0.406
Mof_H 	H 	0.4112	0.2397	0.4283	0.253
Mof_C 	C 	0.1646	0.1101	0.4426	0.079
Mof_P 	P 	0.18634	0.00981	0.4834	0.454
Mof_O 	O 	0.5994	0.0626	0.7132	-0.527
Mof_C 	C 	0.0925	0.1167	0.3624	-0.538
Mof_H 	H 	0.0813	0.1698	0.3411	0.169
Mof_H 	H 	0.0695	0.0967	0.419	0.19
Mof_H 	H 	0.0814	0.0878	0.2767	0.2
Mof_O 	O 	0.5926	0.0278	0.4629	-0.506
Mof_O 	O 	0.6803	0.1107	0.6102	-0.231
Mof_O 	O 	0.2565	0.005	0.559	-0.391
Mof_O 	O 	0.1619	0.2539	0.5411	-0.394
Mof_O 	O 	0.2016	0.1325	0.3557	-0.456
Mof_H 	H 	0.1944	0.1777	0.3325	0.245
Mof_O 	O 	0.1621	0.1489	0.7029	-0.41
Mof_H 	H 	0.1734	0.1044	0.7258	0.272
Mof_O 	O 	0.1463	0.9798	0.5684	-0.436
Mof_H 	H 	0.1597	0.9984	0.6474	0.27
Mof_O 	O 	0.2635	0.1749	0.6483	-0.355
Mof_O 	O 	0.5761	0.2067	0.4028	-0.299
Mof_H 	H 	0.5658	0.1762	0.3331	0.221
Mof_O 	O 	0.1687	0.9784	0.337	-0.222
Mof_O 	O 	0.1499	0.9492	0.3836	-0.061
Mof_Sr	Sr	0.83399	0.59999	0.52781	1.531
Mof_P 	P 	0.97612	0.65303	0.46067	0.491
Mof_O 	O 	0.9577	0.6231	0.5809	-0.49
Mof_C 	C 	0.0617	0.6732	0.5173	-0.003
Mof_P 	P 	0.10918	0.58554	0.57937	0.423
Mof_O 	O 	0.9592	0.6005	0.3351	-0.401
Mof_C 	C 	0.0788	0.7324	0.636	-0.395
Mof_H 	H 	0.0703	0.7111	0.7149	0.095
Mof_H 	H 	0.0534	0.7779	0.6043	0.144
Mof_H 	H 	0.1233	0.7454	0.6633	0.161
Mof_P 	P 	0.69124	0.67668	0.5916	0.422
Mof_O 	O 	0.9459	0.7339	0.4125	-0.383
Mof_H 	H 	0.9112	0.7397	0.4283	0.248
Mof_C 	C 	0.6646	0.6101	0.4426	0.096
Mof_P 	P 	0.68634	0.50981	0.4834	0.449
Mof_O 	O 	0.0994	0.5626	0.7132	-0.518
Mof_C 	C 	0.5925	0.6167	0.3624	-0.599
Mof_H 	H 	0.5813	0.6698	0.3411	0.199
Mof_H 	H 	0.5695	0.5967	0.419	0.227
Mof_H 	H 	0.5814	0.5878	0.2767	0.232
Mof_O 	O 	0.0926	0.5278	0.4629	-0.498
Mof_O 	O 	0.1803	0.6107	0.6102	-0.229
Mof_O 	O 	0.7565	0.505	0.559	-0.391
Mof_O 	O 	0.6619	0.7539	0.5411	-0.393
Mof_O 	O 	0.7016	0.6325	0.3557	-0.461
Mof_H 	H 	0.6944	0.6777	0.3325	0.246
Mof_O 	O 	0.6621	0.6489	0.7029	-0.404
Mof_H 	H 	0.6734	0.6044	0.7258	0.272
Mof_O 	O 	0.6463	0.4798	0.5684	-0.427
Mof_H 	H 	0.6597	0.4984	0.6474	0.268
Mof_O 	O 	0.7635	0.6749	0.6483	-0.357
Mof_O 	O 	0.0761	0.7067	0.4028	-0.297
Mof_H 	H 	0.0658	0.6762	0.3331	0.208
Mof_O 	O 	0.6687	0.4784	0.337	-0.222
Mof_O 	O 	0.6499	0.4492	0.3836	-0.052
Mof_Sr	Sr	0.66601	0.09999	0.97219	1.514
Mof_P 	P 	0.52388	0.15303	0.03933	0.45
Mof_O 	O 	0.5423	0.1231	0.9191	-0.538
Mof_C 	C 	0.4383	0.1732	0.9827	0.05
Mof_P 	P 	0.39082	0.08554	0.92063	0.42
Mof_O 	O 	0.5408	0.1005	0.1649	-0.448
Mof_C 	C 	0.4212	0.2324	0.864	-0.459
Mof_H 	H 	0.4297	0.2111	0.7851	0.126
Mof_H 	H 	0.4466	0.2779	0.8957	0.185
Mof_H 	H 	0.3767	0.2454	0.8367	0.18
Mof_P 	P 	0.80876	0.17668	0.9084	0.415
Mof_O 	O 	0.5541	0.2339	0.0875	-0.406
Mof_H 	H 	0.5888	0.2397	0.0717	0.255
Mof_C 	C 	0.8354	0.1101	0.0574	0.118
Mof_P 	P 	0.81366	0.00981	0.0166	0.456
Mof_O 	O 	0.4006	0.0626	0.7868	-0.527
Mof_C 	C 	0.9075	0.1167	0.1376	-0.667
Mof_H 	H 	0.9187	0.1698	0.1589	0.232
Mof_H 	H 	0.9305	0.0967	0.081	0.268
Mof_H 	H 	0.9186	0.0878	0.2233	0.267
Mof_O 	O 	0.4074	0.0278	0.0371	-0.501
Mof_O 	O 	0.3197	0.1107	0.8898	-0.233
Mof_O 	O 	0.7435	0.005	0.941	-0.396
Mof_O 	O 	0.8381	0.2539	0.9589	-0.395
Mof_O 	O 	0.7984	0.1325	0.1443	-0.463
Mof_H 	H 	0.8056	0.1777	0.1675	0.247
Mof_O 	O 	0.8379	0.1489	0.7971	-0.398
Mof_H 	H 	0.8266	0.1044	0.7742	0.271
Mof_O 	O 	0.8537	0.9798	0.9316	-0.425
Mof_H 	H 	0.8403	0.9984	0.8526	0.27
Mof_O 	O 	0.7365	0.1749	0.8517	-0.355
Mof_O 	O 	0.4239	0.2067	0.0972	-0.292
Mof_H 	H 	0.4342	0.1762	0.1669	0.219
Mof_O 	O 	0.8313	0.9784	0.163	-0.225
Mof_O 	O 	0.8501	0.9492	0.1164	-0.043
Mof_Sr	Sr	0.16601	0.59999	0.97219	1.525
Mof_P 	P 	0.02388	0.65303	0.03933	0.387
Mof_O 	O 	0.0423	0.6231	0.9191	-0.535
Mof_C 	C 	0.9383	0.6732	0.9827	0.132
Mof_P 	P 	0.89082	0.58554	0.92063	0.411
Mof_O 	O 	0.0408	0.6005	0.1649	-0.444
Mof_C 	C 	0.9212	0.7324	0.864	-0.556
Mof_H 	H 	0.9297	0.7111	0.7851	0.172
Mof_H 	H 	0.9466	0.7779	0.8957	0.237
Mof_H 	H 	0.8767	0.7454	0.8367	0.209
Mof_P 	P 	0.30876	0.67668	0.9084	0.42
Mof_O 	O 	0.0541	0.7339	0.0875	-0.426
Mof_H 	H 	0.0888	0.7397	0.0717	0.258
Mof_C 	C 	0.3354	0.6101	0.0574	0.099
Mof_P 	P 	0.31366	0.50981	0.0166	0.456
Mof_O 	O 	0.9006	0.5626	0.7868	-0.491
Mof_C 	C 	0.4075	0.6167	0.1376	-0.602
Mof_H 	H 	0.4187	0.6698	0.1589	0.201
Mof_H 	H 	0.4305	0.5967	0.081	0.229
Mof_H 	H 	0.4186	0.5878	0.2233	0.233
Mof_O 	O 	0.9074	0.5278	0.0371	-0.463
Mof_O 	O 	0.8197	0.6107	0.8898	-0.233
Mof_O 	O 	0.2435	0.505	0.941	-0.393
Mof_O 	O 	0.3381	0.7539	0.9589	-0.394
Mof_O 	O 	0.2984	0.6325	0.1443	-0.46
Mof_H 	H 	0.3056	0.6777	0.1675	0.246
Mof_O 	O 	0.3379	0.6489	0.7971	-0.403
Mof_H 	H 	0.3266	0.6044	0.7742	0.272
Mof_O 	O 	0.3537	0.4798	0.9316	-0.433
Mof_H 	H 	0.3403	0.4984	0.8526	0.27
Mof_O 	O 	0.2365	0.6749	0.8517	-0.355
Mof_O 	O 	0.9239	0.7067	0.0972	-0.299
Mof_H 	H 	0.9342	0.6762	0.1669	0.238
Mof_O 	O 	0.3313	0.4784	0.163	-0.223
Mof_O 	O 	0.3501	0.4492	0.1164	-0.051
Mof_Sr	Sr	0.66601	0.90001	0.47219	1.526
Mof_P 	P 	0.52388	0.84697	0.53933	0.441
Mof_O 	O 	0.5423	0.8769	0.4191	-0.534
Mof_C 	C 	0.4383	0.8268	0.4827	0.061
Mof_P 	P 	0.39082	0.91446	0.42063	0.425
Mof_O 	O 	0.5408	0.8995	0.6649	-0.448
Mof_C 	C 	0.4212	0.7676	0.364	-0.469
Mof_H 	H 	0.4297	0.7889	0.2851	0.129
Mof_H 	H 	0.4466	0.7221	0.3957	0.189
Mof_H 	H 	0.3767	0.7546	0.3367	0.183
Mof_P 	P 	0.80876	0.82332	0.4084	0.419
Mof_O 	O 	0.5541	0.7661	0.5875	-0.406
Mof_H 	H 	0.5888	0.7603	0.5717	0.253
Mof_C 	C 	0.8354	0.8899	0.5574	0.113
Mof_P 	P 	0.81366	0.99019	0.5166	0.445
Mof_O 	O 	0.4006	0.9374	0.2868	-0.528
Mof_C 	C 	0.9075	0.8833	0.6376	-0.66
Mof_H 	H 	0.9187	0.8302	0.6589	0.229
Mof_H 	H 	0.9305	0.9033	0.581	0.264
Mof_H 	H 	0.9186	0.9122	0.7233	0.264
Mof_O 	O 	0.4074	0.9722	0.5371	-0.506
Mof_O 	O 	0.3197	0.8893	0.3898	-0.232
Mof_O 	O 	0.7435	0.995	0.441	-0.39
Mof_O 	O 	0.8381	0.7461	0.4589	-0.391
Mof_O 	O 	0.7984	0.8675	0.6443	-0.465
Mof_H 	H 	0.8056	0.8223	0.6675	0.246
Mof_O 	O 	0.8379	0.8511	0.2971	-0.397
Mof_H 	H 	0.8266	0.8956	0.2742	0.273
Mof_O 	O 	0.8537	0.0202	0.4316	-0.419
Mof_H 	H 	0.8403	0.0016	0.3526	0.269
Mof_O 	O 	0.7365	0.8251	0.3517	-0.355
Mof_O 	O 	0.4239	0.7933	0.5972	-0.299
Mof_H 	H 	0.4342	0.8238	0.6669	0.221
Mof_O 	O 	0.8313	0.0216	0.663	-0.224
Mof_O 	O 	0.8501	0.0508	0.6164	-0.043
Mof_Sr	Sr	0.16601	0.40001	0.47219	1.53
Mof_P 	P 	0.02388	0.34697	0.53933	0.378
Mof_O 	O 	0.0423	0.3769	0.4191	-0.532
Mof_C 	C 	0.9383	0.3268	0.4827	0.143
Mof_P 	P 	0.89082	0.41446	0.42063	0.415
Mof_O 	O 	0.0408	0.3995	0.6649	-0.445
Mof_C 	C 	0.9212	0.2676	0.364	-0.567
Mof_H 	H 	0.9297	0.2889	0.2851	0.175
Mof_H 	H 	0.9466	0.2221	0.3957	0.242
Mof_H 	H 	0.8767	0.2546	0.3367	0.213
Mof_P 	P 	0.30876	0.32332	0.4084	0.422
Mof_O 	O 	0.0541	0.2661	0.5875	-0.426
Mof_H 	H 	0.0888	0.2603	0.5717	0.257
Mof_C 	C 	0.3354	0.3899	0.5574	0.096
Mof_P 	P 	0.31366	0.49019	0.5166	0.449
Mof_O 	O 	0.9006	0.4374	0.2868	-0.492
Mof_C 	C 	0.4075	0.3833	0.6376	-0.598
Mof_H 	H 	0.4187	0.3302	0.6589	0.199
Mof_H 	H 	0.4305	0.4033	0.581	0.226
Mof_H 	H 	0.4186	0.4122	0.7233	0.231
Mof_O 	O 	0.9074	0.4722	0.5371	-0.467
Mof_O 	O 	0.8197	0.3893	0.3898	-0.232
Mof_O 	O 	0.2435	0.495	0.441	-0.389
Mof_O 	O 	0.3381	0.2461	0.4589	-0.392
Mof_O 	O 	0.2984	0.3675	0.6443	-0.461
Mof_H 	H 	0.3056	0.3223	0.6675	0.246
Mof_O 	O 	0.3379	0.3511	0.2971	-0.403
Mof_H 	H 	0.3266	0.3956	0.2742	0.273
Mof_O 	O 	0.3537	0.5202	0.4316	-0.427
Mof_H 	H 	0.3403	0.5016	0.3526	0.269
Mof_O 	O 	0.2365	0.3251	0.3517	-0.354
Mof_O 	O 	0.9239	0.2933	0.5972	-0.306
Mof_H 	H 	0.9342	0.3238	0.6669	0.239
Mof_O 	O 	0.3313	0.5216	0.663	-0.223
Mof_O 	O 	0.3501	0.5508	0.6164	-0.052
Mof_Sr	Sr	0.33399	0.90001	0.02781	1.531
Mof_P 	P 	0.47612	0.84697	0.96067	0.437
Mof_O 	O 	0.4577	0.8769	0.0809	-0.532
Mof_C 	C 	0.5617	0.8268	0.0173	0.066
Mof_P 	P 	0.60918	0.91446	0.07937	0.426
Mof_O 	O 	0.4592	0.8995	0.8351	-0.448
Mof_C 	C 	0.5788	0.7676	0.136	-0.474
Mof_H 	H 	0.5703	0.7889	0.2149	0.131
Mof_H 	H 	0.5534	0.7221	0.1043	0.192
Mof_H 	H 	0.6233	0.7546	0.1633	0.185
Mof_P 	P 	0.19124	0.82332	0.0916	0.427
Mof_O 	O 	0.4459	0.7661	0.9125	-0.406
Mof_H 	H 	0.4112	0.7603	0.9283	0.253
Mof_C 	C 	0.1646	0.8899	0.9426	0.077
Mof_P 	P 	0.18634	0.99019	0.9834	0.451
Mof_O 	O 	0.5994	0.9374	0.2132	-0.527
Mof_C 	C 	0.0925	0.8833	0.8624	-0.535
Mof_H 	H 	0.0813	0.8302	0.8411	0.168
Mof_H 	H 	0.0695	0.9033	0.919	0.188
Mof_H 	H 	0.0814	0.9122	0.7767	0.199
Mof_O 	O 	0.5926	0.9722	0.9629	-0.506
Mof_O 	O 	0.6803	0.8893	0.1102	-0.23
Mof_O 	O 	0.2565	0.995	0.059	-0.389
Mof_O 	O 	0.1619	0.7461	0.0411	-0.391
Mof_O 	O 	0.2016	0.8675	0.8557	-0.457
Mof_H 	H 	0.1944	0.8223	0.8325	0.244
Mof_O 	O 	0.1621	0.8511	0.2029	-0.409
Mof_H 	H 	0.1734	0.8956	0.2258	0.273
Mof_O 	O 	0.1463	0.0202	0.0684	-0.43
Mof_H 	H 	0.1597	0.0016	0.1474	0.268
Mof_O 	O 	0.2635	0.8251	0.1483	-0.355
Mof_O 	O 	0.5761	0.7933	0.9028	-0.303
Mof_H 	H 	0.5658	0.8238	0.8331	0.222
Mof_O 	O 	0.1687	0.0216	0.837	-0.222
Mof_O 	O 	0.1499	0.0508	0.8836	-0.065
Mof_Sr	Sr	0.83399	0.40001	0.02781	1.54
Mof_P 	P 	0.97612	0.34697	0.96067	0.48
Mof_O 	O 	0.9577	0.3769	0.0809	-0.486
Mof_C 	C 	0.0617	0.3268	0.0173	0.01
Mof_P 	P 	0.10918	0.41446	0.07937	0.427
Mof_O 	O 	0.9592	0.3995	0.8351	-0.401
Mof_C 	C 	0.0788	0.2676	0.136	-0.408
Mof_H 	H 	0.0703	0.2889	0.2149	0.098
Mof_H 	H 	0.0534	0.2221	0.1043	0.15
Mof_H 	H 	0.1233	0.2546	0.1633	0.166
Mof_P 	P 	0.69124	0.32332	0.0916	0.426
Mof_O 	O 	0.9459	0.2661	0.9125	-0.383
Mof_H 	H 	0.9112	0.2603	0.9283	0.247
Mof_C 	C 	0.6646	0.3899	0.9426	0.092
Mof_P 	P 	0.68634	0.49019	0.9834	0.442
Mof_O 	O 	0.0994	0.4374	0.2132	-0.519
Mof_C 	C 	0.5925	0.3833	0.8624	-0.594
Mof_H 	H 	0.5813	0.3302	0.8411	0.197
Mof_H 	H 	0.5695	0.4033	0.919	0.224
Mof_H 	H 	0.5814	0.4122	0.7767	0.23
Mof_O 	O 	0.0926	0.4722	0.9629	-0.501
Mof_O 	O 	0.1803	0.3893	0.1102	-0.227
Mof_O 	O 	0.7565	0.495	0.059	-0.387
Mof_O 	O 	0.6619	0.2461	0.0411	-0.389
Mof_O 	O 	0.7016	0.3675	0.8557	-0.462
Mof_H 	H 	0.6944	0.3223	0.8325	0.245
Mof_O 	O 	0.6621	0.3511	0.2029	-0.404
Mof_H 	H 	0.6734	0.3956	0.2258	0.273
Mof_O 	O 	0.6463	0.5202	0.0684	-0.422
Mof_H 	H 	0.6597	0.5016	0.1474	0.267
Mof_O 	O 	0.7635	0.3251	0.1483	-0.356
Mof_O 	O 	0.0761	0.2933	0.9028	-0.305
Mof_H 	H 	0.0658	0.3238	0.8331	0.21
Mof_O 	O 	0.6687	0.5216	0.837	-0.221
Mof_O 	O 	0.6499	0.5508	0.8836	-0.054
Mof_Sr	Sr	0.5	0.01286	0.75	1.766
Mof_Sr	Sr	1.54064e-17	0.51286	0.75	1.568
Mof_Sr	Sr	0.5	0.98714	0.25	1.768
Mof_Sr	Sr	5.77038e-34	0.48714	0.25	1.571
_end
