# CIF file generated by openbabel 3.1.0, see https://openbabel.org
data_I
_chemical_name_common 'PUWYAI_clean'
_cell_length_a 12.26
_cell_length_b 12.366
_cell_length_c 19.101
_cell_angle_alpha 78.18
_cell_angle_beta 84.625
_cell_angle_gamma 89.511
_space_group_name_H-M_alt 'P 1'
_space_group_name_Hall 'P 1'
loop_
    _symmetry_equiv_pos_as_xyz
    x,y,z
loop_
    _atom_site_label
    _atom_site_type_symbol
    _atom_site_fract_x
    _atom_site_fract_y
    _atom_site_fract_z
    _atom_site_occupancy
    Na1      Na       0.22400    0.19450    0.84630    1.000
    Na2      Na       0.20060    0.91820    0.95690    1.000
    Na3      Na       0.62400    0.70800    0.40470    1.000
    Na4      Na       0.04200    0.46400    0.58140    1.000
    Na5      Na       0.77600    0.80550    0.15370    1.000
    Na6      Na       0.79940    0.08180    0.04310    1.000
    Na7      Na       0.37600    0.29200    0.59530    1.000
    Na8      Na       0.95800    0.53600    0.41860    1.000
    Na9      Na       0.00000    0.50000    0.00000    1.000
    Na10     Na       0.50000    0.50000    0.50000    1.000
    Co1      Co       0.56843    0.74218    0.68567    1.000
    Co2      Co       0.58506    0.87775    0.80923    1.000
    Co3      Co       0.78536    0.87571    0.69173    1.000
    Co4      Co       0.72374    0.65906    0.81077    1.000
    Co5      Co       0.19019    0.86064    0.57683    1.000
    Co6      Co       0.37338    0.76692    0.07874    1.000
    Co7      Co       0.43157    0.25782    0.31433    1.000
    Co8      Co       0.41494    0.12225    0.19077    1.000
    Co9      Co       0.21464    0.12429    0.30827    1.000
    Co10     Co       0.27626    0.34094    0.18923    1.000
    Co11     Co       0.80981    0.13936    0.42317    1.000
    Co12     Co       0.62662    0.23308    0.92126    1.000
    H1       H        0.30740    0.67860    0.86730    1.000
    H2       H        0.36400    0.78080    0.81040    1.000
    H3       H        0.53990    0.61570    0.93180    1.000
    H4       H        0.43330    0.54120    0.93270    1.000
    H5       H        0.94130    0.75770    0.82100    1.000
    H6       H        0.97480    0.81990    0.88180    1.000
    H7       H        0.82550    0.92000    0.94410    1.000
    H8       H        0.72130    0.84510    0.94010    1.000
    H9       H        0.61660    0.16860    0.62900    1.000
    H10      H        0.68970    0.10070    0.68820    1.000
    H11      H        0.50220    0.05900    0.56400    1.000
    H12      H        0.57910    0.95420    0.56270    1.000
    H13      H        0.81270    0.76200    0.56450    1.000
    H14      H        0.89080    0.65870    0.56020    1.000
    H15      H        0.77460    0.49620    0.62590    1.000
    H16      H        0.68050    0.51760    0.68570    1.000
    H17      H        0.69260    0.32140    0.13270    1.000
    H18      H        0.63600    0.21920    0.18960    1.000
    H19      H        0.46010    0.38430    0.06820    1.000
    H20      H        0.56670    0.45880    0.06730    1.000
    H21      H        0.05870    0.24230    0.17900    1.000
    H22      H        0.02520    0.18010    0.11820    1.000
    H23      H        0.17450    0.08000    0.05590    1.000
    H24      H        0.27870    0.15490    0.05990    1.000
    H25      H        0.38340    0.83140    0.37100    1.000
    H26      H        0.31030    0.89930    0.31180    1.000
    H27      H        0.49780    0.94100    0.43600    1.000
    H28      H        0.42090    0.04580    0.43730    1.000
    H29      H        0.18730    0.23800    0.43550    1.000
    H30      H        0.10920    0.34130    0.43980    1.000
    H31      H        0.22540    0.50380    0.37410    1.000
    H32      H        0.31950    0.48240    0.31430    1.000
    C1       C        0.40270    0.77820    0.91570    1.000
    C2       C        0.37570    0.72300    0.85320    1.000
    C3       C        0.47200    0.64700    0.83440    1.000
    C4       C        0.50130    0.57190    0.90360    1.000
    C5       C        0.57430    0.47720    0.88790    1.000
    C6       C        0.42820    0.57640    0.78290    1.000
    C7       C        0.86480    0.68780    0.92320    1.000
    C8       C        0.91280    0.78580    0.86410    1.000
    C9       C        0.82520    0.87450    0.84310    1.000
    C10      C        0.76860    0.90720    0.91310    1.000
    C11      C        0.70120    0.00830    0.89660    1.000
    C12      C        0.88360    0.97380    0.79570    1.000
    C13      C        0.74090    0.07630    0.58300    1.000
    C14      C        0.65330    0.09730    0.64450    1.000
    C15      C        0.56880    0.00310    0.66120    1.000
    C16      C        0.52160    0.98620    0.59210    1.000
    C17      C        0.41930    0.90980    0.60650    1.000
    C18      C        0.47270    0.03580    0.71020    1.000
    C19      C        0.95840    0.77380    0.60750    1.000
    C20      C        0.86350    0.71000    0.59130    1.000
    C21      C        0.80010    0.64300    0.66090    1.000
    C22      C        0.72790    0.55340    0.64250    1.000
    C23      C        0.65570    0.60890    0.58180    1.000
    C24      C        0.88410    0.57910    0.71120    1.000
    C25      C        0.59730    0.22180    0.08430    1.000
    C26      C        0.62430    0.27700    0.14680    1.000
    C27      C        0.52800    0.35300    0.16560    1.000
    C28      C        0.49870    0.42810    0.09640    1.000
    C29      C        0.42570    0.52280    0.11210    1.000
    C30      C        0.57180    0.42360    0.21710    1.000
    C31      C        0.13520    0.31220    0.07680    1.000
    C32      C        0.08720    0.21420    0.13590    1.000
    C33      C        0.17480    0.12550    0.15690    1.000
    C34      C        0.23140    0.09280    0.08690    1.000
    C35      C        0.29880    0.99170    0.10340    1.000
    C36      C        0.11640    0.02620    0.20430    1.000
    C37      C        0.25910    0.92370    0.41700    1.000
    C38      C        0.34670    0.90270    0.35550    1.000
    C39      C        0.43120    0.99690    0.33880    1.000
    C40      C        0.47840    0.01380    0.40790    1.000
    C41      C        0.58070    0.09020    0.39350    1.000
    C42      C        0.52730    0.96420    0.28980    1.000
    C43      C        0.04160    0.22620    0.39250    1.000
    C44      C        0.13650    0.29000    0.40870    1.000
    C45      C        0.19990    0.35700    0.33910    1.000
    C46      C        0.27210    0.44660    0.35750    1.000
    C47      C        0.34430    0.39110    0.41820    1.000
    C48      C        0.11590    0.42090    0.28880    1.000
    O1       O        0.56060    0.71270    0.79850    1.000
    O2       O        0.61580    0.90300    0.69700    1.000
    O3       O        0.73530    0.71450    0.69750    1.000
    O4       O        0.42880    0.81530    0.64600    1.000
    O5       O        0.59970    0.69140    0.58840    1.000
    O6       O        0.46810    0.60060    0.71720    1.000
    O7       O        0.74550    0.82970    0.80470    1.000
    O8       O        0.45950    0.98370    0.77480    1.000
    O9       O        0.48880    0.83240    0.90790    1.000
    O10      O        0.64040    0.01710    0.84570    1.000
    O11      O        0.94140    0.82480    0.65820    1.000
    O12      O        0.79220    0.98790    0.59250    1.000
    O13      O        0.87140    0.99260    0.72880    1.000
    O14      O        0.86450    0.58190    0.77810    1.000
    O15      O        0.65880    0.50080    0.84440    1.000
    O16      O        0.78230    0.63790    0.91110    1.000
    O17      O        0.04910    0.77290    0.57080    1.000
    O18      O        0.74960    0.15260    0.52700    1.000
    O19      O        0.33550    0.94780    0.57880    1.000
    O20      O        0.33690    0.76040    0.97200    1.000
    O21      O        0.54960    0.37970    0.92130    1.000
    O22      O        0.70720    0.08120    0.93430    1.000
    O23      O        0.93600    0.03720    0.82380    1.000
    O24      O        0.35830    0.50480    0.80720    1.000
    O25      O        0.90480    0.67090    0.98310    1.000
    O26      O        0.65550    0.56150    0.52850    1.000
    O27      O        0.41520    0.11900    0.68430    1.000
    O28      O        0.96450    0.53450    0.68530    1.000
    O29      O        0.08040    0.07250    0.91900    1.000
    O30      O        0.33870    0.04320    0.89010    1.000
    O31      O        0.58280    0.52560    0.38030    1.000
    O32      O        0.45340    0.69870    0.48230    1.000
    O33      O        0.20450    0.36430    0.64350    1.000
    O34      O        0.43940    0.28730    0.20150    1.000
    O35      O        0.38420    0.09700    0.30300    1.000
    O36      O        0.26470    0.28550    0.30250    1.000
    O37      O        0.57120    0.18470    0.35400    1.000
    O38      O        0.40030    0.30860    0.41160    1.000
    O39      O        0.53190    0.39940    0.28280    1.000
    O40      O        0.25450    0.17030    0.19530    1.000
    O41      O        0.54050    0.01630    0.22520    1.000
    O42      O        0.51120    0.16760    0.09210    1.000
    O43      O        0.35960    0.98290    0.15430    1.000
    O44      O        0.05860    0.17520    0.34180    1.000
    O45      O        0.20780    0.01210    0.40750    1.000
    O46      O        0.12860    0.00740    0.27120    1.000
    O47      O        0.13550    0.41810    0.22190    1.000
    O48      O        0.34120    0.49920    0.15560    1.000
    O49      O        0.21770    0.36210    0.08890    1.000
    O50      O        0.95090    0.22710    0.42920    1.000
    O51      O        0.25040    0.84740    0.47300    1.000
    O52      O        0.66450    0.05220    0.42120    1.000
    O53      O        0.66310    0.23960    0.02800    1.000
    O54      O        0.45040    0.62030    0.07870    1.000
    O55      O        0.29280    0.91880    0.06570    1.000
    O56      O        0.06400    0.96280    0.17620    1.000
    O57      O        0.64170    0.49520    0.19280    1.000
    O58      O        0.09520    0.32910    0.01690    1.000
    O59      O        0.34450    0.43850    0.47150    1.000
    O60      O        0.58480    0.88100    0.31570    1.000
    O61      O        0.03550    0.46550    0.31470    1.000
    O62      O        0.91960    0.92750    0.08100    1.000
    O63      O        0.66130    0.95680    0.10990    1.000
    O64      O        0.41720    0.47440    0.61970    1.000
    O65      O        0.54660    0.30130    0.51770    1.000
    O66      O        0.79550    0.63570    0.35650    1.000
