# CIF file generated by openbabel 3.1.0, see https://openbabel.org
data_I
_chemical_name_common 'image0'
_cell_length_a 16.119
_cell_length_b 20.898
_cell_length_c 13.325
_cell_angle_alpha 90
_cell_angle_beta 90
_cell_angle_gamma 90
_space_group_name_H-M_alt 'P 1'
_space_group_name_Hall 'P 1'
loop_
    _symmetry_equiv_pos_as_xyz
    x,y,z
loop_
    _atom_site_label
    _atom_site_type_symbol
    _atom_site_fract_x
    _atom_site_fract_y
    _atom_site_fract_z
    _atom_site_occupancy
    Ag1      Ag       0.50439    0.23614    0.56377    1.000
    N1       N        0.40900    0.24680    0.42870    1.000
    C1       C        0.41000    0.29510    0.36390    1.000
    C2       C        0.35470    0.20040    0.41070    1.000
    C3       C        0.36000    0.29810    0.28120    1.000
    C4       C        0.30330    0.19960    0.32890    1.000
    C5       C        0.30480    0.24910    0.26210    1.000
    C6       C        0.25040    0.24960    0.17270    1.000
    C7       C        0.22690    0.19290    0.12440    1.000
    C8       C        0.21680    0.30540    0.13270    1.000
    C9       C        0.17320    0.19470    0.04520    1.000
    C10      C        0.16230    0.30260    0.05500    1.000
    N2       N        0.13820    0.24820    0.01030    1.000
    N3       N        0.51670    0.13350    0.61880    1.000
    C11      C        0.56610    0.11810    0.69210    1.000
    C12      C        0.46960    0.08690    0.58600    1.000
    C13      C        0.57050    0.05890    0.73640    1.000
    C14      C        0.46930    0.02600    0.62680    1.000
    C15      C        0.52070    0.01060    0.70370    1.000
    C16      C        0.52040    0.94560    0.75010    1.000
    C17      C        0.56880    0.93120    0.83020    1.000
    C18      C        0.47130    0.89740    0.71490    1.000
    C19      C        0.56330    0.87250    0.87460    1.000
    C20      C        0.46950    0.83960    0.76320    1.000
    N4       N        0.51360    0.82610    0.84400    1.000
    H1       H        0.44680    0.32860    0.37540    1.000
    H2       H        0.35130    0.16670    0.45610    1.000
    H3       H        0.36310    0.33300    0.23810    1.000
    H4       H        0.26750    0.16530    0.31880    1.000
    H5       H        0.24790    0.15390    0.14640    1.000
    H6       H        0.23180    0.34490    0.15930    1.000
    H7       H        0.16020    0.15630    0.01360    1.000
    H8       H        0.14030    0.34090    0.03130    1.000
    H9       H        0.60130    0.14980    0.71640    1.000
    H10      H        0.43430    0.09520    0.53230    1.000
    H11      H        0.60760    0.05170    0.78880    1.000
    H12      H        0.43340    0.99520    0.60110    1.000
    H13      H        0.60580    0.96140    0.85500    1.000
    H14      H        0.43890    0.90390    0.65800    1.000
    H15      H        0.59670    0.86460    0.93020    1.000
    H16      H        0.43500    0.80790    0.73750    1.000
    Ag2      Ag       0.49561    0.73614    0.93623    1.000
    N5       N        0.59100    0.74680    0.07130    1.000
    C21      C        0.59000    0.79510    0.13610    1.000
    C22      C        0.64530    0.70040    0.08930    1.000
    C23      C        0.64000    0.79810    0.21880    1.000
    C24      C        0.69670    0.69960    0.17110    1.000
    C25      C        0.69520    0.74910    0.23790    1.000
    C26      C        0.74960    0.74960    0.32730    1.000
    C27      C        0.77310    0.69290    0.37560    1.000
    C28      C        0.78320    0.80540    0.36730    1.000
    C29      C        0.82680    0.69470    0.45480    1.000
    C30      C        0.83770    0.80260    0.44500    1.000
    N6       N        0.86180    0.74820    0.48970    1.000
    N7       N        0.48330    0.63350    0.88120    1.000
    C31      C        0.43390    0.61810    0.80790    1.000
    C32      C        0.53040    0.58690    0.91400    1.000
    C33      C        0.42950    0.55890    0.76360    1.000
    C34      C        0.53070    0.52600    0.87320    1.000
    C35      C        0.47930    0.51060    0.79630    1.000
    C36      C        0.47960    0.44560    0.74990    1.000
    C37      C        0.43120    0.43120    0.66980    1.000
    C38      C        0.52870    0.39740    0.78510    1.000
    C39      C        0.43670    0.37250    0.62540    1.000
    C40      C        0.53050    0.33960    0.73680    1.000
    N8       N        0.48640    0.32610    0.65600    1.000
    H17      H        0.55320    0.82860    0.12460    1.000
    H18      H        0.64870    0.66670    0.04390    1.000
    H19      H        0.63690    0.83300    0.26190    1.000
    H20      H        0.73250    0.66530    0.18120    1.000
    H21      H        0.75210    0.65390    0.35360    1.000
    H22      H        0.76820    0.84490    0.34070    1.000
    H23      H        0.83980    0.65630    0.48640    1.000
    H24      H        0.85970    0.84090    0.46870    1.000
    H25      H        0.39870    0.64980    0.78360    1.000
    H26      H        0.56570    0.59520    0.96770    1.000
    H27      H        0.39240    0.55170    0.71120    1.000
    H28      H        0.56660    0.49520    0.89890    1.000
    H29      H        0.39420    0.46140    0.64500    1.000
    H30      H        0.56110    0.40390    0.84200    1.000
    H31      H        0.40330    0.36460    0.56980    1.000
    H32      H        0.56500    0.30790    0.76250    1.000
    Ag3      Ag       0.00439    0.23614    0.93623    1.000
    N9       N        0.90900    0.24680    0.07130    1.000
    C41      C        0.91000    0.29510    0.13610    1.000
    C42      C        0.85470    0.20040    0.08930    1.000
    C43      C        0.86000    0.29810    0.21880    1.000
    C44      C        0.80330    0.19960    0.17110    1.000
    C45      C        0.80480    0.24910    0.23790    1.000
    C46      C        0.75040    0.24960    0.32730    1.000
    C47      C        0.72690    0.19290    0.37560    1.000
    C48      C        0.71680    0.30540    0.36730    1.000
    C49      C        0.67320    0.19470    0.45480    1.000
    C50      C        0.66230    0.30260    0.44500    1.000
    N10      N        0.63820    0.24820    0.48970    1.000
    N11      N        0.01670    0.13350    0.88120    1.000
    C51      C        0.06610    0.11810    0.80790    1.000
    C52      C        0.96960    0.08690    0.91400    1.000
    C53      C        0.07050    0.05890    0.76360    1.000
    C54      C        0.96930    0.02600    0.87320    1.000
    C55      C        0.02070    0.01060    0.79630    1.000
    C56      C        0.02040    0.94560    0.74990    1.000
    C57      C        0.06880    0.93120    0.66980    1.000
    C58      C        0.97130    0.89740    0.78510    1.000
    C59      C        0.06330    0.87250    0.62540    1.000
    C60      C        0.96950    0.83960    0.73680    1.000
    N12      N        0.01360    0.82610    0.65600    1.000
    H33      H        0.94680    0.32860    0.12460    1.000
    H34      H        0.85130    0.16670    0.04390    1.000
    H35      H        0.86310    0.33300    0.26190    1.000
    H36      H        0.76750    0.16530    0.18120    1.000
    H37      H        0.74790    0.15390    0.35360    1.000
    H38      H        0.73180    0.34490    0.34070    1.000
    H39      H        0.66020    0.15630    0.48640    1.000
    H40      H        0.64030    0.34090    0.46870    1.000
    H41      H        0.10130    0.14980    0.78360    1.000
    H42      H        0.93430    0.09520    0.96770    1.000
    H43      H        0.10760    0.05170    0.71120    1.000
    H44      H        0.93340    0.99520    0.89890    1.000
    H45      H        0.10580    0.96140    0.64500    1.000
    H46      H        0.93890    0.90390    0.84200    1.000
    H47      H        0.09670    0.86460    0.56980    1.000
    H48      H        0.93500    0.80790    0.76250    1.000
    Ag4      Ag       0.99561    0.73614    0.56377    1.000
    N13      N        0.09100    0.74680    0.42870    1.000
    C61      C        0.09000    0.79510    0.36390    1.000
    C62      C        0.14530    0.70040    0.41070    1.000
    C63      C        0.14000    0.79810    0.28120    1.000
    C64      C        0.19670    0.69960    0.32890    1.000
    C65      C        0.19520    0.74910    0.26210    1.000
    C66      C        0.24960    0.74960    0.17270    1.000
    C67      C        0.27310    0.69290    0.12440    1.000
    C68      C        0.28320    0.80540    0.13270    1.000
    C69      C        0.32680    0.69470    0.04520    1.000
    C70      C        0.33770    0.80260    0.05500    1.000
    N14      N        0.36180    0.74820    0.01030    1.000
    N15      N        0.98330    0.63350    0.61880    1.000
    C71      C        0.93390    0.61810    0.69210    1.000
    C72      C        0.03040    0.58690    0.58600    1.000
    C73      C        0.92950    0.55890    0.73640    1.000
    C74      C        0.03070    0.52600    0.62680    1.000
    C75      C        0.97930    0.51060    0.70370    1.000
    C76      C        0.97960    0.44560    0.75010    1.000
    C77      C        0.93120    0.43120    0.83020    1.000
    C78      C        0.02870    0.39740    0.71490    1.000
    C79      C        0.93670    0.37250    0.87460    1.000
    C80      C        0.03050    0.33960    0.76320    1.000
    N16      N        0.98640    0.32610    0.84400    1.000
    H49      H        0.05320    0.82860    0.37540    1.000
    H50      H        0.14870    0.66670    0.45610    1.000
    H51      H        0.13690    0.83300    0.23810    1.000
    H52      H        0.23250    0.66530    0.31880    1.000
    H53      H        0.25210    0.65390    0.14640    1.000
    H54      H        0.26820    0.84490    0.15930    1.000
    H55      H        0.33980    0.65630    0.01360    1.000
    H56      H        0.35970    0.84090    0.03130    1.000
    H57      H        0.89870    0.64980    0.71640    1.000
    H58      H        0.06570    0.59520    0.53230    1.000
    H59      H        0.89240    0.55170    0.78880    1.000
    H60      H        0.06660    0.49520    0.60110    1.000
    H61      H        0.89420    0.46140    0.85500    1.000
    H62      H        0.06110    0.40390    0.65800    1.000
    H63      H        0.90330    0.36460    0.93020    1.000
    H64      H        0.06500    0.30790    0.73750    1.000
    Ag5      Ag       0.99561    0.76386    0.06377    1.000
    N17      N        0.09100    0.75320    0.92870    1.000
    C81      C        0.09000    0.70490    0.86390    1.000
    C82      C        0.14530    0.79960    0.91070    1.000
    C83      C        0.14000    0.70190    0.78120    1.000
    C84      C        0.19670    0.80040    0.82890    1.000
    C85      C        0.19520    0.75090    0.76210    1.000
    C86      C        0.24960    0.75040    0.67270    1.000
    C87      C        0.27310    0.80710    0.62440    1.000
    C88      C        0.28320    0.69460    0.63270    1.000
    C89      C        0.32680    0.80530    0.54520    1.000
    C90      C        0.33770    0.69740    0.55500    1.000
    N18      N        0.36180    0.75180    0.51030    1.000
    N19      N        0.98330    0.86650    0.11880    1.000
    C91      C        0.93390    0.88190    0.19210    1.000
    C92      C        0.03040    0.91310    0.08600    1.000
    C93      C        0.92950    0.94110    0.23640    1.000
    C94      C        0.03070    0.97400    0.12680    1.000
    C95      C        0.97930    0.98940    0.20370    1.000
    C96      C        0.97960    0.05440    0.25010    1.000
    C97      C        0.93120    0.06880    0.33020    1.000
    C98      C        0.02870    0.10260    0.21490    1.000
    C99      C        0.93670    0.12750    0.37460    1.000
    C100     C        0.03050    0.16040    0.26320    1.000
    N20      N        0.98640    0.17390    0.34400    1.000
    H65      H        0.05320    0.67140    0.87540    1.000
    H66      H        0.14870    0.83330    0.95610    1.000
    H67      H        0.13690    0.66700    0.73810    1.000
    H68      H        0.23250    0.83470    0.81880    1.000
    H69      H        0.25210    0.84610    0.64640    1.000
    H70      H        0.26820    0.65510    0.65930    1.000
    H71      H        0.33980    0.84370    0.51360    1.000
    H72      H        0.35970    0.65910    0.53130    1.000
    H73      H        0.89870    0.85020    0.21640    1.000
    H74      H        0.06570    0.90480    0.03230    1.000
    H75      H        0.89240    0.94830    0.28880    1.000
    H76      H        0.06660    0.00480    0.10110    1.000
    H77      H        0.89420    0.03860    0.35500    1.000
    H78      H        0.06110    0.09610    0.15800    1.000
    H79      H        0.90330    0.13540    0.43020    1.000
    H80      H        0.06500    0.19210    0.23750    1.000
    Ag6      Ag       0.00439    0.26386    0.43623    1.000
    N21      N        0.90900    0.25320    0.57130    1.000
    C101     C        0.91000    0.20490    0.63610    1.000
    C102     C        0.85470    0.29960    0.58930    1.000
    C103     C        0.86000    0.20190    0.71880    1.000
    C104     C        0.80330    0.30040    0.67110    1.000
    C105     C        0.80480    0.25090    0.73790    1.000
    C106     C        0.75040    0.25040    0.82730    1.000
    C107     C        0.72690    0.30710    0.87560    1.000
    C108     C        0.71680    0.19460    0.86730    1.000
    C109     C        0.67320    0.30530    0.95480    1.000
    C110     C        0.66230    0.19740    0.94500    1.000
    N22      N        0.63820    0.25180    0.98970    1.000
    N23      N        0.01670    0.36650    0.38120    1.000
    C111     C        0.06610    0.38190    0.30790    1.000
    C112     C        0.96960    0.41310    0.41400    1.000
    C113     C        0.07050    0.44110    0.26360    1.000
    C114     C        0.96930    0.47400    0.37320    1.000
    C115     C        0.02070    0.48940    0.29630    1.000
    C116     C        0.02040    0.55440    0.24990    1.000
    C117     C        0.06880    0.56880    0.16980    1.000
    C118     C        0.97130    0.60260    0.28510    1.000
    C119     C        0.06330    0.62750    0.12540    1.000
    C120     C        0.96950    0.66040    0.23680    1.000
    N24      N        0.01360    0.67390    0.15600    1.000
    H81      H        0.94680    0.17140    0.62460    1.000
    H82      H        0.85130    0.33330    0.54390    1.000
    H83      H        0.86310    0.16700    0.76190    1.000
    H84      H        0.76750    0.33470    0.68120    1.000
    H85      H        0.74790    0.34610    0.85360    1.000
    H86      H        0.73180    0.15510    0.84070    1.000
    H87      H        0.66020    0.34370    0.98640    1.000
    H88      H        0.64030    0.15910    0.96870    1.000
    H89      H        0.10130    0.35020    0.28360    1.000
    H90      H        0.93430    0.40480    0.46770    1.000
    H91      H        0.10760    0.44830    0.21120    1.000
    H92      H        0.93340    0.50480    0.39890    1.000
    H93      H        0.10580    0.53860    0.14500    1.000
    H94      H        0.93890    0.59610    0.34200    1.000
    H95      H        0.09670    0.63540    0.06980    1.000
    H96      H        0.93500    0.69210    0.26250    1.000
    Ag7      Ag       0.49561    0.76386    0.43623    1.000
    N25      N        0.59100    0.75320    0.57130    1.000
    C121     C        0.59000    0.70490    0.63610    1.000
    C122     C        0.64530    0.79960    0.58930    1.000
    C123     C        0.64000    0.70190    0.71880    1.000
    C124     C        0.69670    0.80040    0.67110    1.000
    C125     C        0.69520    0.75090    0.73790    1.000
    C126     C        0.74960    0.75040    0.82730    1.000
    C127     C        0.77310    0.80710    0.87560    1.000
    C128     C        0.78320    0.69460    0.86730    1.000
    C129     C        0.82680    0.80530    0.95480    1.000
    C130     C        0.83770    0.69740    0.94500    1.000
    N26      N        0.86180    0.75180    0.98970    1.000
    N27      N        0.48330    0.86650    0.38120    1.000
    C131     C        0.43390    0.88190    0.30790    1.000
    C132     C        0.53040    0.91310    0.41400    1.000
    C133     C        0.42950    0.94110    0.26360    1.000
    C134     C        0.53070    0.97400    0.37320    1.000
    C135     C        0.47930    0.98940    0.29630    1.000
    C136     C        0.47960    0.05440    0.24990    1.000
    C137     C        0.43120    0.06880    0.16980    1.000
    C138     C        0.52870    0.10260    0.28510    1.000
    C139     C        0.43670    0.12750    0.12540    1.000
    C140     C        0.53050    0.16040    0.23680    1.000
    N28      N        0.48640    0.17390    0.15600    1.000
    H97      H        0.55320    0.67140    0.62460    1.000
    H98      H        0.64870    0.83330    0.54390    1.000
    H99      H        0.63690    0.66700    0.76190    1.000
    H100     H        0.73250    0.83470    0.68120    1.000
    H101     H        0.75210    0.84610    0.85360    1.000
    H102     H        0.76820    0.65510    0.84070    1.000
    H103     H        0.83980    0.84370    0.98640    1.000
    H104     H        0.85970    0.65910    0.96870    1.000
    H105     H        0.39870    0.85020    0.28360    1.000
    H106     H        0.56570    0.90480    0.46770    1.000
    H107     H        0.39240    0.94830    0.21120    1.000
    H108     H        0.56660    0.00480    0.39890    1.000
    H109     H        0.39420    0.03860    0.14500    1.000
    H110     H        0.56110    0.09610    0.34200    1.000
    H111     H        0.40330    0.13540    0.06980    1.000
    H112     H        0.56500    0.19210    0.26250    1.000
    Ag8      Ag       0.50439    0.26386    0.06377    1.000
    N29      N        0.40900    0.25320    0.92870    1.000
    C141     C        0.41000    0.20490    0.86390    1.000
    C142     C        0.35470    0.29960    0.91070    1.000
    C143     C        0.36000    0.20190    0.78120    1.000
    C144     C        0.30330    0.30040    0.82890    1.000
    C145     C        0.30480    0.25090    0.76210    1.000
    C146     C        0.25040    0.25040    0.67270    1.000
    C147     C        0.22690    0.30710    0.62440    1.000
    C148     C        0.21680    0.19460    0.63270    1.000
    C149     C        0.17320    0.30530    0.54520    1.000
    C150     C        0.16230    0.19740    0.55500    1.000
    N30      N        0.13820    0.25180    0.51030    1.000
    N31      N        0.51670    0.36650    0.11880    1.000
    C151     C        0.56610    0.38190    0.19210    1.000
    C152     C        0.46960    0.41310    0.08600    1.000
    C153     C        0.57050    0.44110    0.23640    1.000
    C154     C        0.46930    0.47400    0.12680    1.000
    C155     C        0.52070    0.48940    0.20370    1.000
    C156     C        0.52040    0.55440    0.25010    1.000
    C157     C        0.56880    0.56880    0.33020    1.000
    C158     C        0.47130    0.60260    0.21490    1.000
    C159     C        0.56330    0.62750    0.37460    1.000
    C160     C        0.46950    0.66040    0.26320    1.000
    N32      N        0.51360    0.67390    0.34400    1.000
    H113     H        0.44680    0.17140    0.87540    1.000
    H114     H        0.35130    0.33330    0.95610    1.000
    H115     H        0.36310    0.16700    0.73810    1.000
    H116     H        0.26750    0.33470    0.81880    1.000
    H117     H        0.24790    0.34610    0.64640    1.000
    H118     H        0.23180    0.15510    0.65930    1.000
    H119     H        0.16020    0.34370    0.51360    1.000
    H120     H        0.14030    0.15910    0.53130    1.000
    H121     H        0.60130    0.35020    0.21640    1.000
    H122     H        0.43430    0.40480    0.03230    1.000
    H123     H        0.60760    0.44830    0.28880    1.000
    H124     H        0.43340    0.50480    0.10110    1.000
    H125     H        0.60580    0.53860    0.35500    1.000
    H126     H        0.43890    0.59610    0.15800    1.000
    H127     H        0.59670    0.63540    0.43020    1.000
    H128     H        0.43500    0.69210    0.23750    1.000
