data_functionalizedCrystal
_audit_creation_method	'EQeq! by Chris Wilmer'
_symmetry_space_group_name_H-M	'P1'
_symmetry_Int_Tables_number	1
_symmetry_cell_setting	triclinic
loop_
_symmetry_equiv_pos_as_xyz
  x,y,z
_cell_length_a	11.3015
_cell_length_b	33.5211
_cell_length_c	33.5211
_cell_angle_alpha	120
_cell_angle_beta	90
_cell_angle_gamma	90
loop_
_atom_site_label
_atom_site_type_symbol
_atom_site_fract_x
_atom_site_fract_y
_atom_site_fract_z
_atom_site_charge
Mof_Ni	Ni	0.99332	0.16546	0.8353	1.069
Mof_Ni	Ni	0.0913	0.00153	0.50073	1.069
Mof_Ni	Ni	0.15189	0.83434	0.6693	1.078
Mof_Ni	Ni	0.99332	0.66984	0.83454	1.069
Mof_Ni	Ni	0.0913	0.4992	0.99847	1.069
Mof_Ni	Ni	0.15189	0.83496	0.16566	1.078
Mof_Ni	Ni	0.99332	0.1647	0.33016	1.069
Mof_Ni	Ni	0.0913	0.49927	0.5008	1.068
Mof_Ni	Ni	0.15189	0.3307	0.16504	1.078
Mof_H 	H 	0.0831	0.975	0.7222	0.017
Mof_H 	H 	0.1203	0.9481	0.5907	0.015
Mof_H 	H 	0.0285	0.0762	0.6916	0.018
Mof_H 	H 	0.033	0.3091	0.9237	0.026
Mof_H 	H 	0.1188	0.41	0.0525	0.018
Mof_H 	H 	0.0792	0.2786	0.0254	0.022
Mof_H 	H 	0.2079	0.2345	0.858	0.008
Mof_H 	H 	0.408	0.2298	0.8558	0.07
Mof_H 	H 	0.3948	0.0945	0.8158	0.076
Mof_H 	H 	0.199	0.1027	0.8179	0.011
Mof_H 	H 	0.7871	0.2106	0.9017	0.01
Mof_H 	H 	0.5845	0.2167	0.9042	0.071
Mof_H 	H 	0.577	0.1207	0.7701	0.071
Mof_H 	H 	0.7784	0.1145	0.7675	0.011
Mof_H 	H 	0.2973	0.0447	0.5739	0.017
Mof_H 	H 	0.4963	0.0397	0.5658	0.061
Mof_H 	H 	0.513	0.965	0.4324	0.067
Mof_H 	H 	0.3097	0.9648	0.4323	0.012
Mof_H 	H 	0.8851	0.0391	0.4673	0.014
Mof_H 	H 	0.6797	0.0385	0.469	0.072
Mof_H 	H 	0.6786	0.9673	0.5348	0.071
Mof_H 	H 	0.8837	0.964	0.5333	0.001
Mof_H 	H 	0.3646	0.8852	0.6521	0.013
Mof_H 	H 	0.567	0.8822	0.6494	0.073
Mof_H 	H 	0.5569	0.7849	0.6861	0.073
Mof_H 	H 	0.3556	0.7889	0.6899	0.003
Mof_H 	H 	0.9468	0.8978	0.7086	0.01
Mof_H 	H 	0.7475	0.899	0.7118	0.063
Mof_H 	H 	0.737	0.7633	0.6196	0.074
Mof_H 	H 	0.9303	0.7667	0.6193	0.008
Mof_H 	H 	0.0831	0.7472	0.025	0.018
Mof_H 	H 	0.1203	0.6426	0.0519	0.016
Mof_H 	H 	0.0285	0.6154	0.9238	0.019
Mof_H 	H 	0.033	0.6146	0.6909	0.024
Mof_H 	H 	0.1188	0.6425	0.59	0.014
Mof_H 	H 	0.0792	0.7468	0.7214	0.018
Mof_H 	H 	0.2079	0.6235	0.7655	0.008
Mof_H 	H 	0.408	0.626	0.7702	0.07
Mof_H 	H 	0.3948	0.7213	0.9055	0.076
Mof_H 	H 	0.199	0.7152	0.8973	0.011
Mof_H 	H 	0.7871	0.6911	0.7894	0.01
Mof_H 	H 	0.5845	0.6875	0.7833	0.07
Mof_H 	H 	0.577	0.6494	0.8793	0.071
Mof_H 	H 	0.7784	0.653	0.8855	0.011
Mof_H 	H 	0.2973	0.5292	0.9553	0.017
Mof_H 	H 	0.4963	0.5261	0.9603	0.061
Mof_H 	H 	0.513	0.4674	0.035	0.067
Mof_H 	H 	0.3097	0.4675	0.0352	0.012
Mof_H 	H 	0.8851	0.4282	0.9609	0.014
Mof_H 	H 	0.6797	0.4305	0.9615	0.072
Mof_H 	H 	0.6786	0.5675	0.0327	0.071
Mof_H 	H 	0.8837	0.5693	0.036	0.001
Mof_H 	H 	0.3646	0.7669	0.1148	0.013
Mof_H 	H 	0.567	0.7672	0.1178	0.073
Mof_H 	H 	0.5569	0.9012	0.2151	0.073
Mof_H 	H 	0.3556	0.901	0.2111	0.003
Mof_H 	H 	0.9468	0.8108	0.1022	0.01
Mof_H 	H 	0.7475	0.8128	0.101	0.063
Mof_H 	H 	0.737	0.8563	0.2367	0.073
Mof_H 	H 	0.9303	0.8526	0.2333	0.008
Mof_H 	H 	0.0831	0.2778	0.2528	0.015
Mof_H 	H 	0.1203	0.4093	0.3574	0.013
Mof_H 	H 	0.0285	0.3084	0.3846	0.016
Mof_H 	H 	0.033	0.0763	0.3854	0.027
Mof_H 	H 	0.1188	0.9475	0.3575	0.018
Mof_H 	H 	0.0792	0.9746	0.2532	0.021
Mof_H 	H 	0.2079	0.142	0.3765	0.008
Mof_H 	H 	0.408	0.1442	0.374	0.07
Mof_H 	H 	0.3948	0.1842	0.2787	0.075
Mof_H 	H 	0.199	0.1821	0.2848	0.011
Mof_H 	H 	0.7871	0.0983	0.3089	0.01
Mof_H 	H 	0.5845	0.0958	0.3125	0.071
Mof_H 	H 	0.577	0.2299	0.3506	0.071
Mof_H 	H 	0.7784	0.2325	0.347	0.01
Mof_H 	H 	0.2973	0.4261	0.4708	0.018
Mof_H 	H 	0.4963	0.4342	0.4739	0.06
Mof_H 	H 	0.513	0.5676	0.5326	0.066
Mof_H 	H 	0.3097	0.5677	0.5325	0.012
Mof_H 	H 	0.8851	0.5327	0.5718	0.014
Mof_H 	H 	0.6797	0.531	0.5695	0.07
Mof_H 	H 	0.6786	0.4652	0.4325	0.07
Mof_H 	H 	0.8837	0.4667	0.4307	0.002
Mof_H 	H 	0.3646	0.3479	0.2331	0.013
Mof_H 	H 	0.567	0.3506	0.2328	0.074
Mof_H 	H 	0.5569	0.3139	0.0988	0.073
Mof_H 	H 	0.3556	0.3101	0.099	0.003
Mof_H 	H 	0.9468	0.2914	0.1892	0.011
Mof_H 	H 	0.7475	0.2882	0.1872	0.064
Mof_H 	H 	0.737	0.3804	0.1437	0.073
Mof_H 	H 	0.9303	0.3807	0.1474	0.008
Mof_C 	C 	0.0517	0.03046	0.71415	-0.175
Mof_C 	C 	0.0807	0.98505	0.70024	0.106
Mof_C 	C 	0.1062	0.95436	0.65425	-0.184
Mof_C 	C 	0.1028	0.96908	0.62217	0.104
Mof_C 	C 	0.0738	0.01449	0.63608	-0.166
Mof_C 	C 	0.0483	0.04518	0.68207	0.103
Mof_C 	C 	0.0227	0.0676	0.7634	0.462
Mof_C 	C 	0.1338	0.9077	0.6443	0.416
Mof_C 	C 	0.0724	0.0295	0.6002	0.436
Mof_C 	C 	0.0521	0.28654	0.96964	-0.135
Mof_C 	C 	0.0508	0.31859	0.95487	0.079
Mof_C 	C 	0.0756	0.3646	0.98575	-0.151
Mof_C 	C 	0.1018	0.37855	0.0314	0.098
Mof_C 	C 	0.1031	0.34649	0.04617	-0.192
Mof_C 	C 	0.0783	0.30049	0.01529	0.091
Mof_C 	C 	0.0249	0.2362	0.9337	0.372
Mof_C 	C 	0.0769	0.4019	0.972	0.417
Mof_C 	C 	0.1284	0.3583	0.0916	0.41
Mof_C 	C 	0.2431	0.2056	0.8494	0.056
Mof_C 	C 	0.3643	0.2027	0.8481	-0.114
Mof_C 	C 	0.4282	0.16214	0.83606	0.048
Mof_C 	C 	0.3606	0.1236	0.8245	-0.122
Mof_C 	C 	0.2421	0.1302	0.8265	0.065
Mof_C 	C 	0.7434	0.1918	0.87436	0.048
Mof_C 	C 	0.6231	0.1957	0.8763	-0.115
Mof_C 	C 	0.5594	0.1687	0.8374	0.049
Mof_C 	C 	0.6209	0.1392	0.7975	-0.117
Mof_C 	C 	0.7403	0.1354	0.7956	0.057
Mof_C 	C 	0.3361	0.0283	0.545	0.027
Mof_C 	C 	0.4543	0.0238	0.5375	-0.084
Mof_C 	C 	0.5307	0.0032	0.5014	0.035
Mof_C 	C 	0.471	0.9807	0.4607	-0.108
Mof_C 	C 	0.3499	0.981	0.461	0.043
Mof_C 	C 	0.8436	0.0243	0.4809	0.047
Mof_C 	C 	0.7228	0.0238	0.4824	-0.114
Mof_C 	C 	0.6615	0.00304	0.50184	0.06
Mof_C 	C 	0.7218	0.9815	0.5209	-0.122
Mof_C 	C 	0.8422	0.9797	0.5206	0.046
Mof_C 	C 	0.4039	0.8645	0.6592	0.06
Mof_C 	C 	0.5234	0.863	0.6575	-0.123
Mof_C 	C 	0.5807	0.83279	0.66789	0.058
Mof_C 	C 	0.517	0.8057	0.6793	-0.124
Mof_C 	C 	0.3977	0.8079	0.6812	0.057
Mof_C 	C 	0.9072	0.8695	0.6897	0.026
Mof_C 	C 	0.7848	0.8704	0.6917	-0.097
Mof_C 	C 	0.7122	0.8316	0.666	0.038
Mof_C 	C 	0.7755	0.7919	0.6384	-0.124
Mof_C 	C 	0.895	0.7956	0.6395	0.074
Mof_C 	C 	0.0517	0.68369	0.96954	-0.175
Mof_C 	C 	0.0807	0.71519	0.01495	0.106
Mof_C 	C 	0.1062	0.69989	0.04564	-0.184
Mof_C 	C 	0.1028	0.65309	0.03092	0.104
Mof_C 	C 	0.0738	0.62159	0.98551	-0.166
Mof_C 	C 	0.0483	0.63689	0.95482	0.103
Mof_C 	C 	0.0227	0.6958	0.9324	0.462
Mof_C 	C 	0.1338	0.7366	0.0923	0.416
Mof_C 	C 	0.0724	0.5707	0.9705	0.436
Mof_C 	C 	0.0521	0.6831	0.71346	-0.148
Mof_C 	C 	0.0508	0.63628	0.68141	0.089
Mof_C 	C 	0.0756	0.62115	0.6354	-0.164
Mof_C 	C 	0.1018	0.65285	0.62145	0.113
Mof_C 	C 	0.1031	0.69968	0.65351	-0.201
Mof_C 	C 	0.0783	0.7148	0.69951	0.106
Mof_C 	C 	0.0249	0.6975	0.7638	0.375
Mof_C 	C 	0.0769	0.5701	0.5981	0.421
Mof_C 	C 	0.1284	0.7333	0.6417	0.414
Mof_C 	C 	0.2431	0.6438	0.7944	0.056
Mof_C 	C 	0.3643	0.6454	0.7973	-0.114
Mof_C 	C 	0.4282	0.67392	0.83786	0.047
Mof_C 	C 	0.3606	0.7009	0.8764	-0.122
Mof_C 	C 	0.2421	0.6963	0.8698	0.065
Mof_C 	C 	0.7434	0.68256	0.8082	0.047
Mof_C 	C 	0.6231	0.6806	0.8043	-0.115
Mof_C 	C 	0.5594	0.6687	0.8313	0.049
Mof_C 	C 	0.6209	0.6583	0.8608	-0.117
Mof_C 	C 	0.7403	0.6602	0.8646	0.057
Mof_C 	C 	0.3361	0.5167	0.9717	0.027
Mof_C 	C 	0.4543	0.5137	0.9762	-0.084
Mof_C 	C 	0.5307	0.4982	0.9968	0.035
Mof_C 	C 	0.471	0.48	0.0193	-0.108
Mof_C 	C 	0.3499	0.48	0.019	0.043
Mof_C 	C 	0.8436	0.4566	0.9757	0.047
Mof_C 	C 	0.7228	0.4586	0.9762	-0.114
Mof_C 	C 	0.6615	0.4988	0.99696	0.06
Mof_C 	C 	0.7218	0.5394	0.0185	-0.122
Mof_C 	C 	0.8422	0.5409	0.0203	0.046
Mof_C 	C 	0.4039	0.7947	0.1355	0.059
Mof_C 	C 	0.5234	0.7945	0.137	-0.123
Mof_C 	C 	0.5807	0.8351	0.16721	0.057
Mof_C 	C 	0.517	0.8736	0.1943	-0.125
Mof_C 	C 	0.3977	0.8733	0.1921	0.057
Mof_C 	C 	0.9072	0.8202	0.1305	0.026
Mof_C 	C 	0.7848	0.8213	0.1296	-0.098
Mof_C 	C 	0.7122	0.8344	0.1684	0.038
Mof_C 	C 	0.7755	0.8465	0.2081	-0.124
Mof_C 	C 	0.895	0.8439	0.2044	0.073
Mof_C 	C 	0.0517	0.28585	0.31631	-0.188
Mof_C 	C 	0.0807	0.29976	0.28481	0.12
Mof_C 	C 	0.1062	0.34575	0.30011	-0.193
Mof_C 	C 	0.1028	0.37783	0.34691	0.118
Mof_C 	C 	0.0738	0.36392	0.37841	-0.179
Mof_C 	C 	0.0483	0.31793	0.36311	0.112
Mof_C 	C 	0.0227	0.2366	0.3042	0.465
Mof_C 	C 	0.1338	0.3557	0.2634	0.42
Mof_C 	C 	0.0724	0.3998	0.4293	0.44
Mof_C 	C 	0.0521	0.03036	0.3169	-0.135
Mof_C 	C 	0.0508	0.04513	0.36372	0.079
Mof_C 	C 	0.0756	0.01425	0.37885	-0.151
Mof_C 	C 	0.1018	0.9686	0.34715	0.098
Mof_C 	C 	0.1031	0.95383	0.30032	-0.192
Mof_C 	C 	0.0783	0.98471	0.2852	0.091
Mof_C 	C 	0.0249	0.0663	0.3025	0.372
Mof_C 	C 	0.0769	0.028	0.4299	0.417
Mof_C 	C 	0.1284	0.9084	0.2667	0.41
Mof_C 	C 	0.2431	0.1506	0.3562	0.056
Mof_C 	C 	0.3643	0.1519	0.3546	-0.114
Mof_C 	C 	0.4282	0.16394	0.32608	0.047
Mof_C 	C 	0.3606	0.1755	0.2991	-0.122
Mof_C 	C 	0.2421	0.1735	0.3037	0.065
Mof_C 	C 	0.7434	0.12564	0.31744	0.047
Mof_C 	C 	0.6231	0.1237	0.3194	-0.115
Mof_C 	C 	0.5594	0.1626	0.3313	0.049
Mof_C 	C 	0.6209	0.2025	0.3417	-0.117
Mof_C 	C 	0.7403	0.2044	0.3398	0.057
Mof_C 	C 	0.3361	0.455	0.4833	0.025
Mof_C 	C 	0.4543	0.4625	0.4863	-0.083
Mof_C 	C 	0.5307	0.4986	0.5018	0.031
Mof_C 	C 	0.471	0.5393	0.52	-0.102
Mof_C 	C 	0.3499	0.539	0.52	0.046
Mof_C 	C 	0.8436	0.5191	0.5434	0.045
Mof_C 	C 	0.7228	0.5176	0.5414	-0.112
Mof_C 	C 	0.6615	0.49816	0.5012	0.054
Mof_C 	C 	0.7218	0.4791	0.4606	-0.115
Mof_C 	C 	0.8422	0.4794	0.4591	0.048
Mof_C 	C 	0.4039	0.3408	0.2053	0.06
Mof_C 	C 	0.5234	0.3425	0.2055	-0.123
Mof_C 	C 	0.5807	0.33211	0.1649	0.058
Mof_C 	C 	0.517	0.3207	0.1264	-0.124
Mof_C 	C 	0.3977	0.3188	0.1267	0.057
Mof_C 	C 	0.9072	0.3103	0.1798	0.026
Mof_C 	C 	0.7848	0.3083	0.1787	-0.097
Mof_C 	C 	0.7122	0.334	0.1656	0.038
Mof_C 	C 	0.7755	0.3616	0.1535	-0.124
Mof_C 	C 	0.895	0.3605	0.1561	0.074
Mof_N 	N 	0.1684	0.16788	0.83834	-0.238
Mof_N 	N 	0.8062	0.16187	0.83452	-0.225
Mof_N 	N 	0.282	0.00394	0.50129	-0.208
Mof_N 	N 	0.9022	0.00193	0.50074	-0.22
Mof_N 	N 	0.3349	0.83721	0.67101	-0.234
Mof_N 	N 	0.9816	0.8296	0.66169	-0.245
Mof_N 	N 	0.1684	0.67046	0.83212	-0.238
Mof_N 	N 	0.8062	0.67265	0.83813	-0.225
Mof_N 	N 	0.282	0.49735	0.99606	-0.208
Mof_N 	N 	0.9022	0.49881	0.99807	-0.22
Mof_N 	N 	0.3349	0.8338	0.16279	-0.234
Mof_N 	N 	0.9816	0.83209	0.1704	-0.245
Mof_N 	N 	0.1684	0.16166	0.32954	-0.238
Mof_N 	N 	0.8062	0.16548	0.32735	-0.225
Mof_N 	N 	0.282	0.49871	0.50265	-0.21
Mof_N 	N 	0.9022	0.49926	0.50119	-0.222
Mof_N 	N 	0.3349	0.32899	0.1662	-0.234
Mof_N 	N 	0.9816	0.33831	0.16791	-0.245
Mof_O 	O 	0.9967	0.10408	0.77631	-0.523
Mof_O 	O 	0.0267	0.0513	0.7926	-0.28
Mof_O 	O 	0.1386	0.89594	0.66975	-0.481
Mof_O 	O 	0.163	0.87499	0.59746	-0.259
Mof_O 	O 	0.0909	0.00332	0.56254	-0.484
Mof_O 	O 	0.0434	0.0717	0.6142	-0.291
Mof_O 	O 	0.0262	0.2076	0.9485	-0.272
Mof_O 	O 	0.0002	0.22437	0.89399	-0.449
Mof_O 	O 	0.0498	0.3861	0.9268	-0.273
Mof_O 	O 	0.0955	0.4388	0.99715	-0.495
Mof_O 	O 	0.1543	0.4024	0.1237	-0.268
Mof_O 	O 	0.1322	0.33353	0.1069	-0.463
Mof_O 	O 	0.9967	0.67223	0.89592	-0.523
Mof_O 	O 	0.0267	0.7413	0.9487	-0.28
Mof_O 	O 	0.1386	0.77381	0.10406	-0.482
Mof_O 	O 	0.163	0.72247	0.12501	-0.259
Mof_O 	O 	0.0909	0.55922	0.99668	-0.484
Mof_O 	O 	0.0434	0.5425	0.9283	-0.291
Mof_O 	O 	0.0262	0.7409	0.7924	-0.275
Mof_O 	O 	0.0002	0.66962	0.77563	-0.45
Mof_O 	O 	0.0498	0.5407	0.6139	-0.274
Mof_O 	O 	0.0955	0.55835	0.5612	-0.498
Mof_O 	O 	0.1543	0.7213	0.5976	-0.268
Mof_O 	O 	0.1322	0.77337	0.66647	-0.464
Mof_O 	O 	0.9967	0.22369	0.32777	-0.524
Mof_O 	O 	0.0267	0.2074	0.2587	-0.282
Mof_O 	O 	0.1386	0.33025	0.22619	-0.482
Mof_O 	O 	0.163	0.40254	0.27753	-0.259
Mof_O 	O 	0.0909	0.43746	0.44078	-0.487
Mof_O 	O 	0.0434	0.3858	0.4575	-0.292
Mof_O 	O 	0.0262	0.0515	0.2591	-0.273
Mof_O 	O 	0.0002	0.10601	0.33038	-0.449
Mof_O 	O 	0.0498	0.0732	0.4593	-0.273
Mof_O 	O 	0.0955	0.00285	0.44165	-0.495
Mof_O 	O 	0.1543	0.8763	0.2787	-0.268
Mof_O 	O 	0.1322	0.8931	0.22663	-0.463
_end
