data_functionalizedCrystal
_audit_creation_method	'EQeq! by Chris Wilmer'
_symmetry_space_group_name_H-M	'P1'
_symmetry_Int_Tables_number	1
_symmetry_cell_setting	triclinic
loop_
_symmetry_equiv_pos_as_xyz
  x,y,z
_cell_length_a	12.91
_cell_length_b	13.18
_cell_length_c	14.5905
_cell_angle_alpha	116.85
_cell_angle_beta	113.546
_cell_angle_gamma	90
loop_
_atom_site_label
_atom_site_type_symbol
_atom_site_fract_x
_atom_site_fract_y
_atom_site_fract_z
_atom_site_charge
Mof_Mn	Mn	0.75	0.9737	-0	0.576
Mof_Mn	Mn	0.5349	0.28096	0.57732	0.66
Mof_Mn	Mn	0.0349	0.29636	0.57732	0.669
Mof_Mn	Mn	0.9651	0.70364	0.42268	0.629
Mof_Mn	Mn	0.25	0.0263	-0	0.596
Mof_Mn	Mn	0.4651	0.71904	0.42268	0.64
Mof_Mo	Mo	0.65034	0.33974	0.28316	0.964
Mof_Mo	Mo	0.84966	0.05658	0.71684	0.971
Mof_Mo	Mo	0.34966	0.66026	0.71684	0.972
Mof_Mo	Mo	0.15034	0.94342	0.28316	0.962
Mof_C 	C 	0.122	0.7663	0.1466	-0.143
Mof_C 	C 	0.893	0.9226	0.5946	-0.142
Mof_C 	C 	0.393	0.672	0.5946	-0.135
Mof_C 	C 	0.789	0.4871	0.3682	-0.139
Mof_C 	C 	0.9806	0.9397	0.1664	-0.151
Mof_C 	C 	0.0194	0.0603	0.8336	-0.107
Mof_C 	C 	0.0636	0.8457	0.3284	-0.123
Mof_C 	C 	0.192	0.9745	0.1702	-0.148
Mof_C 	C 	0.378	0.6197	0.8534	-0.118
Mof_C 	C 	0.211	0.5129	0.6318	-0.132
Mof_C 	C 	0.107	0.0774	0.4054	-0.129
Mof_C 	C 	0.5636	0.4827	0.3284	-0.125
Mof_C 	C 	0.705	0.9142	0.6104	-0.138
Mof_C 	C 	0.711	0.1189	0.6318	-0.132
Mof_C 	C 	0.205	0.6962	0.6104	-0.134
Mof_C 	C 	0.308	0.8043	0.8298	-0.123
Mof_C 	C 	0.692	0.1957	0.1702	-0.148
Mof_C 	C 	0.4364	0.5173	0.6716	-0.116
Mof_C 	C 	0.808	0.0255	0.8298	-0.125
Mof_C 	C 	0.5194	0.7733	0.8336	-0.118
Mof_C 	C 	0.607	0.328	0.4054	-0.136
Mof_C 	C 	0.622	0.3803	0.1466	-0.146
Mof_C 	C 	0.878	0.2337	0.8534	-0.121
Mof_C 	C 	0.289	0.8811	0.3682	-0.139
Mof_C 	C 	0.4806	0.2267	0.1664	-0.14
Mof_C 	C 	0.9364	0.1543	0.6716	-0.118
Mof_C 	C 	0.795	0.3038	0.3896	-0.137
Mof_C 	C 	0.295	0.0858	0.3896	-0.132
Mof_N 	N 	0.71	0.1144	0.1068	-0.166
Mof_N 	N 	0.6092	0.8347	0.8972	-0.129
Mof_N 	N 	0.891	0.3282	0.9204	-0.059
Mof_N 	N 	0.3908	0.1653	0.1028	-0.169
Mof_N 	N 	0.21	0.9924	0.1068	-0.171
Mof_N 	N 	0.9786	0.2074	0.6468	-0.158
Mof_N 	N 	0.8908	0.9375	0.1028	-0.169
Mof_N 	N 	0.625	0.8396	0.5514	-0.149
Mof_N 	N 	0.417	0.68	0.53	-0.148
Mof_N 	N 	0.583	0.32	0.47	-0.149
Mof_N 	N 	0.29	0.8856	0.8932	-0.131
Mof_N 	N 	0.109	0.6718	0.0796	-0.097
Mof_N 	N 	0.79	0.0076	0.8932	-0.127
Mof_N 	N 	0.4786	0.4394	0.6468	-0.154
Mof_N 	N 	0.6415	0.1606	0.5922	-0.154
Mof_N 	N 	0.1092	0.0625	0.8972	-0.131
Mof_N 	N 	0.917	0.85	0.53	-0.148
Mof_N 	N 	0.875	0.2882	0.4486	-0.154
Mof_N 	N 	0.5214	0.5606	0.3532	-0.159
Mof_N 	N 	0.0214	0.7926	0.3532	-0.156
Mof_N 	N 	0.391	0.5922	0.9204	-0.057
Mof_N 	N 	0.8585	0.5684	0.4078	-0.156
Mof_N 	N 	0.125	0.7118	0.5514	-0.145
Mof_N 	N 	0.083	0.15	0.47	-0.149
Mof_N 	N 	0.3585	0.8394	0.4078	-0.155
Mof_N 	N 	0.609	0.4078	0.0796	-0.099
Mof_N 	N 	0.1415	0.4316	0.5922	-0.154
Mof_N 	N 	0.375	0.1604	0.4486	-0.151
_end
