data_functionalizedCrystal
_audit_creation_method	'EQeq! by Chris Wilmer'
_symmetry_space_group_name_H-M	'P1'
_symmetry_Int_Tables_number	1
_symmetry_cell_setting	triclinic
loop_
_symmetry_equiv_pos_as_xyz
  x,y,z
_cell_length_a	16.3116
_cell_length_b	16.3116
_cell_length_c	30.06
_cell_angle_alpha	90
_cell_angle_beta	90
_cell_angle_gamma	90
loop_
_atom_site_label
_atom_site_type_symbol
_atom_site_fract_x
_atom_site_fract_y
_atom_site_fract_z
_atom_site_charge
Mof_Ni	Ni	0.01022	0.26347	0.74411	1.093
Mof_Ni	Ni	0.98978	0.73653	0.24411	1.093
Mof_Ni	Ni	0.73653	0.01022	0.99411	1.093
Mof_Ni	Ni	0.26347	0.98978	0.49411	1.093
Mof_Ni	Ni	0.98978	0.26347	0.25589	1.094
Mof_Ni	Ni	0.01022	0.73653	0.75589	1.094
Mof_Ni	Ni	0.26347	0.01022	0.00589	1.094
Mof_Ni	Ni	0.73653	0.98978	0.50589	1.094
Mof_Ni	Ni	0.52634	0.52634	0.875	1.059
Mof_Ni	Ni	0.47366	0.47366	0.375	1.059
Mof_Ni	Ni	0.47366	0.52634	0.125	1.059
Mof_Ni	Ni	0.52634	0.47366	0.625	1.059
Mof_H 	H 	0.738	0.3876	0.833	0.033
Mof_H 	H 	0.8605	0.1797	0.8506	0.037
Mof_H 	H 	0.6589	0.225	0.9224	0.036
Mof_H 	H 	0.703	0.547	0.9034	-0.001
Mof_H 	H 	0.782	0.606	0.9563	0.088
Mof_H 	H 	0.7261	0.7112	0.0004	0.009
Mof_H 	H 	0.5878	0.736	0.9939	0.103
Mof_H 	H 	0.5087	0.6587	0.9471	-0
Mof_H 	H 	0.1382	0.3987	0.7434	-0.01
Mof_H 	H 	0.2265	0.4689	0.7881	0.101
Mof_H 	H 	0.2289	0.4392	0.8642	0.007
Mof_H 	H 	0.141	0.3358	0.89	0.086
Mof_H 	H 	0.056	0.2723	0.8407	-0.008
Mof_H 	H 	0.1755	0.1767	0.7625	0
Mof_H 	H 	0.2239	0.064	0.7981	0.085
Mof_H 	H 	0.138	0.9716	0.828	0.009
Mof_H 	H 	0.9975	0.9901	0.8225	0.108
Mof_H 	H 	0.9498	0.105	0.787	0.016
Mof_H 	H 	0.972	0.1858	0.6814	0.284
Mof_H 	H 	0.262	0.6124	0.333	0.033
Mof_H 	H 	0.1395	0.8203	0.3506	0.037
Mof_H 	H 	0.3411	0.775	0.4224	0.036
Mof_H 	H 	0.297	0.453	0.4034	-0.001
Mof_H 	H 	0.218	0.394	0.4563	0.088
Mof_H 	H 	0.2739	0.2888	0.5004	0.009
Mof_H 	H 	0.4122	0.264	0.4939	0.102
Mof_H 	H 	0.4913	0.3413	0.4471	-0
Mof_H 	H 	0.8618	0.6013	0.2434	-0.01
Mof_H 	H 	0.7735	0.5311	0.2881	0.101
Mof_H 	H 	0.7711	0.5608	0.3642	0.007
Mof_H 	H 	0.859	0.6642	0.39	0.086
Mof_H 	H 	0.944	0.7277	0.3407	-0.008
Mof_H 	H 	0.8245	0.8233	0.2625	0
Mof_H 	H 	0.7761	0.936	0.2981	0.085
Mof_H 	H 	0.862	0.0284	0.328	0.009
Mof_H 	H 	0.0025	0.0099	0.3225	0.108
Mof_H 	H 	0.0502	0.895	0.287	0.016
Mof_H 	H 	0.028	0.8142	0.1814	0.284
Mof_H 	H 	0.6124	0.738	0.083	0.033
Mof_H 	H 	0.8203	0.8605	0.1006	0.037
Mof_H 	H 	0.775	0.6589	0.1724	0.036
Mof_H 	H 	0.453	0.703	0.1534	-0.001
Mof_H 	H 	0.394	0.782	0.2063	0.088
Mof_H 	H 	0.2888	0.7261	0.2504	0.009
Mof_H 	H 	0.264	0.5878	0.2439	0.102
Mof_H 	H 	0.3413	0.5087	0.1971	-0
Mof_H 	H 	0.6013	0.1382	0.9934	-0.01
Mof_H 	H 	0.5311	0.2265	0.0381	0.101
Mof_H 	H 	0.5608	0.2289	0.1142	0.007
Mof_H 	H 	0.6642	0.141	0.14	0.086
Mof_H 	H 	0.7277	0.056	0.0907	-0.008
Mof_H 	H 	0.8233	0.1755	0.0125	0
Mof_H 	H 	0.936	0.2239	0.0481	0.085
Mof_H 	H 	0.0284	0.138	0.078	0.009
Mof_H 	H 	0.0099	0.9975	0.0725	0.108
Mof_H 	H 	0.895	0.9498	0.037	0.015
Mof_H 	H 	0.8142	0.972	0.9314	0.284
Mof_H 	H 	0.3876	0.262	0.583	0.033
Mof_H 	H 	0.1797	0.1395	0.6006	0.037
Mof_H 	H 	0.225	0.3411	0.6724	0.036
Mof_H 	H 	0.547	0.297	0.6534	-0.001
Mof_H 	H 	0.606	0.218	0.7063	0.088
Mof_H 	H 	0.7112	0.2739	0.7504	0.009
Mof_H 	H 	0.736	0.4122	0.7439	0.102
Mof_H 	H 	0.6587	0.4913	0.6971	-0
Mof_H 	H 	0.3987	0.8618	0.4934	-0.01
Mof_H 	H 	0.4689	0.7735	0.5381	0.101
Mof_H 	H 	0.4392	0.7711	0.6142	0.007
Mof_H 	H 	0.3358	0.859	0.64	0.086
Mof_H 	H 	0.2723	0.944	0.5907	-0.008
Mof_H 	H 	0.1767	0.8245	0.5125	0
Mof_H 	H 	0.064	0.7761	0.5481	0.085
Mof_H 	H 	0.9716	0.862	0.578	0.009
Mof_H 	H 	0.9901	0.0025	0.5725	0.108
Mof_H 	H 	0.105	0.0502	0.537	0.016
Mof_H 	H 	0.1858	0.028	0.4314	0.284
Mof_H 	H 	0.262	0.3876	0.167	0.033
Mof_H 	H 	0.1395	0.1797	0.1494	0.037
Mof_H 	H 	0.3411	0.225	0.0776	0.036
Mof_H 	H 	0.297	0.547	0.0966	-0.001
Mof_H 	H 	0.218	0.606	0.0437	0.088
Mof_H 	H 	0.2739	0.7112	0.9996	0.009
Mof_H 	H 	0.4122	0.736	0.0061	0.103
Mof_H 	H 	0.4913	0.6587	0.0529	-0
Mof_H 	H 	0.8618	0.3987	0.2566	-0.01
Mof_H 	H 	0.7735	0.4689	0.2119	0.101
Mof_H 	H 	0.7711	0.4392	0.1358	0.007
Mof_H 	H 	0.859	0.3358	0.11	0.086
Mof_H 	H 	0.944	0.2723	0.1593	-0.008
Mof_H 	H 	0.8245	0.1767	0.2375	0
Mof_H 	H 	0.7761	0.064	0.2019	0.085
Mof_H 	H 	0.862	0.9716	0.172	0.009
Mof_H 	H 	0.0025	0.9901	0.1775	0.108
Mof_H 	H 	0.0502	0.105	0.213	0.016
Mof_H 	H 	0.028	0.1858	0.3186	0.284
Mof_H 	H 	0.738	0.6124	0.667	0.033
Mof_H 	H 	0.8605	0.8203	0.6494	0.037
Mof_H 	H 	0.6589	0.775	0.5776	0.036
Mof_H 	H 	0.703	0.453	0.5966	-0.001
Mof_H 	H 	0.782	0.394	0.5437	0.088
Mof_H 	H 	0.7261	0.2888	0.4996	0.009
Mof_H 	H 	0.5878	0.264	0.5061	0.102
Mof_H 	H 	0.5087	0.3413	0.5529	-0
Mof_H 	H 	0.1382	0.6013	0.7566	-0.01
Mof_H 	H 	0.2265	0.5311	0.7119	0.101
Mof_H 	H 	0.2289	0.5608	0.6358	0.007
Mof_H 	H 	0.141	0.6642	0.61	0.086
Mof_H 	H 	0.056	0.7277	0.6593	-0.008
Mof_H 	H 	0.1755	0.8233	0.7375	0
Mof_H 	H 	0.2239	0.936	0.7019	0.085
Mof_H 	H 	0.138	0.0284	0.672	0.009
Mof_H 	H 	0.9975	0.0099	0.6775	0.108
Mof_H 	H 	0.9498	0.895	0.713	0.016
Mof_H 	H 	0.972	0.8142	0.8186	0.284
Mof_H 	H 	0.3876	0.738	0.917	0.033
Mof_H 	H 	0.1797	0.8605	0.8994	0.037
Mof_H 	H 	0.225	0.6589	0.8276	0.036
Mof_H 	H 	0.547	0.703	0.8466	-0.001
Mof_H 	H 	0.606	0.782	0.7937	0.088
Mof_H 	H 	0.7112	0.7261	0.7496	0.009
Mof_H 	H 	0.736	0.5878	0.7561	0.102
Mof_H 	H 	0.6587	0.5087	0.8029	-0
Mof_H 	H 	0.3987	0.1382	0.0066	-0.01
Mof_H 	H 	0.4689	0.2265	0.9619	0.101
Mof_H 	H 	0.4392	0.2289	0.8858	0.007
Mof_H 	H 	0.3358	0.141	0.86	0.086
Mof_H 	H 	0.2723	0.056	0.9093	-0.008
Mof_H 	H 	0.1767	0.1755	0.9875	0
Mof_H 	H 	0.064	0.2239	0.9519	0.085
Mof_H 	H 	0.9716	0.138	0.922	0.009
Mof_H 	H 	0.9901	0.9975	0.9275	0.108
Mof_H 	H 	0.105	0.9498	0.963	0.015
Mof_H 	H 	0.1858	0.972	0.0686	0.284
Mof_H 	H 	0.6124	0.262	0.417	0.033
Mof_H 	H 	0.8203	0.1395	0.3994	0.037
Mof_H 	H 	0.775	0.3411	0.3276	0.036
Mof_H 	H 	0.453	0.297	0.3466	-0.001
Mof_H 	H 	0.394	0.218	0.2937	0.088
Mof_H 	H 	0.2888	0.2739	0.2496	0.009
Mof_H 	H 	0.264	0.4122	0.2561	0.102
Mof_H 	H 	0.3413	0.4913	0.3029	-0
Mof_H 	H 	0.6013	0.8618	0.5066	-0.01
Mof_H 	H 	0.5311	0.7735	0.4619	0.101
Mof_H 	H 	0.5608	0.7711	0.3858	0.007
Mof_H 	H 	0.6642	0.859	0.36	0.086
Mof_H 	H 	0.7277	0.944	0.4093	-0.008
Mof_H 	H 	0.8233	0.8245	0.4875	0
Mof_H 	H 	0.936	0.7761	0.4519	0.085
Mof_H 	H 	0.0284	0.862	0.422	0.009
Mof_H 	H 	0.0099	0.0025	0.4275	0.108
Mof_H 	H 	0.895	0.0502	0.463	0.016
Mof_H 	H 	0.8142	0.028	0.5686	0.284
Mof_C 	C 	0.6156	0.3674	0.8913	0.331
Mof_C 	C 	0.6866	0.3156	0.8797	-0.122
Mof_C 	C 	0.7442	0.3378	0.8477	0.056
Mof_C 	C 	0.8098	0.2888	0.837	-0.12
Mof_C 	C 	0.8686	0.3126	0.8009	0.33
Mof_C 	C 	0.8173	0.2142	0.8582	0.058
Mof_C 	C 	0.7628	0.1899	0.8901	-0.121
Mof_C 	C 	0.7728	0.1078	0.913	0.363
Mof_C 	C 	0.6964	0.2413	0.9008	0.055
Mof_C 	C 	0.6782	0.5813	0.9242	0.093
Mof_C 	C 	0.727	0.62	0.9539	-0.157
Mof_C 	C 	0.6938	0.6812	0.9808	0.078
Mof_C 	C 	0.6121	0.6948	0.977	-0.158
Mof_C 	C 	0.5647	0.6486	0.9485	0.082
Mof_C 	C 	0.1384	0.3863	0.7736	0.102
Mof_C 	C 	0.1922	0.4291	0.8001	-0.164
Mof_C 	C 	0.194	0.4114	0.8449	0.083
Mof_C 	C 	0.1417	0.3507	0.8601	-0.162
Mof_C 	C 	0.0908	0.3128	0.83	0.102
Mof_C 	C 	0.1386	0.1395	0.7746	0.084
Mof_C 	C 	0.1676	0.072	0.7959	-0.161
Mof_C 	C 	0.117	0.0174	0.8135	0.095
Mof_C 	C 	0.0338	0.0281	0.8105	-0.157
Mof_C 	C 	0.0062	0.0971	0.7889	0.096
Mof_C 	C 	0.8636	0.2183	0.6837	0.122
Mof_C 	C 	0.8248	0.1615	0.6495	-0.025
Mof_C 	C 	0.3844	0.6326	0.3913	0.331
Mof_C 	C 	0.3134	0.6844	0.3797	-0.122
Mof_C 	C 	0.2558	0.6622	0.3477	0.056
Mof_C 	C 	0.1902	0.7112	0.337	-0.12
Mof_C 	C 	0.1314	0.6874	0.3009	0.33
Mof_C 	C 	0.1827	0.7858	0.3582	0.058
Mof_C 	C 	0.2372	0.8101	0.3901	-0.121
Mof_C 	C 	0.2272	0.8922	0.413	0.363
Mof_C 	C 	0.3036	0.7587	0.4008	0.055
Mof_C 	C 	0.3218	0.4187	0.4242	0.093
Mof_C 	C 	0.273	0.38	0.4539	-0.157
Mof_C 	C 	0.3062	0.3188	0.4808	0.078
Mof_C 	C 	0.3879	0.3052	0.477	-0.158
Mof_C 	C 	0.4353	0.3514	0.4485	0.082
Mof_C 	C 	0.8616	0.6137	0.2736	0.102
Mof_C 	C 	0.8078	0.5709	0.3001	-0.164
Mof_C 	C 	0.806	0.5886	0.3449	0.083
Mof_C 	C 	0.8583	0.6493	0.3601	-0.162
Mof_C 	C 	0.9092	0.6872	0.33	0.102
Mof_C 	C 	0.8614	0.8605	0.2746	0.083
Mof_C 	C 	0.8324	0.928	0.2959	-0.16
Mof_C 	C 	0.883	0.9826	0.3135	0.094
Mof_C 	C 	0.9662	0.9719	0.3105	-0.158
Mof_C 	C 	0.9938	0.9029	0.2889	0.096
Mof_C 	C 	0.1364	0.7817	0.1837	0.122
Mof_C 	C 	0.1752	0.8385	0.1495	-0.025
Mof_C 	C 	0.6326	0.6156	0.1413	0.331
Mof_C 	C 	0.6844	0.6866	0.1297	-0.122
Mof_C 	C 	0.6622	0.7442	0.0977	0.056
Mof_C 	C 	0.7112	0.8098	0.087	-0.12
Mof_C 	C 	0.6874	0.8686	0.0509	0.33
Mof_C 	C 	0.7858	0.8173	0.1082	0.058
Mof_C 	C 	0.8101	0.7628	0.1401	-0.121
Mof_C 	C 	0.8922	0.7728	0.163	0.363
Mof_C 	C 	0.7587	0.6964	0.1508	0.055
Mof_C 	C 	0.4187	0.6782	0.1742	0.093
Mof_C 	C 	0.38	0.727	0.2039	-0.157
Mof_C 	C 	0.3188	0.6938	0.2308	0.078
Mof_C 	C 	0.3052	0.6121	0.227	-0.158
Mof_C 	C 	0.3514	0.5647	0.1985	0.082
Mof_C 	C 	0.6137	0.1384	0.0236	0.102
Mof_C 	C 	0.5709	0.1922	0.0501	-0.164
Mof_C 	C 	0.5886	0.194	0.0949	0.083
Mof_C 	C 	0.6493	0.1417	0.1101	-0.162
Mof_C 	C 	0.6872	0.0908	0.08	0.102
Mof_C 	C 	0.8605	0.1386	0.0246	0.083
Mof_C 	C 	0.928	0.1676	0.0459	-0.16
Mof_C 	C 	0.9826	0.117	0.0635	0.094
Mof_C 	C 	0.9719	0.0338	0.0605	-0.157
Mof_C 	C 	0.9029	0.0062	0.0389	0.096
Mof_C 	C 	0.7817	0.8636	0.9337	0.122
Mof_C 	C 	0.8385	0.8248	0.8995	-0.025
Mof_C 	C 	0.3674	0.3844	0.6413	0.331
Mof_C 	C 	0.3156	0.3134	0.6297	-0.122
Mof_C 	C 	0.3378	0.2558	0.5977	0.056
Mof_C 	C 	0.2888	0.1902	0.587	-0.12
Mof_C 	C 	0.3126	0.1314	0.5509	0.33
Mof_C 	C 	0.2142	0.1827	0.6082	0.058
Mof_C 	C 	0.1899	0.2372	0.6401	-0.121
Mof_C 	C 	0.1078	0.2272	0.663	0.363
Mof_C 	C 	0.2413	0.3036	0.6508	0.055
Mof_C 	C 	0.5813	0.3218	0.6742	0.093
Mof_C 	C 	0.62	0.273	0.7039	-0.157
Mof_C 	C 	0.6812	0.3062	0.7308	0.078
Mof_C 	C 	0.6948	0.3879	0.727	-0.158
Mof_C 	C 	0.6486	0.4353	0.6985	0.082
Mof_C 	C 	0.3863	0.8616	0.5236	0.102
Mof_C 	C 	0.4291	0.8078	0.5501	-0.164
Mof_C 	C 	0.4114	0.806	0.5949	0.083
Mof_C 	C 	0.3507	0.8583	0.6101	-0.162
Mof_C 	C 	0.3128	0.9092	0.58	0.102
Mof_C 	C 	0.1395	0.8614	0.5246	0.084
Mof_C 	C 	0.072	0.8324	0.5459	-0.16
Mof_C 	C 	0.0174	0.883	0.5635	0.095
Mof_C 	C 	0.0281	0.9662	0.5605	-0.158
Mof_C 	C 	0.0971	0.9938	0.5389	0.096
Mof_C 	C 	0.2183	0.1364	0.4337	0.122
Mof_C 	C 	0.1615	0.1752	0.3995	-0.025
Mof_C 	C 	0.3844	0.3674	0.1087	0.331
Mof_C 	C 	0.3134	0.3156	0.1203	-0.122
Mof_C 	C 	0.2558	0.3378	0.1523	0.056
Mof_C 	C 	0.1902	0.2888	0.163	-0.12
Mof_C 	C 	0.1314	0.3126	0.1991	0.33
Mof_C 	C 	0.1827	0.2142	0.1418	0.058
Mof_C 	C 	0.2372	0.1899	0.1099	-0.121
Mof_C 	C 	0.2272	0.1078	0.087	0.363
Mof_C 	C 	0.3036	0.2413	0.0992	0.055
Mof_C 	C 	0.3218	0.5813	0.0758	0.093
Mof_C 	C 	0.273	0.62	0.0461	-0.157
Mof_C 	C 	0.3062	0.6812	0.0192	0.078
Mof_C 	C 	0.3879	0.6948	0.023	-0.158
Mof_C 	C 	0.4353	0.6486	0.0515	0.082
Mof_C 	C 	0.8616	0.3863	0.2264	0.102
Mof_C 	C 	0.8078	0.4291	0.1999	-0.164
Mof_C 	C 	0.806	0.4114	0.1551	0.083
Mof_C 	C 	0.8583	0.3507	0.1399	-0.162
Mof_C 	C 	0.9092	0.3128	0.17	0.102
Mof_C 	C 	0.8614	0.1395	0.2254	0.084
Mof_C 	C 	0.8324	0.072	0.2041	-0.161
Mof_C 	C 	0.883	0.0174	0.1865	0.095
Mof_C 	C 	0.9662	0.0281	0.1895	-0.157
Mof_C 	C 	0.9938	0.0971	0.2111	0.096
Mof_C 	C 	0.1364	0.2183	0.3163	0.122
Mof_C 	C 	0.1752	0.1615	0.3505	-0.025
Mof_C 	C 	0.6156	0.6326	0.6087	0.331
Mof_C 	C 	0.6866	0.6844	0.6203	-0.122
Mof_C 	C 	0.7442	0.6622	0.6523	0.056
Mof_C 	C 	0.8098	0.7112	0.663	-0.12
Mof_C 	C 	0.8686	0.6874	0.6991	0.33
Mof_C 	C 	0.8173	0.7858	0.6418	0.058
Mof_C 	C 	0.7628	0.8101	0.6099	-0.121
Mof_C 	C 	0.7728	0.8922	0.587	0.363
Mof_C 	C 	0.6964	0.7587	0.5992	0.055
Mof_C 	C 	0.6782	0.4187	0.5758	0.093
Mof_C 	C 	0.727	0.38	0.5461	-0.157
Mof_C 	C 	0.6938	0.3188	0.5192	0.078
Mof_C 	C 	0.6121	0.3052	0.523	-0.158
Mof_C 	C 	0.5647	0.3514	0.5515	0.082
Mof_C 	C 	0.1384	0.6137	0.7264	0.102
Mof_C 	C 	0.1922	0.5709	0.6999	-0.164
Mof_C 	C 	0.194	0.5886	0.6551	0.083
Mof_C 	C 	0.1417	0.6493	0.6399	-0.162
Mof_C 	C 	0.0908	0.6872	0.67	0.102
Mof_C 	C 	0.1386	0.8605	0.7254	0.083
Mof_C 	C 	0.1676	0.928	0.7041	-0.16
Mof_C 	C 	0.117	0.9826	0.6865	0.094
Mof_C 	C 	0.0338	0.9719	0.6895	-0.158
Mof_C 	C 	0.0062	0.9029	0.7111	0.096
Mof_C 	C 	0.8636	0.7817	0.8163	0.122
Mof_C 	C 	0.8248	0.8385	0.8505	-0.025
Mof_C 	C 	0.3674	0.6156	0.8587	0.331
Mof_C 	C 	0.3156	0.6866	0.8703	-0.122
Mof_C 	C 	0.3378	0.7442	0.9023	0.056
Mof_C 	C 	0.2888	0.8098	0.913	-0.12
Mof_C 	C 	0.3126	0.8686	0.9491	0.33
Mof_C 	C 	0.2142	0.8173	0.8918	0.058
Mof_C 	C 	0.1899	0.7628	0.8599	-0.121
Mof_C 	C 	0.1078	0.7728	0.837	0.363
Mof_C 	C 	0.2413	0.6964	0.8492	0.055
Mof_C 	C 	0.5813	0.6782	0.8258	0.093
Mof_C 	C 	0.62	0.727	0.7961	-0.157
Mof_C 	C 	0.6812	0.6938	0.7692	0.078
Mof_C 	C 	0.6948	0.6121	0.773	-0.158
Mof_C 	C 	0.6486	0.5647	0.8015	0.082
Mof_C 	C 	0.3863	0.1384	0.9764	0.102
Mof_C 	C 	0.4291	0.1922	0.9499	-0.164
Mof_C 	C 	0.4114	0.194	0.9051	0.083
Mof_C 	C 	0.3507	0.1417	0.8899	-0.162
Mof_C 	C 	0.3128	0.0908	0.92	0.102
Mof_C 	C 	0.1395	0.1386	0.9754	0.083
Mof_C 	C 	0.072	0.1676	0.9541	-0.16
Mof_C 	C 	0.0174	0.117	0.9365	0.094
Mof_C 	C 	0.0281	0.0338	0.9395	-0.157
Mof_C 	C 	0.0971	0.0062	0.9611	0.096
Mof_C 	C 	0.2183	0.8636	0.0663	0.122
Mof_C 	C 	0.1615	0.8248	0.1005	-0.025
Mof_C 	C 	0.6326	0.3844	0.3587	0.331
Mof_C 	C 	0.6844	0.3134	0.3703	-0.122
Mof_C 	C 	0.6622	0.2558	0.4023	0.056
Mof_C 	C 	0.7112	0.1902	0.413	-0.12
Mof_C 	C 	0.6874	0.1314	0.4491	0.33
Mof_C 	C 	0.7858	0.1827	0.3918	0.058
Mof_C 	C 	0.8101	0.2372	0.3599	-0.121
Mof_C 	C 	0.8922	0.2272	0.337	0.363
Mof_C 	C 	0.7587	0.3036	0.3492	0.055
Mof_C 	C 	0.4187	0.3218	0.3258	0.093
Mof_C 	C 	0.38	0.273	0.2961	-0.157
Mof_C 	C 	0.3188	0.3062	0.2692	0.078
Mof_C 	C 	0.3052	0.3879	0.273	-0.158
Mof_C 	C 	0.3514	0.4353	0.3015	0.082
Mof_C 	C 	0.6137	0.8616	0.4764	0.102
Mof_C 	C 	0.5709	0.8078	0.4499	-0.164
Mof_C 	C 	0.5886	0.806	0.4051	0.083
Mof_C 	C 	0.6493	0.8583	0.3899	-0.162
Mof_C 	C 	0.6872	0.9092	0.42	0.102
Mof_C 	C 	0.8605	0.8614	0.4754	0.084
Mof_C 	C 	0.928	0.8324	0.4541	-0.16
Mof_C 	C 	0.9826	0.883	0.4365	0.095
Mof_C 	C 	0.9719	0.9662	0.4395	-0.158
Mof_C 	C 	0.9029	0.9938	0.4611	0.096
Mof_C 	C 	0.7817	0.1364	0.5663	0.122
Mof_C 	C 	0.8385	0.1752	0.6005	-0.025
Mof_N 	N 	0.5968	0.5891	0.9227	-0.237
Mof_N 	N 	0.0873	0.3293	0.7873	-0.242
Mof_N 	N 	0.0554	0.1541	0.7704	-0.222
Mof_N 	N 	0.4032	0.4109	0.4227	-0.237
Mof_N 	N 	0.9127	0.6707	0.2873	-0.242
Mof_N 	N 	0.9446	0.8459	0.2704	-0.222
Mof_N 	N 	0.4109	0.5968	0.1727	-0.237
Mof_N 	N 	0.6707	0.0873	0.0373	-0.242
Mof_N 	N 	0.8459	0.0554	0.0204	-0.222
Mof_N 	N 	0.5891	0.4032	0.6727	-0.237
Mof_N 	N 	0.3293	0.9127	0.5373	-0.242
Mof_N 	N 	0.1541	0.9446	0.5204	-0.222
Mof_N 	N 	0.4032	0.5891	0.0773	-0.237
Mof_N 	N 	0.9127	0.3293	0.2127	-0.242
Mof_N 	N 	0.9446	0.1541	0.2296	-0.222
Mof_N 	N 	0.5968	0.4109	0.5773	-0.237
Mof_N 	N 	0.0873	0.6707	0.7127	-0.242
Mof_N 	N 	0.0554	0.8459	0.7296	-0.222
Mof_N 	N 	0.5891	0.5968	0.8273	-0.237
Mof_N 	N 	0.3293	0.0873	0.9627	-0.242
Mof_N 	N 	0.1541	0.0554	0.9796	-0.222
Mof_N 	N 	0.4109	0.4032	0.3273	-0.237
Mof_N 	N 	0.6707	0.9127	0.4627	-0.242
Mof_N 	N 	0.8459	0.9446	0.4796	-0.222
Mof_O 	O 	0.6128	0.4375	0.8719	-0.425
Mof_O 	O 	0.5625	0.3408	0.9182	-0.293
Mof_O 	O 	0.8623	0.3848	0.7838	-0.278
Mof_O 	O 	0.9208	0.2604	0.7886	-0.413
Mof_O 	O 	0.7312	0.0994	0.948	-0.435
Mof_O 	O 	0.824	0.0595	0.8986	-0.318
Mof_O 	O 	0.9378	0.1889	0.7013	-0.524
Mof_O 	O 	0.3872	0.5625	0.3719	-0.425
Mof_O 	O 	0.4375	0.6592	0.4182	-0.293
Mof_O 	O 	0.1377	0.6152	0.2838	-0.278
Mof_O 	O 	0.0792	0.7396	0.2886	-0.413
Mof_O 	O 	0.2688	0.9006	0.448	-0.435
Mof_O 	O 	0.176	0.9405	0.3986	-0.318
Mof_O 	O 	0.0622	0.8111	0.2013	-0.524
Mof_O 	O 	0.5625	0.6128	0.1219	-0.425
Mof_O 	O 	0.6592	0.5625	0.1682	-0.293
Mof_O 	O 	0.6152	0.8623	0.0338	-0.278
Mof_O 	O 	0.7396	0.9208	0.0386	-0.414
Mof_O 	O 	0.9006	0.7312	0.198	-0.435
Mof_O 	O 	0.9405	0.824	0.1486	-0.318
Mof_O 	O 	0.8111	0.9378	0.9513	-0.524
Mof_O 	O 	0.4375	0.3872	0.6219	-0.425
Mof_O 	O 	0.3408	0.4375	0.6682	-0.293
Mof_O 	O 	0.3848	0.1377	0.5338	-0.278
Mof_O 	O 	0.2604	0.0792	0.5386	-0.413
Mof_O 	O 	0.0994	0.2688	0.698	-0.435
Mof_O 	O 	0.0595	0.176	0.6486	-0.318
Mof_O 	O 	0.1889	0.0622	0.4513	-0.524
Mof_O 	O 	0.3872	0.4375	0.1281	-0.425
Mof_O 	O 	0.4375	0.3408	0.0818	-0.293
Mof_O 	O 	0.1377	0.3848	0.2162	-0.278
Mof_O 	O 	0.0792	0.2604	0.2114	-0.413
Mof_O 	O 	0.2688	0.0994	0.052	-0.435
Mof_O 	O 	0.176	0.0595	0.1014	-0.318
Mof_O 	O 	0.0622	0.1889	0.2987	-0.524
Mof_O 	O 	0.6128	0.5625	0.6281	-0.425
Mof_O 	O 	0.5625	0.6592	0.5818	-0.293
Mof_O 	O 	0.8623	0.6152	0.7162	-0.278
Mof_O 	O 	0.9208	0.7396	0.7114	-0.413
Mof_O 	O 	0.7312	0.9006	0.552	-0.435
Mof_O 	O 	0.824	0.9405	0.6014	-0.318
Mof_O 	O 	0.9378	0.8111	0.7987	-0.524
Mof_O 	O 	0.4375	0.6128	0.8781	-0.425
Mof_O 	O 	0.3408	0.5625	0.8318	-0.293
Mof_O 	O 	0.3848	0.8623	0.9662	-0.278
Mof_O 	O 	0.2604	0.9208	0.9614	-0.414
Mof_O 	O 	0.0994	0.7312	0.802	-0.435
Mof_O 	O 	0.0595	0.824	0.8514	-0.318
Mof_O 	O 	0.1889	0.9378	0.0487	-0.524
Mof_O 	O 	0.5625	0.3872	0.3781	-0.425
Mof_O 	O 	0.6592	0.4375	0.3318	-0.293
Mof_O 	O 	0.6152	0.1377	0.4662	-0.278
Mof_O 	O 	0.7396	0.0792	0.4614	-0.413
Mof_O 	O 	0.9006	0.2688	0.302	-0.435
Mof_O 	O 	0.9405	0.176	0.3514	-0.318
Mof_O 	O 	0.8111	0.0622	0.5487	-0.524
_end
