# CIF file generated by openbabel 3.1.0, see https://openbabel.org
data_I
_chemical_name_common 'image0'
_cell_length_a 9.3392
_cell_length_b 9.3392
_cell_length_c 6.9942
_cell_angle_alpha 90
_cell_angle_beta 90
_cell_angle_gamma 120
_space_group_name_H-M_alt 'P 1'
_space_group_name_Hall 'P 1'
loop_
    _symmetry_equiv_pos_as_xyz
    x,y,z
loop_
    _atom_site_label
    _atom_site_type_symbol
    _atom_site_fract_x
    _atom_site_fract_y
    _atom_site_fract_z
    _atom_site_occupancy
    O1       O        0.85150    0.27840    0.12600    1.000
    O2       O        0.96730    0.53317    0.33640    1.000
    Al1      Al       0.64088    0.16199    0.22298    1.000
    O3       O        0.57110    0.30130    0.12680    1.000
    H1       H        0.53670    0.35100    0.20930    1.000
    O4       O        0.72160    0.57310    0.45933    1.000
    O5       O        0.46683    0.43413    0.66973    1.000
    Al2      Al       0.83801    0.47889    0.55631    1.000
    O6       O        0.69870    0.26980    0.46013    1.000
    H2       H        0.64900    0.18570    0.54263    1.000
    O7       O        0.42690    0.14850    0.79267    1.000
    O8       O        0.56587    0.03270    0.00307    1.000
    Al3      Al       0.52111    0.35912    0.88965    1.000
    O9       O        0.73020    0.42890    0.79347    1.000
    H3       H        0.81430    0.46330    0.87597    1.000
    O10      O        0.27840    0.85150    0.87400    1.000
    O11      O        0.53317    0.96730    0.66360    1.000
    Al4      Al       0.16199    0.64088    0.77702    1.000
    O12      O        0.30130    0.57110    0.87320    1.000
    H4       H        0.35100    0.53670    0.79070    1.000
    O13      O        0.57310    0.72160    0.54067    1.000
    O14      O        0.43413    0.46683    0.33027    1.000
    Al5      Al       0.47889    0.83801    0.44369    1.000
    O15      O        0.26980    0.69870    0.53987    1.000
    H5       H        0.18570    0.64900    0.45737    1.000
    O16      O        0.14850    0.42690    0.20733    1.000
    O17      O        0.03270    0.56587    0.99693    1.000
    Al6      Al       0.35912    0.52111    0.11035    1.000
    O18      O        0.42890    0.73020    0.20653    1.000
    H6       H        0.46330    0.81430    0.12403    1.000
    P1       P        0.00000    0.44942    0.16667    1.000
    P2       P        0.55058    0.55058    0.50000    1.000
    P3       P        0.44942    0.00000    0.83333    1.000
    F1       F        0.68220    0.00000    0.33333    1.000
    F2       F        0.43160    0.00000    0.33333    1.000
    F3       F        0.00000    0.68220    0.66667    1.000
    F4       F        0.00000    0.43160    0.66667    1.000
    F5       F        0.31780    0.31780    0.00000    1.000
    F6       F        0.56840    0.56840    0.00000    1.000
