# CIF file generated by openbabel 3.1.0, see https://openbabel.org
data_I
_chemical_name_common 'image0'
_cell_length_a 16.319
_cell_length_b 18.374
_cell_length_c 22.075
_cell_angle_alpha 90
_cell_angle_beta 106.13
_cell_angle_gamma 90
_space_group_name_H-M_alt 'P 1'
_space_group_name_Hall 'P 1'
loop_
    _symmetry_equiv_pos_as_xyz
    x,y,z
loop_
    _atom_site_label
    _atom_site_type_symbol
    _atom_site_fract_x
    _atom_site_fract_y
    _atom_site_fract_z
    _atom_site_occupancy
    Na1      Na       0.23040    0.21790    0.07200    1.000
    O1       O        0.33360    0.29690    0.04560    1.000
    La1      La       0.24050    0.07580    0.20950    1.000
    S1       S        0.89990    0.21140    0.90840    1.000
    O2       O        0.83960    0.16080    0.86870    1.000
    O3       O        0.98430    0.20640    0.90100    1.000
    O4       O        0.91500    0.15440    0.17440    1.000
    O5       O        0.14110    0.15470    0.11620    1.000
    O6       O        0.08660    0.13220    0.19360    1.000
    C1       C        0.90660    0.18980    0.98750    1.000
    C2       C        0.83390    0.18660    0.00660    1.000
    C3       C        0.83650    0.17350    0.06800    1.000
    C4       C        0.91560    0.16390    0.11440    1.000
    C5       C        0.98950    0.16590    0.09470    1.000
    C6       C        0.98340    0.18020    0.03050    1.000
    C7       C        0.07590    0.15110    0.13670    1.000
    S2       S        0.68680    0.96800    0.94040    1.000
    O7       O        0.67230    0.05330    0.91800    1.000
    O8       O        0.61570    0.95270    0.95890    1.000
    O9       O        0.71310    0.93770    0.89170    1.000
    O10      O        0.98020    0.99440    0.16580    1.000
    O11      O        0.72940    0.00880    0.18060    1.000
    O12      O        0.86320    0.02200    0.22970    1.000
    C8       C        0.77450    0.97390    0.00730    1.000
    C9       C        0.85830    0.96750    0.00370    1.000
    C10      C        0.92400    0.97440    0.05610    1.000
    C11      C        0.91170    0.98770    0.11660    1.000
    C12      C        0.82780    0.99150    0.11980    1.000
    C13      C        0.76020    0.98430    0.06550    1.000
    C14      C        0.80540    0.00710    0.17930    1.000
    O13      O        0.31690    0.19480    0.18380    1.000
    Na2      Na       0.73040    0.71790    0.07200    1.000
    O14      O        0.83360    0.79690    0.04560    1.000
    La2      La       0.74050    0.57580    0.20950    1.000
    S3       S        0.39990    0.71140    0.90840    1.000
    O15      O        0.33960    0.66080    0.86870    1.000
    O16      O        0.48430    0.70640    0.90100    1.000
    O17      O        0.41500    0.65440    0.17440    1.000
    O18      O        0.64110    0.65470    0.11620    1.000
    O19      O        0.58660    0.63220    0.19360    1.000
    C15      C        0.40660    0.68980    0.98750    1.000
    C16      C        0.33390    0.68660    0.00660    1.000
    C17      C        0.33650    0.67350    0.06800    1.000
    C18      C        0.41560    0.66390    0.11440    1.000
    C19      C        0.48950    0.66590    0.09470    1.000
    C20      C        0.48340    0.68020    0.03050    1.000
    C21      C        0.57590    0.65110    0.13670    1.000
    S4       S        0.18680    0.46800    0.94040    1.000
    O20      O        0.17230    0.55330    0.91800    1.000
    O21      O        0.11570    0.45270    0.95890    1.000
    O22      O        0.21310    0.43770    0.89170    1.000
    O23      O        0.48020    0.49440    0.16580    1.000
    O24      O        0.22940    0.50880    0.18060    1.000
    O25      O        0.36320    0.52200    0.22970    1.000
    C22      C        0.27450    0.47390    0.00730    1.000
    C23      C        0.35830    0.46750    0.00370    1.000
    C24      C        0.42400    0.47440    0.05610    1.000
    C25      C        0.41170    0.48770    0.11660    1.000
    C26      C        0.32780    0.49150    0.11980    1.000
    C27      C        0.26020    0.48430    0.06550    1.000
    C28      C        0.30540    0.50710    0.17930    1.000
    O26      O        0.81690    0.69480    0.18380    1.000
    Na3      Na       0.76960    0.21790    0.42800    1.000
    O27      O        0.66640    0.29690    0.45440    1.000
    La3      La       0.75950    0.07580    0.29050    1.000
    S5       S        0.10010    0.21140    0.59160    1.000
    O28      O        0.16040    0.16080    0.63130    1.000
    O29      O        0.01570    0.20640    0.59900    1.000
    O30      O        0.08500    0.15440    0.32560    1.000
    O31      O        0.85890    0.15470    0.38380    1.000
    O32      O        0.91340    0.13220    0.30640    1.000
    C29      C        0.09340    0.18980    0.51250    1.000
    C30      C        0.16610    0.18660    0.49340    1.000
    C31      C        0.16350    0.17350    0.43200    1.000
    C32      C        0.08440    0.16390    0.38560    1.000
    C33      C        0.01050    0.16590    0.40530    1.000
    C34      C        0.01660    0.18020    0.46950    1.000
    C35      C        0.92410    0.15110    0.36330    1.000
    S6       S        0.31320    0.96800    0.55960    1.000
    O33      O        0.32770    0.05330    0.58200    1.000
    O34      O        0.38430    0.95270    0.54110    1.000
    O35      O        0.28690    0.93770    0.60830    1.000
    O36      O        0.01980    0.99440    0.33420    1.000
    O37      O        0.27060    0.00880    0.31940    1.000
    O38      O        0.13680    0.02200    0.27030    1.000
    C36      C        0.22550    0.97390    0.49270    1.000
    C37      C        0.14170    0.96750    0.49630    1.000
    C38      C        0.07600    0.97440    0.44390    1.000
    C39      C        0.08830    0.98770    0.38340    1.000
    C40      C        0.17220    0.99150    0.38020    1.000
    C41      C        0.23980    0.98430    0.43450    1.000
    C42      C        0.19460    0.00710    0.32070    1.000
    O39      O        0.68310    0.19480    0.31620    1.000
    Na4      Na       0.26960    0.71790    0.42800    1.000
    O40      O        0.16640    0.79690    0.45440    1.000
    La4      La       0.25950    0.57580    0.29050    1.000
    S7       S        0.60010    0.71140    0.59160    1.000
    O41      O        0.66040    0.66080    0.63130    1.000
    O42      O        0.51570    0.70640    0.59900    1.000
    O43      O        0.58500    0.65440    0.32560    1.000
    O44      O        0.35890    0.65470    0.38380    1.000
    O45      O        0.41340    0.63220    0.30640    1.000
    C43      C        0.59340    0.68980    0.51250    1.000
    C44      C        0.66610    0.68660    0.49340    1.000
    C45      C        0.66350    0.67350    0.43200    1.000
    C46      C        0.58440    0.66390    0.38560    1.000
    C47      C        0.51050    0.66590    0.40530    1.000
    C48      C        0.51660    0.68020    0.46950    1.000
    C49      C        0.42410    0.65110    0.36330    1.000
    S8       S        0.81320    0.46800    0.55960    1.000
    O46      O        0.82770    0.55330    0.58200    1.000
    O47      O        0.88430    0.45270    0.54110    1.000
    O48      O        0.78690    0.43770    0.60830    1.000
    O49      O        0.51980    0.49440    0.33420    1.000
    O50      O        0.77060    0.50880    0.31940    1.000
    O51      O        0.63680    0.52200    0.27030    1.000
    C50      C        0.72550    0.47390    0.49270    1.000
    C51      C        0.64170    0.46750    0.49630    1.000
    C52      C        0.57600    0.47440    0.44390    1.000
    C53      C        0.58830    0.48770    0.38340    1.000
    C54      C        0.67220    0.49150    0.38020    1.000
    C55      C        0.73980    0.48430    0.43450    1.000
    C56      C        0.69460    0.50710    0.32070    1.000
    O52      O        0.18310    0.69480    0.31620    1.000
    Na5      Na       0.76960    0.78210    0.92800    1.000
    O53      O        0.66640    0.70310    0.95440    1.000
    La5      La       0.75950    0.92420    0.79050    1.000
    S9       S        0.10010    0.78860    0.09160    1.000
    O54      O        0.16040    0.83920    0.13130    1.000
    O55      O        0.01570    0.79360    0.09900    1.000
    O56      O        0.08500    0.84560    0.82560    1.000
    O57      O        0.85890    0.84530    0.88380    1.000
    O58      O        0.91340    0.86780    0.80640    1.000
    C57      C        0.09340    0.81020    0.01250    1.000
    C58      C        0.16610    0.81340    0.99340    1.000
    C59      C        0.16350    0.82650    0.93200    1.000
    C60      C        0.08440    0.83610    0.88560    1.000
    C61      C        0.01050    0.83410    0.90530    1.000
    C62      C        0.01660    0.81980    0.96950    1.000
    C63      C        0.92410    0.84890    0.86330    1.000
    S10      S        0.31320    0.03200    0.05960    1.000
    O59      O        0.32770    0.94670    0.08200    1.000
    O60      O        0.38430    0.04730    0.04110    1.000
    O61      O        0.28690    0.06230    0.10830    1.000
    O62      O        0.01980    0.00560    0.83420    1.000
    O63      O        0.27060    0.99120    0.81940    1.000
    O64      O        0.13680    0.97800    0.77030    1.000
    C64      C        0.22550    0.02610    0.99270    1.000
    C65      C        0.14170    0.03250    0.99630    1.000
    C66      C        0.07600    0.02560    0.94390    1.000
    C67      C        0.08830    0.01230    0.88340    1.000
    C68      C        0.17220    0.00850    0.88020    1.000
    C69      C        0.23980    0.01570    0.93450    1.000
    C70      C        0.19460    0.99290    0.82070    1.000
    O65      O        0.68310    0.80520    0.81620    1.000
    Na6      Na       0.26960    0.28210    0.92800    1.000
    O66      O        0.16640    0.20310    0.95440    1.000
    La6      La       0.25950    0.42420    0.79050    1.000
    S11      S        0.60010    0.28860    0.09160    1.000
    O67      O        0.66040    0.33920    0.13130    1.000
    O68      O        0.51570    0.29360    0.09900    1.000
    O69      O        0.58500    0.34560    0.82560    1.000
    O70      O        0.35890    0.34530    0.88380    1.000
    O71      O        0.41340    0.36780    0.80640    1.000
    C71      C        0.59340    0.31020    0.01250    1.000
    C72      C        0.66610    0.31340    0.99340    1.000
    C73      C        0.66350    0.32650    0.93200    1.000
    C74      C        0.58440    0.33610    0.88560    1.000
    C75      C        0.51050    0.33410    0.90530    1.000
    C76      C        0.51660    0.31980    0.96950    1.000
    C77      C        0.42410    0.34890    0.86330    1.000
    S12      S        0.81320    0.53200    0.05960    1.000
    O72      O        0.82770    0.44670    0.08200    1.000
    O73      O        0.88430    0.54730    0.04110    1.000
    O74      O        0.78690    0.56230    0.10830    1.000
    O75      O        0.51980    0.50560    0.83420    1.000
    O76      O        0.77060    0.49120    0.81940    1.000
    O77      O        0.63680    0.47800    0.77030    1.000
    C78      C        0.72550    0.52610    0.99270    1.000
    C79      C        0.64170    0.53250    0.99630    1.000
    C80      C        0.57600    0.52560    0.94390    1.000
    C81      C        0.58830    0.51230    0.88340    1.000
    C82      C        0.67220    0.50850    0.88020    1.000
    C83      C        0.73980    0.51570    0.93450    1.000
    C84      C        0.69460    0.49290    0.82070    1.000
    O78      O        0.18310    0.30520    0.81620    1.000
    Na7      Na       0.23040    0.78210    0.57200    1.000
    O79      O        0.33360    0.70310    0.54560    1.000
    La7      La       0.24050    0.92420    0.70950    1.000
    S13      S        0.89990    0.78860    0.40840    1.000
    O80      O        0.83960    0.83920    0.36870    1.000
    O81      O        0.98430    0.79360    0.40100    1.000
    O82      O        0.91500    0.84560    0.67440    1.000
    O83      O        0.14110    0.84530    0.61620    1.000
    O84      O        0.08660    0.86780    0.69360    1.000
    C85      C        0.90660    0.81020    0.48750    1.000
    C86      C        0.83390    0.81340    0.50660    1.000
    C87      C        0.83650    0.82650    0.56800    1.000
    C88      C        0.91560    0.83610    0.61440    1.000
    C89      C        0.98950    0.83410    0.59470    1.000
    C90      C        0.98340    0.81980    0.53050    1.000
    C91      C        0.07590    0.84890    0.63670    1.000
    S14      S        0.68680    0.03200    0.44040    1.000
    O85      O        0.67230    0.94670    0.41800    1.000
    O86      O        0.61570    0.04730    0.45890    1.000
    O87      O        0.71310    0.06230    0.39170    1.000
    O88      O        0.98020    0.00560    0.66580    1.000
    O89      O        0.72940    0.99120    0.68060    1.000
    O90      O        0.86320    0.97800    0.72970    1.000
    C92      C        0.77450    0.02610    0.50730    1.000
    C93      C        0.85830    0.03250    0.50370    1.000
    C94      C        0.92400    0.02560    0.55610    1.000
    C95      C        0.91170    0.01230    0.61660    1.000
    C96      C        0.82780    0.00850    0.61980    1.000
    C97      C        0.76020    0.01570    0.56550    1.000
    C98      C        0.80540    0.99290    0.67930    1.000
    O91      O        0.31690    0.80520    0.68380    1.000
    Na8      Na       0.73040    0.28210    0.57200    1.000
    O92      O        0.83360    0.20310    0.54560    1.000
    La8      La       0.74050    0.42420    0.70950    1.000
    S15      S        0.39990    0.28860    0.40840    1.000
    O93      O        0.33960    0.33920    0.36870    1.000
    O94      O        0.48430    0.29360    0.40100    1.000
    O95      O        0.41500    0.34560    0.67440    1.000
    O96      O        0.64110    0.34530    0.61620    1.000
    O97      O        0.58660    0.36780    0.69360    1.000
    C99      C        0.40660    0.31020    0.48750    1.000
    C100     C        0.33390    0.31340    0.50660    1.000
    C101     C        0.33650    0.32650    0.56800    1.000
    C102     C        0.41560    0.33610    0.61440    1.000
    C103     C        0.48950    0.33410    0.59470    1.000
    C104     C        0.48340    0.31980    0.53050    1.000
    C105     C        0.57590    0.34890    0.63670    1.000
    S16      S        0.18680    0.53200    0.44040    1.000
    O98      O        0.17230    0.44670    0.41800    1.000
    O99      O        0.11570    0.54730    0.45890    1.000
    O100     O        0.21310    0.56230    0.39170    1.000
    O101     O        0.48020    0.50560    0.66580    1.000
    O102     O        0.22940    0.49120    0.68060    1.000
    O103     O        0.36320    0.47800    0.72970    1.000
    C106     C        0.27450    0.52610    0.50730    1.000
    C107     C        0.35830    0.53250    0.50370    1.000
    C108     C        0.42400    0.52560    0.55610    1.000
    C109     C        0.41170    0.51230    0.61660    1.000
    C110     C        0.32780    0.50850    0.61980    1.000
    C111     C        0.26020    0.51570    0.56550    1.000
    C112     C        0.30540    0.49290    0.67930    1.000
    O104     O        0.81690    0.30520    0.68380    1.000
    Na9      Na       0.50000    0.00000    0.00000    1.000
    Na10     Na       0.00000    0.50000    0.00000    1.000
    Na11     Na       0.50000    0.00000    0.50000    1.000
    Na12     Na       0.00000    0.50000    0.50000    1.000
    Tb1      Tb       0.00000    0.07690    0.25000    1.000
    Tb2      Tb       0.50000    0.57690    0.25000    1.000
    Tb3      Tb       0.00000    0.92310    0.75000    1.000
    Tb4      Tb       0.50000    0.42310    0.75000    1.000
