# CIF file generated by openbabel 3.1.0, see https://openbabel.org
data_I
_chemical_name_common 'image0'
_cell_length_a 16.0517
_cell_length_b 16.0517
_cell_length_c 42.8082
_cell_angle_alpha 90
_cell_angle_beta 90
_cell_angle_gamma 120
_space_group_name_H-M_alt 'P 1'
_space_group_name_Hall 'P 1'
loop_
    _symmetry_equiv_pos_as_xyz
    x,y,z
loop_
    _atom_site_label
    _atom_site_type_symbol
    _atom_site_fract_x
    _atom_site_fract_y
    _atom_site_fract_z
    _atom_site_occupancy
    Mo1      Mo       0.55098    0.68363    0.03602    1.000
    O1       O        0.40160    0.54680    0.05006    1.000
    O2       O        0.58020    0.61720    0.07721    1.000
    O3       O        0.49150    0.72270    0.06753    1.000
    O4       O        0.58820    0.59310    0.02009    1.000
    P1       P        0.38020    0.44340    0.05502    1.000
    Mo2      Mo       0.60774    0.50958    0.04626    1.000
    O5       O        0.44620    0.42210    0.03731    1.000
    O6       O        0.27440    0.37130    0.04480    1.000
    O7       O        0.61850    0.43470    0.01937    1.000
    C1       C        0.22490    0.39790    0.02330    1.000
    C2       C        0.11600    0.31750    0.02460    1.000
    H1       H        0.25080    0.40280    0.00190    1.000
    H2       H        0.23240    0.46100    0.02910    1.000
    O8       O        0.10190    0.22590    0.01515    1.000
    C3       C        0.07820    0.30640    0.05700    1.000
    H3       H        0.07810    0.33580    0.01040    1.000
    C4       C        0.05930    0.15630    0.03940    1.000
    O9       O        0.97770    0.28340    0.05610    1.000
    C5       C        0.08030    0.22130    0.06880    1.000
    H4       H        0.11880    0.36480    0.06990    1.000
    N1       N        0.10300    0.09680    0.03857    1.000
    H5       H        0.98830    0.11620    0.03600    1.000
    H6       H        0.96230    0.32360    0.04410    1.000
    O10      O        0.01030    0.16930    0.09272    1.000
    H7       H        0.14610    0.24130    0.07690    1.000
    C6       C        0.19800    0.12730    0.03720    1.000
    C7       C        0.05410    0.00030    0.04190    1.000
    H8       H        0.02470    0.14420    0.11070    1.000
    N2       N        0.21310    0.05750    0.03700    1.000
    H9       H        0.24710    0.19290    0.03660    1.000
    N3       N        0.95690    0.94160    0.04522    1.000
    C8       C        0.12460    0.97370    0.04060    1.000
    H10      H        0.26930    0.06100    0.03490    1.000
    C9       C        0.93390    0.85120    0.04880    1.000
    C10      C        0.10570    0.87680    0.04280    1.000
    N4       N        0.00360    0.81480    0.04880    1.000
    N5       N        0.83980    0.78370    0.05320    1.000
    O11      O        0.15960    0.84370    0.04200    1.000
    H11      H        0.98170    0.75340    0.05260    1.000
    H12      H        0.79570    0.80100    0.05360    1.000
    H13      H        0.82310    0.72290    0.05560    1.000
    O12      O        0.18510    0.74980    0.99540    1.000
    Na1      Na       0.32590    0.72180    0.99840    1.000
    Na2      Na       0.06400    0.68500    0.01480    1.000
    Na3      Na       0.97600    0.45570    0.04090    1.000
    Mo3      Mo       0.31637    0.86735    0.70269    1.000
    O13      O        0.45320    0.85480    0.71673    1.000
    O14      O        0.38280    0.96300    0.74388    1.000
    O15      O        0.27730    0.76880    0.73420    1.000
    O16      O        0.40690    0.99510    0.68676    1.000
    P2       P        0.55660    0.93680    0.72169    1.000
    Mo4      Mo       0.49042    0.09816    0.71293    1.000
    O17      O        0.57790    0.02410    0.70398    1.000
    O18      O        0.62870    0.90310    0.71147    1.000
    O19      O        0.56530    0.18380    0.68604    1.000
    C11      C        0.60210    0.82700    0.68997    1.000
    C12      C        0.68250    0.79850    0.69127    1.000
    H14      H        0.59720    0.84800    0.66857    1.000
    H15      H        0.53900    0.77140    0.69577    1.000
    O20      O        0.77410    0.87600    0.68182    1.000
    C13      C        0.69360    0.77180    0.72367    1.000
    H16      H        0.66420    0.74230    0.67707    1.000
    C14      C        0.84370    0.90300    0.70607    1.000
    O21      O        0.71660    0.69430    0.72277    1.000
    C15      C        0.77870    0.85900    0.73547    1.000
    H17      H        0.63520    0.75400    0.73657    1.000
    N6       N        0.90320    0.00620    0.70524    1.000
    H18      H        0.88380    0.87210    0.70267    1.000
    H19      H        0.67640    0.63870    0.71077    1.000
    O22      O        0.83070    0.84100    0.75939    1.000
    H20      H        0.75870    0.90480    0.74357    1.000
    C16      C        0.87270    0.07070    0.70387    1.000
    C17      C        0.99970    0.05380    0.70857    1.000
    H21      H        0.85580    0.88050    0.77737    1.000
    N7       N        0.94250    0.15560    0.70367    1.000
    H22      H        0.80710    0.05420    0.70327    1.000
    N8       N        0.05840    0.01530    0.71189    1.000
    C18      C        0.02630    0.15090    0.70727    1.000
    H23      H        0.93900    0.20830    0.70157    1.000
    C19      C        0.14880    0.08270    0.71547    1.000
    C20      C        0.12320    0.22890    0.70947    1.000
    N9       N        0.18520    0.18880    0.71547    1.000
    N10      N        0.21630    0.05610    0.71987    1.000
    O23      O        0.15630    0.31590    0.70867    1.000
    H24      H        0.24660    0.22830    0.71927    1.000
    H25      H        0.19900    0.99470    0.72027    1.000
    H26      H        0.27710    0.10020    0.72227    1.000
    O24      O        0.25020    0.43530    0.66207    1.000
    Na4      Na       0.27820    0.60410    0.66507    1.000
    Na5      Na       0.31500    0.37900    0.68147    1.000
    Na6      Na       0.54430    0.52030    0.70757    1.000
    Mo5      Mo       0.13265    0.44902    0.36935    1.000
    O25      O        0.14520    0.59840    0.38339    1.000
    O26      O        0.03700    0.41980    0.41054    1.000
    O27      O        0.23120    0.50850    0.40086    1.000
    O28      O        0.00490    0.41180    0.35342    1.000
    P3       P        0.06320    0.61980    0.38835    1.000
    Mo6      Mo       0.90184    0.39226    0.37959    1.000
    O29      O        0.97590    0.55380    0.37064    1.000
    O30      O        0.09690    0.72560    0.37813    1.000
    O31      O        0.81620    0.38150    0.35270    1.000
    C21      C        0.17300    0.77510    0.35663    1.000
    C22      C        0.20150    0.88400    0.35793    1.000
    H27      H        0.15200    0.74920    0.33523    1.000
    H28      H        0.22860    0.76760    0.36243    1.000
    O32      O        0.12400    0.89810    0.34848    1.000
    C23      C        0.22820    0.92180    0.39033    1.000
    H29      H        0.25770    0.92190    0.34373    1.000
    C24      C        0.09700    0.94070    0.37273    1.000
    O33      O        0.30570    0.02230    0.38943    1.000
    C25      C        0.14100    0.91970    0.40213    1.000
    H30      H        0.24600    0.88120    0.40323    1.000
    N11      N        0.99380    0.89700    0.37190    1.000
    H31      H        0.12790    0.01170    0.36933    1.000
    H32      H        0.36130    0.03770    0.37743    1.000
    O34      O        0.15900    0.98970    0.42605    1.000
    H33      H        0.09520    0.85390    0.41023    1.000
    C26      C        0.92930    0.80200    0.37053    1.000
    C27      C        0.94620    0.94590    0.37523    1.000
    H34      H        0.11950    0.97530    0.44403    1.000
    N12      N        0.84440    0.78690    0.37033    1.000
    H35      H        0.94580    0.75290    0.36993    1.000
    N13      N        0.98470    0.04310    0.37855    1.000
    C28      C        0.84910    0.87540    0.37393    1.000
    H36      H        0.79170    0.73070    0.36823    1.000
    C29      C        0.91730    0.06610    0.38213    1.000
    C30      C        0.77110    0.89430    0.37613    1.000
    N14      N        0.81120    0.99640    0.38213    1.000
    N15      N        0.94390    0.16020    0.38653    1.000
    O35      O        0.68410    0.84040    0.37533    1.000
    H37      H        0.77170    0.01830    0.38593    1.000
    H38      H        0.00530    0.20430    0.38693    1.000
    H39      H        0.89980    0.17690    0.38893    1.000
    O36      O        0.56470    0.81490    0.32873    1.000
    Na7      Na       0.39590    0.67410    0.33173    1.000
    Na8      Na       0.62100    0.93600    0.34813    1.000
    Na9      Na       0.47970    0.02400    0.37423    1.000
    Mo7      Mo       0.44902    0.31637    0.53602    1.000
    O37      O        0.59840    0.45320    0.55006    1.000
    O38      O        0.41980    0.38280    0.57721    1.000
    O39      O        0.50850    0.27730    0.56753    1.000
    O40      O        0.41180    0.40690    0.52009    1.000
    P4       P        0.61980    0.55660    0.55502    1.000
    Mo8      Mo       0.39226    0.49042    0.54626    1.000
    O41      O        0.55380    0.57790    0.53731    1.000
    O42      O        0.72560    0.62870    0.54480    1.000
    O43      O        0.38150    0.56530    0.51937    1.000
    C31      C        0.77510    0.60210    0.52330    1.000
    C32      C        0.88400    0.68250    0.52460    1.000
    H40      H        0.74920    0.59720    0.50190    1.000
    H41      H        0.76760    0.53900    0.52910    1.000
    O44      O        0.89810    0.77410    0.51515    1.000
    C33      C        0.92180    0.69360    0.55700    1.000
    H42      H        0.92190    0.66420    0.51040    1.000
    C34      C        0.94070    0.84370    0.53940    1.000
    O45      O        0.02230    0.71660    0.55610    1.000
    C35      C        0.91970    0.77870    0.56880    1.000
    H43      H        0.88120    0.63520    0.56990    1.000
    N16      N        0.89700    0.90320    0.53857    1.000
    H44      H        0.01170    0.88380    0.53600    1.000
    H45      H        0.03770    0.67640    0.54410    1.000
    O46      O        0.98970    0.83070    0.59272    1.000
    H46      H        0.85390    0.75870    0.57690    1.000
    C36      C        0.80200    0.87270    0.53720    1.000
    C37      C        0.94590    0.99970    0.54190    1.000
    H47      H        0.97530    0.85580    0.61070    1.000
    N17      N        0.78690    0.94250    0.53700    1.000
    H48      H        0.75290    0.80710    0.53660    1.000
    N18      N        0.04310    0.05840    0.54522    1.000
    C38      C        0.87540    0.02630    0.54060    1.000
    H49      H        0.73070    0.93900    0.53490    1.000
    C39      C        0.06610    0.14880    0.54880    1.000
    C40      C        0.89430    0.12320    0.54280    1.000
    N19      N        0.99640    0.18520    0.54880    1.000
    N20      N        0.16020    0.21630    0.55320    1.000
    O47      O        0.84040    0.15630    0.54200    1.000
    H50      H        0.01830    0.24660    0.55260    1.000
    H51      H        0.20430    0.19900    0.55360    1.000
    H52      H        0.17690    0.27710    0.55560    1.000
    O48      O        0.81490    0.25020    0.49540    1.000
    Na10     Na       0.67410    0.27820    0.49840    1.000
    Na11     Na       0.93600    0.31500    0.51480    1.000
    Na12     Na       0.02400    0.54430    0.54090    1.000
    Mo9      Mo       0.68363    0.13265    0.20269    1.000
    O49      O        0.54680    0.14520    0.21673    1.000
    O50      O        0.61720    0.03700    0.24388    1.000
    O51      O        0.72270    0.23120    0.23420    1.000
    O52      O        0.59310    0.00490    0.18676    1.000
    P5       P        0.44340    0.06320    0.22169    1.000
    Mo10     Mo       0.50958    0.90184    0.21293    1.000
    O53      O        0.42210    0.97590    0.20398    1.000
    O54      O        0.37130    0.09690    0.21147    1.000
    O55      O        0.43470    0.81620    0.18604    1.000
    C41      C        0.39790    0.17300    0.18997    1.000
    C42      C        0.31750    0.20150    0.19127    1.000
    H53      H        0.40280    0.15200    0.16857    1.000
    H54      H        0.46100    0.22860    0.19577    1.000
    O56      O        0.22590    0.12400    0.18182    1.000
    C43      C        0.30640    0.22820    0.22367    1.000
    H55      H        0.33580    0.25770    0.17707    1.000
    C44      C        0.15630    0.09700    0.20607    1.000
    O57      O        0.28340    0.30570    0.22277    1.000
    C45      C        0.22130    0.14100    0.23547    1.000
    H56      H        0.36480    0.24600    0.23657    1.000
    N21      N        0.09680    0.99380    0.20524    1.000
    H57      H        0.11620    0.12790    0.20267    1.000
    H58      H        0.32360    0.36130    0.21077    1.000
    O58      O        0.16930    0.15900    0.25939    1.000
    H59      H        0.24130    0.09520    0.24357    1.000
    C46      C        0.12730    0.92930    0.20387    1.000
    C47      C        0.00030    0.94620    0.20857    1.000
    H60      H        0.14420    0.11950    0.27737    1.000
    N22      N        0.05750    0.84440    0.20367    1.000
    H61      H        0.19290    0.94580    0.20327    1.000
    N23      N        0.94160    0.98470    0.21189    1.000
    C48      C        0.97370    0.84910    0.20727    1.000
    H62      H        0.06100    0.79170    0.20157    1.000
    C49      C        0.85120    0.91730    0.21547    1.000
    C50      C        0.87680    0.77110    0.20947    1.000
    N24      N        0.81480    0.81120    0.21547    1.000
    N25      N        0.78370    0.94390    0.21987    1.000
    O59      O        0.84370    0.68410    0.20867    1.000
    H63      H        0.75340    0.77170    0.21927    1.000
    H64      H        0.80100    0.00530    0.22027    1.000
    H65      H        0.72290    0.89980    0.22227    1.000
    O60      O        0.74980    0.56470    0.16207    1.000
    Na13     Na       0.72180    0.39590    0.16507    1.000
    Na14     Na       0.68500    0.62100    0.18147    1.000
    Na15     Na       0.45570    0.47970    0.20757    1.000
    Mo11     Mo       0.86735    0.55098    0.86935    1.000
    O61      O        0.85480    0.40160    0.88339    1.000
    O62      O        0.96300    0.58020    0.91054    1.000
    O63      O        0.76880    0.49150    0.90086    1.000
    O64      O        0.99510    0.58820    0.85342    1.000
    P6       P        0.93680    0.38020    0.88835    1.000
    Mo12     Mo       0.09816    0.60774    0.87959    1.000
    O65      O        0.02410    0.44620    0.87064    1.000
    O66      O        0.90310    0.27440    0.87813    1.000
    O67      O        0.18380    0.61850    0.85270    1.000
    C51      C        0.82700    0.22490    0.85663    1.000
    C52      C        0.79850    0.11600    0.85793    1.000
    H66      H        0.84800    0.25080    0.83523    1.000
    H67      H        0.77140    0.23240    0.86243    1.000
    O68      O        0.87600    0.10190    0.84848    1.000
    C53      C        0.77180    0.07820    0.89033    1.000
    H68      H        0.74230    0.07810    0.84373    1.000
    C54      C        0.90300    0.05930    0.87273    1.000
    O69      O        0.69430    0.97770    0.88943    1.000
    C55      C        0.85900    0.08030    0.90213    1.000
    H69      H        0.75400    0.11880    0.90323    1.000
    N26      N        0.00620    0.10300    0.87190    1.000
    H70      H        0.87210    0.98830    0.86933    1.000
    H71      H        0.63870    0.96230    0.87743    1.000
    O70      O        0.84100    0.01030    0.92605    1.000
    H72      H        0.90480    0.14610    0.91023    1.000
    C56      C        0.07070    0.19800    0.87053    1.000
    C57      C        0.05380    0.05410    0.87523    1.000
    H73      H        0.88050    0.02470    0.94403    1.000
    N27      N        0.15560    0.21310    0.87033    1.000
    H74      H        0.05420    0.24710    0.86993    1.000
    N28      N        0.01530    0.95690    0.87855    1.000
    C58      C        0.15090    0.12460    0.87393    1.000
    H75      H        0.20830    0.26930    0.86823    1.000
    C59      C        0.08270    0.93390    0.88213    1.000
    C60      C        0.22890    0.10570    0.87613    1.000
    N29      N        0.18880    0.00360    0.88213    1.000
    N30      N        0.05610    0.83980    0.88653    1.000
    O71      O        0.31590    0.15960    0.87533    1.000
    H76      H        0.22830    0.98170    0.88593    1.000
    H77      H        0.99470    0.79570    0.88693    1.000
    H78      H        0.10020    0.82310    0.88893    1.000
    O72      O        0.43530    0.18510    0.82873    1.000
    Na16     Na       0.60410    0.32590    0.83173    1.000
    Na17     Na       0.37900    0.06400    0.84813    1.000
    Na18     Na       0.52030    0.97600    0.87423    1.000
    Mo13     Mo       0.68363    0.55098    0.63065    1.000
    O73      O        0.54680    0.40160    0.61661    1.000
    O74      O        0.61720    0.58020    0.58946    1.000
    O75      O        0.72270    0.49150    0.59914    1.000
    O76      O        0.59310    0.58820    0.64658    1.000
    P7       P        0.44340    0.38020    0.61165    1.000
    Mo14     Mo       0.50958    0.60774    0.62041    1.000
    O77      O        0.42210    0.44620    0.62936    1.000
    O78      O        0.37130    0.27440    0.62187    1.000
    O79      O        0.43470    0.61850    0.64730    1.000
    C61      C        0.39790    0.22490    0.64337    1.000
    C62      C        0.31750    0.11600    0.64207    1.000
    H79      H        0.40280    0.25080    0.66477    1.000
    H80      H        0.46100    0.23240    0.63757    1.000
    O80      O        0.22590    0.10190    0.65152    1.000
    C63      C        0.30640    0.07820    0.60967    1.000
    H81      H        0.33580    0.07810    0.65627    1.000
    C64      C        0.15630    0.05930    0.62727    1.000
    O81      O        0.28340    0.97770    0.61057    1.000
    C65      C        0.22130    0.08030    0.59787    1.000
    H82      H        0.36480    0.11880    0.59677    1.000
    N31      N        0.09680    0.10300    0.62810    1.000
    H83      H        0.11620    0.98830    0.63067    1.000
    H84      H        0.32360    0.96230    0.62257    1.000
    O82      O        0.16930    0.01030    0.57395    1.000
    H85      H        0.24130    0.14610    0.58977    1.000
    C66      C        0.12730    0.19800    0.62947    1.000
    C67      C        0.00030    0.05410    0.62477    1.000
    H86      H        0.14420    0.02470    0.55597    1.000
    N32      N        0.05750    0.21310    0.62967    1.000
    H87      H        0.19290    0.24710    0.63007    1.000
    N33      N        0.94160    0.95690    0.62145    1.000
    C68      C        0.97370    0.12460    0.62607    1.000
    H88      H        0.06100    0.26930    0.63177    1.000
    C69      C        0.85120    0.93390    0.61787    1.000
    C70      C        0.87680    0.10570    0.62387    1.000
    N34      N        0.81480    0.00360    0.61787    1.000
    N35      N        0.78370    0.83980    0.61347    1.000
    O83      O        0.84370    0.15960    0.62467    1.000
    H89      H        0.75340    0.98170    0.61407    1.000
    H90      H        0.80100    0.79570    0.61307    1.000
    H91      H        0.72290    0.82310    0.61107    1.000
    O84      O        0.74980    0.18510    0.67127    1.000
    Na19     Na       0.72180    0.32590    0.66827    1.000
    Na20     Na       0.68500    0.06400    0.65187    1.000
    Na21     Na       0.45570    0.97600    0.62577    1.000
    Mo15     Mo       0.86735    0.31637    0.96398    1.000
    O85      O        0.85480    0.45320    0.94994    1.000
    O86      O        0.96300    0.38280    0.92279    1.000
    O87      O        0.76880    0.27730    0.93247    1.000
    O88      O        0.99510    0.40690    0.97991    1.000
    P8       P        0.93680    0.55660    0.94498    1.000
    Mo16     Mo       0.09816    0.49042    0.95374    1.000
    O89      O        0.02410    0.57790    0.96269    1.000
    O90      O        0.90310    0.62870    0.95520    1.000
    O91      O        0.18380    0.56530    0.98063    1.000
    C71      C        0.82700    0.60210    0.97670    1.000
    C72      C        0.79850    0.68250    0.97540    1.000
    H92      H        0.84800    0.59720    0.99810    1.000
    H93      H        0.77140    0.53900    0.97090    1.000
    O92      O        0.87600    0.77410    0.98485    1.000
    C73      C        0.77180    0.69360    0.94300    1.000
    H94      H        0.74230    0.66420    0.98960    1.000
    C74      C        0.90300    0.84370    0.96060    1.000
    O93      O        0.69430    0.71660    0.94390    1.000
    C75      C        0.85900    0.77870    0.93120    1.000
    H95      H        0.75400    0.63520    0.93010    1.000
    N36      N        0.00620    0.90320    0.96143    1.000
    H96      H        0.87210    0.88380    0.96400    1.000
    H97      H        0.63870    0.67640    0.95590    1.000
    O94      O        0.84100    0.83070    0.90728    1.000
    H98      H        0.90480    0.75870    0.92310    1.000
    C76      C        0.07070    0.87270    0.96280    1.000
    C77      C        0.05380    0.99970    0.95810    1.000
    H99      H        0.88050    0.85580    0.88930    1.000
    N37      N        0.15560    0.94250    0.96300    1.000
    H100     H        0.05420    0.80710    0.96340    1.000
    N38      N        0.01530    0.05840    0.95478    1.000
    C78      C        0.15090    0.02630    0.95940    1.000
    H101     H        0.20830    0.93900    0.96510    1.000
    C79      C        0.08270    0.14880    0.95120    1.000
    C80      C        0.22890    0.12320    0.95720    1.000
    N39      N        0.18880    0.18520    0.95120    1.000
    N40      N        0.05610    0.21630    0.94680    1.000
    O95      O        0.31590    0.15630    0.95800    1.000
    H102     H        0.22830    0.24660    0.94740    1.000
    H103     H        0.99470    0.19900    0.94640    1.000
    H104     H        0.10020    0.27710    0.94440    1.000
    O96      O        0.43530    0.25020    0.00460    1.000
    Na22     Na       0.60410    0.27820    0.00160    1.000
    Na23     Na       0.37900    0.31500    0.98520    1.000
    Na24     Na       0.52030    0.54430    0.95910    1.000
    Mo17     Mo       0.44902    0.13265    0.29731    1.000
    O97      O        0.59840    0.14520    0.28327    1.000
    O98      O        0.41980    0.03700    0.25612    1.000
    O99      O        0.50850    0.23120    0.26580    1.000
    O100     O        0.41180    0.00490    0.31324    1.000
    P9       P        0.61980    0.06320    0.27831    1.000
    Mo18     Mo       0.39226    0.90184    0.28707    1.000
    O101     O        0.55380    0.97590    0.29602    1.000
    O102     O        0.72560    0.09690    0.28853    1.000
    O103     O        0.38150    0.81620    0.31396    1.000
    C81      C        0.77510    0.17300    0.31003    1.000
    C82      C        0.88400    0.20150    0.30873    1.000
    H105     H        0.74920    0.15200    0.33143    1.000
    H106     H        0.76760    0.22860    0.30423    1.000
    O104     O        0.89810    0.12400    0.31818    1.000
    C83      C        0.92180    0.22820    0.27633    1.000
    H107     H        0.92190    0.25770    0.32293    1.000
    C84      C        0.94070    0.09700    0.29393    1.000
    O105     O        0.02230    0.30570    0.27723    1.000
    C85      C        0.91970    0.14100    0.26453    1.000
    H108     H        0.88120    0.24600    0.26343    1.000
    N41      N        0.89700    0.99380    0.29476    1.000
    H109     H        0.01170    0.12790    0.29733    1.000
    H110     H        0.03770    0.36130    0.28923    1.000
    O106     O        0.98970    0.15900    0.24061    1.000
    H111     H        0.85390    0.09520    0.25643    1.000
    C86      C        0.80200    0.92930    0.29613    1.000
    C87      C        0.94590    0.94620    0.29143    1.000
    H112     H        0.97530    0.11950    0.22263    1.000
    N42      N        0.78690    0.84440    0.29633    1.000
    H113     H        0.75290    0.94580    0.29673    1.000
    N43      N        0.04310    0.98470    0.28811    1.000
    C88      C        0.87540    0.84910    0.29273    1.000
    H114     H        0.73070    0.79170    0.29843    1.000
    C89      C        0.06610    0.91730    0.28453    1.000
    C90      C        0.89430    0.77110    0.29053    1.000
    N44      N        0.99640    0.81120    0.28453    1.000
    N45      N        0.16020    0.94390    0.28013    1.000
    O107     O        0.84040    0.68410    0.29133    1.000
    H115     H        0.01830    0.77170    0.28073    1.000
    H116     H        0.20430    0.00530    0.27973    1.000
    H117     H        0.17690    0.89980    0.27773    1.000
    O108     O        0.81490    0.56470    0.33793    1.000
    Na25     Na       0.67410    0.39590    0.33493    1.000
    Na26     Na       0.93600    0.62100    0.31853    1.000
    Na27     Na       0.02400    0.47970    0.29243    1.000
    Mo19     Mo       0.31637    0.44902    0.13065    1.000
    O109     O        0.45320    0.59840    0.11661    1.000
    O110     O        0.38280    0.41980    0.08946    1.000
    O111     O        0.27730    0.50850    0.09914    1.000
    O112     O        0.40690    0.41180    0.14658    1.000
    P10      P        0.55660    0.61980    0.11165    1.000
    Mo20     Mo       0.49042    0.39226    0.12041    1.000
    O113     O        0.57790    0.55380    0.12936    1.000
    O114     O        0.62870    0.72560    0.12187    1.000
    O115     O        0.56530    0.38150    0.14730    1.000
    C91      C        0.60210    0.77510    0.14337    1.000
    C92      C        0.68250    0.88400    0.14207    1.000
    H118     H        0.59720    0.74920    0.16477    1.000
    H119     H        0.53900    0.76760    0.13757    1.000
    O116     O        0.77410    0.89810    0.15152    1.000
    C93      C        0.69360    0.92180    0.10967    1.000
    H120     H        0.66420    0.92190    0.15627    1.000
    C94      C        0.84370    0.94070    0.12727    1.000
    O117     O        0.71660    0.02230    0.11057    1.000
    C95      C        0.77870    0.91970    0.09787    1.000
    H121     H        0.63520    0.88120    0.09677    1.000
    N46      N        0.90320    0.89700    0.12810    1.000
    H122     H        0.88380    0.01170    0.13067    1.000
    H123     H        0.67640    0.03770    0.12257    1.000
    O118     O        0.83070    0.98970    0.07395    1.000
    H124     H        0.75870    0.85390    0.08977    1.000
    C96      C        0.87270    0.80200    0.12947    1.000
    C97      C        0.99970    0.94590    0.12477    1.000
    H125     H        0.85580    0.97530    0.05597    1.000
    N47      N        0.94250    0.78690    0.12967    1.000
    H126     H        0.80710    0.75290    0.13007    1.000
    N48      N        0.05840    0.04310    0.12145    1.000
    C98      C        0.02630    0.87540    0.12607    1.000
    H127     H        0.93900    0.73070    0.13177    1.000
    C99      C        0.14880    0.06610    0.11787    1.000
    C100     C        0.12320    0.89430    0.12387    1.000
    N49      N        0.18520    0.99640    0.11787    1.000
    N50      N        0.21630    0.16020    0.11347    1.000
    O119     O        0.15630    0.84040    0.12467    1.000
    H128     H        0.24660    0.01830    0.11407    1.000
    H129     H        0.19900    0.20430    0.11307    1.000
    H130     H        0.27710    0.17690    0.11107    1.000
    O120     O        0.25020    0.81490    0.17127    1.000
    Na28     Na       0.27820    0.67410    0.16827    1.000
    Na29     Na       0.31500    0.93600    0.15187    1.000
    Na30     Na       0.54430    0.02400    0.12577    1.000
    Mo21     Mo       0.13265    0.68363    0.46398    1.000
    O121     O        0.14520    0.54680    0.44994    1.000
    O122     O        0.03700    0.61720    0.42279    1.000
    O123     O        0.23120    0.72270    0.43247    1.000
    O124     O        0.00490    0.59310    0.47991    1.000
    P11      P        0.06320    0.44340    0.44498    1.000
    Mo22     Mo       0.90184    0.50958    0.45374    1.000
    O125     O        0.97590    0.42210    0.46269    1.000
    O126     O        0.09690    0.37130    0.45520    1.000
    O127     O        0.81620    0.43470    0.48063    1.000
    C101     C        0.17300    0.39790    0.47670    1.000
    C102     C        0.20150    0.31750    0.47540    1.000
    H131     H        0.15200    0.40280    0.49810    1.000
    H132     H        0.22860    0.46100    0.47090    1.000
    O128     O        0.12400    0.22590    0.48485    1.000
    C103     C        0.22820    0.30640    0.44300    1.000
    H133     H        0.25770    0.33580    0.48960    1.000
    C104     C        0.09700    0.15630    0.46060    1.000
    O129     O        0.30570    0.28340    0.44390    1.000
    C105     C        0.14100    0.22130    0.43120    1.000
    H134     H        0.24600    0.36480    0.43010    1.000
    N51      N        0.99380    0.09680    0.46143    1.000
    H135     H        0.12790    0.11620    0.46400    1.000
    H136     H        0.36130    0.32360    0.45590    1.000
    O130     O        0.15900    0.16930    0.40728    1.000
    H137     H        0.09520    0.24130    0.42310    1.000
    C106     C        0.92930    0.12730    0.46280    1.000
    C107     C        0.94620    0.00030    0.45810    1.000
    H138     H        0.11950    0.14420    0.38930    1.000
    N52      N        0.84440    0.05750    0.46300    1.000
    H139     H        0.94580    0.19290    0.46340    1.000
    N53      N        0.98470    0.94160    0.45478    1.000
    C108     C        0.84910    0.97370    0.45940    1.000
    H140     H        0.79170    0.06100    0.46510    1.000
    C109     C        0.91730    0.85120    0.45120    1.000
    C110     C        0.77110    0.87680    0.45720    1.000
    N54      N        0.81120    0.81480    0.45120    1.000
    N55      N        0.94390    0.78370    0.44680    1.000
    O131     O        0.68410    0.84370    0.45800    1.000
    H141     H        0.77170    0.75340    0.44740    1.000
    H142     H        0.00530    0.80100    0.44640    1.000
    H143     H        0.89980    0.72290    0.44440    1.000
    O132     O        0.56470    0.74980    0.50460    1.000
    Na31     Na       0.39590    0.72180    0.50160    1.000
    Na32     Na       0.62100    0.68500    0.48520    1.000
    Na33     Na       0.47970    0.45570    0.45910    1.000
    Mo23     Mo       0.55098    0.86735    0.79731    1.000
    O133     O        0.40160    0.85480    0.78327    1.000
    O134     O        0.58020    0.96300    0.75612    1.000
    O135     O        0.49150    0.76880    0.76580    1.000
    O136     O        0.58820    0.99510    0.81324    1.000
    P12      P        0.38020    0.93680    0.77831    1.000
    Mo24     Mo       0.60774    0.09816    0.78707    1.000
    O137     O        0.44620    0.02410    0.79602    1.000
    O138     O        0.27440    0.90310    0.78853    1.000
    O139     O        0.61850    0.18380    0.81396    1.000
    C111     C        0.22490    0.82700    0.81003    1.000
    C112     C        0.11600    0.79850    0.80873    1.000
    H144     H        0.25080    0.84800    0.83143    1.000
    H145     H        0.23240    0.77140    0.80423    1.000
    O140     O        0.10190    0.87600    0.81818    1.000
    C113     C        0.07820    0.77180    0.77633    1.000
    H146     H        0.07810    0.74230    0.82293    1.000
    C114     C        0.05930    0.90300    0.79393    1.000
    O141     O        0.97770    0.69430    0.77723    1.000
    C115     C        0.08030    0.85900    0.76453    1.000
    H147     H        0.11880    0.75400    0.76343    1.000
    N56      N        0.10300    0.00620    0.79476    1.000
    H148     H        0.98830    0.87210    0.79733    1.000
    H149     H        0.96230    0.63870    0.78923    1.000
    O142     O        0.01030    0.84100    0.74061    1.000
    H150     H        0.14610    0.90480    0.75643    1.000
    C116     C        0.19800    0.07070    0.79613    1.000
    C117     C        0.05410    0.05380    0.79143    1.000
    H151     H        0.02470    0.88050    0.72263    1.000
    N57      N        0.21310    0.15560    0.79633    1.000
    H152     H        0.24710    0.05420    0.79673    1.000
    N58      N        0.95690    0.01530    0.78811    1.000
    C118     C        0.12460    0.15090    0.79273    1.000
    H153     H        0.26930    0.20830    0.79843    1.000
    C119     C        0.93390    0.08270    0.78453    1.000
    C120     C        0.10570    0.22890    0.79053    1.000
    N59      N        0.00360    0.18880    0.78453    1.000
    N60      N        0.83980    0.05610    0.78013    1.000
    O143     O        0.15960    0.31590    0.79133    1.000
    H154     H        0.98170    0.22830    0.78073    1.000
    H155     H        0.79570    0.99470    0.77973    1.000
    H156     H        0.82310    0.10020    0.77773    1.000
    O144     O        0.18510    0.43530    0.83793    1.000
    Na34     Na       0.32590    0.60410    0.83493    1.000
    Na35     Na       0.06400    0.37900    0.81853    1.000
    Na36     Na       0.97600    0.52030    0.79243    1.000
    Mo25     Mo       0.36552    0.63448    0.08333    1.000
    O145     O        0.56800    0.43200    0.08333    1.000
    Mo26     Mo       0.36552    0.73104    0.75000    1.000
    O146     O        0.56800    0.13600    0.75000    1.000
    Mo27     Mo       0.26896    0.63448    0.41667    1.000
    O147     O        0.86400    0.43200    0.41667    1.000
    Mo28     Mo       0.63448    0.36552    0.58333    1.000
    O148     O        0.43200    0.56800    0.58333    1.000
    Mo29     Mo       0.63448    0.26896    0.25000    1.000
    O149     O        0.43200    0.86400    0.25000    1.000
    Mo30     Mo       0.73104    0.36552    0.91667    1.000
    O150     O        0.13600    0.56800    0.91667    1.000
    Na37     Na       0.84990    0.15010    0.08333    1.000
    Na38     Na       0.84990    0.69980    0.75000    1.000
    Na39     Na       0.30020    0.15010    0.41667    1.000
    Na40     Na       0.15010    0.84990    0.58333    1.000
    Na41     Na       0.15010    0.30020    0.25000    1.000
    Na42     Na       0.69980    0.84990    0.91667    1.000
