# CIF file generated by openbabel 3.1.0, see https://openbabel.org
data_I
_chemical_name_common 'image0'
_cell_length_a 20.695
_cell_length_b 9.9595
_cell_length_c 23.715
_cell_angle_alpha 90
_cell_angle_beta 101
_cell_angle_gamma 90
_space_group_name_H-M_alt 'P 1'
_space_group_name_Hall 'P 1'
loop_
    _symmetry_equiv_pos_as_xyz
    x,y,z
loop_
    _atom_site_label
    _atom_site_type_symbol
    _atom_site_fract_x
    _atom_site_fract_y
    _atom_site_fract_z
    _atom_site_occupancy
    V1       V        0.43990    0.57763    0.56418    1.000
    V2       V        0.27876    0.40827    0.72234    1.000
    V3       V        0.32622    0.90373    0.67284    1.000
    P1       P        0.44188    0.31474    0.49544    1.000
    P2       P        0.39394    0.87118    0.56065    1.000
    P3       P        0.28552    0.62312    0.82518    1.000
    P4       P        0.31030    0.61583    0.62369    1.000
    O1       O        0.40511    0.44540    0.50299    1.000
    O2       O        0.40745    0.25270    0.43585    1.000
    O3       O        0.43284    0.21470    0.54137    1.000
    O4       O        0.51436    0.34133    0.49547    1.000
    O5       O        0.34485    0.81310    0.50956    1.000
    O6       O        0.43638    0.76030    0.59200    1.000
    O7       O        0.43961    0.96640    0.53367    1.000
    O8       O        0.35963    0.95015    0.60139    1.000
    O9       O        0.27590    0.58231    0.76128    1.000
    O10      O        0.35518    0.58834    0.85614    1.000
    O11      O        0.23541    0.55040    0.85511    1.000
    O12      O        0.27420    0.77508    0.82874    1.000
    O13      O        0.26888    0.51281    0.64969    1.000
    O14      O        0.34869    0.70825    0.67040    1.000
    O15      O        0.26134    0.70290    0.58276    1.000
    O16      O        0.35719    0.53824    0.59298    1.000
    O17      O        0.24201    0.33338    0.78664    1.000
    O18      O        0.22280    0.93420    0.52463    1.000
    H1       H        0.18370    0.94660    0.51150    1.000
    V4       V        0.93990    0.07763    0.56418    1.000
    V5       V        0.77876    0.90827    0.72234    1.000
    V6       V        0.82622    0.40373    0.67284    1.000
    P5       P        0.94188    0.81474    0.49544    1.000
    P6       P        0.89394    0.37118    0.56065    1.000
    P7       P        0.78552    0.12312    0.82518    1.000
    P8       P        0.81030    0.11583    0.62369    1.000
    O19      O        0.90511    0.94540    0.50299    1.000
    O20      O        0.90745    0.75270    0.43585    1.000
    O21      O        0.93284    0.71470    0.54137    1.000
    O22      O        0.01436    0.84133    0.49547    1.000
    O23      O        0.84485    0.31310    0.50956    1.000
    O24      O        0.93638    0.26030    0.59200    1.000
    O25      O        0.93961    0.46640    0.53367    1.000
    O26      O        0.85963    0.45015    0.60139    1.000
    O27      O        0.77590    0.08231    0.76128    1.000
    O28      O        0.85518    0.08834    0.85614    1.000
    O29      O        0.73541    0.05040    0.85511    1.000
    O30      O        0.77420    0.27508    0.82874    1.000
    O31      O        0.76888    0.01281    0.64969    1.000
    O32      O        0.84869    0.20825    0.67040    1.000
    O33      O        0.76134    0.20290    0.58276    1.000
    O34      O        0.85719    0.03824    0.59298    1.000
    O35      O        0.74201    0.83338    0.78664    1.000
    O36      O        0.72280    0.43420    0.52463    1.000
    H2       H        0.68370    0.44660    0.51150    1.000
    V7       V        0.56010    0.57763    0.93582    1.000
    V8       V        0.72124    0.40827    0.77766    1.000
    V9       V        0.67378    0.90373    0.82716    1.000
    P9       P        0.55812    0.31474    0.00456    1.000
    P10      P        0.60606    0.87118    0.93935    1.000
    P11      P        0.71448    0.62312    0.67482    1.000
    P12      P        0.68970    0.61583    0.87631    1.000
    O37      O        0.59489    0.44540    0.99701    1.000
    O38      O        0.59255    0.25270    0.06415    1.000
    O39      O        0.56716    0.21470    0.95863    1.000
    O40      O        0.48564    0.34133    0.00453    1.000
    O41      O        0.65515    0.81310    0.99044    1.000
    O42      O        0.56362    0.76030    0.90800    1.000
    O43      O        0.56039    0.96640    0.96633    1.000
    O44      O        0.64037    0.95015    0.89861    1.000
    O45      O        0.72410    0.58231    0.73872    1.000
    O46      O        0.64482    0.58834    0.64386    1.000
    O47      O        0.76459    0.55040    0.64489    1.000
    O48      O        0.72580    0.77508    0.67126    1.000
    O49      O        0.73112    0.51281    0.85031    1.000
    O50      O        0.65131    0.70825    0.82960    1.000
    O51      O        0.73866    0.70290    0.91724    1.000
    O52      O        0.64281    0.53824    0.90702    1.000
    O53      O        0.75799    0.33338    0.71336    1.000
    O54      O        0.77720    0.93420    0.97537    1.000
    H3       H        0.81630    0.94660    0.98850    1.000
    V10      V        0.06010    0.07763    0.93582    1.000
    V11      V        0.22124    0.90827    0.77766    1.000
    V12      V        0.17378    0.40373    0.82716    1.000
    P13      P        0.05812    0.81474    0.00456    1.000
    P14      P        0.10606    0.37118    0.93935    1.000
    P15      P        0.21448    0.12312    0.67482    1.000
    P16      P        0.18970    0.11583    0.87631    1.000
    O55      O        0.09489    0.94540    0.99701    1.000
    O56      O        0.09255    0.75270    0.06415    1.000
    O57      O        0.06716    0.71470    0.95863    1.000
    O58      O        0.98564    0.84133    0.00453    1.000
    O59      O        0.15515    0.31310    0.99044    1.000
    O60      O        0.06362    0.26030    0.90800    1.000
    O61      O        0.06039    0.46640    0.96633    1.000
    O62      O        0.14037    0.45015    0.89861    1.000
    O63      O        0.22410    0.08231    0.73872    1.000
    O64      O        0.14482    0.08834    0.64386    1.000
    O65      O        0.26459    0.05040    0.64489    1.000
    O66      O        0.22580    0.27508    0.67126    1.000
    O67      O        0.23112    0.01281    0.85031    1.000
    O68      O        0.15131    0.20825    0.82960    1.000
    O69      O        0.23866    0.20290    0.91724    1.000
    O70      O        0.14281    0.03824    0.90702    1.000
    O71      O        0.25799    0.83338    0.71336    1.000
    O72      O        0.27720    0.43420    0.97537    1.000
    H4       H        0.31630    0.44660    0.98850    1.000
    V13      V        0.56010    0.42237    0.43582    1.000
    V14      V        0.72124    0.59173    0.27766    1.000
    V15      V        0.67378    0.09627    0.32716    1.000
    P17      P        0.55812    0.68526    0.50456    1.000
    P18      P        0.60606    0.12882    0.43935    1.000
    P19      P        0.71448    0.37688    0.17482    1.000
    P20      P        0.68970    0.38417    0.37631    1.000
    O73      O        0.59489    0.55460    0.49701    1.000
    O74      O        0.59255    0.74730    0.56415    1.000
    O75      O        0.56716    0.78530    0.45863    1.000
    O76      O        0.48564    0.65867    0.50453    1.000
    O77      O        0.65515    0.18690    0.49044    1.000
    O78      O        0.56362    0.23970    0.40800    1.000
    O79      O        0.56039    0.03360    0.46633    1.000
    O80      O        0.64037    0.04985    0.39861    1.000
    O81      O        0.72410    0.41769    0.23872    1.000
    O82      O        0.64482    0.41166    0.14386    1.000
    O83      O        0.76459    0.44960    0.14489    1.000
    O84      O        0.72580    0.22492    0.17126    1.000
    O85      O        0.73112    0.48719    0.35031    1.000
    O86      O        0.65131    0.29175    0.32960    1.000
    O87      O        0.73866    0.29710    0.41724    1.000
    O88      O        0.64281    0.46176    0.40702    1.000
    O89      O        0.75799    0.66662    0.21336    1.000
    O90      O        0.77720    0.06580    0.47537    1.000
    H5       H        0.81630    0.05340    0.48850    1.000
    V16      V        0.06010    0.92237    0.43582    1.000
    V17      V        0.22124    0.09173    0.27766    1.000
    V18      V        0.17378    0.59627    0.32716    1.000
    P21      P        0.05812    0.18526    0.50456    1.000
    P22      P        0.10606    0.62882    0.43935    1.000
    P23      P        0.21448    0.87688    0.17482    1.000
    P24      P        0.18970    0.88417    0.37631    1.000
    O91      O        0.09489    0.05460    0.49701    1.000
    O92      O        0.09255    0.24730    0.56415    1.000
    O93      O        0.06716    0.28530    0.45863    1.000
    O94      O        0.98564    0.15867    0.50453    1.000
    O95      O        0.15515    0.68690    0.49044    1.000
    O96      O        0.06362    0.73970    0.40800    1.000
    O97      O        0.06039    0.53360    0.46633    1.000
    O98      O        0.14037    0.54985    0.39861    1.000
    O99      O        0.22410    0.91769    0.23872    1.000
    O100     O        0.14482    0.91166    0.14386    1.000
    O101     O        0.26459    0.94960    0.14489    1.000
    O102     O        0.22580    0.72492    0.17126    1.000
    O103     O        0.23112    0.98719    0.35031    1.000
    O104     O        0.15131    0.79175    0.32960    1.000
    O105     O        0.23866    0.79710    0.41724    1.000
    O106     O        0.14281    0.96176    0.40702    1.000
    O107     O        0.25799    0.16662    0.21336    1.000
    O108     O        0.27720    0.56580    0.47537    1.000
    H6       H        0.31630    0.55340    0.48850    1.000
    V19      V        0.43990    0.42237    0.06418    1.000
    V20      V        0.27876    0.59173    0.22234    1.000
    V21      V        0.32622    0.09627    0.17284    1.000
    P25      P        0.44188    0.68526    0.99544    1.000
    P26      P        0.39394    0.12882    0.06065    1.000
    P27      P        0.28552    0.37688    0.32518    1.000
    P28      P        0.31030    0.38417    0.12369    1.000
    O109     O        0.40511    0.55460    0.00299    1.000
    O110     O        0.40745    0.74730    0.93585    1.000
    O111     O        0.43284    0.78530    0.04137    1.000
    O112     O        0.51436    0.65867    0.99547    1.000
    O113     O        0.34485    0.18690    0.00956    1.000
    O114     O        0.43638    0.23970    0.09200    1.000
    O115     O        0.43961    0.03360    0.03367    1.000
    O116     O        0.35963    0.04985    0.10139    1.000
    O117     O        0.27590    0.41769    0.26128    1.000
    O118     O        0.35518    0.41166    0.35614    1.000
    O119     O        0.23541    0.44960    0.35511    1.000
    O120     O        0.27420    0.22492    0.32874    1.000
    O121     O        0.26888    0.48719    0.14969    1.000
    O122     O        0.34869    0.29175    0.17040    1.000
    O123     O        0.26134    0.29710    0.08276    1.000
    O124     O        0.35719    0.46176    0.09298    1.000
    O125     O        0.24201    0.66662    0.28664    1.000
    O126     O        0.22280    0.06580    0.02463    1.000
    H7       H        0.18370    0.05340    0.01150    1.000
    V22      V        0.93990    0.92237    0.06418    1.000
    V23      V        0.77876    0.09173    0.22234    1.000
    V24      V        0.82622    0.59627    0.17284    1.000
    P29      P        0.94188    0.18526    0.99544    1.000
    P30      P        0.89394    0.62882    0.06065    1.000
    P31      P        0.78552    0.87688    0.32518    1.000
    P32      P        0.81030    0.88417    0.12369    1.000
    O127     O        0.90511    0.05460    0.00299    1.000
    O128     O        0.90745    0.24730    0.93585    1.000
    O129     O        0.93284    0.28530    0.04137    1.000
    O130     O        0.01436    0.15867    0.99547    1.000
    O131     O        0.84485    0.68690    0.00956    1.000
    O132     O        0.93638    0.73970    0.09200    1.000
    O133     O        0.93961    0.53360    0.03367    1.000
    O134     O        0.85963    0.54985    0.10139    1.000
    O135     O        0.77590    0.91769    0.26128    1.000
    O136     O        0.85518    0.91166    0.35614    1.000
    O137     O        0.73541    0.94960    0.35511    1.000
    O138     O        0.77420    0.72492    0.32874    1.000
    O139     O        0.76888    0.98719    0.14969    1.000
    O140     O        0.84869    0.79175    0.17040    1.000
    O141     O        0.76134    0.79710    0.08276    1.000
    O142     O        0.85719    0.96176    0.09298    1.000
    O143     O        0.74201    0.16662    0.28664    1.000
    O144     O        0.72280    0.56580    0.02463    1.000
    H8       H        0.68370    0.55340    0.01150    1.000
    V25      V        0.25000    0.75000    0.50000    1.000
    V26      V        0.75000    0.75000    0.00000    1.000
    V27      V        0.75000    0.25000    0.50000    1.000
    V28      V        0.25000    0.25000    0.00000    1.000
