data_functionalizedCrystal
_audit_creation_method	'EQeq! by Chris Wilmer'
_symmetry_space_group_name_H-M	'P1'
_symmetry_Int_Tables_number	1
_symmetry_cell_setting	triclinic
loop_
_symmetry_equiv_pos_as_xyz
  x,y,z
_cell_length_a	8.91
_cell_length_b	14.974
_cell_length_c	14.712
_cell_angle_alpha	90
_cell_angle_beta	90
_cell_angle_gamma	90
loop_
_atom_site_label
_atom_site_type_symbol
_atom_site_fract_x
_atom_site_fract_y
_atom_site_fract_z
_atom_site_charge
Mof_Al	Al	0.8432	0.3453	0.1169	3.335
Mof_P 	P 	0.8304	0.1347	0.1027	1.287
Mof_O 	O 	0.7651	0.226	0.1211	-1.18
Mof_O 	O 	0.9575	0.8531	0.3355	-1.178
Mof_O 	O 	0.728	0.0655	0.1362	-1.081
Mof_O 	O 	0.8572	0.1167	0.0057	-1.1
Mof_O 	O 	0.2996	0.9203	0.3262	-1.254
Mof_O 	O 	0.978	0.127	0.1495	-1.716
Mof_O 	O 	0.204	0.0414	0.2161	-1.059
Mof_Al	Al	0.1568	0.6547	0.6169	3.336
Mof_P 	P 	0.1696	0.8653	0.6027	1.289
Mof_O 	O 	0.2349	0.774	0.6211	-1.18
Mof_O 	O 	0.0425	0.1469	0.8355	-1.177
Mof_O 	O 	0.272	0.9345	0.6362	-1.081
Mof_O 	O 	0.1428	0.8833	0.5057	-1.102
Mof_O 	O 	0.7004	0.0797	0.8262	-1.253
Mof_O 	O 	0.022	0.873	0.6495	-1.716
Mof_O 	O 	0.796	0.9586	0.7161	-1.06
Mof_Al	Al	0.1568	0.8453	0.3831	3.338
Mof_P 	P 	0.1696	0.6347	0.3973	1.288
Mof_O 	O 	0.2349	0.726	0.3789	-1.18
Mof_O 	O 	0.0425	0.3531	0.1645	-1.177
Mof_O 	O 	0.272	0.5655	0.3638	-1.08
Mof_O 	O 	0.1428	0.6167	0.4943	-1.102
Mof_O 	O 	0.7004	0.4203	0.1738	-1.254
Mof_O 	O 	0.022	0.627	0.3505	-1.718
Mof_O 	O 	0.796	0.5414	0.2839	-1.061
Mof_Al	Al	0.8432	0.1547	0.8831	3.329
Mof_P 	P 	0.8304	0.3653	0.8973	1.288
Mof_O 	O 	0.7651	0.274	0.8789	-1.18
Mof_O 	O 	0.9575	0.6469	0.6645	-1.177
Mof_O 	O 	0.728	0.4345	0.8638	-1.081
Mof_O 	O 	0.8572	0.3833	0.9943	-1.104
Mof_O 	O 	0.2996	0.5797	0.6738	-1.254
Mof_O 	O 	0.978	0.373	0.8505	-1.718
Mof_O 	O 	0.204	0.4586	0.7839	-1.061
Mof_Al	Al	0.1568	0.6547	0.8831	3.336
Mof_P 	P 	0.1696	0.8653	0.8973	1.288
Mof_O 	O 	0.2349	0.774	0.8789	-1.18
Mof_O 	O 	0.0425	0.1469	0.6645	-1.178
Mof_O 	O 	0.272	0.9345	0.8638	-1.081
Mof_O 	O 	0.1428	0.8833	0.9943	-1.1
Mof_O 	O 	0.7004	0.0797	0.6738	-1.254
Mof_O 	O 	0.022	0.873	0.8505	-1.716
Mof_O 	O 	0.796	0.9586	0.7839	-1.059
Mof_Al	Al	0.8432	0.3453	0.3831	3.336
Mof_P 	P 	0.8304	0.1347	0.3973	1.289
Mof_O 	O 	0.7651	0.226	0.3789	-1.18
Mof_O 	O 	0.9575	0.8531	0.1645	-1.177
Mof_O 	O 	0.728	0.0655	0.3638	-1.081
Mof_O 	O 	0.8572	0.1167	0.4943	-1.102
Mof_O 	O 	0.2996	0.9203	0.1738	-1.253
Mof_O 	O 	0.978	0.127	0.3505	-1.716
Mof_O 	O 	0.204	0.0414	0.2839	-1.06
Mof_Al	Al	0.8432	0.1547	0.6169	3.338
Mof_P 	P 	0.8304	0.3653	0.6027	1.288
Mof_O 	O 	0.7651	0.274	0.6211	-1.18
Mof_O 	O 	0.9575	0.6469	0.8355	-1.177
Mof_O 	O 	0.728	0.4345	0.6362	-1.08
Mof_O 	O 	0.8572	0.3833	0.5057	-1.102
Mof_O 	O 	0.2996	0.5797	0.8262	-1.254
Mof_O 	O 	0.978	0.373	0.6495	-1.718
Mof_O 	O 	0.204	0.4586	0.7161	-1.061
Mof_Al	Al	0.1568	0.8453	0.1169	3.329
Mof_P 	P 	0.1696	0.6347	0.1027	1.288
Mof_O 	O 	0.2349	0.726	0.1211	-1.18
Mof_O 	O 	0.0425	0.3531	0.3355	-1.177
Mof_O 	O 	0.272	0.5655	0.1362	-1.081
Mof_O 	O 	0.1428	0.6167	0.0057	-1.104
Mof_O 	O 	0.7004	0.4203	0.3262	-1.254
Mof_O 	O 	0.022	0.627	0.1495	-1.718
Mof_O 	O 	0.796	0.5414	0.2161	-1.061
Mof_Al	Al	0.6723	0.0076	0.25	3.331
Mof_Al	Al	0.9138	0.6324	0.25	5.484
Mof_P 	P 	0.3162	0.9749	0.25	1.657
Mof_P 	P 	0.8705	0.8345	0.25	1.086
Mof_O 	O 	0.8133	0.7386	0.25	-1.492
Mof_O 	O 	0.7263	0.8881	0.25	-1.066
Mof_O 	O 	0.4616	0.027	0.25	-1.1
Mof_Al	Al	0.3277	0.9924	0.75	3.331
Mof_Al	Al	0.0862	0.3676	0.75	5.484
Mof_P 	P 	0.6838	0.0251	0.75	1.657
Mof_P 	P 	0.1295	0.1655	0.75	1.086
Mof_O 	O 	0.1867	0.2614	0.75	-1.492
Mof_O 	O 	0.2737	0.1119	0.75	-1.066
Mof_O 	O 	0.5384	0.973	0.75	-1.1
Mof_Al	Al	0.3277	0.5076	0.25	3.32
Mof_Al	Al	0.0862	0.1324	0.25	5.48
Mof_P 	P 	0.6838	0.4749	0.25	1.66
Mof_P 	P 	0.1295	0.3345	0.25	1.086
Mof_O 	O 	0.1867	0.2386	0.25	-1.491
Mof_O 	O 	0.2737	0.3881	0.25	-1.062
Mof_O 	O 	0.5384	0.527	0.25	-1.1
Mof_Al	Al	0.6723	0.4924	0.75	3.32
Mof_Al	Al	0.9138	0.8676	0.75	5.48
Mof_P 	P 	0.3162	0.5251	0.75	1.66
Mof_P 	P 	0.8705	0.6655	0.75	1.086
Mof_O 	O 	0.8133	0.7614	0.75	-1.491
Mof_O 	O 	0.7263	0.6119	0.75	-1.062
Mof_O 	O 	0.4616	0.473	0.75	-1.1
_end
