# CIF file generated by openbabel 3.1.0, see https://openbabel.org
data_I
_chemical_name_common 'image0'
_cell_length_a 7.5409
_cell_length_b 12.8501
_cell_length_c 18.865
_cell_angle_alpha 90
_cell_angle_beta 90
_cell_angle_gamma 90
_space_group_name_H-M_alt 'P 1'
_space_group_name_Hall 'P 1'
loop_
    _symmetry_equiv_pos_as_xyz
    x,y,z
loop_
    _atom_site_label
    _atom_site_type_symbol
    _atom_site_fract_x
    _atom_site_fract_y
    _atom_site_fract_z
    _atom_site_occupancy
    Mn1      Mn       0.23965    0.84457    0.38634    1.000
    N1       N        0.24830    0.59280    0.39493    1.000
    N2       N        0.95350    0.86600    0.26383    1.000
    N3       N        0.23280    0.67557    0.37237    1.000
    N4       N        0.52420    0.75074    0.48596    1.000
    N5       N        0.48480    0.82642    0.45464    1.000
    N6       N        0.99580    0.86998    0.32352    1.000
    N7       N        0.26380    0.50894    0.41798    1.000
    N8       N        0.56260    0.67515    0.51687    1.000
    N9       N        0.91190    0.86576    0.20511    1.000
    Mn2      Mn       0.26035    0.15543    0.88634    1.000
    N10      N        0.25170    0.40720    0.89493    1.000
    N11      N        0.54650    0.13400    0.76383    1.000
    N12      N        0.26720    0.32443    0.87237    1.000
    N13      N        0.97580    0.24926    0.98596    1.000
    N14      N        0.01520    0.17358    0.95464    1.000
    N15      N        0.50420    0.13002    0.82352    1.000
    N16      N        0.23620    0.49106    0.91798    1.000
    N17      N        0.93740    0.32485    0.01687    1.000
    N18      N        0.58810    0.13424    0.70511    1.000
    Mn3      Mn       0.76035    0.34457    0.11365    1.000
    N19      N        0.75170    0.09280    0.10507    1.000
    N20      N        0.04650    0.36600    0.23617    1.000
    N21      N        0.76720    0.17557    0.12763    1.000
    N22      N        0.47580    0.25074    0.01404    1.000
    N23      N        0.51520    0.32642    0.04536    1.000
    N24      N        0.00420    0.36998    0.17648    1.000
    N25      N        0.73620    0.00894    0.08202    1.000
    N26      N        0.43740    0.17515    0.98313    1.000
    N27      N        0.08810    0.36576    0.29489    1.000
    Mn4      Mn       0.73965    0.65543    0.61365    1.000
    N28      N        0.74830    0.90720    0.60507    1.000
    N29      N        0.45350    0.63400    0.73617    1.000
    N30      N        0.73280    0.82443    0.62763    1.000
    N31      N        0.02420    0.74926    0.51404    1.000
    N32      N        0.98480    0.67358    0.54536    1.000
    N33      N        0.49580    0.63002    0.67648    1.000
    N34      N        0.76380    0.99106    0.58202    1.000
    N35      N        0.06260    0.82485    0.48313    1.000
    N36      N        0.41190    0.63424    0.79489    1.000
    Mn5      Mn       0.76035    0.15543    0.61365    1.000
    N37      N        0.75170    0.40720    0.60507    1.000
    N38      N        0.04650    0.13400    0.73617    1.000
    N39      N        0.76720    0.32443    0.62763    1.000
    N40      N        0.47580    0.24926    0.51404    1.000
    N41      N        0.51520    0.17358    0.54536    1.000
    N42      N        0.00420    0.13002    0.67648    1.000
    N43      N        0.73620    0.49106    0.58202    1.000
    N44      N        0.43740    0.32485    0.48313    1.000
    N45      N        0.08810    0.13424    0.79489    1.000
    Mn6      Mn       0.73965    0.84457    0.11365    1.000
    N46      N        0.74830    0.59280    0.10507    1.000
    N47      N        0.45350    0.86600    0.23617    1.000
    N48      N        0.73280    0.67557    0.12763    1.000
    N49      N        0.02420    0.75074    0.01404    1.000
    N50      N        0.98480    0.82642    0.04536    1.000
    N51      N        0.49580    0.86998    0.17648    1.000
    N52      N        0.76380    0.50894    0.08202    1.000
    N53      N        0.06260    0.67515    0.98313    1.000
    N54      N        0.41190    0.86576    0.29489    1.000
    Mn7      Mn       0.23965    0.65543    0.88634    1.000
    N55      N        0.24830    0.90720    0.89493    1.000
    N56      N        0.95350    0.63400    0.76383    1.000
    N57      N        0.23280    0.82443    0.87237    1.000
    N58      N        0.52420    0.74926    0.98596    1.000
    N59      N        0.48480    0.67358    0.95464    1.000
    N60      N        0.99580    0.63002    0.82352    1.000
    N61      N        0.26380    0.99106    0.91798    1.000
    N62      N        0.56260    0.82485    0.01687    1.000
    N63      N        0.91190    0.63424    0.70511    1.000
    Mn8      Mn       0.26035    0.34457    0.38634    1.000
    N64      N        0.25170    0.09280    0.39493    1.000
    N65      N        0.54650    0.36600    0.26383    1.000
    N66      N        0.26720    0.17557    0.37237    1.000
    N67      N        0.97580    0.25074    0.48596    1.000
    N68      N        0.01520    0.32642    0.45464    1.000
    N69      N        0.50420    0.36998    0.32352    1.000
    N70      N        0.23620    0.00894    0.41798    1.000
    N71      N        0.93740    0.17515    0.51687    1.000
    N72      N        0.58810    0.36576    0.20511    1.000
