data_functionalizedCrystal
_audit_creation_method	'EQeq! by Chris Wilmer'
_symmetry_space_group_name_H-M	'P1'
_symmetry_Int_Tables_number	1
_symmetry_cell_setting	triclinic
loop_
_symmetry_equiv_pos_as_xyz
  x,y,z
_cell_length_a	17.219
_cell_length_b	23.0847
_cell_length_c	23.0847
_cell_angle_alpha	60.5405
_cell_angle_beta	68.1021
_cell_angle_gamma	68.1022
loop_
_atom_site_label
_atom_site_type_symbol
_atom_site_fract_x
_atom_site_fract_y
_atom_site_fract_z
_atom_site_charge
Mof_Zn	Zn	0.97175	0.47	0.97	1.195
Mof_Zn	Zn	0.41175	0.03	0.53	1.196
Mof_Zn	Zn	0.02825	0.53	0.03	1.196
Mof_Zn	Zn	0.58825	0.97	0.47	1.197
Mof_H 	H 	0.2448	0.5773	0.6677	0.118
Mof_H 	H 	0.2307	0.6096	0.8526	-0.016
Mof_H 	H 	0.1483	0.5334	0.7696	-0.013
Mof_H 	H 	0.3334	0.6431	0.7547	0.123
Mof_H 	H 	0.3828	0.6745	0.5113	0.09
Mof_H 	H 	0.4537	0.6123	0.4443	0.025
Mof_H 	H 	0.4898	0.9227	0.8323	0.119
Mof_H 	H 	0.6929	0.8904	0.6474	-0.017
Mof_H 	H 	0.4513	0.9666	0.7304	-0.013
Mof_H 	H 	0.7312	0.8569	0.7453	0.123
Mof_H 	H 	0.5686	0.8255	0.9887	0.089
Mof_H 	H 	0.5103	0.8877	0.0557	0.026
Mof_H 	H 	0.7552	0.8323	0.9227	0.118
Mof_H 	H 	0.7693	0.6474	0.8904	-0.017
Mof_H 	H 	0.8517	0.7304	0.9666	-0.014
Mof_H 	H 	0.6666	0.7453	0.8569	0.123
Mof_H 	H 	0.6172	0.9887	0.8255	0.088
Mof_H 	H 	0.5463	0.0557	0.8877	0.027
Mof_H 	H 	0.5102	0.6677	0.5773	0.118
Mof_H 	H 	0.3071	0.8526	0.6096	-0.017
Mof_H 	H 	0.5487	0.7696	0.5334	-0.014
Mof_H 	H 	0.2688	0.7547	0.6431	0.123
Mof_H 	H 	0.4314	0.5113	0.6745	0.09
Mof_H 	H 	0.4897	0.4443	0.6123	0.025
Mof_H 	H 	0.7552	0.4227	0.3323	0.118
Mof_H 	H 	0.7693	0.3904	0.1474	-0.016
Mof_H 	H 	0.8517	0.4666	0.2304	-0.013
Mof_H 	H 	0.6666	0.3569	0.2453	0.123
Mof_H 	H 	0.6172	0.3255	0.4887	0.09
Mof_H 	H 	0.5463	0.3877	0.5557	0.025
Mof_H 	H 	0.5102	0.0773	0.1677	0.119
Mof_H 	H 	0.3071	0.1096	0.3526	-0.017
Mof_H 	H 	0.5487	0.0334	0.2696	-0.013
Mof_H 	H 	0.2688	0.1431	0.2547	0.123
Mof_H 	H 	0.4314	0.1745	0.0113	0.089
Mof_H 	H 	0.4897	0.1123	0.9443	0.026
Mof_H 	H 	0.2448	0.1677	0.0773	0.118
Mof_H 	H 	0.2307	0.3526	0.1096	-0.017
Mof_H 	H 	0.1483	0.2696	0.0334	-0.014
Mof_H 	H 	0.3334	0.2547	0.1431	0.123
Mof_H 	H 	0.3828	0.0113	0.1745	0.088
Mof_H 	H 	0.4537	0.9443	0.1123	0.027
Mof_H 	H 	0.4898	0.3323	0.4227	0.118
Mof_H 	H 	0.6929	0.1474	0.3904	-0.017
Mof_H 	H 	0.4513	0.2304	0.4666	-0.014
Mof_H 	H 	0.7312	0.2453	0.3569	0.123
Mof_H 	H 	0.5686	0.4887	0.3255	0.09
Mof_H 	H 	0.5103	0.5557	0.3877	0.025
Mof_C 	C 	0.11193	0.54329	0.88725	0.447
Mof_C 	C 	0.24293	0.58283	0.70551	-0.248
Mof_C 	C 	0.29954	0.61563	0.70009	0.214
Mof_C 	C 	0.23376	0.60209	0.81559	0.163
Mof_C 	C 	0.17629	0.56948	0.82094	-0.214
Mof_C 	C 	0.18338	0.55792	0.76612	0.154
Mof_C 	C 	0.29422	0.62297	0.75659	-0.262
Mof_C 	C 	0.40671	0.6279	0.53188	-0.165
Mof_C 	C 	0.44789	0.59004	0.49138	0.007
Mof_C 	C 	0.54247	0.95671	0.61275	0.447
Mof_C 	C 	0.53127	0.91717	0.79449	-0.248
Mof_C 	C 	0.61526	0.88437	0.79991	0.214
Mof_C 	C 	0.65144	0.89791	0.68441	0.163
Mof_C 	C 	0.56671	0.93052	0.67906	-0.215
Mof_C 	C 	0.50742	0.94208	0.73388	0.155
Mof_C 	C 	0.67378	0.87703	0.74341	-0.262
Mof_C 	C 	0.56649	0.8721	0.96812	-0.16
Mof_C 	C 	0.52931	0.90996	0.00862	0.003
Mof_C 	C 	0.88807	0.61275	0.95671	0.447
Mof_C 	C 	0.75707	0.79449	0.91717	-0.248
Mof_C 	C 	0.70046	0.79991	0.88437	0.214
Mof_C 	C 	0.76624	0.68441	0.89791	0.163
Mof_C 	C 	0.82371	0.67906	0.93052	-0.215
Mof_C 	C 	0.81662	0.73388	0.94208	0.155
Mof_C 	C 	0.70578	0.74341	0.87703	-0.263
Mof_C 	C 	0.59329	0.96812	0.8721	-0.16
Mof_C 	C 	0.55211	0.00862	0.90996	0.002
Mof_C 	C 	0.45753	0.88725	0.54329	0.447
Mof_C 	C 	0.46873	0.70551	0.58283	-0.248
Mof_C 	C 	0.38474	0.70009	0.61563	0.214
Mof_C 	C 	0.34856	0.81559	0.60209	0.163
Mof_C 	C 	0.43329	0.82094	0.56948	-0.215
Mof_C 	C 	0.49258	0.76612	0.55792	0.155
Mof_C 	C 	0.32622	0.75659	0.62297	-0.262
Mof_C 	C 	0.43351	0.53188	0.6279	-0.165
Mof_C 	C 	0.47069	0.49138	0.59004	0.007
Mof_C 	C 	0.88807	0.45671	0.11275	0.447
Mof_C 	C 	0.75707	0.41717	0.29449	-0.248
Mof_C 	C 	0.70046	0.38437	0.29991	0.214
Mof_C 	C 	0.76624	0.39791	0.18441	0.163
Mof_C 	C 	0.82371	0.43052	0.17906	-0.214
Mof_C 	C 	0.81662	0.44208	0.23388	0.154
Mof_C 	C 	0.70578	0.37703	0.24341	-0.262
Mof_C 	C 	0.59329	0.3721	0.46812	-0.165
Mof_C 	C 	0.55211	0.40996	0.50862	0.007
Mof_C 	C 	0.45753	0.04329	0.38725	0.447
Mof_C 	C 	0.46873	0.08283	0.20551	-0.248
Mof_C 	C 	0.38474	0.11563	0.20009	0.214
Mof_C 	C 	0.34856	0.10209	0.31559	0.163
Mof_C 	C 	0.43329	0.06948	0.32094	-0.215
Mof_C 	C 	0.49258	0.05792	0.26612	0.155
Mof_C 	C 	0.32622	0.12297	0.25659	-0.262
Mof_C 	C 	0.43351	0.1279	0.03188	-0.16
Mof_C 	C 	0.47069	0.09004	0.99138	0.003
Mof_C 	C 	0.11193	0.38725	0.04329	0.447
Mof_C 	C 	0.24293	0.20551	0.08283	-0.248
Mof_C 	C 	0.29954	0.20009	0.11563	0.214
Mof_C 	C 	0.23376	0.31559	0.10209	0.163
Mof_C 	C 	0.17629	0.32094	0.06948	-0.215
Mof_C 	C 	0.18338	0.26612	0.05792	0.155
Mof_C 	C 	0.29422	0.25659	0.12297	-0.263
Mof_C 	C 	0.40671	0.03188	0.1279	-0.16
Mof_C 	C 	0.44789	0.99138	0.09004	0.002
Mof_C 	C 	0.54247	0.11275	0.45671	0.447
Mof_C 	C 	0.53127	0.29449	0.41717	-0.248
Mof_C 	C 	0.61526	0.29991	0.38437	0.214
Mof_C 	C 	0.65144	0.18441	0.39791	0.163
Mof_C 	C 	0.56671	0.17906	0.43052	-0.215
Mof_C 	C 	0.50742	0.23388	0.44208	0.155
Mof_C 	C 	0.67378	0.24341	0.37703	-0.262
Mof_C 	C 	0.56649	0.46812	0.3721	-0.165
Mof_C 	C 	0.52931	0.50862	0.40996	0.007
Mof_C 	C 	0.40156	0.59844	0.59844	0.158
Mof_C 	C 	0.47907	0.52093	0.52093	-0.02
Mof_C 	C 	0.59844	0.90156	0.90156	0.155
Mof_C 	C 	0.52093	0.97907	0.97907	-0.016
Mof_C 	C 	0.59844	0.40156	0.40156	0.158
Mof_C 	C 	0.52093	0.47907	0.47907	-0.02
Mof_C 	C 	0.40156	0.09844	0.09844	0.155
Mof_C 	C 	0.47907	0.02093	0.02093	-0.016
Mof_N 	N 	0.36153	0.63847	0.63847	-0.206
Mof_N 	N 	0.63847	0.86153	0.86153	-0.205
Mof_N 	N 	0.63847	0.36153	0.36153	-0.206
Mof_N 	N 	0.36153	0.13847	0.13847	-0.205
Mof_O 	O 	0.06542	0.51133	0.88939	-0.492
Mof_O 	O 	0.10806	0.55693	0.93425	-0.492
Mof_O 	O 	0.46614	0.98867	0.61061	-0.493
Mof_O 	O 	0.59924	0.94307	0.56575	-0.494
Mof_O 	O 	0.93458	0.61061	0.98867	-0.494
Mof_O 	O 	0.89194	0.56575	0.94307	-0.494
Mof_O 	O 	0.53386	0.88939	0.51133	-0.493
Mof_O 	O 	0.40076	0.93425	0.55693	-0.494
Mof_O 	O 	0.93458	0.48867	0.11061	-0.492
Mof_O 	O 	0.89194	0.44307	0.06575	-0.492
Mof_O 	O 	0.53386	0.01133	0.38939	-0.493
Mof_O 	O 	0.40076	0.05693	0.43425	-0.494
Mof_O 	O 	0.06542	0.38939	0.01133	-0.494
Mof_O 	O 	0.10806	0.43425	0.05693	-0.494
Mof_O 	O 	0.46614	0.11061	0.48867	-0.493
Mof_O 	O 	0.59924	0.06575	0.44307	-0.494
_end
