data_functionalizedCrystal
_audit_creation_method	'EQeq! by Chris Wilmer'
_symmetry_space_group_name_H-M	'P1'
_symmetry_Int_Tables_number	1
_symmetry_cell_setting	triclinic
loop_
_symmetry_equiv_pos_as_xyz
  x,y,z
_cell_length_a	13.475
_cell_length_b	13.475
_cell_length_c	8.0291
_cell_angle_alpha	90
_cell_angle_beta	90
_cell_angle_gamma	120
loop_
_atom_site_label
_atom_site_type_symbol
_atom_site_fract_x
_atom_site_fract_y
_atom_site_fract_z
_atom_site_charge
Mof_Mn	Mn	0.30265	0.33739	0.95416	0.706
Mof_O 	O 	0.22656	0.17902	0.0935	-0.298
Mof_C 	C 	0.53497	0.32188	0.9499	-0.204
Mof_C 	C 	0.35407	0.5596	0.7243	-0.148
Mof_O 	O 	0.23911	0.05498	0.2574	-0.329
Mof_C 	C 	0.26342	0.1558	0.2215	0.34
Mof_N 	N 	0.34632	0.20777	0.5015	-0.275
Mof_H 	H 	0.2861	0.1977	0.5629	0.142
Mof_H 	H 	0.4113	0.2561	0.5557	0.102
Mof_C 	C 	0.34394	0.25337	0.3364	-0.104
Mof_H 	H 	0.4211	0.285	0.2898	0.054
Mof_N 	N 	0.36683	0.42781	0.1982	-0.284
Mof_H 	H 	0.4437	0.4607	0.2004	0.116
Mof_H 	H 	0.3495	0.4841	0.2053	0.11
Mof_C 	C 	0.31899	0.35239	0.3453	-0.016
Mof_H 	H 	0.2368	0.3219	0.3499	0.043
Mof_H 	H 	0.3525	0.3965	0.4459	0.026
Mof_N 	N 	0.45553	0.31973	0.8926	-0.139
Mof_N 	N 	0.36777	0.49852	0.8087	-0.158
Mof_Mn	Mn	0.66261	0.96526	0.95416	0.712
Mof_O 	O 	0.82098	0.04754	0.0935	-0.304
Mof_C 	C 	0.67812	0.21309	0.9499	-0.204
Mof_C 	C 	0.4404	0.79447	0.7243	-0.148
Mof_O 	O 	0.94502	0.18413	0.2574	-0.332
Mof_C 	C 	0.8442	0.10762	0.2215	0.342
Mof_N 	N 	0.79223	0.13855	0.5015	-0.273
Mof_H 	H 	0.8023	0.0884	0.5629	0.14
Mof_H 	H 	0.7439	0.1552	0.5557	0.101
Mof_C 	C 	0.74663	0.09057	0.3364	-0.112
Mof_H 	H 	0.715	0.1361	0.2898	0.055
Mof_N 	N 	0.57219	0.93902	0.1982	-0.285
Mof_H 	H 	0.5393	0.983	0.2004	0.118
Mof_H 	H 	0.5159	0.8654	0.2053	0.111
Mof_C 	C 	0.64761	0.9666	0.3453	-0.007
Mof_H 	H 	0.6781	0.9149	0.3499	0.041
Mof_H 	H 	0.6035	0.956	0.4459	0.024
Mof_N 	N 	0.68027	0.1358	0.8926	-0.14
Mof_N 	N 	0.50148	0.86925	0.8087	-0.158
Mof_Mn	Mn	0.03474	0.69735	0.95416	0.71
Mof_O 	O 	0.95246	0.77344	0.0935	-0.301
Mof_C 	C 	0.78691	0.46503	0.9499	-0.204
Mof_C 	C 	0.20553	0.64593	0.7243	-0.148
Mof_O 	O 	0.81587	0.76089	0.2574	-0.328
Mof_C 	C 	0.89238	0.73658	0.2215	0.341
Mof_N 	N 	0.86145	0.65368	0.5015	-0.274
Mof_H 	H 	0.9116	0.7139	0.5629	0.141
Mof_H 	H 	0.8448	0.5887	0.5557	0.101
Mof_C 	C 	0.90943	0.65606	0.3364	-0.111
Mof_H 	H 	0.8639	0.5789	0.2898	0.055
Mof_N 	N 	0.06098	0.63317	0.1982	-0.284
Mof_H 	H 	0.017	0.5563	0.2004	0.119
Mof_H 	H 	0.1346	0.6505	0.2053	0.111
Mof_C 	C 	0.0334	0.68101	0.3453	-0.008
Mof_H 	H 	0.0851	0.7632	0.3499	0.042
Mof_H 	H 	0.044	0.6475	0.4459	0.024
Mof_N 	N 	0.8642	0.54447	0.8926	-0.14
Mof_N 	N 	0.13075	0.63223	0.8087	-0.158
Mof_Mn	Mn	0.69735	0.66261	0.45416	0.79
Mof_O 	O 	0.77344	0.82098	0.5935	-0.339
Mof_C 	C 	0.46503	0.67812	0.4499	-0.143
Mof_C 	C 	0.64593	0.4404	0.2243	-0.138
Mof_O 	O 	0.76089	0.94502	0.7574	-0.343
Mof_C 	C 	0.73658	0.8442	0.7215	0.352
Mof_N 	N 	0.65368	0.79223	0.0015	-0.238
Mof_H 	H 	0.7139	0.8023	0.0629	0.152
Mof_H 	H 	0.5887	0.7439	0.0557	0.114
Mof_C 	C 	0.65606	0.74663	0.8364	-0.162
Mof_H 	H 	0.5789	0.715	0.7898	0.058
Mof_N 	N 	0.63317	0.57219	0.6982	-0.297
Mof_H 	H 	0.5563	0.5393	0.7004	0.105
Mof_H 	H 	0.6505	0.5159	0.7053	0.102
Mof_C 	C 	0.68101	0.64761	0.8453	0.012
Mof_H 	H 	0.7632	0.6781	0.8499	0.022
Mof_H 	H 	0.6475	0.6035	0.9459	-0.002
Mof_N 	N 	0.54447	0.68027	0.3926	-0.147
Mof_N 	N 	0.63223	0.50148	0.3087	-0.15
Mof_Mn	Mn	0.33739	0.03474	0.45416	0.784
Mof_O 	O 	0.17902	0.95246	0.5935	-0.335
Mof_C 	C 	0.32188	0.78691	0.4499	-0.143
Mof_C 	C 	0.5596	0.20553	0.2243	-0.139
Mof_O 	O 	0.05498	0.81587	0.7574	-0.342
Mof_C 	C 	0.1558	0.89238	0.7215	0.35
Mof_N 	N 	0.20777	0.86145	0.0015	-0.238
Mof_H 	H 	0.1977	0.9116	0.0629	0.154
Mof_H 	H 	0.2561	0.8448	0.0557	0.115
Mof_C 	C 	0.25337	0.90943	0.8364	-0.159
Mof_H 	H 	0.285	0.8639	0.7898	0.058
Mof_N 	N 	0.42781	0.06098	0.6982	-0.297
Mof_H 	H 	0.4607	0.017	0.7004	0.103
Mof_H 	H 	0.4841	0.1346	0.7053	0.102
Mof_C 	C 	0.35239	0.0334	0.8453	0.007
Mof_H 	H 	0.3219	0.0851	0.8499	0.023
Mof_H 	H 	0.3965	0.044	0.9459	-0.001
Mof_N 	N 	0.31973	0.8642	0.3926	-0.145
Mof_N 	N 	0.49852	0.13075	0.3087	-0.151
Mof_Mn	Mn	0.96526	0.30265	0.45416	0.783
Mof_O 	O 	0.04754	0.22656	0.5935	-0.336
Mof_C 	C 	0.21309	0.53497	0.4499	-0.143
Mof_C 	C 	0.79447	0.35407	0.2243	-0.14
Mof_O 	O 	0.18413	0.23911	0.7574	-0.344
Mof_C 	C 	0.10762	0.26342	0.7215	0.35
Mof_N 	N 	0.13855	0.34632	0.0015	-0.238
Mof_H 	H 	0.0884	0.2861	0.0629	0.153
Mof_H 	H 	0.1552	0.4113	0.0557	0.115
Mof_C 	C 	0.09057	0.34394	0.8364	-0.158
Mof_H 	H 	0.1361	0.4211	0.7898	0.057
Mof_N 	N 	0.93902	0.36683	0.6982	-0.296
Mof_H 	H 	0.983	0.4437	0.7004	0.103
Mof_H 	H 	0.8654	0.3495	0.7053	0.102
Mof_C 	C 	0.9666	0.31899	0.8453	0.006
Mof_H 	H 	0.9149	0.2368	0.8499	0.023
Mof_H 	H 	0.956	0.3525	0.9459	-0
Mof_N 	N 	0.1358	0.45553	0.3926	-0.145
Mof_N 	N 	0.86925	0.36777	0.3087	-0.151
Mof_Mn	Mn	0.33333	0.66667	0.579	0.794
Mof_Mn	Mn	0.66667	0.33333	0.079	0.918
_end
