# CIF file generated by openbabel 3.1.0, see https://openbabel.org
data_I
_chemical_name_common 'image0'
_cell_length_a 8.2222
_cell_length_b 16.2247
_cell_length_c 16.4614
_cell_angle_alpha 93.275
_cell_angle_beta 95.797
_cell_angle_gamma 97.895
_space_group_name_H-M_alt 'P 1'
_space_group_name_Hall 'P 1'
loop_
    _symmetry_equiv_pos_as_xyz
    x,y,z
loop_
    _atom_site_label
    _atom_site_type_symbol
    _atom_site_fract_x
    _atom_site_fract_y
    _atom_site_fract_z
    _atom_site_occupancy
    Ag1      Ag       0.54569    0.76279    0.68416    1.000
    Ag2      Ag       0.47232    0.36038    0.72300    1.000
    C1       C        0.54130    0.58100    0.74000    1.000
    C2       C        0.55280    0.59900    0.82940    1.000
    C3       C        0.42930    0.56150    0.87290    1.000
    H1       H        0.34350    0.52340    0.84580    1.000
    C4       C        0.43340    0.58060    0.95630    1.000
    H2       H        0.34810    0.55810    0.98500    1.000
    C5       C        0.56750    0.63390    0.99570    1.000
    C6       C        0.69390    0.67160    0.95300    1.000
    H3       H        0.78220    0.70760    0.98090    1.000
    C7       C        0.68650    0.65510    0.86940    1.000
    H4       H        0.76820    0.68050    0.84010    1.000
    C8       C        0.56890    0.65020    0.08380    1.000
    C9       C        0.50640    0.72130    0.45840    1.000
    C10      C        0.50720    0.80480    0.42610    1.000
    C11      C        0.40040    0.85670    0.45660    1.000
    H5       H        0.33400    0.83910    0.49660    1.000
    C12      C        0.39500    0.93450    0.42630    1.000
    H6       H        0.32350    0.96870    0.44580    1.000
    C13      C        0.49470    0.96170    0.36750    1.000
    C14      C        0.60370    0.91000    0.33780    1.000
    H7       H        0.67200    0.92790    0.29870    1.000
    C15      C        0.60740    0.83200    0.36780    1.000
    H8       H        0.67850    0.79750    0.34840    1.000
    C16      C        0.48850    0.04360    0.34050    1.000
    N1       N        0.56480    0.65950    0.15250    1.000
    N2       N        0.48050    0.10950    0.32020    1.000
    O1       O        0.46230    0.51200    0.70770    1.000
    O2       O        0.61130    0.63490    0.69630    1.000
    O3       O        0.47470    0.71020    0.52970    1.000
    O4       O        0.54150    0.66160    0.41190    1.000
    Ag3      Ag       0.45431    0.23721    0.31584    1.000
    Ag4      Ag       0.52768    0.63962    0.27700    1.000
    C17      C        0.45870    0.41900    0.26000    1.000
    C18      C        0.44720    0.40100    0.17060    1.000
    C19      C        0.57070    0.43850    0.12710    1.000
    H9       H        0.65650    0.47660    0.15420    1.000
    C20      C        0.56660    0.41940    0.04370    1.000
    H10      H        0.65190    0.44190    0.01500    1.000
    C21      C        0.43250    0.36610    0.00430    1.000
    C22      C        0.30610    0.32840    0.04700    1.000
    H11      H        0.21780    0.29240    0.01910    1.000
    C23      C        0.31350    0.34490    0.13060    1.000
    H12      H        0.23180    0.31950    0.15990    1.000
    C24      C        0.43110    0.34980    0.91620    1.000
    C25      C        0.49360    0.27870    0.54160    1.000
    C26      C        0.49280    0.19520    0.57390    1.000
    C27      C        0.59960    0.14330    0.54340    1.000
    H13      H        0.66600    0.16090    0.50340    1.000
    C28      C        0.60500    0.06550    0.57370    1.000
    H14      H        0.67650    0.03130    0.55420    1.000
    C29      C        0.50530    0.03830    0.63250    1.000
    C30      C        0.39630    0.09000    0.66220    1.000
    H15      H        0.32800    0.07210    0.70130    1.000
    C31      C        0.39260    0.16800    0.63220    1.000
    H16      H        0.32150    0.20250    0.65160    1.000
    C32      C        0.51150    0.95640    0.65950    1.000
    N3       N        0.43520    0.34050    0.84750    1.000
    N4       N        0.51950    0.89050    0.67980    1.000
    O5       O        0.53770    0.48800    0.29230    1.000
    O6       O        0.38870    0.36510    0.30370    1.000
    O7       O        0.52530    0.28980    0.47030    1.000
    O8       O        0.45850    0.33840    0.58810    1.000
    Ag5      Ag       0.52053    0.56661    0.55714    1.000
    Ag6      Ag       0.86810    0.60514    0.63444    1.000
    Ag7      Ag       0.81738    0.41957    0.60770    1.000
    Ag8      Ag       0.81583    0.34626    0.44151    1.000
    Ag9      Ag       0.83327    0.49037    0.34775    1.000
    Ag10     Ag       0.84632    0.63660    0.45633    1.000
    C33      C        0.76460    0.52530    0.52600    1.000
    C34      C        0.77060    0.47290    0.47050    1.000
    C35      C        0.03540    0.73200    0.32880    1.000
    C36      C        0.03750    0.79970    0.26820    1.000
    C37      C        0.05340    0.53840    0.21200    1.000
    C38      C        0.05980    0.54930    0.12030    1.000
    F1       F        0.01440    0.87360    0.30910    1.000
    F2       F        0.91830    0.79530    0.21680    1.000
    F3       F        0.18390    0.82450    0.24560    1.000
    F4       F        0.95800    0.59400    0.09100    1.000
    F5       F        0.19600    0.56190    0.09530    1.000
    F6       F        0.99400    0.47090    0.08140    1.000
    O9       O        0.89820    0.71370    0.35370    1.000
    O10      O        0.16340    0.70260    0.34190    1.000
    O11      O        0.91370    0.53120    0.23440    1.000
    O12      O        0.19040    0.53600    0.25400    1.000
    F7       F        0.15900    0.63090    0.11410    1.000
    F8       F        0.16000    0.51190    0.08840    1.000
    F9       F        0.92800    0.56000    0.08100    1.000
    F10      F        0.98500    0.75000    0.19000    1.000
    Ag11     Ag       0.47947    0.43339    0.44286    1.000
    Ag12     Ag       0.13190    0.39486    0.36556    1.000
    Ag13     Ag       0.18262    0.58043    0.39230    1.000
    Ag14     Ag       0.18417    0.65374    0.55849    1.000
    Ag15     Ag       0.16673    0.50963    0.65225    1.000
    Ag16     Ag       0.15368    0.36340    0.54367    1.000
    C39      C        0.23540    0.47470    0.47400    1.000
    C40      C        0.22940    0.52710    0.52950    1.000
    C41      C        0.96460    0.26800    0.67120    1.000
    C42      C        0.96250    0.20030    0.73180    1.000
    C43      C        0.94660    0.46160    0.78800    1.000
    C44      C        0.94020    0.45070    0.87970    1.000
    F11      F        0.98560    0.12640    0.69090    1.000
    F12      F        0.08170    0.20470    0.78320    1.000
    F13      F        0.81610    0.17550    0.75440    1.000
    F14      F        0.04200    0.40600    0.90900    1.000
    F15      F        0.80400    0.43810    0.90470    1.000
    F16      F        0.00600    0.52910    0.91860    1.000
    O13      O        0.10180    0.28630    0.64630    1.000
    O14      O        0.83660    0.29740    0.65810    1.000
    O15      O        0.08630    0.46880    0.76560    1.000
    O16      O        0.80960    0.46400    0.74600    1.000
    F17      F        0.84100    0.36910    0.88590    1.000
    F18      F        0.84000    0.48810    0.91160    1.000
    F19      F        0.07200    0.44000    0.91900    1.000
    F20      F        0.01500    0.25000    0.81000    1.000
