# CIF file generated by openbabel 3.1.0, see https://openbabel.org
data_I
_chemical_name_common 'image0'
_cell_length_a 11.8074
_cell_length_b 12.0287
_cell_length_c 12.5815
_cell_angle_alpha 77.508
_cell_angle_beta 88.505
_cell_angle_gamma 62.823
_space_group_name_H-M_alt 'P 1'
_space_group_name_Hall 'P 1'
loop_
    _symmetry_equiv_pos_as_xyz
    x,y,z
loop_
    _atom_site_label
    _atom_site_type_symbol
    _atom_site_fract_x
    _atom_site_fract_y
    _atom_site_fract_z
    _atom_site_occupancy
    C1       C        0.01650    0.65590    0.38980    1.000
    C2       C        0.97210    0.69840    0.48620    1.000
    H1       H        0.90980    0.68150    0.52210    1.000
    C3       C        0.02280    0.76460    0.52500    1.000
    C4       C        0.11080    0.79630    0.47230    1.000
    H2       H        0.13820    0.84720    0.49850    1.000
    C5       C        0.15930    0.75140    0.37850    1.000
    C6       C        0.11290    0.68140    0.33560    1.000
    H3       H        0.14390    0.65190    0.27310    1.000
    C7       C        0.96290    0.58170    0.34740    1.000
    C8       C        0.97710    0.80520    0.63070    1.000
    C9       C        0.26070    0.77640    0.32140    1.000
    C10      C        0.62110    0.10010    0.17590    1.000
    C11      C        0.65070    0.18180    0.22420    1.000
    H4       H        0.60520    0.21530    0.28080    1.000
    C12      C        0.74690    0.21080    0.18670    1.000
    C13      C        0.80590    0.16960    0.09370    1.000
    H5       H        0.86420    0.19720    0.06400    1.000
    C14      C        0.78110    0.09140    0.04580    1.000
    C15      C        0.68490    0.05710    0.08960    1.000
    H6       H        0.66550    0.00400    0.05810    1.000
    C16      C        0.51730    0.06400    0.21740    1.000
    C17      C        0.78140    0.29030    0.24140    1.000
    C18      C        0.84680    0.05150    0.94950    1.000
    C19      C        0.22320    0.14320    0.65500    1.000
    C20      C        0.19090    0.11940    0.76180    1.000
    H7       H        0.11230    0.12200    0.77660    1.000
    C21      C        0.27960    0.09220    0.84400    1.000
    C22      C        0.39920    0.08870    0.82460    1.000
    H8       H        0.45610    0.07470    0.88170    1.000
    C23      C        0.42860    0.10710    0.71580    1.000
    C24      C        0.34100    0.13640    0.62850    1.000
    H9       H        0.36060    0.15070    0.55630    1.000
    C25      C        0.11550    0.26340    0.47220    1.000
    H10      H        0.16380    0.30700    0.45510    1.000
    C26      C        0.98350    0.18630    0.45930    1.000
    H11      H        0.92330    0.16780    0.43180    1.000
    C27      C        0.05090    0.12990    0.55740    1.000
    H12      H        0.04270    0.06750    0.61040    1.000
    C28      C        0.35020    0.99140    0.04080    1.000
    H13      H        0.43700    0.95220    0.03140    1.000
    C29      C        0.14090    0.10120    0.00300    1.000
    H14      H        0.06030    0.15090    0.96590    1.000
    C30      C        0.16980    0.05130    0.11070    1.000
    H15      H        0.11020    0.05980    0.16220    1.000
    C31      C        0.65480    0.02320    0.76250    1.000
    H16      H        0.65630    0.97470    0.83140    1.000
    C32      C        0.71230    0.11200    0.61840    1.000
    H17      H        0.76180    0.13510    0.56850    1.000
    C33      C        0.58840    0.15250    0.60570    1.000
    H18      H        0.53540    0.21110    0.54480    1.000
    C34      C        0.42720    0.74800    0.85330    1.000
    C35      C        0.53340    0.69690    0.92810    1.000
    H19      H        0.52570    0.67480    0.00240    1.000
    C36      C        0.65260    0.67900    0.89030    1.000
    C37      C        0.66320    0.71340    0.77650    1.000
    H20      H        0.74230    0.69780    0.75050    1.000
    C38      C        0.55410    0.77070    0.70440    1.000
    C39      C        0.43520    0.79040    0.74340    1.000
    H21      H        0.36200    0.83200    0.69530    1.000
    C40      C        0.20360    0.80000    0.82230    1.000
    H22      H        0.20590    0.80510    0.74750    1.000
    C41      C        0.13870    0.80460    0.98300    1.000
    H23      H        0.08530    0.81340    0.03950    1.000
    C42      C        0.26640    0.77060    0.99420    1.000
    H24      H        0.31590    0.75370    0.05760    1.000
    C43      C        0.78160    0.54030    0.06300    1.000
    H25      H        0.72820    0.50440    0.08840    1.000
    C44      C        0.85910    0.65790    0.95910    1.000
    H26      H        0.87140    0.71420    0.90230    1.000
    C45      C        0.93440    0.58940    0.05280    1.000
    H27      H        0.00850    0.59160    0.07270    1.000
    C46      C        0.48370    0.81860    0.51070    1.000
    H28      H        0.41300    0.80380    0.52110    1.000
    C47      C        0.65380    0.83360    0.54530    1.000
    H29      H        0.72240    0.83340    0.58020    1.000
    C48      C        0.62430    0.86250    0.43330    1.000
    H30      H        0.67030    0.88450    0.37900    1.000
    Cu1      Cu       0.96266    0.39111    0.25823    1.000
    Cu2      Cu       0.92878    0.91965    0.79521    1.000
    Cu3      Cu       0.41290    0.90296    0.27391    1.000
    N1       N        0.02060    0.27710    0.40670    1.000
    N2       N        0.13140    0.17790    0.56650    1.000
    N3       N        0.25840    0.06220    0.95960    1.000
    N4       N        0.30240    0.98440    0.13440    1.000
    N5       N        0.54960    0.09770    0.69220    1.000
    N6       N        0.75450    0.02940    0.71910    1.000
    N7       N        0.30480    0.76720    0.88930    1.000
    N8       N        0.10180    0.82390    0.87340    1.000
    N9       N        0.75860    0.62590    0.96590    1.000
    N10      N        0.88380    0.51500    0.11490    1.000
    N11      N        0.56200    0.80540    0.59450    1.000
    N12      N        0.51480    0.85270    0.41720    1.000
    O1       O        0.03060    0.50060    0.29490    1.000
    O2       O        0.84900    0.60490    0.36270    1.000
    O3       O        0.92040    0.75570    0.69160    1.000
    O4       O        0.00330    0.88770    0.65760    1.000
    O5       O        0.28960    0.85380    0.35160    1.000
    O6       O        0.31350    0.71910    0.24940    1.000
    O7       O        0.53140    0.96100    0.20050    1.000
    O8       O        0.42920    0.13780    0.26220    1.000
    O9       O        0.70720    0.35920    0.29600    1.000
    O10      O        0.89040    0.28450    0.21980    1.000
    O11      O        0.89280    0.10960    0.89030    1.000
    O12      O        0.85040    0.94780    0.93300    1.000
