data_functionalizedCrystal
_audit_creation_method	'EQeq! by Chris Wilmer'
_symmetry_space_group_name_H-M	'P1'
_symmetry_Int_Tables_number	1
_symmetry_cell_setting	triclinic
loop_
_symmetry_equiv_pos_as_xyz
  x,y,z
_cell_length_a	10.923
_cell_length_b	19.758
_cell_length_c	22.771
_cell_angle_alpha	90
_cell_angle_beta	90
_cell_angle_gamma	99.64
loop_
_atom_site_label
_atom_site_type_symbol
_atom_site_fract_x
_atom_site_fract_y
_atom_site_fract_z
_atom_site_charge
Mof_Sm	Sm	0.85334	0.14734	0.14644	1.469
Mof_Sm	Sm	0.45921	0.59991	0.85312	1.826
Mof_Sm	Sm	0.95921	0.09991	0.64688	1.819
Mof_Sm	Sm	0.04079	0.90009	0.35312	1.819
Mof_Sm	Sm	0.35334	0.64734	0.35356	1.476
Mof_Sm	Sm	0.14666	0.85266	0.85356	1.47
Mof_Sm	Sm	0.64666	0.35266	0.64644	1.476
Mof_Sm	Sm	0.54079	0.40009	0.14687	1.827
Mof_Cu	Cu	0.69515	0.34662	0.82279	0.894
Mof_Cu	Cu	0.19515	0.84662	0.67721	0.894
Mof_Cu	Cu	0.30485	0.65338	0.17721	0.894
Mof_Cu	Cu	0.80485	0.15338	0.32279	0.894
Mof_Cu	Cu	0.59079	0.39974	0.32396	0.878
Mof_Cu	Cu	0.09079	0.89974	0.17604	0.878
Mof_Cu	Cu	0.40921	0.60026	0.67604	0.878
Mof_Cu	Cu	0.90921	0.10026	0.82396	0.878
Mof_H 	H 	0.4182	0.0456	0.5817	0.057
Mof_H 	H 	0.7277	0.7566	0.7962	0.028
Mof_H 	H 	0.1205	0.4422	0.8045	0.047
Mof_H 	H 	0.2723	0.2434	0.2038	0.028
Mof_H 	H 	0.0199	0.4938	0.3055	0.014
Mof_H 	H 	0.1116	0.3088	0.1992	0.036
Mof_H 	H 	0.8884	0.6912	0.8008	0.036
Mof_H 	H 	0.6205	0.9422	0.6955	0.046
Mof_H 	H 	0.5818	0.9544	0.4183	0.057
Mof_H 	H 	0.3884	0.1912	0.6992	0.036
Mof_H 	H 	0.0818	0.4544	0.0817	0.056
Mof_H 	H 	0.9801	0.5062	0.6945	0.014
Mof_H 	H 	0.2277	0.2566	0.7038	0.028
Mof_H 	H 	0.8795	0.5578	0.1955	0.047
Mof_H 	H 	0.7723	0.7434	0.2962	0.028
Mof_H 	H 	0.3795	0.0578	0.3045	0.046
Mof_H 	H 	0.9182	0.5456	0.9183	0.056
Mof_H 	H 	0.4801	0.0062	0.8055	0.016
Mof_H 	H 	0.6116	0.8088	0.3008	0.036
Mof_H 	H 	0.5199	0.9938	0.1945	0.016
Mof_C 	C 	0.0345	0.6077	0.709	-0.061
Mof_C 	C 	0.9934	0.3364	0.2591	-0.08
Mof_C 	C 	0.8292	0.59	0.785	-0.031
Mof_C 	C 	0.454	0.8348	0.6731	0.327
Mof_C 	C 	0.6584	0.0571	0.5946	0.373
Mof_C 	C 	0.6708	0.91	0.285	-0.031
Mof_C 	C 	0.5943	0.8458	0.2789	-0.002
Mof_C 	C 	0.711	0.0369	0.2611	0.417
Mof_C 	C 	0.789	0.4631	0.7611	0.42
Mof_C 	C 	0.039	0.4567	0.2844	0.02
Mof_C 	C 	0.4934	0.8364	0.2409	-0.079
Mof_C 	C 	0.3571	0.0953	0.2851	0.001
Mof_C 	C 	0.9638	0.7875	0.2294	0.406
Mof_C 	C 	0.961	0.5433	0.7156	0.02
Mof_C 	C 	0.5751	0.2349	0.7691	0.389
Mof_C 	C 	0.539	0.9567	0.2156	0.018
Mof_C 	C 	0.0066	0.6636	0.7409	-0.08
Mof_C 	C 	0.3158	0.486	0.7397	0.437
Mof_C 	C 	0.289	0.9631	0.7389	0.417
Mof_C 	C 	0.4057	0.1542	0.7211	-0.002
Mof_C 	C 	0.5492	0.9728	0.4512	-0.003
Mof_C 	C 	0.5712	0.84	0.7078	-0.046
Mof_C 	C 	0.1412	0.4661	0.2466	-0.101
Mof_C 	C 	0.5787	0.0266	0.5458	-0.08
Mof_C 	C 	0.3962	0.2164	0.262	-0.106
Mof_C 	C 	0.8416	0.4429	0.0946	0.374
Mof_C 	C 	0.7473	0.9139	0.7506	-0.092
Mof_C 	C 	0.9006	0.8626	0.8127	0.307
Mof_C 	C 	0.0751	0.7349	0.7309	0.389
Mof_C 	C 	0.9213	0.4734	0.0458	-0.08
Mof_C 	C 	0.0712	0.34	0.7922	-0.043
Mof_C 	C 	0.3416	0.9429	0.4054	0.373
Mof_C 	C 	0.7799	0.858	0.7805	-0.051
Mof_C 	C 	0.1842	0.014	0.2397	0.441
Mof_C 	C 	0.2084	0.0851	0.6823	0.312
Mof_C 	C 	0.0994	0.1374	0.1873	0.307
Mof_C 	C 	0.9057	0.6542	0.7789	-0.001
Mof_C 	C 	0.7916	0.9149	0.3177	0.312
Mof_C 	C 	0.4508	0.0272	0.5488	-0.003
Mof_C 	C 	0.9249	0.2651	0.2691	0.389
Mof_C 	C 	0.3588	0.0339	0.7466	-0.098
Mof_C 	C 	0.5994	0.6374	0.3127	0.307
Mof_C 	C 	0.954	0.3348	0.8269	0.325
Mof_C 	C 	0.7073	0.7934	0.775	-0
Mof_C 	C 	0.5066	0.1636	0.7591	-0.079
Mof_C 	C 	0.2627	0.4926	0.0101	0.292
Mof_C 	C 	0.3732	0.0014	0.5042	-0.029
Mof_C 	C 	0.9508	0.5272	0.9512	-0.003
Mof_C 	C 	0.1268	0.4986	0.0042	-0.028
Mof_C 	C 	0.7527	0.5861	0.2506	-0.09
Mof_C 	C 	0.2527	0.0861	0.2494	-0.092
Mof_C 	C 	0.2373	0.0074	0.5101	0.296
Mof_C 	C 	0.2927	0.2066	0.225	-0
Mof_C 	C 	0.0787	0.5266	0.9542	-0.08
Mof_C 	C 	0.1477	0.6111	0.6703	0.346
Mof_C 	C 	0.2916	0.4149	0.1823	0.312
Mof_C 	C 	0.211	0.5369	0.2389	0.42
Mof_C 	C 	0.3523	0.8889	0.1703	0.346
Mof_C 	C 	0.7927	0.7066	0.275	0.001
Mof_C 	C 	0.7201	0.642	0.2805	-0.052
Mof_C 	C 	0.7373	0.5074	0.9899	0.292
Mof_C 	C 	0.4288	0.16	0.2922	-0.046
Mof_C 	C 	0.8571	0.5953	0.2149	-0.001
Mof_C 	C 	0.1584	0.5571	0.9054	0.374
Mof_C 	C 	0.0492	0.4728	0.0488	-0.003
Mof_C 	C 	0.5362	0.7125	0.7294	0.402
Mof_C 	C 	0.8158	0.986	0.7603	0.441
Mof_C 	C 	0.6842	0.514	0.2603	0.437
Mof_C 	C 	0.2201	0.142	0.2195	-0.051
Mof_C 	C 	0.7084	0.5851	0.8177	0.312
Mof_C 	C 	0.6412	0.9661	0.2534	-0.098
Mof_C 	C 	0.4006	0.3626	0.6873	0.307
Mof_C 	C 	0.9655	0.3923	0.291	-0.061
Mof_C 	C 	0.046	0.6652	0.1731	0.325
Mof_C 	C 	0.2473	0.4139	0.7494	-0.09
Mof_C 	C 	0.6429	0.9047	0.7149	0.001
Mof_C 	C 	0.1429	0.4047	0.7851	-0.001
Mof_C 	C 	0.7627	0.9926	0.4899	0.296
Mof_C 	C 	0.546	0.1652	0.3269	0.327
Mof_C 	C 	0.4638	0.2875	0.2706	0.402
Mof_C 	C 	0.6038	0.7836	0.738	-0.106
Mof_C 	C 	0.8523	0.3889	0.3297	0.346
Mof_C 	C 	0.4213	0.9734	0.4542	-0.08
Mof_C 	C 	0.8732	0.5014	0.9958	-0.028
Mof_C 	C 	0.461	0.0433	0.7844	0.018
Mof_C 	C 	0.8962	0.7164	0.238	-0.108
Mof_C 	C 	0.2799	0.358	0.7195	-0.052
Mof_C 	C 	0.8588	0.5339	0.7534	-0.101
Mof_C 	C 	0.0362	0.2125	0.7706	0.406
Mof_C 	C 	0.6477	0.1111	0.8297	0.346
Mof_C 	C 	0.9288	0.66	0.2078	-0.043
Mof_C 	C 	0.2073	0.2934	0.725	0.001
Mof_C 	C 	0.6268	0.9986	0.4958	-0.029
Mof_C 	C 	0.5345	0.1077	0.791	-0.06
Mof_C 	C 	0.1038	0.2836	0.762	-0.108
Mof_C 	C 	0.0943	0.3458	0.2211	-0.001
Mof_C 	C 	0.4249	0.7651	0.2309	0.389
Mof_C 	C 	0.4655	0.8923	0.209	-0.06
Mof_C 	C 	0.3292	0.09	0.715	-0.031
Mof_C 	C 	0.1708	0.41	0.215	-0.031
Mof_O 	O 	0.4124	0.7239	0.2734	-0.504
Mof_O 	O 	0.0067	0.8037	0.1784	-0.428
Mof_O 	O 	0.8925	0.4209	0.1377	-0.31
Mof_O 	O 	0.7246	0.4383	0.0903	-0.504
Mof_O 	O 	0.2014	0.0595	0.4878	-0.264
Mof_O 	O 	0.2279	0.5578	0.1865	-0.413
Mof_O 	O 	0.529	0.6712	0.7715	-0.553
Mof_O 	O 	0.7754	0.0617	0.5903	-0.503
Mof_O 	O 	0.1685	0.962	0.5395	-0.289
Mof_O 	O 	0.9112	0.8266	0.8569	-0.425
Mof_O 	O 	0.5385	0.1519	0.3805	-0.271
Mof_O 	O 	0.2504	0.6317	0.6947	-0.392
Mof_O 	O 	0.4945	0.4013	0.7091	-0.399
Mof_O 	O 	0.0385	0.6519	0.1195	-0.271
Mof_O 	O 	0.301	0.3796	0.1374	-0.416
Mof_O 	O 	0.5067	0.3037	0.3216	-0.425
Mof_O 	O 	0.9945	0.9013	0.7909	-0.397
Mof_O 	O 	0.6451	0.1803	0.2983	-0.389
Mof_O 	O 	0.3925	0.9209	0.3623	-0.309
Mof_O 	O 	0.7591	0.4269	0.7166	-0.523
Mof_O 	O 	0.3509	0.5223	0.7832	-0.523
Mof_O 	O 	0.029	0.1712	0.7285	-0.551
Mof_O 	O 	0.199	0.1204	0.6374	-0.414
Mof_O 	O 	0.971	0.8288	0.2715	-0.551
Mof_O 	O 	0.0055	0.0987	0.2091	-0.397
Mof_O 	O 	0.5888	0.6734	0.3569	-0.426
Mof_O 	O 	0.6149	0.5474	0.7955	-0.414
Mof_O 	O 	0.1725	0.995	0.1872	-0.453
Mof_O 	O 	0.8879	0.2495	0.3203	-0.421
Mof_O 	O 	0.7279	0.0578	0.3135	-0.413
Mof_O 	O 	0.7504	0.1317	0.8053	-0.392
Mof_O 	O 	0.2986	0.4405	0.9878	-0.265
Mof_O 	O 	0.3549	0.8197	0.7017	-0.389
Mof_O 	O 	0.1347	0.5911	0.6191	-0.318
Mof_O 	O 	0.3315	0.538	0.0395	-0.286
Mof_O 	O 	0.1075	0.5791	0.8623	-0.31
Mof_O 	O 	0.6347	0.0911	0.8809	-0.318
Mof_O 	O 	0.8315	0.038	0.4605	-0.289
Mof_O 	O 	0.3275	0.505	0.6872	-0.451
Mof_O 	O 	0.699	0.6204	0.8626	-0.416
Mof_O 	O 	0.9933	0.1963	0.8216	-0.428
Mof_O 	O 	0.0888	0.1734	0.1431	-0.425
Mof_O 	O 	0.4112	0.3266	0.6431	-0.426
Mof_O 	O 	0.5055	0.5987	0.2909	-0.399
Mof_O 	O 	0.2591	0.9269	0.7834	-0.522
Mof_O 	O 	0.1491	0.9777	0.2832	-0.525
Mof_O 	O 	0.8851	0.9526	0.2955	-0.411
Mof_O 	O 	0.6725	0.495	0.3128	-0.451
Mof_O 	O 	0.6491	0.4777	0.2168	-0.523
Mof_O 	O 	0.1451	0.6803	0.2017	-0.389
Mof_O 	O 	0.2496	0.8683	0.1947	-0.392
Mof_O 	O 	0.2409	0.5731	0.2834	-0.523
Mof_O 	O 	0.3879	0.7495	0.1797	-0.42
Mof_O 	O 	0.6075	0.0791	0.6377	-0.309
Mof_O 	O 	0.7721	0.4422	0.8135	-0.413
Mof_O 	O 	0.6685	0.462	0.9605	-0.286
Mof_O 	O 	0.1121	0.7505	0.6797	-0.421
Mof_O 	O 	0.0876	0.7761	0.7734	-0.504
Mof_O 	O 	0.3653	0.9089	0.1191	-0.318
Mof_O 	O 	0.7496	0.3683	0.3053	-0.392
Mof_O 	O 	0.2754	0.5617	0.9097	-0.504
Mof_O 	O 	0.2246	0.9383	0.4097	-0.503
Mof_O 	O 	0.7014	0.5595	0.0122	-0.265
Mof_O 	O 	0.3851	0.4526	0.2045	-0.414
Mof_O 	O 	0.4933	0.6963	0.6784	-0.425
Mof_O 	O 	0.1149	0.0474	0.7045	-0.411
Mof_O 	O 	0.8275	0.005	0.8128	-0.453
Mof_O 	O 	0.2721	0.9422	0.6865	-0.413
Mof_O 	O 	0.9124	0.2239	0.2266	-0.504
Mof_O 	O 	0.5876	0.2761	0.7266	-0.504
Mof_O 	O 	0.8509	0.0223	0.7168	-0.525
Mof_O 	O 	0.9615	0.3481	0.8805	-0.271
Mof_O 	O 	0.8549	0.3197	0.7983	-0.389
Mof_O 	O 	0.471	0.3288	0.2285	-0.553
Mof_O 	O 	0.801	0.8796	0.3626	-0.414
Mof_O 	O 	0.7986	0.9405	0.5122	-0.264
Mof_O 	O 	0.6121	0.2505	0.8203	-0.42
Mof_O 	O 	0.8653	0.4089	0.3809	-0.318
Mof_O 	O 	0.7409	0.0731	0.2166	-0.522
Mof_O 	O 	0.4615	0.8481	0.6195	-0.271
_end
