data_functionalizedCrystal
_audit_creation_method	'EQeq! by Chris Wilmer'
_symmetry_space_group_name_H-M	'P1'
_symmetry_Int_Tables_number	1
_symmetry_cell_setting	triclinic
loop_
_symmetry_equiv_pos_as_xyz
  x,y,z
_cell_length_a	7.6569
_cell_length_b	15.241
_cell_length_c	7.6589
_cell_angle_alpha	90
_cell_angle_beta	92.74
_cell_angle_gamma	90
loop_
_atom_site_label
_atom_site_type_symbol
_atom_site_fract_x
_atom_site_fract_y
_atom_site_fract_z
_atom_site_charge
Mof_Zn	Zn	0.1934	0.3	0.9066	1.209
Mof_Zn	Zn	0.9185	0.2954	0.21	1.212
Mof_Zn	Zn	0.1932	0.456	0.192	1.212
Mof_Zn	Zn	0.8793	0.4357	0.9031	1.208
Mof_P 	P 	0.0776	0.3826	0.5566	0.52
Mof_P 	P 	0.9984	0.1256	0.9884	0.53
Mof_P 	P 	0.5448	0.362	0.0828	0.505
Mof_O 	O 	0.048	0.3715	0.055	-0.935
Mof_O 	O 	0.422	0.285	0.033	-0.437
Mof_O 	O 	0.231	0.3572	0.686	-0.45
Mof_O 	O 	0.072	0.1896	0.859	-0.447
Mof_O 	O 	0.023	0.3016	0.447	-0.448
Mof_O 	O 	0.674	0.3289	0.232	-0.432
Mof_O 	O 	0.931	0.173	0.148	-0.447
Mof_O 	O 	0.133	0.4567	0.435	-0.454
Mof_O 	O 	0.845	0.0751	0.894	-0.393
Mof_O 	O 	0.441	0.4411	0.156	-0.45
Mof_O 	O 	0.643	0.3892	0.923	-0.461
Mof_O 	O 	0.92	0.4156	0.654	-0.453
Mof_O 	O 	0.143	0.0603	0.047	-0.392
Mof_Zn	Zn	0.8066	0.8	0.0934	1.207
Mof_Zn	Zn	0.0815	0.7954	0.79	1.209
Mof_Zn	Zn	0.8068	0.956	0.808	1.194
Mof_Zn	Zn	0.1207	0.9357	0.0969	1.185
Mof_P 	P 	0.9224	0.8826	0.4434	0.524
Mof_P 	P 	0.0016	0.6256	0.0116	0.53
Mof_P 	P 	0.4552	0.862	0.9172	0.509
Mof_O 	O 	0.952	0.8715	0.945	-0.945
Mof_O 	O 	0.578	0.785	0.967	-0.447
Mof_O 	O 	0.769	0.8572	0.314	-0.468
Mof_O 	O 	0.928	0.6896	0.141	-0.463
Mof_O 	O 	0.977	0.8016	0.553	-0.458
Mof_O 	O 	0.326	0.8289	0.768	-0.448
Mof_O 	O 	0.069	0.673	0.852	-0.467
Mof_O 	O 	0.867	0.9567	0.565	-0.491
Mof_O 	O 	0.155	0.5751	0.106	-0.451
Mof_O 	O 	0.559	0.9411	0.844	-0.484
Mof_O 	O 	0.357	0.8892	0.077	-0.49
Mof_O 	O 	0.08	0.9156	0.346	-0.487
Mof_O 	O 	0.857	0.5603	0.953	-0.456
_end
