# CIF file generated by openbabel 3.1.0, see https://openbabel.org
data_I
_chemical_name_common 'image0'
_cell_length_a 16.3552
_cell_length_b 16.0035
_cell_length_c 12.1024
_cell_angle_alpha 90
_cell_angle_beta 111.399
_cell_angle_gamma 90
_space_group_name_H-M_alt 'P 1'
_space_group_name_Hall 'P 1'
loop_
    _symmetry_equiv_pos_as_xyz
    x,y,z
loop_
    _atom_site_label
    _atom_site_type_symbol
    _atom_site_fract_x
    _atom_site_fract_y
    _atom_site_fract_z
    _atom_site_occupancy
    Cd1      Cd       0.48809    0.18060    0.59179    1.000
    N1       N        0.42641    0.22520    0.40000    1.000
    N2       N        0.38504    0.07038    0.56330    1.000
    O1       O        0.42895    0.92090    0.49112    1.000
    O2       O        0.40259    0.91175    0.30070    1.000
    C1       C        0.38760    0.94387    0.38620    1.000
    O3       O        0.11605    0.24859    0.35650    1.000
    O4       O        0.07618    0.21291    0.16490    1.000
    C2       C        0.38100    0.29630    0.36940    1.000
    C3       C        0.42350    0.17320    0.31270    1.000
    H1       H        0.41410    0.02140    0.57600    1.000
    H2       H        0.36000    0.07520    0.61800    1.000
    C4       C        0.31720    0.06820    0.44830    1.000
    C5       C        0.31960    0.01127    0.36090    1.000
    C6       C        0.33270    0.31640    0.25210    1.000
    H3       H        0.38190    0.33370    0.42870    1.000
    C7       C        0.37680    0.18950    0.19480    1.000
    H4       H        0.45470    0.12340    0.33250    1.000
    C8       C        0.25190    0.12920    0.42000    1.000
    C9       C        0.25750    0.02020    0.24530    1.000
    H5       H        0.30160    0.36640    0.23410    1.000
    C10      C        0.33060    0.26260    0.16200    1.000
    H6       H        0.37650    0.15090    0.13720    1.000
    C11      C        0.19040    0.13650    0.30470    1.000
    H7       H        0.24930    0.16550    0.47860    1.000
    C12      C        0.19380    0.08150    0.21680    1.000
    H8       H        0.25930    0.98380    0.18640    1.000
    C13      C        0.28020    0.28190    0.03200    1.000
    C14      C        0.12160    0.20490    0.27360    1.000
    H9       H        0.15340    0.08620    0.13960    1.000
    H10      H        0.24790    0.33350    0.02670    1.000
    H11      H        0.32210    0.29120    0.99340    1.000
    Cd2      Cd       0.98809    0.68060    0.59179    1.000
    N3       N        0.92641    0.72520    0.40000    1.000
    N4       N        0.88504    0.57038    0.56330    1.000
    O5       O        0.92895    0.42090    0.49112    1.000
    O6       O        0.90259    0.41175    0.30070    1.000
    C15      C        0.88760    0.44387    0.38620    1.000
    O7       O        0.61605    0.74859    0.35650    1.000
    O8       O        0.57618    0.71291    0.16490    1.000
    C16      C        0.88100    0.79630    0.36940    1.000
    C17      C        0.92350    0.67320    0.31270    1.000
    H12      H        0.91410    0.52140    0.57600    1.000
    H13      H        0.86000    0.57520    0.61800    1.000
    C18      C        0.81720    0.56820    0.44830    1.000
    C19      C        0.81960    0.51127    0.36090    1.000
    C20      C        0.83270    0.81640    0.25210    1.000
    H14      H        0.88190    0.83370    0.42870    1.000
    C21      C        0.87680    0.68950    0.19480    1.000
    H15      H        0.95470    0.62340    0.33250    1.000
    C22      C        0.75190    0.62920    0.42000    1.000
    C23      C        0.75750    0.52020    0.24530    1.000
    H16      H        0.80160    0.86640    0.23410    1.000
    C24      C        0.83060    0.76260    0.16200    1.000
    H17      H        0.87650    0.65090    0.13720    1.000
    C25      C        0.69040    0.63650    0.30470    1.000
    H18      H        0.74930    0.66550    0.47860    1.000
    C26      C        0.69380    0.58150    0.21680    1.000
    H19      H        0.75930    0.48380    0.18640    1.000
    C27      C        0.78020    0.78190    0.03200    1.000
    C28      C        0.62160    0.70490    0.27360    1.000
    H20      H        0.65340    0.58620    0.13960    1.000
    H21      H        0.74790    0.83350    0.02670    1.000
    H22      H        0.82210    0.79120    0.99340    1.000
    Cd3      Cd       0.51191    0.18060    0.90821    1.000
    N5       N        0.57359    0.22520    0.10000    1.000
    N6       N        0.61496    0.07038    0.93670    1.000
    O9       O        0.57105    0.92090    0.00888    1.000
    O10      O        0.59741    0.91175    0.19930    1.000
    C29      C        0.61240    0.94387    0.11380    1.000
    O11      O        0.88395    0.24859    0.14350    1.000
    O12      O        0.92382    0.21291    0.33510    1.000
    C30      C        0.61900    0.29630    0.13060    1.000
    C31      C        0.57650    0.17320    0.18730    1.000
    H23      H        0.58590    0.02140    0.92400    1.000
    H24      H        0.64000    0.07520    0.88200    1.000
    C32      C        0.68280    0.06820    0.05170    1.000
    C33      C        0.68040    0.01127    0.13910    1.000
    C34      C        0.66730    0.31640    0.24790    1.000
    H25      H        0.61810    0.33370    0.07130    1.000
    C35      C        0.62320    0.18950    0.30520    1.000
    H26      H        0.54530    0.12340    0.16750    1.000
    C36      C        0.74810    0.12920    0.08000    1.000
    C37      C        0.74250    0.02020    0.25470    1.000
    H27      H        0.69840    0.36640    0.26590    1.000
    C38      C        0.66940    0.26260    0.33800    1.000
    H28      H        0.62350    0.15090    0.36280    1.000
    C39      C        0.80960    0.13650    0.19530    1.000
    H29      H        0.75070    0.16550    0.02140    1.000
    C40      C        0.80620    0.08150    0.28320    1.000
    H30      H        0.74070    0.98380    0.31360    1.000
    C41      C        0.71980    0.28190    0.46800    1.000
    C42      C        0.87840    0.20490    0.22640    1.000
    H31      H        0.84660    0.08620    0.36040    1.000
    H32      H        0.75210    0.33350    0.47330    1.000
    H33      H        0.67790    0.29120    0.50660    1.000
    Cd4      Cd       0.01191    0.68060    0.90821    1.000
    N7       N        0.07359    0.72520    0.10000    1.000
    N8       N        0.11496    0.57038    0.93670    1.000
    O13      O        0.07105    0.42090    0.00888    1.000
    O14      O        0.09741    0.41175    0.19930    1.000
    C43      C        0.11240    0.44387    0.11380    1.000
    O15      O        0.38395    0.74859    0.14350    1.000
    O16      O        0.42382    0.71291    0.33510    1.000
    C44      C        0.11900    0.79630    0.13060    1.000
    C45      C        0.07650    0.67320    0.18730    1.000
    H34      H        0.08590    0.52140    0.92400    1.000
    H35      H        0.14000    0.57520    0.88200    1.000
    C46      C        0.18280    0.56820    0.05170    1.000
    C47      C        0.18040    0.51127    0.13910    1.000
    C48      C        0.16730    0.81640    0.24790    1.000
    H36      H        0.11810    0.83370    0.07130    1.000
    C49      C        0.12320    0.68950    0.30520    1.000
    H37      H        0.04530    0.62340    0.16750    1.000
    C50      C        0.24810    0.62920    0.08000    1.000
    C51      C        0.24250    0.52020    0.25470    1.000
    H38      H        0.19840    0.86640    0.26590    1.000
    C52      C        0.16940    0.76260    0.33800    1.000
    H39      H        0.12350    0.65090    0.36280    1.000
    C53      C        0.30960    0.63650    0.19530    1.000
    H40      H        0.25070    0.66550    0.02140    1.000
    C54      C        0.30620    0.58150    0.28320    1.000
    H41      H        0.24070    0.48380    0.31360    1.000
    C55      C        0.21980    0.78190    0.46800    1.000
    C56      C        0.37840    0.70490    0.22640    1.000
    H42      H        0.34660    0.58620    0.36040    1.000
    H43      H        0.25210    0.83350    0.47330    1.000
    H44      H        0.17790    0.79120    0.50660    1.000
    Cd5      Cd       0.51191    0.81940    0.40821    1.000
    N9       N        0.57359    0.77480    0.60000    1.000
    N10      N        0.61496    0.92962    0.43670    1.000
    O17      O        0.57105    0.07910    0.50888    1.000
    O18      O        0.59741    0.08825    0.69930    1.000
    C57      C        0.61240    0.05613    0.61380    1.000
    O19      O        0.88395    0.75141    0.64350    1.000
    O20      O        0.92382    0.78709    0.83510    1.000
    C58      C        0.61900    0.70370    0.63060    1.000
    C59      C        0.57650    0.82680    0.68730    1.000
    H45      H        0.58590    0.97860    0.42400    1.000
    H46      H        0.64000    0.92480    0.38200    1.000
    C60      C        0.68280    0.93180    0.55170    1.000
    C61      C        0.68040    0.98873    0.63910    1.000
    C62      C        0.66730    0.68360    0.74790    1.000
    H47      H        0.61810    0.66630    0.57130    1.000
    C63      C        0.62320    0.81050    0.80520    1.000
    H48      H        0.54530    0.87660    0.66750    1.000
    C64      C        0.74810    0.87080    0.58000    1.000
    C65      C        0.74250    0.97980    0.75470    1.000
    H49      H        0.69840    0.63360    0.76590    1.000
    C66      C        0.66940    0.73740    0.83800    1.000
    H50      H        0.62350    0.84910    0.86280    1.000
    C67      C        0.80960    0.86350    0.69530    1.000
    H51      H        0.75070    0.83450    0.52140    1.000
    C68      C        0.80620    0.91850    0.78320    1.000
    H52      H        0.74070    0.01620    0.81360    1.000
    C69      C        0.71980    0.71810    0.96800    1.000
    C70      C        0.87840    0.79510    0.72640    1.000
    H53      H        0.84660    0.91380    0.86040    1.000
    H54      H        0.75210    0.66650    0.97330    1.000
    H55      H        0.67790    0.70880    0.00660    1.000
    Cd6      Cd       0.01191    0.31940    0.40821    1.000
    N11      N        0.07359    0.27480    0.60000    1.000
    N12      N        0.11496    0.42962    0.43670    1.000
    O21      O        0.07105    0.57910    0.50888    1.000
    O22      O        0.09741    0.58825    0.69930    1.000
    C71      C        0.11240    0.55613    0.61380    1.000
    O23      O        0.38395    0.25141    0.64350    1.000
    O24      O        0.42382    0.28709    0.83510    1.000
    C72      C        0.11900    0.20370    0.63060    1.000
    C73      C        0.07650    0.32680    0.68730    1.000
    H56      H        0.08590    0.47860    0.42400    1.000
    H57      H        0.14000    0.42480    0.38200    1.000
    C74      C        0.18280    0.43180    0.55170    1.000
    C75      C        0.18040    0.48873    0.63910    1.000
    C76      C        0.16730    0.18360    0.74790    1.000
    H58      H        0.11810    0.16630    0.57130    1.000
    C77      C        0.12320    0.31050    0.80520    1.000
    H59      H        0.04530    0.37660    0.66750    1.000
    C78      C        0.24810    0.37080    0.58000    1.000
    C79      C        0.24250    0.47980    0.75470    1.000
    H60      H        0.19840    0.13360    0.76590    1.000
    C80      C        0.16940    0.23740    0.83800    1.000
    H61      H        0.12350    0.34910    0.86280    1.000
    C81      C        0.30960    0.36350    0.69530    1.000
    H62      H        0.25070    0.33450    0.52140    1.000
    C82      C        0.30620    0.41850    0.78320    1.000
    H63      H        0.24070    0.51620    0.81360    1.000
    C83      C        0.21980    0.21810    0.96800    1.000
    C84      C        0.37840    0.29510    0.72640    1.000
    H64      H        0.34660    0.41380    0.86040    1.000
    H65      H        0.25210    0.16650    0.97330    1.000
    H66      H        0.17790    0.20880    0.00660    1.000
    Cd7      Cd       0.48809    0.81940    0.09179    1.000
    N13      N        0.42641    0.77480    0.90000    1.000
    N14      N        0.38504    0.92962    0.06330    1.000
    O25      O        0.42895    0.07910    0.99112    1.000
    O26      O        0.40259    0.08825    0.80070    1.000
    C85      C        0.38760    0.05613    0.88620    1.000
    O27      O        0.11605    0.75141    0.85650    1.000
    O28      O        0.07618    0.78709    0.66490    1.000
    C86      C        0.38100    0.70370    0.86940    1.000
    C87      C        0.42350    0.82680    0.81270    1.000
    H67      H        0.41410    0.97860    0.07600    1.000
    H68      H        0.36000    0.92480    0.11800    1.000
    C88      C        0.31720    0.93180    0.94830    1.000
    C89      C        0.31960    0.98873    0.86090    1.000
    C90      C        0.33270    0.68360    0.75210    1.000
    H69      H        0.38190    0.66630    0.92870    1.000
    C91      C        0.37680    0.81050    0.69480    1.000
    H70      H        0.45470    0.87660    0.83250    1.000
    C92      C        0.25190    0.87080    0.92000    1.000
    C93      C        0.25750    0.97980    0.74530    1.000
    H71      H        0.30160    0.63360    0.73410    1.000
    C94      C        0.33060    0.73740    0.66200    1.000
    H72      H        0.37650    0.84910    0.63720    1.000
    C95      C        0.19040    0.86350    0.80470    1.000
    H73      H        0.24930    0.83450    0.97860    1.000
    C96      C        0.19380    0.91850    0.71680    1.000
    H74      H        0.25930    0.01620    0.68640    1.000
    C97      C        0.28020    0.71810    0.53200    1.000
    C98      C        0.12160    0.79510    0.77360    1.000
    H75      H        0.15340    0.91380    0.63960    1.000
    H76      H        0.24790    0.66650    0.52670    1.000
    H77      H        0.32210    0.70880    0.49340    1.000
    Cd8      Cd       0.98809    0.31940    0.09179    1.000
    N15      N        0.92641    0.27480    0.90000    1.000
    N16      N        0.88504    0.42962    0.06330    1.000
    O29      O        0.92895    0.57910    0.99112    1.000
    O30      O        0.90259    0.58825    0.80070    1.000
    C99      C        0.88760    0.55613    0.88620    1.000
    O31      O        0.61605    0.25141    0.85650    1.000
    O32      O        0.57618    0.28709    0.66490    1.000
    C100     C        0.88100    0.20370    0.86940    1.000
    C101     C        0.92350    0.32680    0.81270    1.000
    H78      H        0.91410    0.47860    0.07600    1.000
    H79      H        0.86000    0.42480    0.11800    1.000
    C102     C        0.81720    0.43180    0.94830    1.000
    C103     C        0.81960    0.48873    0.86090    1.000
    C104     C        0.83270    0.18360    0.75210    1.000
    H80      H        0.88190    0.16630    0.92870    1.000
    C105     C        0.87680    0.31050    0.69480    1.000
    H81      H        0.95470    0.37660    0.83250    1.000
    C106     C        0.75190    0.37080    0.92000    1.000
    C107     C        0.75750    0.47980    0.74530    1.000
    H82      H        0.80160    0.13360    0.73410    1.000
    C108     C        0.83060    0.23740    0.66200    1.000
    H83      H        0.87650    0.34910    0.63720    1.000
    C109     C        0.69040    0.36350    0.80470    1.000
    H84      H        0.74930    0.33450    0.97860    1.000
    C110     C        0.69380    0.41850    0.71680    1.000
    H85      H        0.75930    0.51620    0.68640    1.000
    C111     C        0.78020    0.21810    0.53200    1.000
    C112     C        0.62160    0.29510    0.77360    1.000
    H86      H        0.65340    0.41380    0.63960    1.000
    H87      H        0.74790    0.16650    0.52670    1.000
    H88      H        0.82210    0.20880    0.49340    1.000
