data_functionalizedCrystal
_audit_creation_method	'EQeq! by Chris Wilmer'
_symmetry_space_group_name_H-M	'P1'
_symmetry_Int_Tables_number	1
_symmetry_cell_setting	triclinic
loop_
_symmetry_equiv_pos_as_xyz
  x,y,z
_cell_length_a	12.924
_cell_length_b	13.137
_cell_length_c	16.6
_cell_angle_alpha	85.575
_cell_angle_beta	85.426
_cell_angle_gamma	80.098
loop_
_atom_site_label
_atom_site_type_symbol
_atom_site_fract_x
_atom_site_fract_y
_atom_site_fract_z
_atom_site_charge
Mof_Pt	Pt	0.99736	0.77381	0.9882	0.348
Mof_Cu	Cu	0.45746	0.23485	0.48986	0.829
Mof_Na	Na	0.60712	0.39808	0.49322	2.582
Mof_C 	C 	0.9493	0.848	0.1593	0.119
Mof_C 	C 	0.8771	0.9341	0.1355	-0.15
Mof_C 	C 	0.8542	0.9623	0.0557	0.168
Mof_C 	C 	0.783	0.0516	0.0289	-0.134
Mof_H 	H 	0.7496	0.1057	0.0616	0.068
Mof_C 	C 	0.7709	0.0467	0.9496	-0.12
Mof_H 	H 	0.7271	0.0955	0.9165	0.064
Mof_C 	C 	0.8371	0.9535	0.9245	0.163
Mof_C 	C 	0.8397	0.9148	0.8483	-0.147
Mof_C 	C 	0.9045	0.8239	0.8234	0.111
Mof_C 	C 	0.9133	0.7885	0.7431	-0.082
Mof_H 	H 	0.8725	0.8183	0.6995	0.051
Mof_C 	C 	0.9905	0.7049	0.7413	-0.089
Mof_H 	H 	0.0142	0.6649	0.6961	0.056
Mof_C 	C 	0.0299	0.688	0.8207	0.107
Mof_C 	C 	0.1143	0.6109	0.842	-0.129
Mof_C 	C 	0.1532	0.5958	0.9183	0.106
Mof_C 	C 	0.2408	0.5172	0.9411	-0.076
Mof_H 	H 	0.2827	0.47	0.9063	0.057
Mof_C 	C 	0.2524	0.5229	0.02	-0.086
Mof_H 	H 	0.3042	0.4812	0.0512	0.06
Mof_C 	C 	0.1712	0.6047	0.0485	0.114
Mof_C 	C 	0.1556	0.6326	0.1287	-0.137
Mof_C 	C 	0.0777	0.7133	0.1554	0.107
Mof_C 	C 	0.0551	0.7371	0.239	-0.082
Mof_H 	H 	0.0896	0.7017	0.284	0.055
Mof_C 	C 	0.9761	0.8185	0.2417	-0.089
Mof_H 	H 	0.9441	0.8506	0.2889	0.065
Mof_N 	N 	0.0121	0.7811	0.1069	-0.171
Mof_N 	N 	0.889	0.9042	0.9898	-0.182
Mof_N 	N 	0.9768	0.7605	0.8709	-0.175
Mof_N 	N 	0.1124	0.6487	0.9861	-0.172
Mof_C 	C 	0.8165	0.9968	0.2002	0.182
Mof_C 	C 	0.7413	0.9545	0.252	-0.12
Mof_H 	H 	0.7323	0.885	0.2474	0.078
Mof_C 	C 	0.6806	0.0122	0.3091	0.01
Mof_H 	H 	0.6283	0.9828	0.342	-0.018
Mof_C 	C 	0.694	0.1134	0.32	-0.246
Mof_C 	C 	0.7707	0.1551	0.2705	0.145
Mof_H 	H 	0.7818	0.2235	0.2772	-0.021
Mof_C 	C 	0.8312	0.0974	0.2115	-0.263
Mof_H 	H 	0.8832	0.1269	0.1784	0.114
Mof_C 	C 	0.624	0.1802	0.3802	0.551
Mof_C 	C 	0.7714	0.9774	0.7859	0.192
Mof_C 	C 	0.7932	0.073	0.758	-0.286
Mof_H 	H 	0.8487	0.0988	0.7796	0.12
Mof_C 	C 	0.7355	0.1332	0.6983	0.163
Mof_H 	H 	0.7538	0.1979	0.6782	-0.038
Mof_C 	C 	0.6518	0.0984	0.6686	-0.271
Mof_C 	C 	0.6289	0.0017	0.6966	-0.001
Mof_H 	H 	0.5721	0.9767	0.6761	-0.007
Mof_C 	C 	0.6892	0.9404	0.7552	-0.133
Mof_H 	H 	0.6736	0.8741	0.7736	0.074
Mof_C 	C 	0.5908	0.1675	0.6053	0.582
Mof_C 	C 	0.1636	0.5379	0.7785	0.136
Mof_C 	C 	0.2621	0.5449	0.7398	-0.203
Mof_H 	H 	0.2997	0.5968	0.7532	0.088
Mof_C 	C 	0.3056	0.4759	0.6815	0.114
Mof_H 	H 	0.3723	0.4815	0.6547	-0.123
Mof_C 	C 	0.2516	0.3988	0.6626	-0.222
Mof_C 	C 	0.1544	0.3921	0.7015	0.107
Mof_H 	H 	0.1169	0.3401	0.6885	0.001
Mof_C 	C 	0.1106	0.4608	0.7597	-0.192
Mof_H 	H 	0.044	0.4547	0.7866	0.096
Mof_C 	C 	0.2988	0.3192	0.603	0.409
Mof_C 	C 	0.2243	0.5731	0.1906	0.155
Mof_C 	C 	0.2136	0.4712	0.2173	-0.223
Mof_H 	H 	0.1656	0.4375	0.1931	0.105
Mof_C 	C 	0.272	0.4198	0.2781	0.153
Mof_H 	H 	0.2636	0.351	0.2959	-0.025
Mof_C 	C 	0.3439	0.4678	0.3143	-0.283
Mof_C 	C 	0.3573	0.5673	0.2865	0.157
Mof_H 	H 	0.4065	0.6005	0.3098	-0.067
Mof_C 	C 	0.2983	0.6184	0.2242	-0.223
Mof_H 	H 	0.3092	0.6858	0.2043	0.103
Mof_C 	C 	0.4045	0.4129	0.3836	0.548
Mof_O 	O 	0.5464	0.1412	0.4157	-0.798
Mof_O 	O 	0.6436	0.2673	0.391	-0.66
Mof_O 	O 	0.6175	0.2508	0.582	-0.751
Mof_O 	O 	0.5121	0.1341	0.5799	-0.809
Mof_O 	O 	0.3849	0.3325	0.5663	-0.557
Mof_O 	O 	0.2499	0.2476	0.5942	-0.368
Mof_O 	O 	0.3955	0.3183	0.399	-0.516
Mof_O 	O 	0.4577	0.4626	0.4211	-0.991
Mof_N 	N 	0.2057	0.6041	0.5025	-0.369
Mof_C 	C 	0.1479	0.6964	0.5246	0.038
Mof_H 	H 	0.1802	0.7382	0.5559	-0.037
Mof_C 	C 	0.046	0.7327	0.5046	-0.104
Mof_H 	H 	0.0101	0.7984	0.52	0.052
Mof_C 	C 	0.9976	0.6702	0.4613	0.021
Mof_H 	H 	0.9271	0.6917	0.4469	0.027
Mof_C 	C 	0.055	0.574	0.4388	-0.141
Mof_H 	H 	0.0252	0.53	0.4077	0.072
Mof_C 	C 	0.1567	0.5462	0.4639	0.116
Mof_H 	H 	0.1935	0.4796	0.4518	-0.058
Mof_Pt	Pt	0.00264	0.22619	0.0118	0.332
Mof_Cu	Cu	0.54254	0.76515	0.51014	0.831
Mof_Na	Na	0.39288	0.60192	0.50678	2.599
Mof_C 	C 	0.0507	0.152	0.8407	0.103
Mof_C 	C 	0.1229	0.0659	0.8645	-0.137
Mof_C 	C 	0.1458	0.0377	0.9443	0.066
Mof_C 	C 	0.217	0.9484	0.9711	-0.039
Mof_H 	H 	0.2504	0.8943	0.9384	0.053
Mof_C 	C 	0.2291	0.9533	0.0504	-0.036
Mof_H 	H 	0.2729	0.9045	0.0835	0.053
Mof_C 	C 	0.1629	0.0465	0.0755	0.062
Mof_C 	C 	0.1603	0.0852	0.1517	-0.131
Mof_C 	C 	0.0955	0.1761	0.1766	0.096
Mof_C 	C 	0.0867	0.2115	0.2569	-0.079
Mof_H 	H 	0.1275	0.1817	0.3005	0.041
Mof_C 	C 	0.0095	0.2951	0.2587	-0.091
Mof_H 	H 	0.9858	0.3351	0.3039	0.055
Mof_C 	C 	0.9701	0.312	0.1793	0.105
Mof_C 	C 	0.8857	0.3891	0.158	-0.129
Mof_C 	C 	0.8468	0.4042	0.0817	0.106
Mof_C 	C 	0.7592	0.4828	0.0589	-0.079
Mof_H 	H 	0.7173	0.53	0.0937	0.059
Mof_C 	C 	0.7476	0.4771	0.98	-0.084
Mof_H 	H 	0.6958	0.5188	0.9488	0.061
Mof_C 	C 	0.8288	0.3953	0.9515	0.114
Mof_C 	C 	0.8444	0.3674	0.8713	-0.137
Mof_C 	C 	0.9223	0.2867	0.8446	0.106
Mof_C 	C 	0.9449	0.2629	0.761	-0.087
Mof_H 	H 	0.9104	0.2983	0.716	0.055
Mof_C 	C 	0.0239	0.1815	0.7583	-0.085
Mof_H 	H 	0.0559	0.1494	0.7111	0.053
Mof_N 	N 	0.9879	0.2189	0.8931	-0.169
Mof_N 	N 	0.111	0.0958	0.0102	-0.162
Mof_N 	N 	0.0232	0.2395	0.1291	-0.172
Mof_N 	N 	0.8876	0.3513	0.0139	-0.172
Mof_C 	C 	0.1835	0.0032	0.7998	0.166
Mof_C 	C 	0.2587	0.0455	0.748	-0.393
Mof_H 	H 	0.2677	0.115	0.7526	0.161
Mof_C 	C 	0.3194	0.9878	0.6909	0.414
Mof_H 	H 	0.3717	0.0172	0.658	-0.219
Mof_C 	C 	0.306	0.8866	0.68	-0.379
Mof_C 	C 	0.2293	0.8449	0.7295	0.206
Mof_H 	H 	0.2182	0.7765	0.7228	-0.038
Mof_C 	C 	0.1688	0.9026	0.7885	-0.213
Mof_H 	H 	0.1168	0.8731	0.8216	0.112
Mof_C 	C 	0.376	0.8198	0.6198	0.606
Mof_C 	C 	0.2286	0.0226	0.2141	0.162
Mof_C 	C 	0.2068	0.927	0.242	-0.223
Mof_H 	H 	0.1513	0.9012	0.2204	0.116
Mof_C 	C 	0.2645	0.8668	0.3017	0.216
Mof_H 	H 	0.2462	0.8021	0.3218	-0.052
Mof_C 	C 	0.3482	0.9016	0.3314	-0.394
Mof_C 	C 	0.3711	0.9983	0.3034	0.373
Mof_H 	H 	0.4279	0.0233	0.3239	-0.198
Mof_C 	C 	0.3108	0.0596	0.2448	-0.371
Mof_H 	H 	0.3264	0.1259	0.2264	0.144
Mof_C 	C 	0.4092	0.8325	0.3947	0.637
Mof_C 	C 	0.8364	0.4621	0.2215	0.135
Mof_C 	C 	0.7379	0.4551	0.2602	-0.202
Mof_H 	H 	0.7003	0.4032	0.2468	0.086
Mof_C 	C 	0.6944	0.5241	0.3185	0.113
Mof_H 	H 	0.6277	0.5185	0.3453	-0.122
Mof_C 	C 	0.7484	0.6012	0.3374	-0.219
Mof_C 	C 	0.8456	0.6079	0.2985	0.106
Mof_H 	H 	0.8831	0.6599	0.3115	0.002
Mof_C 	C 	0.8894	0.5392	0.2403	-0.191
Mof_H 	H 	0.956	0.5453	0.2134	0.095
Mof_C 	C 	0.7012	0.6808	0.397	0.408
Mof_C 	C 	0.7757	0.4269	0.8094	0.154
Mof_C 	C 	0.7864	0.5288	0.7827	-0.221
Mof_H 	H 	0.8344	0.5625	0.8069	0.104
Mof_C 	C 	0.728	0.5802	0.7219	0.152
Mof_H 	H 	0.7364	0.649	0.7041	-0.021
Mof_C 	C 	0.6561	0.5322	0.6857	-0.28
Mof_C 	C 	0.6427	0.4327	0.7135	0.155
Mof_H 	H 	0.5935	0.3995	0.6902	-0.068
Mof_C 	C 	0.7017	0.3816	0.7758	-0.222
Mof_H 	H 	0.6908	0.3142	0.7957	0.1
Mof_C 	C 	0.5955	0.5871	0.6164	0.546
Mof_O 	O 	0.4536	0.8588	0.5843	-0.792
Mof_O 	O 	0.3564	0.7327	0.609	-0.673
Mof_O 	O 	0.3825	0.7492	0.418	-0.764
Mof_O 	O 	0.4879	0.8659	0.4201	-0.804
Mof_O 	O 	0.6151	0.6675	0.4337	-0.556
Mof_O 	O 	0.7501	0.7524	0.4058	-0.357
Mof_O 	O 	0.6045	0.6817	0.601	-0.512
Mof_O 	O 	0.5423	0.5374	0.5789	-0.991
Mof_N 	N 	0.7943	0.3959	0.4975	-0.368
Mof_C 	C 	0.8521	0.3036	0.4754	0.035
Mof_H 	H 	0.8198	0.2618	0.4441	-0.042
Mof_C 	C 	0.954	0.2673	0.4954	-0.105
Mof_H 	H 	0.9899	0.2016	0.48	0.04
Mof_C 	C 	0.0024	0.3298	0.5387	0.019
Mof_H 	H 	0.0729	0.3083	0.5531	0.024
Mof_C 	C 	0.945	0.426	0.5612	-0.141
Mof_H 	H 	0.9748	0.47	0.5923	0.072
Mof_C 	C 	0.8433	0.4538	0.5361	0.115
Mof_H 	H 	0.8065	0.5204	0.5482	-0.056
Mof_Na	Na	0.5	-5.14554e-18	0.5	2.458
_end
