data_functionalizedCrystal
_audit_creation_method	'EQeq! by Chris Wilmer'
_symmetry_space_group_name_H-M	'P1'
_symmetry_Int_Tables_number	1
_symmetry_cell_setting	triclinic
loop_
_symmetry_equiv_pos_as_xyz
  x,y,z
_cell_length_a	8.5897
_cell_length_b	17.4446
_cell_length_c	17.4446
_cell_angle_alpha	120
_cell_angle_beta	90
_cell_angle_gamma	90
loop_
_atom_site_label
_atom_site_type_symbol
_atom_site_fract_x
_atom_site_fract_y
_atom_site_fract_z
_atom_site_charge
Mof_Mg	Mg	0.66667	0	0.53516	1.454
Mof_Mg	Mg	0.33333	0.46484	0.46484	1.461
Mof_Mg	Mg	-1.11512e-32	0.53516	-0	1.452
Mof_H 	H 	0.54313	0.8789	0.6897	0.075
Mof_H 	H 	0.53257	0.0423	0.243	-0.011
Mof_H 	H 	0.87647	0.8108	0.1211	0.04
Mof_H 	H 	0.868	0.546	0.128	0.194
Mof_H 	H 	0.1341	0.243	0.0423	-0.053
Mof_H 	H 	0.46533	0.454	0.582	0.18
Mof_H 	H 	0.32503	0.4628	0.696	0.101
Mof_H 	H 	0.79867	0.128	0.546	0.184
Mof_H 	H 	0.45687	0.1892	0.3103	0.061
Mof_H 	H 	0.9917	0.304	0.7668	0.063
Mof_H 	H 	0.0083	0.5372	0.2332	0.144
Mof_H 	H 	0.19923	0.757	0.7993	0.052
Mof_H 	H 	0.7902	0.1211	0.8108	0.005
Mof_H 	H 	0.80077	0.9577	0.2007	0.089
Mof_H 	H 	0.53467	0.872	0.418	0.176
Mof_H 	H 	0.67497	0.7668	0.304	0.092
Mof_H 	H 	0.46743	0.7993	0.757	0.057
Mof_H 	H 	0.2098	0.3103	0.1892	0.09
Mof_H 	H 	0.65837	0.2332	0.5372	0.116
Mof_H 	H 	0.132	0.418	0.872	0.166
Mof_H 	H 	0.8659	0.2007	0.9577	0.122
Mof_H 	H 	0.12353	0.6897	0.8789	0.065
Mof_H 	H 	0.20133	0.582	0.454	0.178
Mof_H 	H 	0.34163	0.696	0.4628	0.102
Mof_C 	C 	0.976	0.3013	0.9535	0.237
Mof_C 	C 	0.024	0.3478	0.0465	-0.343
Mof_C 	C 	0.64267	0.0465	0.3478	-0.177
Mof_C 	C 	0.0343	0.47699	0.19388	-0.334
Mof_C 	C 	0.154	0.3434	0.1685	-0.191
Mof_C 	C 	0.8923	0.2226	0.9193	-0.2
Mof_C 	C 	0.50283	0.8446	0.52509	0.333
Mof_C 	C 	0.83617	0.68049	0.1554	0.351
Mof_C 	C 	0.1695	0.47491	0.31951	0.295
Mof_C 	C 	0.36763	0.71689	0.52301	-0.16
Mof_C 	C 	0.1077	0.3033	0.0807	0.143
Mof_C 	C 	0.29903	0.52301	0.71689	-0.157
Mof_C 	C 	0.34633	0.56297	0.66951	0.195
Mof_C 	C 	0.846	0.1749	0.8315	0.095
Mof_C 	C 	0.54727	0.22496	0.4302	0.004
Mof_C 	C 	0.78607	0.77504	0.20524	-0.058
Mof_C 	C 	0.82067	0.8315	0.1749	0.01
Mof_C 	C 	0.70097	0.80612	0.28311	-0.116
Mof_C 	C 	0.63237	0.19388	0.47699	-0.199
Mof_C 	C 	0.987	0.43703	0.10654	0.395
Mof_C 	C 	0.77437	0.9193	0.2226	-0.096
Mof_C 	C 	0.51267	0.1685	0.3434	-0.099
Mof_C 	C 	0.21393	0.5698	0.79476	-0.022
Mof_C 	C 	0.55897	0.0807	0.3033	0.037
Mof_C 	C 	0.9657	0.28311	0.80612	0.003
Mof_C 	C 	0.8305	0.1554	0.68049	0.379
Mof_C 	C 	0.69067	0.9535	0.3013	0.083
Mof_C 	C 	0.32033	0.66951	0.56297	0.196
Mof_C 	C 	0.013	0.33049	0.89346	0.009
Mof_C 	C 	0.49717	0.31951	0.47491	0.324
Mof_C 	C 	0.35733	0.6987	0.6522	-0.045
Mof_C 	C 	0.17933	0.6566	0.8251	-0.041
Mof_C 	C 	0.48733	0.8251	0.6566	-0.044
Mof_C 	C 	0.65367	0.89346	0.33049	0.149
Mof_C 	C 	0.1194	0.4302	0.22496	0.077
Mof_C 	C 	0.67967	0.10654	0.43703	0.239
Mof_C 	C 	0.22563	0.6967	0.7774	-0.027
Mof_C 	C 	0.44103	0.7774	0.6967	-0.021
Mof_C 	C 	0.16383	0.52509	0.8446	0.335
Mof_C 	C 	0.8806	0.20524	0.77504	-0.132
Mof_C 	C 	0.45273	0.79476	0.5698	-0.015
Mof_C 	C 	0.30933	0.6522	0.6987	-0.043
Mof_O 	O 	0.23543	0.5926	0.51598	-0.507
Mof_O 	O 	0.8622	0.18851	0.63155	-0.33
Mof_O 	O 	0.9021	0.48402	0.07662	-0.563
Mof_O 	O 	0.43123	0.51598	0.5926	-0.501
Mof_O 	O 	0.0979	0.4074	0.92338	-0.442
Mof_O 	O 	0.76457	0.07662	0.48402	-0.538
Mof_O 	O 	0.7592	0.08431	0.6545	-0.547
Mof_O 	O 	0.2408	0.42981	0.3455	-0.514
Mof_O 	O 	0.56877	0.92338	0.4074	-0.466
Mof_O 	O 	0.09253	0.57019	0.91569	-0.501
Mof_O 	O 	0.19553	0.44304	0.81149	-0.317
Mof_O 	O 	0.90747	0.6545	0.08431	-0.524
Mof_O 	O 	0.47113	0.81149	0.44304	-0.314
Mof_O 	O 	0.42587	0.3455	0.42981	-0.52
Mof_O 	O 	0.52887	0.36845	0.55696	-0.315
Mof_O 	O 	0.57413	0.91569	0.57019	-0.484
Mof_O 	O 	0.1378	0.55696	0.36845	-0.317
Mof_O 	O 	0.80447	0.63155	0.18851	-0.324
_end
