data_functionalizedCrystal
_audit_creation_method	'EQeq! by Chris Wilmer'
_symmetry_space_group_name_H-M	'P1'
_symmetry_Int_Tables_number	1
_symmetry_cell_setting	triclinic
loop_
_symmetry_equiv_pos_as_xyz
  x,y,z
_cell_length_a	13.636
_cell_length_b	13.636
_cell_length_c	14.9222
_cell_angle_alpha	90
_cell_angle_beta	90
_cell_angle_gamma	120
loop_
_atom_site_label
_atom_site_type_symbol
_atom_site_fract_x
_atom_site_fract_y
_atom_site_fract_z
_atom_site_charge
Mof_O 	O 	0.8856	0.3978	0.6469	-0.716
Mof_O 	O 	0.7718	0.2087	0.6515	-0.73
Mof_C 	C 	0.9288	0.2819	0.5577	-0.268
Mof_C 	C 	0.8547	0.2968	0.6243	0.603
Mof_C 	C 	0.9332	0.1829	0.5549	0.181
Mof_H 	H 	0.8866	0.1247	0.5937	-0.058
Mof_O 	O 	0.6022	0.4878	0.6469	-0.722
Mof_O 	O 	0.7913	0.5631	0.6515	-0.727
Mof_C 	C 	0.7181	0.6469	0.5577	-0.293
Mof_C 	C 	0.7032	0.5579	0.6243	0.609
Mof_C 	C 	0.8171	0.7503	0.5549	0.165
Mof_H 	H 	0.8753	0.7619	0.5937	-0.042
Mof_O 	O 	0.5122	0.1144	0.6469	-0.724
Mof_O 	O 	0.4369	0.2282	0.6515	-0.73
Mof_C 	C 	0.3531	0.0712	0.5577	-0.288
Mof_C 	C 	0.4421	0.1453	0.6243	0.603
Mof_C 	C 	0.2497	0.0668	0.5549	0.151
Mof_H 	H 	0.2381	0.1134	0.5937	-0.053
Mof_O 	O 	0.8856	0.3978	0.8531	-0.714
Mof_O 	O 	0.7718	0.2087	0.8485	-0.728
Mof_C 	C 	0.9288	0.2819	0.9423	-0.265
Mof_C 	C 	0.8547	0.2968	0.8757	0.602
Mof_C 	C 	0.9332	0.1829	0.9451	0.183
Mof_H 	H 	0.8866	0.1247	0.9063	-0.058
Mof_O 	O 	0.6022	0.4878	0.8531	-0.721
Mof_O 	O 	0.7913	0.5631	0.8485	-0.726
Mof_C 	C 	0.7181	0.6469	0.9423	-0.289
Mof_C 	C 	0.7032	0.5579	0.8757	0.609
Mof_C 	C 	0.8171	0.7503	0.9451	0.166
Mof_H 	H 	0.8753	0.7619	0.9063	-0.042
Mof_O 	O 	0.5122	0.1144	0.8531	-0.723
Mof_O 	O 	0.4369	0.2282	0.8485	-0.729
Mof_C 	C 	0.3531	0.0712	0.9423	-0.283
Mof_C 	C 	0.4421	0.1453	0.8757	0.602
Mof_C 	C 	0.2497	0.0668	0.9451	0.154
Mof_H 	H 	0.2381	0.1134	0.9063	-0.053
Mof_O 	O 	0.3978	0.8856	0.3531	-0.715
Mof_O 	O 	0.2087	0.7718	0.3485	-0.728
Mof_C 	C 	0.2819	0.9288	0.4423	-0.267
Mof_C 	C 	0.2968	0.8547	0.3757	0.603
Mof_C 	C 	0.1829	0.9332	0.4451	0.182
Mof_H 	H 	0.1247	0.8866	0.4063	-0.058
Mof_O 	O 	0.4878	0.6022	0.3531	-0.722
Mof_O 	O 	0.5631	0.7913	0.3485	-0.727
Mof_C 	C 	0.6469	0.7181	0.4423	-0.293
Mof_C 	C 	0.5579	0.7032	0.3757	0.609
Mof_C 	C 	0.7503	0.8171	0.4451	0.165
Mof_H 	H 	0.7619	0.8753	0.4063	-0.042
Mof_O 	O 	0.1144	0.5122	0.3531	-0.724
Mof_O 	O 	0.2282	0.4369	0.3485	-0.73
Mof_C 	C 	0.0712	0.3531	0.4423	-0.288
Mof_C 	C 	0.1453	0.4421	0.3757	0.603
Mof_C 	C 	0.0668	0.2497	0.4451	0.151
Mof_H 	H 	0.1134	0.2381	0.4063	-0.054
Mof_O 	O 	0.3978	0.8856	0.1469	-0.715
Mof_O 	O 	0.2087	0.7718	0.1515	-0.728
Mof_C 	C 	0.2819	0.9288	0.0577	-0.266
Mof_C 	C 	0.2968	0.8547	0.1243	0.602
Mof_C 	C 	0.1829	0.9332	0.0549	0.18
Mof_H 	H 	0.1247	0.8866	0.0937	-0.058
Mof_O 	O 	0.4878	0.6022	0.1469	-0.722
Mof_O 	O 	0.5631	0.7913	0.1515	-0.727
Mof_C 	C 	0.6469	0.7181	0.0577	-0.292
Mof_C 	C 	0.5579	0.7032	0.1243	0.609
Mof_C 	C 	0.7503	0.8171	0.0549	0.163
Mof_H 	H 	0.7619	0.8753	0.0937	-0.042
Mof_O 	O 	0.1144	0.5122	0.1469	-0.724
Mof_O 	O 	0.2282	0.4369	0.1515	-0.73
Mof_C 	C 	0.0712	0.3531	0.0577	-0.287
Mof_C 	C 	0.1453	0.4421	0.1243	0.603
Mof_C 	C 	0.0668	0.2497	0.0549	0.15
Mof_H 	H 	0.1134	0.2381	0.0937	-0.053
Mof_In	In	0.64127	0.17267	0.75	2.416
Mof_In	In	0.82733	0.4686	0.75	2.444
Mof_In	In	0.5314	0.35873	0.75	2.424
Mof_In	In	0.17267	0.64127	0.25	2.415
Mof_In	In	0.4686	0.82733	0.25	2.444
Mof_In	In	0.35873	0.5314	0.25	2.423
Mof_O 	O 	0.66667	0.33333	0.75	-1.29
Mof_O 	O 	0.33333	0.66667	0.25	-1.289
Mof_C 	C 	3.96022e-18	0.371	0.5	0.151
Mof_H 	H 	-1.96959e-17	0.4392	0.5	-0.041
Mof_N 	N 	-7.86782e-18	0.166	0.5	-0.253
Mof_C 	C 	0.629	0.629	0.5	0.192
Mof_H 	H 	0.5608	0.5608	0.5	-0.046
Mof_N 	N 	0.834	0.834	0.5	-0.223
Mof_C 	C 	0.371	0	0.5	0.149
Mof_H 	H 	0.4392	0	0.5	-0.04
Mof_N 	N 	0.166	0	0.5	-0.253
Mof_C 	C 	-2.36561e-17	0.371	-0	0.145
Mof_H 	H 	-4.73122e-17	0.4392	-0	-0.04
Mof_N 	N 	-1.1828e-17	0.166	-0	-0.254
Mof_C 	C 	0.629	0.629	-0	0.187
Mof_H 	H 	0.5608	0.5608	-0	-0.045
Mof_N 	N 	0.834	0.834	-0	-0.224
Mof_C 	C 	0.371	0	-0	0.143
Mof_H 	H 	0.4392	0	-0	-0.04
Mof_N 	N 	0.166	0	-0	-0.255
Mof_Ag	Ag	-0	0	0.5	0.445
Mof_Ag	Ag	-0	0	-0	0.441
_end
