# CIF file generated by openbabel 3.1.0, see https://openbabel.org
data_I
_chemical_name_common 'ja512973b_si_002'
_cell_length_a 24.305
_cell_length_b 24.305
_cell_length_c 24.305
_cell_angle_alpha 90
_cell_angle_beta 90
_cell_angle_gamma 90
_space_group_name_H-M_alt 'P 1'
_space_group_name_Hall 'P 1'
loop_
    _symmetry_equiv_pos_as_xyz
    x,y,z
loop_
    _atom_site_label
    _atom_site_type_symbol
    _atom_site_fract_x
    _atom_site_fract_y
    _atom_site_fract_z
    _atom_site_occupancy
    X1       C        0.38476    0.98896    0.44475    1.000
    C2       C        0.35648    0.98832    0.49492    1.000
    X3       C        0.38462    0.98914    0.54513    1.000
    C4       C        0.44282    0.99051    0.54555    1.000
    C5       C        0.47201    0.99100    0.49500    1.000
    C6       C        0.44292    0.99022    0.44442    1.000
    C7       C        0.47272    0.99009    0.39484    1.000
    C8       C        0.52996    0.99124    0.39488    1.000
    C9       C        0.55963    0.99200    0.44451    1.000
    C10      C        0.53044    0.99197    0.49504    1.000
    C11      C        0.47252    0.99121    0.59517    1.000
    C12      C        0.52976    0.99292    0.59521    1.000
    C13      C        0.55954    0.99305    0.54562    1.000
    X14      C        0.61769    0.99473    0.54526    1.000
    C15      C        0.64597    0.99459    0.49509    1.000
    X16      C        0.61782    0.99287    0.44491    1.000
    H17      H        0.45206    0.98895    0.35541    1.000
    H18      H        0.55075    0.99145    0.35550    1.000
    H19      H        0.45176    0.99065    0.63455    1.000
    H20      H        0.55045    0.99405    0.63462    1.000
    H21      H        0.31186    0.98722    0.49487    1.000
    H22      H        0.69059    0.99565    0.49513    1.000
    X23      C        0.38538    0.44073    0.99271    1.000
    C24      C        0.35695    0.49080    0.99434    1.000
    X25      C        0.38493    0.54109    0.99586    1.000
    C26      C        0.44312    0.54167    0.99709    1.000
    C27      C        0.47249    0.49127    0.99524    1.000
    C28      C        0.44358    0.44062    0.99273    1.000
    C29      C        0.47358    0.39126    0.98956    1.000
    C30      C        0.53085    0.39153    0.98964    1.000
    C31      C        0.56035    0.44116    0.99301    1.000
    C32      C        0.53094    0.49152    0.99558    1.000
    C33      C        0.47262    0.59133    0.00016    1.000
    C34      C        0.52989    0.59156    0.00075    1.000
    C35      C        0.55984    0.54215    0.99816    1.000
    X36      C        0.61803    0.54204    0.99808    1.000
    C37      C        0.64651    0.49207    0.99593    1.000
    X38      C        0.61854    0.44182    0.99318    1.000
    H39      H        0.45303    0.35187    0.98663    1.000
    H40      H        0.55181    0.35234    0.98685    1.000
    H41      H        0.45163    0.63056    0.00222    1.000
    H42      H        0.55051    0.63096    0.00317    1.000
    H43      H        0.31231    0.49061    0.99390    1.000
    H44      H        0.69114    0.49230    0.99586    1.000
    X45      C        0.99992    0.44242    0.37749    1.000
    C46      C        0.99906    0.49295    0.34986    1.000
    X47      C        0.99870    0.54284    0.37863    1.000
    C48      C        0.99892    0.54256    0.43685    1.000
    C49      C        0.99937    0.49167    0.46544    1.000
    C50      C        0.99939    0.44143    0.43571    1.000
    C51      C        0.99830    0.39151    0.46491    1.000
    C52      C        0.99778    0.39088    0.52217    1.000
    C53      C        0.99864    0.44014    0.55249    1.000
    C54      C        0.99932    0.49103    0.52391    1.000
    C55      C        0.99810    0.59182    0.46716    1.000
    C56      C        0.99847    0.59120    0.52443    1.000
    C57      C        0.99939    0.54128    0.55363    1.000
    X58      C        0.99982    0.54029    0.61186    1.000
    C59      C        0.99875    0.48976    0.63947    1.000
    X60      C        0.99792    0.43987    0.61068    1.000
    H61      H        0.99751    0.35237    0.44369    1.000
    H62      H        0.99655    0.35127    0.54247    1.000
    H63      H        0.99713    0.63143    0.44685    1.000
    H64      H        0.99774    0.63035    0.54563    1.000
    H65      H        0.99901    0.49347    0.30523    1.000
    H66      H        0.99847    0.48922    0.68410    1.000
    O67      O        0.85925    0.99286    0.91977    1.000
    O68      O        0.14345    0.98795    0.91973    1.000
    O69      O        0.99990    0.06459    0.85237    1.000
    O70      O        0.00250    0.91464    0.85407    1.000
    O71      O        0.00234    0.84939    0.92273    1.000
    O72      O        0.99959    0.13137    0.91957    1.000
    O73      O        0.07548    0.98680    0.85344    1.000
    O74      O        0.92719    0.99230    0.85346    1.000
    Zr75     Zr       0.00134    0.99011    0.89805    1.000
    O76      O        0.05142    0.94088    0.94552    1.000
    O77      O        0.95134    0.04040    0.94447    1.000
    X78      C        0.87610    0.99361    0.86893    1.000
    X79      C        0.12657    0.98591    0.86893    1.000
    X80      C        0.99866    0.11558    0.86865    1.000
    X81      C        0.00300    0.86401    0.87143    1.000
    H82      H        0.07491    0.06312    0.92074    1.000
    O83      O        0.05157    0.03984    0.94457    1.000
    H84      H        0.92757    0.91767    0.92263    1.000
    O85      O        0.95106    0.94152    0.94575    1.000
    O86      O        0.14348    0.99327    0.07017    1.000
    O87      O        0.85931    0.99100    0.07037    1.000
    O88      O        0.07568    0.13201    0.99489    1.000
    O89      O        0.07459    0.84997    0.99484    1.000
    O90      O        0.92707    0.85061    0.99888    1.000
    O91      O        0.92806    0.13252    0.99109    1.000
    O92      O        0.00343    0.06793    0.13562    1.000
    O93      O        0.99897    0.91798    0.13732    1.000
    O94      O        0.00350    0.13318    0.06697    1.000
    O95      O        0.99829    0.85117    0.07014    1.000
    O96      O        0.14372    0.06599    0.99579    1.000
    O97      O        0.85958    0.06693    0.99237    1.000
    O98      O        0.85900    0.91660    0.99795    1.000
    O99      O        0.14315    0.91546    0.99411    1.000
    O100     O        0.07547    0.99414    0.13637    1.000
    O101     O        0.92743    0.99167    0.13647    1.000
    Zr102    Zr       0.09913    0.99091    0.99492    1.000
    Zr103    Zr       0.90359    0.99161    0.99500    1.000
    Zr104    Zr       0.00173    0.08706    0.99378    1.000
    Zr105    Zr       0.00097    0.89550    0.99595    1.000
    Zr106    Zr       0.00143    0.99244    0.09170    1.000
    O107     O        0.95100    0.94248    0.04542    1.000
    O108     O        0.05189    0.04136    0.04430    1.000
    X109     C        0.12658    0.99440    0.12100    1.000
    X110     C        0.87629    0.99098    0.12120    1.000
    X111     C        0.12682    0.11680    0.99586    1.000
    X112     C        0.12586    0.86478    0.99400    1.000
    X113     C        0.87596    0.86586    0.99986    1.000
    X114     C        0.87682    0.11758    0.99056    1.000
    X115     C        0.00414    0.11857    0.11826    1.000
    X116     C        0.99722    0.86702    0.12104    1.000
    H117     H        0.92838    0.06550    0.06715    1.000
    O118     O        0.95157    0.04140    0.04401    1.000
    H119     H        0.07420    0.91868    0.06894    1.000
    O120     O        0.05116    0.94229    0.04514    1.000
    C121     C        0.28537    0.99251    0.29836    1.000
    C122     C        0.29088    0.94342    0.32820    1.000
    C123     C        0.32413    0.94058    0.37523    1.000
    X124     C        0.35194    0.98836    0.39330    1.000
    C125     C        0.34696    0.03735    0.36314    1.000
    C126     C        0.31400    0.03999    0.31574    1.000
    C127     C        0.24570    0.99402    0.25223    1.000
    C128     C        0.18954    0.98831    0.26345    1.000
    C129     C        0.15121    0.98889    0.22082    1.000
    X130     C        0.16821    0.99479    0.16572    1.000
    C131     C        0.22477    0.00031    0.15450    1.000
    C132     C        0.26324    0.99994    0.19751    1.000
    C133     C        0.32858    0.88608    0.40451    1.000
    H134     H        0.36827    0.07385    0.37738    1.000
    H135     H        0.10814    0.98425    0.23124    1.000
    H136     H        0.23929    0.00483    0.11263    1.000
    C137     C        0.30800    0.09391    0.28576    1.000
    H138     H        0.17536    0.98352    0.30545    1.000
    H139     H        0.26864    0.90709    0.31489    1.000
    H140     H        0.30663    0.00376    0.18814    1.000
    H141     H        0.34266    0.85409    0.37508    1.000
    H142     H        0.28759    0.87415    0.42078    1.000
    H143     H        0.35817    0.88675    0.43919    1.000
    H144     H        0.33118    0.12743    0.30645    1.000
    H145     H        0.26397    0.10598    0.28424    1.000
    H146     H        0.32407    0.08991    0.24323    1.000
    C147     C        0.71796    0.99556    0.29899    1.000
    C148     C        0.69216    0.94651    0.31495    1.000
    C149     C        0.65897    0.94427    0.36216    1.000
    X150     C        0.65081    0.99262    0.39356    1.000
    C151     C        0.67544    0.04198    0.37671    1.000
    C152     C        0.70896    0.04406    0.32975    1.000
    C153     C        0.75753    0.99421    0.25280    1.000
    C154     C        0.73973    0.98788    0.19823    1.000
    C155     C        0.77805    0.98677    0.15507    1.000
    X156     C        0.83475    0.99139    0.16606    1.000
    C157     C        0.85203    0.99690    0.22112    1.000
    C158     C        0.81387    0.99821    0.26389    1.000
    C159     C        0.63446    0.88953    0.37793    1.000
    H160     H        0.66873    0.07893    0.40080    1.000
    H161     H        0.76332    0.98225    0.11327    1.000
    H162     H        0.89522    0.00050    0.23145    1.000
    C163     C        0.73437    0.09802    0.31284    1.000
    H164     H        0.69626    0.98428    0.18912    1.000
    H165     H        0.69941    0.90930    0.29141    1.000
    H166     H        0.82830    0.00232    0.30586    1.000
    H167     H        0.66787    0.85883    0.38326    1.000
    H168     H        0.60647    0.87530    0.34475    1.000
    H169     H        0.61074    0.89109    0.41683    1.000
    H170     H        0.72036    0.13239    0.33950    1.000
    H171     H        0.72259    0.10779    0.26979    1.000
    H172     H        0.77984    0.09557    0.31585    1.000
    C173     C        0.71728    0.99569    0.69157    1.000
    C174     C        0.70954    0.04447    0.66171    1.000
    C175     C        0.67620    0.04577    0.61465    1.000
    X176     C        0.65052    0.99679    0.59664    1.000
    C177     C        0.65775    0.94809    0.62677    1.000
    C178     C        0.69087    0.94693    0.67411    1.000
    C179     C        0.75687    0.99596    0.73783    1.000
    C180     C        0.73962    0.98757    0.79232    1.000
    C181     C        0.77806    0.98732    0.83532    1.000
    X182     C        0.83436    0.99541    0.82438    1.000
    C183     C        0.85103    0.00464    0.76965    1.000
    C184     C        0.81269    0.00506    0.72698    1.000
    C185     C        0.66946    0.09994    0.58520    1.000
    H186     H        0.63809    0.91067    0.61253    1.000
    H187     H        0.76379    0.98026    0.87694    1.000
    H188     H        0.89389    0.01151    0.75956    1.000
    C189     C        0.69948    0.89322    0.70385    1.000
    H190     H        0.69647    0.98128    0.80149    1.000
    H191     H        0.73009    0.08178    0.67500    1.000
    H192     H        0.82667    0.01191    0.68520    1.000
    H193     H        0.71000    0.11379    0.56933    1.000
    H194     H        0.65355    0.13126    0.61441    1.000
    H195     H        0.64035    0.09777    0.55017    1.000
    H196     H        0.68291    0.89610    0.74628    1.000
    H197     H        0.74408    0.88345    0.70563    1.000
    H198     H        0.67826    0.85865    0.68282    1.000
    C199     C        0.28549    0.97996    0.69167    1.000
    C200     C        0.31019    0.03003    0.67688    1.000
    C201     C        0.34290    0.03444    0.62949    1.000
    X202     C        0.35165    0.98734    0.59646    1.000
    C203     C        0.32802    0.93705    0.61188    1.000
    C204     C        0.29546    0.93258    0.65929    1.000
    C205     C        0.24586    0.97972    0.73798    1.000
    C206     C        0.19035    0.96798    0.72783    1.000
    C207     C        0.15204    0.96947    0.77052    1.000
    X208     C        0.16832    0.98295    0.82446    1.000
    C209     C        0.22414    0.99452    0.83463    1.000
    C210     C        0.26254    0.99331    0.79159    1.000
    C211     C        0.36628    0.09010    0.61529    1.000
    H212     H        0.33521    0.90091    0.58671    1.000
    H213     H        0.10950    0.96012    0.76109    1.000
    H214     H        0.23799    0.00532    0.87558    1.000
    C215     C        0.27302    0.87662    0.67386    1.000
    H216     H        0.17663    0.95805    0.68660    1.000
    H217     H        0.30234    0.06643    0.70147    1.000
    H218     H        0.30522    0.00294    0.80003    1.000
    H219     H        0.39429    0.10377    0.64869    1.000
    H220     H        0.33227    0.12033    0.61122    1.000
    H221     H        0.38969    0.09021    0.57618    1.000
    H222     H        0.24237    0.86383    0.64250    1.000
    H223     H        0.25332    0.87553    0.71497    1.000
    H224     H        0.30709    0.84617    0.67447    1.000
    C225     C        0.28577    0.29431    0.99428    1.000
    C226     C        0.28979    0.32588    0.94612    1.000
    C227     C        0.32316    0.37288    0.94382    1.000
    X228     C        0.35266    0.38918    0.99123    1.000
    C229     C        0.34920    0.35727    0.03924    1.000
    C230     C        0.31610    0.30993    0.04135    1.000
    C231     C        0.24604    0.24814    0.99546    1.000
    C232     C        0.26362    0.19328    0.99985    1.000
    C233     C        0.22513    0.15028    0.00019    1.000
    X234     C        0.16846    0.16157    0.99607    1.000
    C235     C        0.15139    0.21680    0.99159    1.000
    C236     C        0.18975    0.25945    0.99111    1.000
    C237     C        0.32590    0.40407    0.89027    1.000
    H238     H        0.37175    0.37016    0.07550    1.000
    H239     H        0.23975    0.10833    0.00355    1.000
    H240     H        0.10824    0.22731    0.98816    1.000
    C241     C        0.31171    0.27821    0.09442    1.000
    H242     H        0.30707    0.18379    0.00253    1.000
    H243     H        0.26631    0.31393    0.91010    1.000
    H244     H        0.17548    0.30153    0.98751    1.000
    H245     H        0.28464    0.42101    0.88039    1.000
    H246     H        0.33863    0.37572    0.85678    1.000
    H247     H        0.35577    0.43851    0.89113    1.000
    H248     H        0.32767    0.23585    0.08859    1.000
    H249     H        0.26805    0.27626    0.10775    1.000
    H250     H        0.33586    0.29783    0.12789    1.000
    C251     C        0.28361    0.68629    0.99856    1.000
    C252     C        0.31160    0.67190    0.95022    1.000
    C253     C        0.34527    0.62501    0.94807    1.000
    X254     C        0.35172    0.59233    0.99583    1.000
    C255     C        0.32488    0.60759    0.04455    1.000
    C256     C        0.29087    0.65423    0.04652    1.000
    C257     C        0.24408    0.73256    0.99696    1.000
    C258     C        0.18759    0.72158    0.99891    1.000
    C259     C        0.14957    0.76452    0.99758    1.000
    X260     C        0.16716    0.81966    0.99409    1.000
    C261     C        0.22401    0.83053    0.99133    1.000
    C262     C        0.26217    0.78722    0.99250    1.000
    C263     C        0.37209    0.61091    0.89395    1.000
    H264     H        0.33023    0.58252    0.08106    1.000
    H265     H        0.10626    0.75429    0.99957    1.000
    H266     H        0.23901    0.87237    0.98840    1.000
    C267     C        0.26315    0.66945    0.09985    1.000
    H268     H        0.17293    0.67957    0.00149    1.000
    H269     H        0.30576    0.69644    0.91342    1.000
    H270     H        0.30574    0.79629    0.99046    1.000
    H271     H        0.40039    0.64464    0.88179    1.000
    H272     H        0.33998    0.60623    0.86179    1.000
    H273     H        0.39600    0.57212    0.89537    1.000
    H274     H        0.21785    0.66612    0.09548    1.000
    H275     H        0.27412    0.71231    0.11124    1.000
    H276     H        0.27603    0.64198    0.13403    1.000
    C277     C        0.71797    0.68785    0.00611    1.000
    C278     C        0.69325    0.67283    0.95618    1.000
    C279     C        0.65999    0.62580    0.95230    1.000
    X280     C        0.65073    0.59351    0.99981    1.000
    C281     C        0.67410    0.60942    0.05008    1.000
    C282     C        0.70762    0.65631    0.05386    1.000
    C283     C        0.75737    0.73427    0.00640    1.000
    C284     C        0.73979    0.78840    0.99659    1.000
    C285     C        0.77799    0.83163    0.99515    1.000
    X286     C        0.83443    0.82114    0.00281    1.000
    C287     C        0.85155    0.76662    0.01251    1.000
    C288     C        0.81347    0.72376    0.01409    1.000
    C289     C        0.63653    0.61118    0.89678    1.000
    H290     H        0.66644    0.58467    0.08639    1.000
    H291     H        0.76344    0.87301    0.98735    1.000
    H292     H        0.89457    0.75679    0.01864    1.000
    C293     C        0.73130    0.67240    0.10886    1.000
    H294     H        0.69658    0.79708    0.99001    1.000
    H295     H        0.70137    0.69702    0.91957    1.000
    H296     H        0.82789    0.68209    0.02066    1.000
    H297     H        0.67058    0.60578    0.86680    1.000
    H298     H        0.60938    0.64497    0.88239    1.000
    H299     H        0.61215    0.57266    0.89721    1.000
    H300     H        0.71970    0.71549    0.11865    1.000
    H301     H        0.77677    0.66880    0.10810    1.000
    H302     H        0.71571    0.64561    0.14244    1.000
    C303     C        0.71895    0.29600    0.98987    1.000
    C304     C        0.71223    0.32744    0.94192    1.000
    C305     C        0.67873    0.37441    0.94136    1.000
    X306     C        0.65172    0.39068    0.99024    1.000
    C307     C        0.65798    0.35904    0.03810    1.000
    C308     C        0.69136    0.31185    0.03856    1.000
    C309     C        0.75837    0.24952    0.98892    1.000
    C310     C        0.81435    0.26017    0.98044    1.000
    C311     C        0.85245    0.21724    0.98047    1.000
    X312     C        0.83538    0.16247    0.98871    1.000
    C313     C        0.77894    0.15176    0.99605    1.000
    C314     C        0.74075    0.19498    0.99612    1.000
    C315     C        0.67320    0.40564    0.88805    1.000
    H316     H        0.63737    0.37199    0.07548    1.000
    H317     H        0.89544    0.22719    0.97423    1.000
    H318     H        0.76433    0.11014    0.00229    1.000
    C319     C        0.69899    0.28061    0.09156    1.000
    H320     H        0.82863    0.30197    0.97447    1.000
    H321     H        0.73367    0.31541    0.90468    1.000
    H322     H        0.69749    0.18592    0.00178    1.000
    H323     H        0.65808    0.37747    0.85542    1.000
    H324     H        0.71402    0.42201    0.87569    1.000
    H325     H        0.64399    0.44056    0.89070    1.000
    H326     H        0.67721    0.30073    0.12634    1.000
    H327     H        0.74340    0.27847    0.10206    1.000
    H328     H        0.68237    0.23833    0.08727    1.000
    C329     C        0.99933    0.29743    0.27564    1.000
    C330     C        0.04743    0.31235    0.30376    1.000
    C331     C        0.04898    0.35924    0.33748    1.000
    X332     C        0.00082    0.39138    0.34389    1.000
    C333     C        0.95238    0.37564    0.31677    1.000
    C334     C        0.95104    0.32903    0.28269    1.000
    C335     C        0.00144    0.25108    0.23620    1.000
    C336     C        0.00512    0.19642    0.25444    1.000
    C337     C        0.00633    0.15302    0.21638    1.000
    X338     C        0.00439    0.16379    0.15947    1.000
    C339     C        0.00176    0.21894    0.14174    1.000
    C340     C        0.00036    0.26197    0.17967    1.000
    C341     C        0.10287    0.37391    0.36443    1.000
    H342     H        0.91557    0.40028    0.32204    1.000
    H343     H        0.00856    0.11117    0.23149    1.000
    H344     H        0.00038    0.22909    0.09838    1.000
    C345     C        0.89803    0.31334    0.25464    1.000
    H346     H        0.00641    0.18741    0.29806    1.000
    H347     H        0.08450    0.28819    0.29803    1.000
    H348     H        0.99826    0.30398    0.16491    1.000
    H349     H        0.13511    0.37873    0.33242    1.000
    H350     H        0.11522    0.34041    0.39292    1.000
    H351     H        0.10103    0.41280    0.38815    1.000
    H352     H        0.88685    0.27044    0.26566    1.000
    H353     H        0.90272    0.31655    0.20935    1.000
    H354     H        0.86356    0.34062    0.26716    1.000
    C355     C        0.99649    0.29262    0.70916    1.000
    C356     C        0.94797    0.32309    0.70213    1.000
    C357     C        0.94682    0.37042    0.66915    1.000
    X358     C        0.99569    0.38811    0.64302    1.000
    C359     C        0.04410    0.35732    0.64942    1.000
    C360     C        0.04513    0.30972    0.68224    1.000
    C361     C        0.99622    0.24633    0.74883    1.000
    C362     C        0.00435    0.19173    0.73172    1.000
    C363     C        0.00459    0.14879    0.77031    1.000
    X364     C        0.99674    0.15992    0.82661    1.000
    C365     C        0.98769    0.21475    0.84311    1.000
    C366     C        0.98730    0.25731    0.80465    1.000
    C367     C        0.89291    0.40053    0.66331    1.000
    H368     H        0.08145    0.37128    0.62943    1.000
    H369     H        0.01144    0.10710    0.75617    1.000
    H370     H        0.98098    0.22502    0.88594    1.000
    C371     C        0.09861    0.27937    0.69005    1.000
    H372     H        0.01043    0.18240    0.68859    1.000
    H373     H        0.91076    0.31012    0.72307    1.000
    H374     H        0.98062    0.29914    0.81856    1.000
    H375     H        0.87977    0.41629    0.70412    1.000
    H376     H        0.86105    0.37178    0.64762    1.000
    H377     H        0.89510    0.43571    0.63439    1.000
    H378     H        0.09512    0.23710    0.67321    1.000
    H379     H        0.10886    0.27719    0.73452    1.000
    H380     H        0.13316    0.30019    0.66858    1.000
    C381     C        0.99850    0.68516    0.71393    1.000
    C382     C        0.04668    0.67053    0.68577    1.000
    C383     C        0.04847    0.62371    0.65196    1.000
    X384     C        0.00049    0.59132    0.64549    1.000
    C385     C        0.95196    0.60679    0.67260    1.000
    C386     C        0.95036    0.65335    0.70674    1.000
    C387     C        0.00037    0.73150    0.75343    1.000
    C388     C        0.00518    0.78612    0.73528    1.000
    C389     C        0.00630    0.82951    0.77336    1.000
    X390     C        0.00312    0.81878    0.83022    1.000
    C391     C        0.99938    0.76369    0.84789    1.000
    C392     C        0.99811    0.72067    0.80994    1.000
    C393     C        0.10244    0.60938    0.62497    1.000
    H394     H        0.91528    0.58198    0.66726    1.000
    H395     H        0.00950    0.87131    0.75829    1.000
    H396     H        0.99707    0.75357    0.89122    1.000
    C397     C        0.89716    0.66880    0.73460    1.000
    H398     H        0.00747    0.79511    0.69169    1.000
    H399     H        0.08363    0.69487    0.69155    1.000
    H400     H        0.99526    0.67870    0.82468    1.000
    H401     H        0.13471    0.60468    0.65696    1.000
    H402     H        0.11460    0.64302    0.59655    1.000
    H403     H        0.10080    0.57054    0.60117    1.000
    H404     H        0.86280    0.64158    0.72169    1.000
    H405     H        0.88600    0.71177    0.72378    1.000
    H406     H        0.90157    0.66529    0.77988    1.000
    C407     C        0.99017    0.69030    0.28067    1.000
    C408     C        0.03988    0.67567    0.30618    1.000
    C409     C        0.04404    0.62806    0.33864    1.000
    X410     C        0.99705    0.59459    0.34624    1.000
    C411     C        0.94706    0.60992    0.32193    1.000
    C412     C        0.94282    0.65757    0.28967    1.000
    C413     C        0.99039    0.73656    0.24092    1.000
    C414     C        0.97911    0.72622    0.18535    1.000
    C415     C        0.98087    0.76876    0.14691    1.000
    X416     C        0.99420    0.82278    0.16305    1.000
    C417     C        0.00539    0.83318    0.21891    1.000
    C418     C        0.00390    0.79025    0.25748    1.000
    C419     C        0.09937    0.61406    0.36290    1.000
    H420     H        0.91096    0.58446    0.32830    1.000
    H421     H        0.97181    0.75912    0.10436    1.000
    H422     H        0.01607    0.87420    0.23264    1.000
    C423     C        0.88714    0.67197    0.26642    1.000
    H424     H        0.96929    0.68494    0.17168    1.000
    H425     H        0.07627    0.70051    0.29910    1.000
    H426     H        0.01319    0.79886    0.30020    1.000
    H427     H        0.11232    0.64735    0.39137    1.000
    H428     H        0.13022    0.61041    0.32940    1.000
    H429     H        0.09932    0.57479    0.38606    1.000
    H430     H        0.87516    0.64091    0.23514    1.000
    H431     H        0.88607    0.71333    0.24726    1.000
    H432     H        0.85608    0.67190    0.29994    1.000
