# CIF file generated by openbabel 3.1.0, see https://openbabel.org
data_I
_chemical_name_common 'image0'
_cell_length_a 10.9329
_cell_length_b 28.934
_cell_length_c 15.0328
_cell_angle_alpha 90
_cell_angle_beta 90.37
_cell_angle_gamma 90
_space_group_name_H-M_alt 'P 1'
_space_group_name_Hall 'P 1'
loop_
    _symmetry_equiv_pos_as_xyz
    x,y,z
loop_
    _atom_site_label
    _atom_site_type_symbol
    _atom_site_fract_x
    _atom_site_fract_y
    _atom_site_fract_z
    _atom_site_occupancy
    Co1      Co       0.66199    0.00926    0.87251    1.000
    Co2      Co       0.99731    0.89611    0.96828    1.000
    Co3      Co       0.91908    0.02074    0.73177    1.000
    N1       N        0.99320    0.83814    0.05723    1.000
    N2       N        0.00420    0.65169    0.36093    1.000
    O1       O        0.64570    0.95994    0.77074    1.000
    O2       O        0.79720    0.97581    0.67873    1.000
    O3       O        0.55561    0.87076    0.76173    1.000
    O4       O        0.04600    0.96765    0.73922    1.000
    O5       O        0.03612    0.95007    0.88164    1.000
    O6       O        0.17813    0.90317    0.00563    1.000
    O7       O        0.33454    0.95233    0.00522    1.000
    O8       O        0.65931    0.95366    0.96327    1.000
    O9       O        0.81777    0.90810    0.93439    1.000
    O10      O        0.95925    0.93839    0.07718    1.000
    O11      O        0.94170    0.93886    0.22271    1.000
    O12      O        0.44546    0.83992    0.16123    1.000
    O13      O        0.35910    0.92967    0.19970    1.000
    O14      O        0.19020    0.92361    0.28067    1.000
    O15      O        0.85360    0.00926    0.86772    1.000
    H1       H        0.88240    0.98100    0.87050    1.000
    H2       H        0.88820    0.03020    0.88810    1.000
    C1       C        0.71430    0.95058    0.70810    1.000
    C2       C        0.69580    0.90578    0.65620    1.000
    C3       C        0.76750    0.89864    0.58310    1.000
    H3       H        0.82480    0.92110    0.56820    1.000
    C4       C        0.06180    0.83824    0.13020    1.000
    H4       H        0.11050    0.86400    0.14120    1.000
    C5       C        0.83650    0.85066    0.45610    1.000
    H5       H        0.89720    0.87190    0.44200    1.000
    C6       C        0.75830    0.85865    0.52940    1.000
    C7       C        0.73140    0.77950    0.42520    1.000
    H6       H        0.72170    0.75360    0.38910    1.000
    C8       C        0.65660    0.78577    0.49630    1.000
    H7       H        0.59680    0.76390    0.50910    1.000
    C9       C        0.66940    0.82541    0.55080    1.000
    C10      C        0.59960    0.83180    0.62780    1.000
    H8       H        0.54250    0.80950    0.64360    1.000
    C11      C        0.61380    0.86988    0.67990    1.000
    C12      C        0.44000    0.88903    0.76820    1.000
    C13      C        0.40350    0.89855    0.85350    1.000
    H9       H        0.45720    0.89340    0.90070    1.000
    C14      C        0.28730    0.91584    0.87010    1.000
    C15      C        0.20890    0.92528    0.79850    1.000
    C16      C        0.24940    0.91542    0.71300    1.000
    H10      H        0.19770    0.92150    0.66500    1.000
    C17      C        0.36380    0.89694    0.69680    1.000
    H11      H        0.38850    0.89010    0.63920    1.000
    C18      C        0.26190    0.92517    0.96740    1.000
    C19      C        0.08950    0.94901    0.80770    1.000
    C20      C        0.73250    0.92223    0.98290    1.000
    C21      C        0.70870    0.89926    0.07160    1.000
    C22      C        0.59530    0.87838    0.08010    1.000
    H12      H        0.54220    0.87730    0.03160    1.000
    C23      C        0.56070    0.85924    0.15960    1.000
    C24      C        0.63840    0.85962    0.23190    1.000
    H13      H        0.61630    0.84540    0.28490    1.000
    C25      C        0.74940    0.88144    0.22390    1.000
    H14      H        0.80130    0.88260    0.27310    1.000
    C26      C        0.78680    0.90181    0.14480    1.000
    C27      C        0.90440    0.92845    0.14740    1.000
    C28      C        0.39840    0.82951    0.24400    1.000
    C29      C        0.32670    0.86267    0.28900    1.000
    C30      C        0.28350    0.85014    0.37080    1.000
    H15      H        0.23540    0.87120    0.40170    1.000
    C31      C        0.30830    0.80675    0.41090    1.000
    C32      C        0.26510    0.79495    0.49670    1.000
    H16      H        0.22080    0.81630    0.52960    1.000
    C33      C        0.28880    0.75218    0.53080    1.000
    H17      H        0.26020    0.74450    0.58700    1.000
    C34      C        0.35510    0.71994    0.48260    1.000
    H18      H        0.37040    0.69100    0.50720    1.000
    C35      C        0.39800    0.72982    0.40020    1.000
    H19      H        0.44170    0.70770    0.36850    1.000
    C36      C        0.37570    0.77422    0.36250    1.000
    C37      C        0.41990    0.78704    0.27780    1.000
    H20      H        0.46460    0.76580    0.24480    1.000
    C38      C        0.92530    0.80077    0.04410    1.000
    H21      H        0.87470    0.80000    0.99420    1.000
    C39      C        0.92510    0.76350    0.09920    1.000
    H22      H        0.87760    0.73780    0.08520    1.000
    C40      C        0.99600    0.76378    0.17630    1.000
    C41      C        0.06560    0.80270    0.19080    1.000
    H23      H        0.11480    0.80490    0.24130    1.000
    C42      C        0.29140    0.90953    0.25220    1.000
    C43      C        0.99970    0.72372    0.23800    1.000
    C44      C        0.90520    0.69228    0.24270    1.000
    H24      H        0.83780    0.69500    0.20500    1.000
    C45      C        0.91120    0.65721    0.30280    1.000
    H25      H        0.84760    0.63590    0.30380    1.000
    C46      C        0.09500    0.68120    0.35490    1.000
    H26      H        0.16170    0.67760    0.39290    1.000
    C47      C        0.09620    0.71717    0.29500    1.000
    H27      H        0.16280    0.73710    0.29330    1.000
    C48      C        0.82190    0.81157    0.40640    1.000
    H28      H        0.87390    0.80630    0.35870    1.000
    Co4      Co       0.33801    0.50926    0.62749    1.000
    Co5      Co       0.00269    0.39611    0.53172    1.000
    Co6      Co       0.08092    0.52074    0.76823    1.000
    N3       N        0.00680    0.33814    0.44277    1.000
    N4       N        0.99580    0.15169    0.13907    1.000
    O16      O        0.35430    0.45994    0.72926    1.000
    O17      O        0.20280    0.47581    0.82127    1.000
    O18      O        0.44439    0.37076    0.73827    1.000
    O19      O        0.95400    0.46765    0.76078    1.000
    O20      O        0.96388    0.45007    0.61836    1.000
    O21      O        0.82187    0.40317    0.49437    1.000
    O22      O        0.66546    0.45233    0.49478    1.000
    O23      O        0.34069    0.45366    0.53673    1.000
    O24      O        0.18223    0.40810    0.56561    1.000
    O25      O        0.04075    0.43839    0.42282    1.000
    O26      O        0.05830    0.43886    0.27729    1.000
    O27      O        0.55454    0.33992    0.33877    1.000
    O28      O        0.64090    0.42967    0.30030    1.000
    O29      O        0.80980    0.42361    0.21933    1.000
    O30      O        0.14640    0.50926    0.63228    1.000
    H29      H        0.11760    0.48100    0.62950    1.000
    H30      H        0.11180    0.53020    0.61190    1.000
    C49      C        0.28570    0.45058    0.79190    1.000
    C50      C        0.30420    0.40578    0.84380    1.000
    C51      C        0.23250    0.39864    0.91690    1.000
    H31      H        0.17520    0.42110    0.93180    1.000
    C52      C        0.93820    0.33824    0.36980    1.000
    H32      H        0.88950    0.36400    0.35880    1.000
    C53      C        0.16350    0.35066    0.04390    1.000
    H33      H        0.10280    0.37190    0.05800    1.000
    C54      C        0.24170    0.35865    0.97060    1.000
    C55      C        0.26860    0.27950    0.07480    1.000
    H34      H        0.27830    0.25360    0.11090    1.000
    C56      C        0.34340    0.28577    0.00370    1.000
    H35      H        0.40320    0.26390    0.99090    1.000
    C57      C        0.33060    0.32541    0.94920    1.000
    C58      C        0.40040    0.33180    0.87220    1.000
    H36      H        0.45750    0.30950    0.85640    1.000
    C59      C        0.38620    0.36988    0.82010    1.000
    C60      C        0.56000    0.38903    0.73180    1.000
    C61      C        0.59650    0.39855    0.64650    1.000
    H37      H        0.54280    0.39340    0.59930    1.000
    C62      C        0.71270    0.41584    0.62990    1.000
    C63      C        0.79110    0.42528    0.70150    1.000
    C64      C        0.75060    0.41542    0.78700    1.000
    H38      H        0.80230    0.42150    0.83500    1.000
    C65      C        0.63620    0.39694    0.80320    1.000
    H39      H        0.61150    0.39010    0.86080    1.000
    C66      C        0.73810    0.42517    0.53260    1.000
    C67      C        0.91050    0.44901    0.69230    1.000
    C68      C        0.26750    0.42223    0.51710    1.000
    C69      C        0.29130    0.39926    0.42840    1.000
    C70      C        0.40470    0.37838    0.41990    1.000
    H40      H        0.45780    0.37730    0.46840    1.000
    C71      C        0.43930    0.35924    0.34040    1.000
    C72      C        0.36160    0.35962    0.26810    1.000
    H41      H        0.38370    0.34540    0.21510    1.000
    C73      C        0.25060    0.38144    0.27610    1.000
    H42      H        0.19870    0.38260    0.22690    1.000
    C74      C        0.21320    0.40181    0.35520    1.000
    C75      C        0.09560    0.42845    0.35260    1.000
    C76      C        0.60160    0.32951    0.25600    1.000
    C77      C        0.67330    0.36267    0.21100    1.000
    C78      C        0.71650    0.35014    0.12920    1.000
    H43      H        0.76460    0.37120    0.09830    1.000
    C79      C        0.69170    0.30675    0.08910    1.000
    C80      C        0.73490    0.29495    0.00330    1.000
    H44      H        0.77920    0.31630    0.97040    1.000
    C81      C        0.71120    0.25218    0.96920    1.000
    H45      H        0.73980    0.24450    0.91300    1.000
    C82      C        0.64490    0.21994    0.01740    1.000
    H46      H        0.62960    0.19100    0.99280    1.000
    C83      C        0.60200    0.22982    0.09980    1.000
    H47      H        0.55830    0.20770    0.13150    1.000
    C84      C        0.62430    0.27422    0.13750    1.000
    C85      C        0.58010    0.28704    0.22220    1.000
    H48      H        0.53540    0.26580    0.25520    1.000
    C86      C        0.07470    0.30077    0.45590    1.000
    H49      H        0.12530    0.30000    0.50580    1.000
    C87      C        0.07490    0.26350    0.40080    1.000
    H50      H        0.12240    0.23780    0.41480    1.000
    C88      C        0.00400    0.26378    0.32370    1.000
    C89      C        0.93440    0.30270    0.30920    1.000
    H51      H        0.88520    0.30490    0.25870    1.000
    C90      C        0.70860    0.40953    0.24780    1.000
    C91      C        0.00030    0.22372    0.26200    1.000
    C92      C        0.09480    0.19228    0.25730    1.000
    H52      H        0.16220    0.19500    0.29500    1.000
    C93      C        0.08880    0.15721    0.19720    1.000
    H53      H        0.15240    0.13590    0.19620    1.000
    C94      C        0.90500    0.18120    0.14510    1.000
    H54      H        0.83830    0.17760    0.10710    1.000
    C95      C        0.90380    0.21717    0.20500    1.000
    H55      H        0.83720    0.23710    0.20670    1.000
    C96      C        0.17810    0.31157    0.09360    1.000
    H56      H        0.12610    0.30630    0.14130    1.000
    Co7      Co       0.33801    0.99074    0.12749    1.000
    Co8      Co       0.00269    0.10389    0.03172    1.000
    Co9      Co       0.08092    0.97926    0.26823    1.000
    N5       N        0.00680    0.16186    0.94277    1.000
    N6       N        0.99580    0.34831    0.63907    1.000
    O31      O        0.35430    0.04006    0.22926    1.000
    O32      O        0.20280    0.02419    0.32127    1.000
    O33      O        0.44439    0.12924    0.23827    1.000
    O34      O        0.95400    0.03235    0.26078    1.000
    O35      O        0.96388    0.04993    0.11836    1.000
    O36      O        0.82187    0.09683    0.99437    1.000
    O37      O        0.66546    0.04767    0.99478    1.000
    O38      O        0.34069    0.04634    0.03673    1.000
    O39      O        0.18223    0.09190    0.06561    1.000
    O40      O        0.04075    0.06161    0.92282    1.000
    O41      O        0.05830    0.06114    0.77729    1.000
    O42      O        0.55454    0.16008    0.83877    1.000
    O43      O        0.64090    0.07033    0.80030    1.000
    O44      O        0.80980    0.07639    0.71933    1.000
    O45      O        0.14640    0.99074    0.13228    1.000
    H57      H        0.11760    0.01900    0.12950    1.000
    H58      H        0.11180    0.96980    0.11190    1.000
    C97      C        0.28570    0.04942    0.29190    1.000
    C98      C        0.30420    0.09422    0.34380    1.000
    C99      C        0.23250    0.10136    0.41690    1.000
    H59      H        0.17520    0.07890    0.43180    1.000
    C100     C        0.93820    0.16176    0.86980    1.000
    H60      H        0.88950    0.13600    0.85880    1.000
    C101     C        0.16350    0.14934    0.54390    1.000
    H61      H        0.10280    0.12810    0.55800    1.000
    C102     C        0.24170    0.14135    0.47060    1.000
    C103     C        0.26860    0.22050    0.57480    1.000
    H62      H        0.27830    0.24640    0.61090    1.000
    C104     C        0.34340    0.21423    0.50370    1.000
    H63      H        0.40320    0.23610    0.49090    1.000
    C105     C        0.33060    0.17459    0.44920    1.000
    C106     C        0.40040    0.16820    0.37220    1.000
    H64      H        0.45750    0.19050    0.35640    1.000
    C107     C        0.38620    0.13012    0.32010    1.000
    C108     C        0.56000    0.11097    0.23180    1.000
    C109     C        0.59650    0.10145    0.14650    1.000
    H65      H        0.54280    0.10660    0.09930    1.000
    C110     C        0.71270    0.08416    0.12990    1.000
    C111     C        0.79110    0.07472    0.20150    1.000
    C112     C        0.75060    0.08458    0.28700    1.000
    H66      H        0.80230    0.07850    0.33500    1.000
    C113     C        0.63620    0.10306    0.30320    1.000
    H67      H        0.61150    0.10990    0.36080    1.000
    C114     C        0.73810    0.07483    0.03260    1.000
    C115     C        0.91050    0.05099    0.19230    1.000
    C116     C        0.26750    0.07777    0.01710    1.000
    C117     C        0.29130    0.10074    0.92840    1.000
    C118     C        0.40470    0.12162    0.91990    1.000
    H68      H        0.45780    0.12270    0.96840    1.000
    C119     C        0.43930    0.14076    0.84040    1.000
    C120     C        0.36160    0.14038    0.76810    1.000
    H69      H        0.38370    0.15460    0.71510    1.000
    C121     C        0.25060    0.11856    0.77610    1.000
    H70      H        0.19870    0.11740    0.72690    1.000
    C122     C        0.21320    0.09819    0.85520    1.000
    C123     C        0.09560    0.07155    0.85260    1.000
    C124     C        0.60160    0.17049    0.75600    1.000
    C125     C        0.67330    0.13733    0.71100    1.000
    C126     C        0.71650    0.14986    0.62920    1.000
    H71      H        0.76460    0.12880    0.59830    1.000
    C127     C        0.69170    0.19325    0.58910    1.000
    C128     C        0.73490    0.20505    0.50330    1.000
    H72      H        0.77920    0.18370    0.47040    1.000
    C129     C        0.71120    0.24782    0.46920    1.000
    H73      H        0.73980    0.25550    0.41300    1.000
    C130     C        0.64490    0.28006    0.51740    1.000
    H74      H        0.62960    0.30900    0.49280    1.000
    C131     C        0.60200    0.27018    0.59980    1.000
    H75      H        0.55830    0.29230    0.63150    1.000
    C132     C        0.62430    0.22578    0.63750    1.000
    C133     C        0.58010    0.21296    0.72220    1.000
    H76      H        0.53540    0.23420    0.75520    1.000
    C134     C        0.07470    0.19923    0.95590    1.000
    H77      H        0.12530    0.20000    0.00580    1.000
    C135     C        0.07490    0.23650    0.90080    1.000
    H78      H        0.12240    0.26220    0.91480    1.000
    C136     C        0.00400    0.23622    0.82370    1.000
    C137     C        0.93440    0.19730    0.80920    1.000
    H79      H        0.88520    0.19510    0.75870    1.000
    C138     C        0.70860    0.09047    0.74780    1.000
    C139     C        0.00030    0.27628    0.76200    1.000
    C140     C        0.09480    0.30772    0.75730    1.000
    H80      H        0.16220    0.30500    0.79500    1.000
    C141     C        0.08880    0.34279    0.69720    1.000
    H81      H        0.15240    0.36410    0.69620    1.000
    C142     C        0.90500    0.31880    0.64510    1.000
    H82      H        0.83830    0.32240    0.60710    1.000
    C143     C        0.90380    0.28283    0.70500    1.000
    H83      H        0.83720    0.26290    0.70670    1.000
    C144     C        0.17810    0.18843    0.59360    1.000
    H84      H        0.12610    0.19370    0.64130    1.000
    Co10     Co       0.66199    0.49074    0.37251    1.000
    Co11     Co       0.99731    0.60389    0.46828    1.000
    Co12     Co       0.91908    0.47926    0.23177    1.000
    N7       N        0.99320    0.66186    0.55723    1.000
    N8       N        0.00420    0.84831    0.86093    1.000
    O46      O        0.64570    0.54006    0.27074    1.000
    O47      O        0.79720    0.52419    0.17873    1.000
    O48      O        0.55561    0.62924    0.26173    1.000
    O49      O        0.04600    0.53235    0.23922    1.000
    O50      O        0.03612    0.54993    0.38164    1.000
    O51      O        0.17813    0.59683    0.50563    1.000
    O52      O        0.33454    0.54767    0.50522    1.000
    O53      O        0.65931    0.54634    0.46327    1.000
    O54      O        0.81777    0.59190    0.43439    1.000
    O55      O        0.95925    0.56161    0.57718    1.000
    O56      O        0.94170    0.56114    0.72271    1.000
    O57      O        0.44546    0.66008    0.66123    1.000
    O58      O        0.35910    0.57033    0.69970    1.000
    O59      O        0.19020    0.57639    0.78067    1.000
    O60      O        0.85360    0.49074    0.36772    1.000
    H85      H        0.88240    0.51900    0.37050    1.000
    H86      H        0.88820    0.46980    0.38810    1.000
    C145     C        0.71430    0.54942    0.20810    1.000
    C146     C        0.69580    0.59422    0.15620    1.000
    C147     C        0.76750    0.60136    0.08310    1.000
    H87      H        0.82480    0.57890    0.06820    1.000
    C148     C        0.06180    0.66176    0.63020    1.000
    H88      H        0.11050    0.63600    0.64120    1.000
    C149     C        0.83650    0.64934    0.95610    1.000
    H89      H        0.89720    0.62810    0.94200    1.000
    C150     C        0.75830    0.64135    0.02940    1.000
    C151     C        0.73140    0.72050    0.92520    1.000
    H90      H        0.72170    0.74640    0.88910    1.000
    C152     C        0.65660    0.71423    0.99630    1.000
    H91      H        0.59680    0.73610    0.00910    1.000
    C153     C        0.66940    0.67459    0.05080    1.000
    C154     C        0.59960    0.66820    0.12780    1.000
    H92      H        0.54250    0.69050    0.14360    1.000
    C155     C        0.61380    0.63012    0.17990    1.000
    C156     C        0.44000    0.61097    0.26820    1.000
    C157     C        0.40350    0.60145    0.35350    1.000
    H93      H        0.45720    0.60660    0.40070    1.000
    C158     C        0.28730    0.58416    0.37010    1.000
    C159     C        0.20890    0.57472    0.29850    1.000
    C160     C        0.24940    0.58458    0.21300    1.000
    H94      H        0.19770    0.57850    0.16500    1.000
    C161     C        0.36380    0.60306    0.19680    1.000
    H95      H        0.38850    0.60990    0.13920    1.000
    C162     C        0.26190    0.57483    0.46740    1.000
    C163     C        0.08950    0.55099    0.30770    1.000
    C164     C        0.73250    0.57777    0.48290    1.000
    C165     C        0.70870    0.60074    0.57160    1.000
    C166     C        0.59530    0.62162    0.58010    1.000
    H96      H        0.54220    0.62270    0.53160    1.000
    C167     C        0.56070    0.64076    0.65960    1.000
    C168     C        0.63840    0.64038    0.73190    1.000
    H97      H        0.61630    0.65460    0.78490    1.000
    C169     C        0.74940    0.61856    0.72390    1.000
    H98      H        0.80130    0.61740    0.77310    1.000
    C170     C        0.78680    0.59819    0.64480    1.000
    C171     C        0.90440    0.57155    0.64740    1.000
    C172     C        0.39840    0.67049    0.74400    1.000
    C173     C        0.32670    0.63733    0.78900    1.000
    C174     C        0.28350    0.64986    0.87080    1.000
    H99      H        0.23540    0.62880    0.90170    1.000
    C175     C        0.30830    0.69325    0.91090    1.000
    C176     C        0.26510    0.70505    0.99670    1.000
    H100     H        0.22080    0.68370    0.02960    1.000
    C177     C        0.28880    0.74782    0.03080    1.000
    H101     H        0.26020    0.75550    0.08700    1.000
    C178     C        0.35510    0.78006    0.98260    1.000
    H102     H        0.37040    0.80900    0.00720    1.000
    C179     C        0.39800    0.77018    0.90020    1.000
    H103     H        0.44170    0.79230    0.86850    1.000
    C180     C        0.37570    0.72578    0.86250    1.000
    C181     C        0.41990    0.71296    0.77780    1.000
    H104     H        0.46460    0.73420    0.74480    1.000
    C182     C        0.92530    0.69923    0.54410    1.000
    H105     H        0.87470    0.70000    0.49420    1.000
    C183     C        0.92510    0.73650    0.59920    1.000
    H106     H        0.87760    0.76220    0.58520    1.000
    C184     C        0.99600    0.73622    0.67630    1.000
    C185     C        0.06560    0.69730    0.69080    1.000
    H107     H        0.11480    0.69510    0.74130    1.000
    C186     C        0.29140    0.59047    0.75220    1.000
    C187     C        0.99970    0.77628    0.73800    1.000
    C188     C        0.90520    0.80772    0.74270    1.000
    H108     H        0.83780    0.80500    0.70500    1.000
    C189     C        0.91120    0.84279    0.80280    1.000
    H109     H        0.84760    0.86410    0.80380    1.000
    C190     C        0.09500    0.81880    0.85490    1.000
    H110     H        0.16170    0.82240    0.89290    1.000
    C191     C        0.09620    0.78283    0.79500    1.000
    H111     H        0.16280    0.76290    0.79330    1.000
    C192     C        0.82190    0.68843    0.90640    1.000
    H112     H        0.87390    0.69370    0.85870    1.000
