data_functionalizedCrystal
_audit_creation_method	'EQeq! by Chris Wilmer'
_symmetry_space_group_name_H-M	'P1'
_symmetry_Int_Tables_number	1
_symmetry_cell_setting	triclinic
loop_
_symmetry_equiv_pos_as_xyz
  x,y,z
_cell_length_a	18.1115
_cell_length_b	18.1115
_cell_length_c	18.1115
_cell_angle_alpha	60
_cell_angle_beta	60
_cell_angle_gamma	60
loop_
_atom_site_label
_atom_site_type_symbol
_atom_site_fract_x
_atom_site_fract_y
_atom_site_fract_z
_atom_site_charge
Mof_Zn	Zn	0.11875	0.29375	0.29375	1.217
Mof_Zn	Zn	0.29374	0.11876	0.29375	1.216
Mof_Zn	Zn	0.29374	0.29375	0.11876	1.216
Mof_Zn	Zn	0.29374	0.29375	0.29375	1.216
Mof_Zn	Zn	0.70626	0.88124	0.70625	1.215
Mof_Zn	Zn	0.88125	0.70625	0.70625	1.215
Mof_Zn	Zn	0.70626	0.70625	0.88124	1.215
Mof_Zn	Zn	0.70626	0.70625	0.70625	1.215
Mof_C 	C 	0.1113	0.3887	0.3887	0.428
Mof_C 	C 	0.0533	0.4467	0.4467	-0.15
Mof_C 	C 	0.3887	0.1113	0.1113	0.431
Mof_C 	C 	0.4467	0.0533	0.0533	-0.159
Mof_C 	C 	0.1113	0.3887	0.1113	0.429
Mof_C 	C 	0.0533	0.4467	0.0533	-0.153
Mof_C 	C 	0.3887	0.1113	0.3887	0.43
Mof_C 	C 	0.4467	0.0533	0.4467	-0.157
Mof_C 	C 	0.1113	0.1113	0.3887	0.431
Mof_C 	C 	0.0533	0.0533	0.4467	-0.159
Mof_C 	C 	0.3887	0.3887	0.1113	0.428
Mof_C 	C 	0.4467	0.4467	0.0533	-0.15
Mof_C 	C 	0.6113	0.8887	0.6113	0.424
Mof_C 	C 	0.5533	0.9467	0.5533	-0.135
Mof_C 	C 	0.8887	0.6113	0.8887	0.425
Mof_C 	C 	0.9467	0.5533	0.9467	-0.141
Mof_C 	C 	0.6113	0.8887	0.8887	0.423
Mof_C 	C 	0.5533	0.9467	0.9467	-0.132
Mof_C 	C 	0.8887	0.6113	0.6113	0.426
Mof_C 	C 	0.9467	0.5533	0.5533	-0.145
Mof_C 	C 	0.8887	0.8887	0.6113	0.422
Mof_C 	C 	0.9467	0.9467	0.5533	-0.132
Mof_C 	C 	0.6113	0.6113	0.8887	0.426
Mof_C 	C 	0.5533	0.5533	0.9467	-0.145
Mof_C 	C 	0.027	0.53796	0.40804	0.064
Mof_C 	C 	0.0568	0.5828	0.3036	-0.153
Mof_C 	C 	0.53796	0.027	0.027	0.085
Mof_C 	C 	0.5828	0.0568	0.0568	-0.143
Mof_C 	C 	0.40804	0.027	0.027	0.085
Mof_C 	C 	0.3036	0.0568	0.0568	-0.142
Mof_C 	C 	0.027	0.40804	0.53796	0.067
Mof_C 	C 	0.0568	0.3036	0.5828	-0.162
Mof_C 	C 	0.027	0.40804	0.027	0.074
Mof_C 	C 	0.0568	0.3036	0.0568	-0.165
Mof_C 	C 	0.53796	0.027	0.40804	0.081
Mof_C 	C 	0.5828	0.0568	0.3036	-0.146
Mof_C 	C 	0.40804	0.027	0.53796	0.081
Mof_C 	C 	0.3036	0.0568	0.5828	-0.147
Mof_C 	C 	0.027	0.53796	0.027	0.069
Mof_C 	C 	0.0568	0.5828	0.0568	-0.149
Mof_C 	C 	0.027	0.027	0.53796	0.085
Mof_C 	C 	0.0568	0.0568	0.5828	-0.142
Mof_C 	C 	0.53796	0.40804	0.027	0.066
Mof_C 	C 	0.5828	0.3036	0.0568	-0.161
Mof_C 	C 	0.40804	0.53796	0.027	0.064
Mof_C 	C 	0.3036	0.5828	0.0568	-0.154
Mof_C 	C 	0.027	0.027	0.40804	0.086
Mof_C 	C 	0.0568	0.0568	0.3036	-0.142
Mof_C 	C 	0.46204	0.973	0.59196	0.037
Mof_C 	C 	0.4172	0.9432	0.6964	-0.155
Mof_C 	C 	0.973	0.46204	0.973	0.047
Mof_C 	C 	0.9432	0.4172	0.9432	-0.156
Mof_C 	C 	0.973	0.59196	0.973	0.049
Mof_C 	C 	0.9432	0.6964	0.9432	-0.158
Mof_C 	C 	0.59196	0.973	0.46204	0.037
Mof_C 	C 	0.6964	0.9432	0.4172	-0.154
Mof_C 	C 	0.59196	0.973	0.973	0.032
Mof_C 	C 	0.6964	0.9432	0.9432	-0.153
Mof_C 	C 	0.973	0.46204	0.59196	0.054
Mof_C 	C 	0.9432	0.4172	0.6964	-0.158
Mof_C 	C 	0.973	0.59196	0.46204	0.054
Mof_C 	C 	0.9432	0.6964	0.4172	-0.159
Mof_C 	C 	0.46204	0.973	0.973	0.032
Mof_C 	C 	0.4172	0.9432	0.9432	-0.153
Mof_C 	C 	0.973	0.973	0.46204	0.032
Mof_C 	C 	0.9432	0.9432	0.4172	-0.153
Mof_C 	C 	0.59196	0.46204	0.973	0.054
Mof_C 	C 	0.6964	0.4172	0.9432	-0.158
Mof_C 	C 	0.46204	0.59196	0.973	0.055
Mof_C 	C 	0.4172	0.6964	0.9432	-0.16
Mof_C 	C 	0.973	0.973	0.59196	0.032
Mof_C 	C 	0.9432	0.9432	0.6964	-0.152
Mof_O 	O 	0.25	0.25	0.25	-0.963
Mof_O 	O 	0.75	0.75	0.75	-0.962
Mof_O 	O 	0.07193	0.36665	0.36665	-0.522
Mof_O 	O 	0.36665	0.07193	0.19477	-0.52
Mof_O 	O 	0.36665	0.19477	0.07193	-0.523
Mof_O 	O 	0.19477	0.36665	0.36665	-0.522
Mof_O 	O 	0.07193	0.36665	0.19477	-0.522
Mof_O 	O 	0.36665	0.19477	0.36665	-0.523
Mof_O 	O 	0.36665	0.07193	0.36665	-0.52
Mof_O 	O 	0.19477	0.36665	0.07193	-0.522
Mof_O 	O 	0.07193	0.19477	0.36665	-0.522
Mof_O 	O 	0.36665	0.36665	0.07193	-0.521
Mof_O 	O 	0.36665	0.36665	0.19477	-0.523
Mof_O 	O 	0.19477	0.07193	0.36665	-0.521
Mof_O 	O 	0.63335	0.92807	0.63335	-0.523
Mof_O 	O 	0.92807	0.63335	0.80523	-0.523
Mof_O 	O 	0.80523	0.63335	0.92807	-0.523
Mof_O 	O 	0.63335	0.80523	0.63335	-0.522
Mof_O 	O 	0.63335	0.92807	0.80523	-0.524
Mof_O 	O 	0.80523	0.63335	0.63335	-0.523
Mof_O 	O 	0.92807	0.63335	0.63335	-0.523
Mof_O 	O 	0.63335	0.80523	0.92807	-0.522
Mof_O 	O 	0.80523	0.92807	0.63335	-0.523
Mof_O 	O 	0.63335	0.63335	0.92807	-0.524
Mof_O 	O 	0.63335	0.63335	0.80523	-0.522
Mof_O 	O 	0.92807	0.80523	0.63335	-0.522
Mof_H 	H 	0.99442	0.62939	0.28203	0.049
Mof_H 	H 	0.09768	0.52814	0.27068	0.048
Mof_H 	H 	0.10018	0.6238	0.2814	0.054
Mof_H 	H 	0.63289	0.09003	0.99466	0.05
Mof_H 	H 	0.61995	0.99511	0.10397	0.042
Mof_H 	H 	0.52848	0.10715	0.09365	0.047
Mof_H 	H 	0.27995	0.99729	0.11189	0.043
Mof_H 	H 	0.28324	0.08031	0.99627	0.05
Mof_H 	H 	0.27092	0.11469	0.08412	0.048
Mof_H 	H 	0.05061	0.27263	0.54554	0.056
Mof_H 	H 	0.01162	0.28507	0.65655	0.052
Mof_H 	H 	0.13005	0.27641	0.57924	0.057
Mof_H 	H 	0.04405	0.28515	0.01352	0.055
Mof_H 	H 	0.01631	0.27612	0.13091	0.059
Mof_H 	H 	0.13192	0.27284	0.04786	0.057
Mof_H 	H 	0.5281	0.10279	0.27068	0.048
Mof_H 	H 	0.62453	0.99455	0.28148	0.042
Mof_H 	H 	0.6287	0.09495	0.28195	0.055
Mof_H 	H 	0.28324	0.99627	0.64018	0.041
Mof_H 	H 	0.27092	0.08412	0.53028	0.049
Mof_H 	H 	0.27995	0.11189	0.61087	0.055
Mof_H 	H 	0.10184	0.62216	0.99479	0.049
Mof_H 	H 	0.09596	0.52825	0.10509	0.048
Mof_H 	H 	0.99449	0.63092	0.0924	0.049
Mof_H 	H 	0.10504	0.09602	0.52825	0.047
Mof_H 	H 	0.09246	0.99448	0.63086	0.041
Mof_H 	H 	0.99478	0.10178	0.62222	0.052
Mof_H 	H 	0.58591	0.27715	0.00955	0.058
Mof_H 	H 	0.5412	0.27215	0.12893	0.054
Mof_H 	H 	0.65421	0.28481	0.0538	0.052
Mof_H 	H 	0.27093	0.53034	0.11487	0.049
Mof_H 	H 	0.27992	0.61062	0.99737	0.051
Mof_H 	H 	0.28326	0.64036	0.08004	0.051
Mof_H 	H 	0.99967	0.11683	0.27921	0.051
Mof_H 	H 	0.07328	0.99827	0.28374	0.04
Mof_H 	H 	0.11933	0.07718	0.27115	0.05
Mof_H 	H 	0.43697	0.86636	0.72541	0.053
Mof_H 	H 	0.34055	0.9746	0.71461	0.046
Mof_H 	H 	0.44115	0.96676	0.72588	0.051
Mof_H 	H 	0.96777	0.3407	0.97691	0.046
Mof_H 	H 	0.97365	0.4346	0.8666	0.054
Mof_H 	H 	0.8663	0.44337	0.96421	0.053
Mof_H 	H 	0.88812	0.72005	0.00272	0.054
Mof_H 	H 	0.91586	0.72908	0.88533	0.048
Mof_H 	H 	0.00373	0.71677	0.91967	0.052
Mof_H 	H 	0.71485	0.95593	0.34272	0.047
Mof_H 	H 	0.72716	0.86808	0.45263	0.052
Mof_H 	H 	0.72388	0.9837	0.42332	0.051
Mof_H 	H 	0.72716	0.95212	0.86808	0.05
Mof_H 	H 	0.72388	0.8691	0.9837	0.053
Mof_H 	H 	0.71485	0.9865	0.95593	0.045
Mof_H 	H 	0.96949	0.34059	0.71461	0.048
Mof_H 	H 	0.86623	0.44183	0.72595	0.054
Mof_H 	H 	0.972	0.43625	0.72533	0.054
Mof_H 	H 	0.88343	0.729	0.46899	0.049
Mof_H 	H 	0.92242	0.71656	0.35799	0.051
Mof_H 	H 	0.00186	0.72034	0.39169	0.056
Mof_H 	H 	0.4324	0.86692	0.97579	0.053
Mof_H 	H 	0.44534	0.96184	0.86647	0.051
Mof_H 	H 	0.34093	0.97896	0.96546	0.044
Mof_H 	H 	0.96428	0.86629	0.44331	0.052
Mof_H 	H 	0.97685	0.96783	0.3407	0.045
Mof_H 	H 	0.86659	0.97359	0.43467	0.051
Mof_H 	H 	0.72385	0.42307	0.86918	0.055
Mof_H 	H 	0.71486	0.34279	0.98668	0.048
Mof_H 	H 	0.72718	0.45281	0.95186	0.053
Mof_H 	H 	0.35365	0.71607	0.00074	0.053
Mof_H 	H 	0.39836	0.72108	0.88136	0.054
Mof_H 	H 	0.46666	0.72874	0.92561	0.05
Mof_H 	H 	0.94509	0.87008	0.72767	0.051
Mof_H 	H 	0.87148	0.98864	0.72314	0.051
Mof_H 	H 	0.99114	0.94899	0.71508	0.046
_end
