data_functionalizedCrystal
_audit_creation_method	'EQeq! by Chris Wilmer'
_symmetry_space_group_name_H-M	'P1'
_symmetry_Int_Tables_number	1
_symmetry_cell_setting	triclinic
loop_
_symmetry_equiv_pos_as_xyz
  x,y,z
_cell_length_a	12.42
_cell_length_b	13.666
_cell_length_c	14.234
_cell_angle_alpha	96.943
_cell_angle_beta	114.715
_cell_angle_gamma	110.568
loop_
_atom_site_label
_atom_site_type_symbol
_atom_site_fract_x
_atom_site_fract_y
_atom_site_fract_z
_atom_site_charge
Mof_Mo	Mo	0.31504	0.46533	0.15966	1.117
Mof_Mo	Mo	0.31902	0.71535	0.26853	1.145
Mof_Mo	Mo	0.11232	0.714	0.27257	1.015
Mof_Mo	Mo	0.82431	0.45828	0.1719	1.137
Mof_Mo	Mo	0.82419	0.2744	0.10063	1.132
Mof_Mo	Mo	0.10851	0.27985	0.09043	0.906
Mof_Zn	Zn	0.15752	0.32103	0.42837	1.242
Mof_P 	P 	0.13756	0.47321	0.28854	0.571
Mof_P 	P 	0.57695	0.66462	0.38033	0.572
Mof_P 	P 	0.92331	0.66445	0.38296	0.632
Mof_P 	P 	0.97064	0.11998	0.20718	0.732
Mof_O 	O 	0.4939	0.547	0.3025	-0.42
Mof_O 	O 	0.2508	0.5373	0.268	-0.448
Mof_O 	O 	0.2804	0.3458	0.2209	-0.52
Mof_O 	O 	0.3432	0.6255	0.1527	-0.562
Mof_O 	O 	0.131	0.4139	0.0508	-0.976
Mof_O 	O 	0.4905	0.7178	0.3874	-0.39
Mof_O 	O 	0.2814	0.7357	0.3866	-0.496
Mof_O 	O 	0.1363	0.6584	0.1533	-0.941
Mof_O 	O 	0.062	0.7177	0.3943	-0.45
Mof_O 	O 	0.0518	0.5344	0.2757	-0.484
Mof_O 	O 	0.9075	0.6181	0.1617	-0.49
Mof_O 	O 	0.8541	0.5408	0.3198	-0.387
Mof_O 	O 	0.8349	0.3412	0.2344	-0.502
Mof_O 	O 	0.8588	0.4075	0.0585	-0.916
Mof_O 	O 	0.9019	0.2324	0.0024	-0.509
Mof_O 	O 	0.86	0.1564	0.1679	-0.455
Mof_O 	O 	0.0521	0.3575	0.2041	-0.52
Mof_O 	O 	0.0466	0.1487	0.144	-0.636
Mof_O 	O 	0.6643	0.7398	0.3424	-0.277
Mof_O 	O 	0.8447	0.7245	0.3251	-0.271
Mof_O 	O 	0.0671	0.1777	0.3285	-0.544
Mof_O 	O 	0.9092	0.9965	0.1863	-0.337
Mof_O 	O 	0.9412	0.6763	0.4964	-0.379
Mof_O 	O 	0.6615	0.6599	0.4909	-0.411
Mof_O 	O 	0.1951	0.4647	0.4035	-0.414
Mof_Mo	Mo	0.68496	0.53467	0.84034	1.235
Mof_Mo	Mo	0.68098	0.28465	0.73147	1.197
Mof_Mo	Mo	0.88768	0.286	0.72743	1.304
Mof_Mo	Mo	0.17569	0.54172	0.8281	1.171
Mof_Mo	Mo	0.17581	0.7256	0.89937	1.194
Mof_Mo	Mo	0.89149	0.72015	0.90957	1.28
Mof_Zn	Zn	0.84248	0.67897	0.57163	1.248
Mof_P 	P 	0.86244	0.52679	0.71146	0.582
Mof_P 	P 	0.42305	0.33538	0.61967	0.575
Mof_P 	P 	0.07669	0.33555	0.61704	0.485
Mof_P 	P 	0.02936	0.88002	0.79282	0.429
Mof_O 	O 	0.5061	0.453	0.6975	-0.411
Mof_O 	O 	0.7492	0.4627	0.732	-0.466
Mof_O 	O 	0.7196	0.6542	0.7791	-0.554
Mof_O 	O 	0.6568	0.3745	0.8473	-0.464
Mof_O 	O 	0.869	0.5861	0.9492	-0.831
Mof_O 	O 	0.5095	0.2822	0.6126	-0.401
Mof_O 	O 	0.7186	0.2643	0.6134	-0.543
Mof_O 	O 	0.8637	0.3416	0.8467	-0.79
Mof_O 	O 	0.938	0.2823	0.6057	-0.318
Mof_O 	O 	0.9482	0.4656	0.7243	-0.406
Mof_O 	O 	0.0925	0.3819	0.8383	-0.517
Mof_O 	O 	0.1459	0.4592	0.6802	-0.404
Mof_O 	O 	0.1651	0.6588	0.7656	-0.559
Mof_O 	O 	0.1412	0.5925	0.9415	-0.846
Mof_O 	O 	0.0981	0.7676	0.9976	-0.505
Mof_O 	O 	0.14	0.8436	0.8321	-0.43
Mof_O 	O 	0.9479	0.6425	0.7959	-0.457
Mof_O 	O 	0.9534	0.8513	0.856	-0.42
Mof_O 	O 	0.3357	0.2602	0.6576	-0.264
Mof_O 	O 	0.1553	0.2755	0.6749	-0.265
Mof_O 	O 	0.9329	0.8223	0.6715	-0.358
Mof_O 	O 	0.0908	0.0035	0.8137	-0.288
Mof_O 	O 	0.0588	0.3237	0.5036	-0.441
Mof_O 	O 	0.3385	0.3401	0.5091	-0.418
Mof_O 	O 	0.8049	0.5353	0.5965	-0.401
Mof_Na	Na	-0	0.5	-0	2.934
Mof_Na	Na	-0	0	-0	0.657
_end
