# CIF file generated by openbabel 3.1.0, see https://openbabel.org
data_I
_chemical_name_common 'MUFJAZ01_clean'
_cell_length_a 7.9219
_cell_length_b 8.3194
_cell_length_c 17.476
_cell_angle_alpha 90
_cell_angle_beta 90
_cell_angle_gamma 109.008
_space_group_name_H-M_alt 'P 1'
_space_group_name_Hall 'P 1'
loop_
    _symmetry_equiv_pos_as_xyz
    x,y,z
loop_
    _atom_site_label
    _atom_site_type_symbol
    _atom_site_fract_x
    _atom_site_fract_y
    _atom_site_fract_z
    _atom_site_occupancy
    Eu1      Eu       0.75582    0.28030    0.97778    1.000
    Eu2      Eu       0.74418    0.71970    0.47778    1.000
    Eu3      Eu       0.24418    0.71970    0.02222    1.000
    Eu4      Eu       0.25582    0.28030    0.52222    1.000
    H1       H        0.83190    0.62540    0.71270    1.000
    H2       H        0.11000    0.93000    0.86900    1.000
    H3       H        0.66810    0.37460    0.21270    1.000
    H4       H        0.39000    0.07000    0.36900    1.000
    H5       H        0.16810    0.37460    0.28730    1.000
    H6       H        0.89000    0.07000    0.13100    1.000
    H7       H        0.33190    0.62540    0.78730    1.000
    H8       H        0.61000    0.93000    0.63100    1.000
    C1       C        0.90220    0.59440    0.87700    1.000
    C2       C        0.95430    0.72260    0.81520    1.000
    C3       C        0.91110    0.71620    0.73890    1.000
    C4       C        0.01030    0.87390    0.70870    1.000
    C5       C        0.01920    0.94050    0.63000    1.000
    C6       C        0.42920    0.43660    0.97450    1.000
    C7       C        0.59780    0.40560    0.37700    1.000
    C8       C        0.54570    0.27740    0.31520    1.000
    C9       C        0.58890    0.28380    0.23890    1.000
    C10      C        0.48970    0.12610    0.20870    1.000
    C11      C        0.48080    0.05950    0.13000    1.000
    C12      C        0.07080    0.56340    0.47450    1.000
    C13      C        0.09780    0.40560    0.12300    1.000
    C14      C        0.04570    0.27740    0.18480    1.000
    C15      C        0.08890    0.28380    0.26110    1.000
    C16      C        0.98970    0.12610    0.29130    1.000
    C17      C        0.98080    0.05950    0.37000    1.000
    C18      C        0.57080    0.56340    0.02550    1.000
    C19      C        0.40220    0.59440    0.62300    1.000
    C20      C        0.45430    0.72260    0.68480    1.000
    C21      C        0.41110    0.71620    0.76110    1.000
    C22      C        0.51030    0.87390    0.79130    1.000
    C23      C        0.51920    0.94050    0.87000    1.000
    C24      C        0.92920    0.43660    0.52550    1.000
    N1       N        0.07840    0.87760    0.82910    1.000
    N2       N        0.11030    0.97010    0.76500    1.000
    N3       N        0.42160    0.12240    0.32910    1.000
    N4       N        0.38970    0.02990    0.26500    1.000
    N5       N        0.92160    0.12240    0.17090    1.000
    N6       N        0.88970    0.02990    0.23500    1.000
    N7       N        0.57840    0.87760    0.67090    1.000
    N8       N        0.61030    0.97010    0.73500    1.000
    O1       O        0.99920    0.61730    0.93630    1.000
    O2       O        0.76500    0.46970    0.86920    1.000
    O3       O        0.12420    0.08570    0.61830    1.000
    O4       O        0.92290    0.84740    0.58090    1.000
    O5       O        0.45180    0.29950    0.95640    1.000
    O6       O        0.29540    0.48000    0.95740    1.000
    O7       O        0.50080    0.38270    0.43630    1.000
    O8       O        0.73500    0.53030    0.36920    1.000
    O9       O        0.37580    0.91430    0.11830    1.000
    O10      O        0.57710    0.15260    0.08090    1.000
    O11      O        0.04820    0.70050    0.45640    1.000
    O12      O        0.20460    0.52000    0.45740    1.000
    O13      O        0.00080    0.38270    0.06370    1.000
    O14      O        0.23500    0.53030    0.13080    1.000
    O15      O        0.87580    0.91430    0.38170    1.000
    O16      O        0.07710    0.15260    0.41910    1.000
    O17      O        0.54820    0.70050    0.04360    1.000
    O18      O        0.70460    0.52000    0.04260    1.000
    O19      O        0.49920    0.61730    0.56370    1.000
    O20      O        0.26500    0.46970    0.63080    1.000
    O21      O        0.62420    0.08570    0.88170    1.000
    O22      O        0.42290    0.84740    0.91910    1.000
    O23      O        0.95180    0.29950    0.54360    1.000
    O24      O        0.79540    0.48000    0.54260    1.000
