# CIF file generated by openbabel 3.1.0, see https://openbabel.org
data_I
_chemical_name_common 'SAHYIL_charged'
_cell_length_a 15.8638
_cell_length_b 15.8638
_cell_length_c 21.568
_cell_angle_alpha 90
_cell_angle_beta 90
_cell_angle_gamma 90
_space_group_name_H-M_alt 'P 1'
_space_group_name_Hall 'P 1'
loop_
    _symmetry_equiv_pos_as_xyz
    x,y,z
loop_
    _atom_site_label
    _atom_site_type_symbol
    _atom_site_fract_x
    _atom_site_fract_y
    _atom_site_fract_z
    _atom_site_occupancy
    Cd1      Cd       0.05916    0.94084    0.75000    1.000
    Cd2      Cd       0.94084    0.05916    0.25000    1.000
    Cd3      Cd       0.55916    0.55916    0.50000    1.000
    Cd4      Cd       0.44084    0.44084    0.00000    1.000
    H1       H        0.93840    0.84270    0.84180    1.000
    H2       H        0.84440    0.73560    0.85730    1.000
    H3       H        0.89970    0.65040    0.68730    1.000
    H4       H        0.99400    0.76140    0.67620    1.000
    H5       H        0.72110    0.67600    0.84370    1.000
    H6       H        0.61950    0.45570    0.78960    1.000
    H7       H        0.73520    0.43220    0.72610    1.000
    H8       H        0.83450    0.53610    0.71120    1.000
    H9       H        0.50920    0.70480    0.04060    1.000
    H10      H        0.41540    0.79990    0.08520    1.000
    H11      H        0.29820    0.85120    0.03070    1.000
    H12      H        0.35900    0.69540    0.88870    1.000
    H13      H        0.23830    0.71300    0.85490    1.000
    H14      H        0.13950    0.76910    0.79110    1.000
    H15      H        0.11250    0.96410    0.90020    1.000
    H16      H        0.21370    0.91500    0.96750    1.000
    H17      H        0.52760    0.75670    0.85510    1.000
    H18      H        0.59890    0.76100    0.89970    1.000
    H19      H        0.06160    0.15730    0.34180    1.000
    H20      H        0.15560    0.26440    0.35730    1.000
    H21      H        0.10030    0.34960    0.18730    1.000
    H22      H        0.00600    0.23860    0.17620    1.000
    H23      H        0.27890    0.32400    0.34370    1.000
    H24      H        0.38050    0.54430    0.28960    1.000
    H25      H        0.26480    0.56780    0.22610    1.000
    H26      H        0.16550    0.46390    0.21120    1.000
    H27      H        0.49080    0.29520    0.54060    1.000
    H28      H        0.58460    0.20010    0.58520    1.000
    H29      H        0.70180    0.14880    0.53070    1.000
    H30      H        0.64100    0.30460    0.38870    1.000
    H31      H        0.76170    0.28700    0.35490    1.000
    H32      H        0.86050    0.23090    0.29110    1.000
    H33      H        0.88750    0.03590    0.40020    1.000
    H34      H        0.78630    0.08500    0.46750    1.000
    H35      H        0.47240    0.24330    0.35510    1.000
    H36      H        0.40110    0.23900    0.39970    1.000
    H37      H        0.65730    0.43840    0.59180    1.000
    H38      H        0.76440    0.34440    0.60730    1.000
    H39      H        0.84960    0.39970    0.43730    1.000
    H40      H        0.73860    0.49400    0.42620    1.000
    H41      H        0.82400    0.22110    0.59370    1.000
    H42      H        0.04430    0.11950    0.53960    1.000
    H43      H        0.06780    0.23520    0.47610    1.000
    H44      H        0.96390    0.33450    0.46120    1.000
    H45      H        0.79520    0.00920    0.79060    1.000
    H46      H        0.70010    0.91540    0.83520    1.000
    H47      H        0.64880    0.79820    0.78070    1.000
    H48      H        0.80460    0.85900    0.63870    1.000
    H49      H        0.78700    0.73830    0.60490    1.000
    H50      H        0.73090    0.63950    0.54110    1.000
    H51      H        0.53590    0.61250    0.65020    1.000
    H52      H        0.58500    0.71370    0.71750    1.000
    H53      H        0.74330    0.02760    0.60510    1.000
    H54      H        0.73900    0.09890    0.64970    1.000
    H55      H        0.34270    0.56160    0.09180    1.000
    H56      H        0.23560    0.65560    0.10730    1.000
    H57      H        0.15040    0.60030    0.93730    1.000
    H58      H        0.26140    0.50600    0.92620    1.000
    H59      H        0.17600    0.77890    0.09370    1.000
    H60      H        0.95570    0.88050    0.03960    1.000
    H61      H        0.93220    0.76480    0.97610    1.000
    H62      H        0.03610    0.66550    0.96120    1.000
    H63      H        0.20480    0.99080    0.29060    1.000
    H64      H        0.29990    0.08460    0.33520    1.000
    H65      H        0.35120    0.20180    0.28070    1.000
    H66      H        0.19540    0.14100    0.13870    1.000
    H67      H        0.21300    0.26170    0.10490    1.000
    H68      H        0.26910    0.36050    0.04110    1.000
    H69      H        0.46410    0.38750    0.15020    1.000
    H70      H        0.41500    0.28630    0.21750    1.000
    H71      H        0.25670    0.97240    0.10510    1.000
    H72      H        0.26100    0.90110    0.14970    1.000
    H73      H        0.56160    0.34270    0.90820    1.000
    H74      H        0.65560    0.23560    0.89270    1.000
    H75      H        0.60030    0.15040    0.06270    1.000
    H76      H        0.50600    0.26140    0.07380    1.000
    H77      H        0.77890    0.17600    0.90630    1.000
    H78      H        0.88050    0.95570    0.96040    1.000
    H79      H        0.76480    0.93220    0.02390    1.000
    H80      H        0.66550    0.03610    0.03880    1.000
    H81      H        0.99080    0.20480    0.70940    1.000
    H82      H        0.08460    0.29990    0.66480    1.000
    H83      H        0.20180    0.35120    0.71930    1.000
    H84      H        0.14100    0.19540    0.86130    1.000
    H85      H        0.26170    0.21300    0.89510    1.000
    H86      H        0.36050    0.26910    0.95890    1.000
    H87      H        0.38750    0.46410    0.84980    1.000
    H88      H        0.28630    0.41500    0.78250    1.000
    H89      H        0.97240    0.25670    0.89490    1.000
    H90      H        0.90110    0.26100    0.85030    1.000
    H91      H        0.43840    0.65730    0.40820    1.000
    H92      H        0.34440    0.76440    0.39270    1.000
    H93      H        0.39970    0.84960    0.56270    1.000
    H94      H        0.49400    0.73860    0.57380    1.000
    H95      H        0.22110    0.82400    0.40630    1.000
    H96      H        0.11950    0.04430    0.46040    1.000
    H97      H        0.23520    0.06780    0.52390    1.000
    H98      H        0.33450    0.96390    0.53880    1.000
    H99      H        0.00920    0.79520    0.20940    1.000
    H100     H        0.91540    0.70010    0.16480    1.000
    H101     H        0.79820    0.64880    0.21930    1.000
    H102     H        0.85900    0.80460    0.36130    1.000
    H103     H        0.73830    0.78700    0.39510    1.000
    H104     H        0.63950    0.73090    0.45890    1.000
    H105     H        0.61250    0.53590    0.34980    1.000
    H106     H        0.71370    0.58500    0.28250    1.000
    H107     H        0.02760    0.74330    0.39490    1.000
    H108     H        0.09890    0.73900    0.35030    1.000
    H109     H        0.84270    0.93840    0.15820    1.000
    H110     H        0.73560    0.84440    0.14270    1.000
    H111     H        0.65040    0.89970    0.31270    1.000
    H112     H        0.76140    0.99400    0.32380    1.000
    H113     H        0.67600    0.72110    0.15630    1.000
    H114     H        0.45570    0.61950    0.21040    1.000
    H115     H        0.43220    0.73520    0.27390    1.000
    H116     H        0.53610    0.83450    0.28880    1.000
    H117     H        0.70480    0.50920    0.95940    1.000
    H118     H        0.79990    0.41540    0.91480    1.000
    H119     H        0.85120    0.29820    0.96930    1.000
    H120     H        0.69540    0.35900    0.11130    1.000
    H121     H        0.71300    0.23830    0.14510    1.000
    H122     H        0.76910    0.13950    0.20890    1.000
    H123     H        0.96410    0.11250    0.09980    1.000
    H124     H        0.91500    0.21370    0.03250    1.000
    H125     H        0.75670    0.52760    0.14490    1.000
    H126     H        0.76100    0.59890    0.10030    1.000
    H127     H        0.15730    0.06160    0.65820    1.000
    H128     H        0.26440    0.15560    0.64270    1.000
    H129     H        0.34960    0.10030    0.81270    1.000
    H130     H        0.23860    0.00600    0.82380    1.000
    H131     H        0.32400    0.27890    0.65630    1.000
    H132     H        0.54430    0.38050    0.71040    1.000
    H133     H        0.56780    0.26480    0.77390    1.000
    H134     H        0.46390    0.16550    0.78880    1.000
    H135     H        0.29520    0.49080    0.45940    1.000
    H136     H        0.20010    0.58460    0.41480    1.000
    H137     H        0.14880    0.70180    0.46930    1.000
    H138     H        0.30460    0.64100    0.61130    1.000
    H139     H        0.28700    0.76170    0.64510    1.000
    H140     H        0.23090    0.86050    0.70890    1.000
    H141     H        0.03590    0.88750    0.59980    1.000
    H142     H        0.08500    0.78630    0.53250    1.000
    H143     H        0.24330    0.47240    0.64490    1.000
    H144     H        0.23900    0.40110    0.60030    1.000
    C1       C        0.93060    0.80310    0.80930    1.000
    C2       C        0.87330    0.73980    0.81880    1.000
    C3       C        0.85780    0.68140    0.77170    1.000
    C4       C        0.90540    0.69020    0.72000    1.000
    C5       C        0.96290    0.75640    0.71360    1.000
    C6       C        0.79190    0.61610    0.77870    1.000
    C7       C        0.72380    0.62650    0.81910    1.000
    C8       C        0.66080    0.56770    0.82450    1.000
    C9       C        0.66370    0.49590    0.78770    1.000
    C10      C        0.73100    0.48350    0.74860    1.000
    C11      C        0.79180    0.54350    0.74160    1.000
    C12      C        0.59150    0.57490    0.86740    1.000
    C13      C        0.49510    0.62730    0.93100    1.000
    C14      C        0.44100    0.68950    0.96170    1.000
    C15      C        0.45990    0.72180    0.01900    1.000
    C16      C        0.40500    0.77990    0.04440    1.000
    C17      C        0.33420    0.81040    0.01220    1.000
    C18      C        0.31830    0.78050    0.95400    1.000
    C19      C        0.37110    0.71810    0.92850    1.000
    C20      C        0.24640    0.80990    0.91610    1.000
    C21      C        0.21620    0.76720    0.86420    1.000
    C22      C        0.15640    0.80030    0.82660    1.000
    C23      C        0.14120    0.91350    0.88990    1.000
    C24      C        0.20180    0.88490    0.93040    1.000
    C25      C        0.06940    0.19690    0.30930    1.000
    C26      C        0.12670    0.26020    0.31880    1.000
    C27      C        0.14220    0.31860    0.27170    1.000
    C28      C        0.09460    0.30980    0.22000    1.000
    C29      C        0.03710    0.24360    0.21360    1.000
    C30      C        0.20810    0.38390    0.27870    1.000
    C31      C        0.27620    0.37350    0.31910    1.000
    C32      C        0.33920    0.43230    0.32450    1.000
    C33      C        0.33630    0.50410    0.28770    1.000
    C34      C        0.26900    0.51650    0.24860    1.000
    C35      C        0.20820    0.45650    0.24160    1.000
    C36      C        0.40850    0.42510    0.36740    1.000
    C37      C        0.50490    0.37270    0.43100    1.000
    C38      C        0.55900    0.31050    0.46170    1.000
    C39      C        0.54010    0.27820    0.51900    1.000
    C40      C        0.59500    0.22010    0.54440    1.000
    C41      C        0.66580    0.18960    0.51220    1.000
    C42      C        0.68170    0.21950    0.45400    1.000
    C43      C        0.62890    0.28190    0.42850    1.000
    C44      C        0.75360    0.19010    0.41610    1.000
    C45      C        0.78380    0.23280    0.36420    1.000
    C46      C        0.84360    0.19970    0.32660    1.000
    C47      C        0.85880    0.08650    0.38990    1.000
    C48      C        0.79820    0.11510    0.43040    1.000
    C49      C        0.69690    0.43060    0.55930    1.000
    C50      C        0.76020    0.37330    0.56880    1.000
    C51      C        0.81860    0.35780    0.52170    1.000
    C52      C        0.80980    0.40540    0.47000    1.000
    C53      C        0.74360    0.46290    0.46360    1.000
    C54      C        0.88390    0.29190    0.52870    1.000
    C55      C        0.87350    0.22380    0.56910    1.000
    C56      C        0.93230    0.16080    0.57450    1.000
    C57      C        0.00410    0.16370    0.53770    1.000
    C58      C        0.01650    0.23100    0.49860    1.000
    C59      C        0.95650    0.29180    0.49160    1.000
    C60      C        0.92510    0.09150    0.61740    1.000
    C61      C        0.87270    0.99510    0.68100    1.000
    C62      C        0.81050    0.94100    0.71170    1.000
    C63      C        0.77820    0.95990    0.76900    1.000
    C64      C        0.72010    0.90500    0.79440    1.000
    C65      C        0.68960    0.83420    0.76220    1.000
    C66      C        0.71950    0.81830    0.70400    1.000
    C67      C        0.78190    0.87110    0.67850    1.000
    C68      C        0.69010    0.74640    0.66610    1.000
    C69      C        0.73280    0.71620    0.61420    1.000
    C70      C        0.69970    0.65640    0.57660    1.000
    C71      C        0.58650    0.64120    0.63990    1.000
    C72      C        0.61510    0.70180    0.68040    1.000
    C73      C        0.30310    0.56940    0.05930    1.000
    C74      C        0.23980    0.62670    0.06880    1.000
    C75      C        0.18140    0.64220    0.02170    1.000
    C76      C        0.19020    0.59460    0.97000    1.000
    C77      C        0.25640    0.53710    0.96360    1.000
    C78      C        0.11610    0.70810    0.02870    1.000
    C79      C        0.12650    0.77620    0.06910    1.000
    C80      C        0.06770    0.83920    0.07450    1.000
    C81      C        0.99590    0.83630    0.03770    1.000
    C82      C        0.98350    0.76900    0.99860    1.000
    C83      C        0.04350    0.70820    0.99160    1.000
    C84      C        0.07490    0.90850    0.11740    1.000
    C85      C        0.12730    0.00490    0.18100    1.000
    C86      C        0.18950    0.05900    0.21170    1.000
    C87      C        0.22180    0.04010    0.26900    1.000
    C88      C        0.27990    0.09500    0.29440    1.000
    C89      C        0.31040    0.16580    0.26220    1.000
    C90      C        0.28050    0.18170    0.20400    1.000
    C91      C        0.21810    0.12890    0.17850    1.000
    C92      C        0.30990    0.25360    0.16610    1.000
    C93      C        0.26720    0.28380    0.11420    1.000
    C94      C        0.30030    0.34360    0.07660    1.000
    C95      C        0.41350    0.35880    0.13990    1.000
    C96      C        0.38490    0.29820    0.18040    1.000
    C97      C        0.56940    0.30310    0.94070    1.000
    C98      C        0.62670    0.23980    0.93120    1.000
    C99      C        0.64220    0.18140    0.97830    1.000
    C100     C        0.59460    0.19020    0.03000    1.000
    C101     C        0.53710    0.25640    0.03640    1.000
    C102     C        0.70810    0.11610    0.97130    1.000
    C103     C        0.77620    0.12650    0.93090    1.000
    C104     C        0.83920    0.06770    0.92550    1.000
    C105     C        0.83630    0.99590    0.96230    1.000
    C106     C        0.76900    0.98350    0.00140    1.000
    C107     C        0.70820    0.04350    0.00840    1.000
    C108     C        0.90850    0.07490    0.88260    1.000
    C109     C        0.00490    0.12730    0.81900    1.000
    C110     C        0.05900    0.18950    0.78830    1.000
    C111     C        0.04010    0.22180    0.73100    1.000
    C112     C        0.09500    0.27990    0.70560    1.000
    C113     C        0.16580    0.31040    0.73780    1.000
    C114     C        0.18170    0.28050    0.79600    1.000
    C115     C        0.12890    0.21810    0.82150    1.000
    C116     C        0.25360    0.30990    0.83390    1.000
    C117     C        0.28380    0.26720    0.88580    1.000
    C118     C        0.34360    0.30030    0.92340    1.000
    C119     C        0.35880    0.41350    0.86010    1.000
    C120     C        0.29820    0.38490    0.81960    1.000
    C121     C        0.43060    0.69690    0.44070    1.000
    C122     C        0.37330    0.76020    0.43120    1.000
    C123     C        0.35780    0.81860    0.47830    1.000
    C124     C        0.40540    0.80980    0.53000    1.000
    C125     C        0.46290    0.74360    0.53640    1.000
    C126     C        0.29190    0.88390    0.47130    1.000
    C127     C        0.22380    0.87350    0.43090    1.000
    C128     C        0.16080    0.93230    0.42550    1.000
    C129     C        0.16370    0.00410    0.46230    1.000
    C130     C        0.23100    0.01650    0.50140    1.000
    C131     C        0.29180    0.95650    0.50840    1.000
    C132     C        0.09150    0.92510    0.38260    1.000
    C133     C        0.99510    0.87270    0.31900    1.000
    C134     C        0.94100    0.81050    0.28830    1.000
    C135     C        0.95990    0.77820    0.23100    1.000
    C136     C        0.90500    0.72010    0.20560    1.000
    C137     C        0.83420    0.68960    0.23780    1.000
    C138     C        0.81830    0.71950    0.29600    1.000
    C139     C        0.87110    0.78190    0.32150    1.000
    C140     C        0.74640    0.69010    0.33390    1.000
    C141     C        0.71620    0.73280    0.38580    1.000
    C142     C        0.65640    0.69970    0.42340    1.000
    C143     C        0.64120    0.58650    0.36010    1.000
    C144     C        0.70180    0.61510    0.31960    1.000
    C145     C        0.80310    0.93060    0.19070    1.000
    C146     C        0.73980    0.87330    0.18120    1.000
    C147     C        0.68140    0.85780    0.22830    1.000
    C148     C        0.69020    0.90540    0.28000    1.000
    C149     C        0.75640    0.96290    0.28640    1.000
    C150     C        0.61610    0.79190    0.22130    1.000
    C151     C        0.62650    0.72380    0.18090    1.000
    C152     C        0.56770    0.66080    0.17550    1.000
    C153     C        0.49590    0.66370    0.21230    1.000
    C154     C        0.48350    0.73100    0.25140    1.000
    C155     C        0.54350    0.79180    0.25840    1.000
    C156     C        0.57490    0.59150    0.13260    1.000
    C157     C        0.62730    0.49510    0.06900    1.000
    C158     C        0.68950    0.44100    0.03830    1.000
    C159     C        0.72180    0.45990    0.98100    1.000
    C160     C        0.77990    0.40500    0.95560    1.000
    C161     C        0.81040    0.33420    0.98780    1.000
    C162     C        0.78050    0.31830    0.04600    1.000
    C163     C        0.71810    0.37110    0.07150    1.000
    C164     C        0.80990    0.24640    0.08390    1.000
    C165     C        0.76720    0.21620    0.13580    1.000
    C166     C        0.80030    0.15640    0.17340    1.000
    C167     C        0.91350    0.14120    0.11010    1.000
    C168     C        0.88490    0.20180    0.06960    1.000
    C169     C        0.19690    0.06940    0.69070    1.000
    C170     C        0.26020    0.12670    0.68120    1.000
    C171     C        0.31860    0.14220    0.72830    1.000
    C172     C        0.30980    0.09460    0.78000    1.000
    C173     C        0.24360    0.03710    0.78640    1.000
    C174     C        0.38390    0.20810    0.72130    1.000
    C175     C        0.37350    0.27620    0.68090    1.000
    C176     C        0.43230    0.33920    0.67550    1.000
    C177     C        0.50410    0.33630    0.71230    1.000
    C178     C        0.51650    0.26900    0.75140    1.000
    C179     C        0.45650    0.20820    0.75840    1.000
    C180     C        0.42510    0.40850    0.63260    1.000
    C181     C        0.37270    0.50490    0.56900    1.000
    C182     C        0.31050    0.55900    0.53830    1.000
    C183     C        0.27820    0.54010    0.48100    1.000
    C184     C        0.22010    0.59500    0.45560    1.000
    C185     C        0.18960    0.66580    0.48780    1.000
    C186     C        0.21950    0.68170    0.54600    1.000
    C187     C        0.28190    0.62890    0.57150    1.000
    C188     C        0.19010    0.75360    0.58390    1.000
    C189     C        0.23280    0.78380    0.63580    1.000
    C190     C        0.19970    0.84360    0.67340    1.000
    C191     C        0.08650    0.85880    0.61010    1.000
    C192     C        0.11510    0.79820    0.56960    1.000
    N1       N        0.97550    0.81330    0.75880    1.000
    N2       N        0.49380    0.54430    0.93360    1.000
    N3       N        0.55390    0.51220    0.89480    1.000
    N4       N        0.55640    0.64850    0.88960    1.000
    N5       N        0.57580    0.73090    0.86810    1.000
    N6       N        0.12010    0.87490    0.83720    1.000
    N7       N        0.02450    0.18670    0.25880    1.000
    N8       N        0.50620    0.45570    0.43360    1.000
    N9       N        0.44610    0.48780    0.39480    1.000
    N10      N        0.44360    0.35150    0.38960    1.000
    N11      N        0.42420    0.26910    0.36810    1.000
    N12      N        0.87990    0.12510    0.33720    1.000
    N13      N        0.68670    0.47550    0.50880    1.000
    N14      N        0.95570    0.99380    0.68360    1.000
    N15      N        0.98780    0.05390    0.64480    1.000
    N16      N        0.85150    0.05640    0.63960    1.000
    N17      N        0.76910    0.07580    0.61810    1.000
    N18      N        0.62510    0.62010    0.58720    1.000
    N19      N        0.31330    0.52450    0.00880    1.000
    N20      N        0.04430    0.00620    0.18360    1.000
    N21      N        0.01220    0.94610    0.14480    1.000
    N22      N        0.14850    0.94360    0.13960    1.000
    N23      N        0.23090    0.92420    0.11810    1.000
    N24      N        0.37490    0.37990    0.08720    1.000
    N25      N        0.52450    0.31330    0.99120    1.000
    N26      N        0.00620    0.04430    0.81640    1.000
    N27      N        0.94610    0.01220    0.85520    1.000
    N28      N        0.94360    0.14850    0.86040    1.000
    N29      N        0.92420    0.23090    0.88190    1.000
    N30      N        0.37990    0.37490    0.91280    1.000
    N31      N        0.47550    0.68670    0.49120    1.000
    N32      N        0.99380    0.95570    0.31640    1.000
    N33      N        0.05390    0.98780    0.35520    1.000
    N34      N        0.05640    0.85150    0.36040    1.000
    N35      N        0.07580    0.76910    0.38190    1.000
    N36      N        0.62010    0.62510    0.41280    1.000
    N37      N        0.81330    0.97550    0.24120    1.000
    N38      N        0.54430    0.49380    0.06640    1.000
    N39      N        0.51220    0.55390    0.10520    1.000
    N40      N        0.64850    0.55640    0.11040    1.000
    N41      N        0.73090    0.57580    0.13190    1.000
    N42      N        0.87490    0.12010    0.16280    1.000
    N43      N        0.18670    0.02450    0.74120    1.000
    N44      N        0.45570    0.50620    0.56640    1.000
    N45      N        0.48780    0.44610    0.60520    1.000
    N46      N        0.35150    0.44360    0.61040    1.000
    N47      N        0.26910    0.42420    0.63190    1.000
    N48      N        0.12510    0.87990    0.66280    1.000
    Cl1      Cl       0.62370    0.37630    0.25000    1.000
    O1       O        0.61930    0.43350    0.21100    1.000
    O2       O        0.61430    0.30820    0.22240    1.000
    O3       O        0.56650    0.38070    0.28900    1.000
    O4       O        0.69180    0.38570    0.27760    1.000
    Cl2      Cl       0.37630    0.62370    0.75000    1.000
    O5       O        0.38070    0.56650    0.71100    1.000
    O6       O        0.38570    0.69180    0.72240    1.000
    O7       O        0.43350    0.61930    0.78900    1.000
    O8       O        0.30820    0.61430    0.77760    1.000
    Cl3      Cl       0.12370    0.12370    0.00000    1.000
    O9       O        0.06650    0.11930    0.96100    1.000
    O10      O        0.19180    0.11430    0.97240    1.000
    O11      O        0.11930    0.06650    0.03900    1.000
    O12      O        0.11430    0.19180    0.02760    1.000
    Cl4      Cl       0.87630    0.87630    0.50000    1.000
    O13      O        0.93350    0.88070    0.46100    1.000
    O14      O        0.80820    0.88570    0.47240    1.000
    O15      O        0.88070    0.93350    0.53900    1.000
    O16      O        0.88570    0.80820    0.52760    1.000
