data_functionalizedCrystal
_audit_creation_method	'EQeq! by Chris Wilmer'
_symmetry_space_group_name_H-M	'P1'
_symmetry_Int_Tables_number	1
_symmetry_cell_setting	triclinic
loop_
_symmetry_equiv_pos_as_xyz
  x,y,z
_cell_length_a	9.3993
_cell_length_b	10.2783
_cell_length_c	17.5516
_cell_angle_alpha	103.055
_cell_angle_beta	90
_cell_angle_gamma	90
loop_
_atom_site_label
_atom_site_type_symbol
_atom_site_fract_x
_atom_site_fract_y
_atom_site_fract_z
_atom_site_charge
Mof_Cd	Cd	0.16105	0.22595	0.7502	0.399
Mof_Cd	Cd	0.66105	0.77405	0.7498	0.4
Mof_Cd	Cd	0.83895	0.77405	0.2498	0.398
Mof_Cd	Cd	0.33895	0.22595	0.2502	0.399
Mof_H 	H 	0.1343	0.8467	0.6362	0.078
Mof_H 	H 	0.1224	0.7618	0.5018	0.035
Mof_H 	H 	0.325	0.7475	0.426	0.071
Mof_H 	H 	0.5535	0.9077	0.6174	0.075
Mof_H 	H 	0.5411	0.7387	0.3505	0.056
Mof_H 	H 	0.908	0.8723	0.4411	-0.003
Mof_H 	H 	0.2796	0.4076	0.0146	0.061
Mof_H 	H 	0.5917	0.4886	0.8763	0.054
Mof_H 	H 	0.7396	0.8968	0.5437	0.149
Mof_H 	H 	0.6343	0.1533	0.8638	0.077
Mof_H 	H 	0.6224	0.2382	0.9982	0.035
Mof_H 	H 	0.825	0.2525	0.074	0.071
Mof_H 	H 	0.0535	0.0923	0.8826	0.073
Mof_H 	H 	0.0411	0.2613	0.1495	0.056
Mof_H 	H 	0.408	0.1277	0.0589	-0.002
Mof_H 	H 	0.7796	0.5924	0.4854	0.061
Mof_H 	H 	0.0917	0.5114	0.6237	0.054
Mof_H 	H 	0.2396	0.1032	0.9563	0.148
Mof_H 	H 	0.8657	0.1533	0.3638	0.078
Mof_H 	H 	0.8776	0.2382	0.4982	0.035
Mof_H 	H 	0.675	0.2525	0.574	0.071
Mof_H 	H 	0.4465	0.0923	0.3826	0.075
Mof_H 	H 	0.4589	0.2613	0.6495	0.056
Mof_H 	H 	0.092	0.1277	0.5589	-0.003
Mof_H 	H 	0.7204	0.5924	0.9854	0.061
Mof_H 	H 	0.4083	0.5114	0.1237	0.054
Mof_H 	H 	0.2604	0.1032	0.4563	0.149
Mof_H 	H 	0.3657	0.8467	0.1362	0.077
Mof_H 	H 	0.3776	0.7618	0.0018	0.035
Mof_H 	H 	0.175	0.7475	0.926	0.071
Mof_H 	H 	0.9465	0.9077	0.1174	0.073
Mof_H 	H 	0.9589	0.7387	0.8505	0.056
Mof_H 	H 	0.592	0.8723	0.9411	-0.002
Mof_H 	H 	0.2204	0.4076	0.5146	0.061
Mof_H 	H 	0.9083	0.4886	0.3763	0.054
Mof_H 	H 	0.7604	0.8968	0.0437	0.148
Mof_C 	C 	0.3451	0.8851	0.64003	0.025
Mof_C 	C 	0.2159	0.8418	0.60577	-0.086
Mof_C 	C 	0.2091	0.7906	0.52516	0.017
Mof_C 	C 	0.3307	0.7824	0.4796	-0.09
Mof_C 	C 	0.4616	0.826	0.51355	0.038
Mof_C 	C 	0.4671	0.8777	0.59398	-0.087
Mof_C 	C 	0.3562	0.933	0.72564	0.106
Mof_C 	C 	0.5894	0.8181	0.46535	0.061
Mof_C 	C 	0.6109	0.7751	0.38661	-0.02
Mof_C 	C 	0.8126	0.848	0.43575	0.127
Mof_C 	C 	0.368	0.4447	0.00871	-0.028
Mof_C 	C 	0.4228	0.4378	0.93414	-0.055
Mof_C 	C 	0.5547	0.4932	0.92597	-0.026
Mof_C 	C 	0.3397	0.3681	0.86347	0.298
Mof_C 	C 	0.8451	0.1149	0.85997	0.023
Mof_C 	C 	0.7159	0.1582	0.89423	-0.085
Mof_C 	C 	0.7091	0.2094	0.97484	0.016
Mof_C 	C 	0.8307	0.2176	0.0204	-0.089
Mof_C 	C 	0.9616	0.174	0.98645	0.037
Mof_C 	C 	0.9671	0.1223	0.90602	-0.084
Mof_C 	C 	0.8562	0.067	0.77436	0.106
Mof_C 	C 	0.0894	0.1819	0.03465	0.062
Mof_C 	C 	0.1109	0.2249	0.11339	-0.02
Mof_C 	C 	0.3126	0.152	0.06425	0.126
Mof_C 	C 	0.868	0.5553	0.49129	-0.029
Mof_C 	C 	0.9228	0.5622	0.56586	-0.055
Mof_C 	C 	0.0547	0.5068	0.57403	-0.026
Mof_C 	C 	0.8397	0.6319	0.63653	0.298
Mof_C 	C 	0.6549	0.1149	0.35997	0.025
Mof_C 	C 	0.7841	0.1582	0.39423	-0.086
Mof_C 	C 	0.7909	0.2094	0.47484	0.017
Mof_C 	C 	0.6693	0.2176	0.5204	-0.09
Mof_C 	C 	0.5384	0.174	0.48645	0.038
Mof_C 	C 	0.5329	0.1223	0.40602	-0.087
Mof_C 	C 	0.6438	0.067	0.27436	0.106
Mof_C 	C 	0.4106	0.1819	0.53465	0.061
Mof_C 	C 	0.3891	0.2249	0.61339	-0.02
Mof_C 	C 	0.1874	0.152	0.56425	0.127
Mof_C 	C 	0.632	0.5553	0.99129	-0.028
Mof_C 	C 	0.5772	0.5622	0.06586	-0.055
Mof_C 	C 	0.4453	0.5068	0.07403	-0.026
Mof_C 	C 	0.6603	0.6319	0.13653	0.298
Mof_C 	C 	0.1549	0.8851	0.14003	0.023
Mof_C 	C 	0.2841	0.8418	0.10577	-0.085
Mof_C 	C 	0.2909	0.7906	0.02516	0.016
Mof_C 	C 	0.1693	0.7824	0.9796	-0.089
Mof_C 	C 	0.0384	0.826	0.01355	0.037
Mof_C 	C 	0.0329	0.8777	0.09398	-0.084
Mof_C 	C 	0.1438	0.933	0.22564	0.106
Mof_C 	C 	0.9106	0.8181	0.96535	0.062
Mof_C 	C 	0.8891	0.7751	0.88661	-0.02
Mof_C 	C 	0.6874	0.848	0.93575	0.126
Mof_C 	C 	0.132	0.4447	0.50871	-0.029
Mof_C 	C 	0.0772	0.4378	0.43414	-0.055
Mof_C 	C 	0.9453	0.4932	0.42597	-0.026
Mof_C 	C 	0.1603	0.3681	0.36347	0.298
Mof_N 	N 	0.4511	0.8849	0.76934	-0.12
Mof_N 	N 	0.4213	0.9447	0.84451	-0.056
Mof_N 	N 	0.3149	0.0243	0.84519	-0.058
Mof_N 	N 	0.271	0.0204	0.77079	-0.11
Mof_N 	N 	0.7204	0.8638	0.49523	-0.215
Mof_N 	N 	0.7511	0.7935	0.36851	-0.147
Mof_N 	N 	0.9511	0.1151	0.73066	-0.12
Mof_N 	N 	0.9213	0.0553	0.65549	-0.056
Mof_N 	N 	0.8149	0.9757	0.65481	-0.058
Mof_N 	N 	0.771	0.9796	0.72921	-0.11
Mof_N 	N 	0.2204	0.1362	0.00477	-0.214
Mof_N 	N 	0.2511	0.2065	0.13149	-0.147
Mof_N 	N 	0.5489	0.1151	0.23066	-0.12
Mof_N 	N 	0.5787	0.0553	0.15549	-0.056
Mof_N 	N 	0.6851	0.9757	0.15481	-0.058
Mof_N 	N 	0.729	0.9796	0.22921	-0.11
Mof_N 	N 	0.2796	0.1362	0.50477	-0.215
Mof_N 	N 	0.2489	0.2065	0.63149	-0.147
Mof_N 	N 	0.0489	0.8849	0.26934	-0.12
Mof_N 	N 	0.0787	0.9447	0.34451	-0.056
Mof_N 	N 	0.1851	0.0243	0.34519	-0.058
Mof_N 	N 	0.229	0.0204	0.27079	-0.11
Mof_N 	N 	0.7796	0.8638	0.99523	-0.214
Mof_N 	N 	0.7489	0.7935	0.86851	-0.147
Mof_O 	O 	0.2184	0.3226	0.87395	-0.28
Mof_O 	O 	0.3899	0.3595	0.79744	-0.269
Mof_O 	O 	0.7184	0.6774	0.62605	-0.279
Mof_O 	O 	0.8899	0.6405	0.70256	-0.268
Mof_O 	O 	0.7816	0.6774	0.12605	-0.28
Mof_O 	O 	0.6101	0.6405	0.20256	-0.269
Mof_O 	O 	0.2816	0.3226	0.37395	-0.279
Mof_O 	O 	0.1101	0.3595	0.29744	-0.268
_end
