# CIF file generated by openbabel 3.1.0, see https://openbabel.org
data_I
_chemical_name_common 'NEVPUA_charged'
_cell_length_a 13.256
_cell_length_b 18.193
_cell_length_c 18.193
_cell_angle_alpha 90
_cell_angle_beta 90
_cell_angle_gamma 90
_space_group_name_H-M_alt 'P 1'
_space_group_name_Hall 'P 1'
loop_
    _symmetry_equiv_pos_as_xyz
    x,y,z
loop_
    _atom_site_label
    _atom_site_type_symbol
    _atom_site_fract_x
    _atom_site_fract_y
    _atom_site_fract_z
    _atom_site_occupancy
    Cd1      Cd       0.75000    0.75000    0.25000    1.000
    Cl1      Cl       0.85835    0.85545    0.21367    1.000
    Cl2      Cl       0.85835    0.64455    0.28633    1.000
    Cl3      Cl       0.64165    0.71367    0.14455    1.000
    Cl4      Cl       0.64165    0.78633    0.35545    1.000
    Cd2      Cd       0.25000    0.25000    0.75000    1.000
    Cl5      Cl       0.35835    0.28633    0.85545    1.000
    Cl6      Cl       0.35835    0.21367    0.64455    1.000
    Cl7      Cl       0.14165    0.14455    0.78633    1.000
    Cl8      Cl       0.14165    0.35545    0.71367    1.000
    Cd3      Cd       0.75000    0.25000    0.75000    1.000
    Cl9      Cl       0.64165    0.14455    0.71367    1.000
    Cl10     Cl       0.64165    0.35545    0.78633    1.000
    Cl11     Cl       0.85835    0.28633    0.64455    1.000
    Cl12     Cl       0.85835    0.21367    0.85545    1.000
    Cd4      Cd       0.25000    0.75000    0.25000    1.000
    Cl13     Cl       0.14165    0.71367    0.35545    1.000
    Cl14     Cl       0.14165    0.78633    0.14455    1.000
    Cl15     Cl       0.35835    0.85545    0.28633    1.000
    Cl16     Cl       0.35835    0.64455    0.21367    1.000
    Cu1      Cu       0.76728    0.98833    0.51167    1.000
    Cu2      Cu       0.76728    0.51167    0.98833    1.000
    Cu3      Cu       0.26728    0.98833    0.98833    1.000
    Cu4      Cu       0.26728    0.51167    0.51167    1.000
    Cu5      Cu       0.73272    0.01167    0.01167    1.000
    Cu6      Cu       0.73272    0.48833    0.48833    1.000
    Cu7      Cu       0.23272    0.01167    0.48833    1.000
    Cu8      Cu       0.23272    0.48833    0.01167    1.000
    Cu9      Cu       0.50000    0.00000    0.50000    1.000
    Cu10     Cu       0.50000    0.50000    0.00000    1.000
    Cu11     Cu       0.00000    0.00000    0.00000    1.000
    Cu12     Cu       0.00000    0.50000    0.50000    1.000
    H1       H        0.48790    0.98030    0.32510    1.000
    H2       H        0.79040    0.96570    0.33020    1.000
    H3       H        0.55980    0.87070    0.20500    1.000
    H4       H        0.72120    0.05670    0.18810    1.000
    H5       H        0.48790    0.51970    0.17490    1.000
    H6       H        0.79040    0.53430    0.16980    1.000
    H7       H        0.55980    0.62930    0.29500    1.000
    H8       H        0.72120    0.44330    0.31190    1.000
    H9       H        0.98790    0.17490    0.98030    1.000
    H10      H        0.29040    0.16980    0.96570    1.000
    H11      H        0.05980    0.29500    0.87070    1.000
    H12      H        0.22120    0.31190    0.05670    1.000
    H13      H        0.98790    0.32510    0.51970    1.000
    H14      H        0.29040    0.33020    0.53430    1.000
    H15      H        0.05980    0.20500    0.62930    1.000
    H16      H        0.22120    0.18810    0.44330    1.000
    H17      H        0.01210    0.01970    0.82510    1.000
    H18      H        0.70960    0.03430    0.83020    1.000
    H19      H        0.94020    0.12930    0.70500    1.000
    H20      H        0.77880    0.94330    0.68810    1.000
    H21      H        0.01210    0.48030    0.67490    1.000
    H22      H        0.70960    0.46570    0.66980    1.000
    H23      H        0.94020    0.37070    0.79500    1.000
    H24      H        0.77880    0.55670    0.81190    1.000
    H25      H        0.51210    0.82510    0.48030    1.000
    H26      H        0.20960    0.83020    0.46570    1.000
    H27      H        0.44020    0.70500    0.37070    1.000
    H28      H        0.27880    0.68810    0.55670    1.000
    H29      H        0.51210    0.67490    0.01970    1.000
    H30      H        0.20960    0.66980    0.03430    1.000
    H31      H        0.44020    0.79500    0.12930    1.000
    H32      H        0.27880    0.81190    0.94330    1.000
    H33      H        0.51210    0.01970    0.67490    1.000
    H34      H        0.20960    0.03430    0.66980    1.000
    H35      H        0.44020    0.12930    0.79500    1.000
    H36      H        0.27880    0.94330    0.81190    1.000
    H37      H        0.51210    0.48030    0.82510    1.000
    H38      H        0.20960    0.46570    0.83020    1.000
    H39      H        0.44020    0.37070    0.70500    1.000
    H40      H        0.27880    0.55670    0.68810    1.000
    H41      H        0.01210    0.82510    0.01970    1.000
    H42      H        0.70960    0.83020    0.03430    1.000
    H43      H        0.94020    0.70500    0.12930    1.000
    H44      H        0.77880    0.68810    0.94330    1.000
    H45      H        0.01210    0.67490    0.48030    1.000
    H46      H        0.70960    0.66980    0.46570    1.000
    H47      H        0.94020    0.79500    0.37070    1.000
    H48      H        0.77880    0.81190    0.55670    1.000
    H49      H        0.98790    0.98030    0.17490    1.000
    H50      H        0.29040    0.96570    0.16980    1.000
    H51      H        0.05980    0.87070    0.29500    1.000
    H52      H        0.22120    0.05670    0.31190    1.000
    H53      H        0.98790    0.51970    0.32510    1.000
    H54      H        0.29040    0.53430    0.33020    1.000
    H55      H        0.05980    0.62930    0.20500    1.000
    H56      H        0.22120    0.44330    0.18810    1.000
    H57      H        0.48790    0.17490    0.51970    1.000
    H58      H        0.79040    0.16980    0.53430    1.000
    H59      H        0.55980    0.29500    0.62930    1.000
    H60      H        0.72120    0.31190    0.44330    1.000
    H61      H        0.48790    0.32510    0.98030    1.000
    H62      H        0.79040    0.33020    0.96570    1.000
    H63      H        0.55980    0.20500    0.87070    1.000
    H64      H        0.72120    0.18810    0.05670    1.000
    C1       C        0.55630    0.97860    0.34230    1.000
    C2       C        0.72130    0.97050    0.34520    1.000
    C3       C        0.59630    0.91150    0.18460    1.000
    C4       C        0.68410    0.01310    0.17580    1.000
    C5       C        0.55630    0.52140    0.15770    1.000
    C6       C        0.72130    0.52950    0.15480    1.000
    C7       C        0.59630    0.58850    0.31540    1.000
    C8       C        0.68410    0.48690    0.32420    1.000
    C9       C        0.05630    0.15770    0.97860    1.000
    C10      C        0.22130    0.15480    0.97050    1.000
    C11      C        0.09630    0.31540    0.91150    1.000
    C12      C        0.18410    0.32420    0.01310    1.000
    C13      C        0.05630    0.34230    0.52140    1.000
    C14      C        0.22130    0.34520    0.52950    1.000
    C15      C        0.09630    0.18460    0.58850    1.000
    C16      C        0.18410    0.17580    0.48690    1.000
    C17      C        0.94370    0.02140    0.84230    1.000
    C18      C        0.77870    0.02950    0.84520    1.000
    C19      C        0.90370    0.08850    0.68460    1.000
    C20      C        0.81590    0.98690    0.67580    1.000
    C21      C        0.94370    0.47860    0.65770    1.000
    C22      C        0.77870    0.47050    0.65480    1.000
    C23      C        0.90370    0.41150    0.81540    1.000
    C24      C        0.81590    0.51310    0.82420    1.000
    C25      C        0.44370    0.84230    0.47860    1.000
    C26      C        0.27870    0.84520    0.47050    1.000
    C27      C        0.40370    0.68460    0.41150    1.000
    C28      C        0.31590    0.67580    0.51310    1.000
    C29      C        0.44370    0.65770    0.02140    1.000
    C30      C        0.27870    0.65480    0.02950    1.000
    C31      C        0.40370    0.81540    0.08850    1.000
    C32      C        0.31590    0.82420    0.98690    1.000
    C33      C        0.44370    0.02140    0.65770    1.000
    C34      C        0.27870    0.02950    0.65480    1.000
    C35      C        0.40370    0.08850    0.81540    1.000
    C36      C        0.31590    0.98690    0.82420    1.000
    C37      C        0.44370    0.47860    0.84230    1.000
    C38      C        0.27870    0.47050    0.84520    1.000
    C39      C        0.40370    0.41150    0.68460    1.000
    C40      C        0.31590    0.51310    0.67580    1.000
    C41      C        0.94370    0.84230    0.02140    1.000
    C42      C        0.77870    0.84520    0.02950    1.000
    C43      C        0.90370    0.68460    0.08850    1.000
    C44      C        0.81590    0.67580    0.98690    1.000
    C45      C        0.94370    0.65770    0.47860    1.000
    C46      C        0.77870    0.65480    0.47050    1.000
    C47      C        0.90370    0.81540    0.41150    1.000
    C48      C        0.81590    0.82420    0.51310    1.000
    C49      C        0.05630    0.97860    0.15770    1.000
    C50      C        0.22130    0.97050    0.15480    1.000
    C51      C        0.09630    0.91150    0.31540    1.000
    C52      C        0.18410    0.01310    0.32420    1.000
    C53      C        0.05630    0.52140    0.34230    1.000
    C54      C        0.22130    0.52950    0.34520    1.000
    C55      C        0.09630    0.58850    0.18460    1.000
    C56      C        0.18410    0.48690    0.17580    1.000
    C57      C        0.55630    0.15770    0.52140    1.000
    C58      C        0.72130    0.15480    0.52950    1.000
    C59      C        0.59630    0.31540    0.58850    1.000
    C60      C        0.68410    0.32420    0.48690    1.000
    C61      C        0.55630    0.34230    0.97860    1.000
    C62      C        0.72130    0.34520    0.97050    1.000
    C63      C        0.59630    0.18460    0.91150    1.000
    C64      C        0.68410    0.17580    0.01310    1.000
    N1       N        0.58530    0.98145    0.41045    1.000
    N2       N        0.68950    0.97706    0.41232    1.000
    N3       N        0.63930    0.97220    0.29967    1.000
    N4       N        0.61090    0.92330    0.11500    1.000
    N5       N        0.66670    0.98830    0.10980    1.000
    N6       N        0.63990    0.96620    0.22404    1.000
    N7       N        0.58530    0.51855    0.08955    1.000
    N8       N        0.68950    0.52294    0.08768    1.000
    N9       N        0.63930    0.52780    0.20033    1.000
    N10      N        0.61090    0.57670    0.38500    1.000
    N11      N        0.66670    0.51170    0.39020    1.000
    N12      N        0.63990    0.53380    0.27596    1.000
    N13      N        0.08530    0.08955    0.98145    1.000
    N14      N        0.18950    0.08768    0.97706    1.000
    N15      N        0.13930    0.20033    0.97220    1.000
    N16      N        0.11090    0.38500    0.92330    1.000
    N17      N        0.16670    0.39020    0.98830    1.000
    N18      N        0.13990    0.27596    0.96620    1.000
    N19      N        0.08530    0.41045    0.51855    1.000
    N20      N        0.18950    0.41232    0.52294    1.000
    N21      N        0.13930    0.29967    0.52780    1.000
    N22      N        0.11090    0.11500    0.57670    1.000
    N23      N        0.16670    0.10980    0.51170    1.000
    N24      N        0.13990    0.22404    0.53380    1.000
    N25      N        0.91470    0.01855    0.91045    1.000
    N26      N        0.81050    0.02294    0.91232    1.000
    N27      N        0.86070    0.02780    0.79967    1.000
    N28      N        0.88910    0.07670    0.61500    1.000
    N29      N        0.83330    0.01170    0.60980    1.000
    N30      N        0.86010    0.03380    0.72404    1.000
    N31      N        0.91470    0.48145    0.58955    1.000
    N32      N        0.81050    0.47706    0.58768    1.000
    N33      N        0.86070    0.47220    0.70033    1.000
    N34      N        0.88910    0.42330    0.88500    1.000
    N35      N        0.83330    0.48830    0.89020    1.000
    N36      N        0.86010    0.46620    0.77596    1.000
    N37      N        0.41470    0.91045    0.48145    1.000
    N38      N        0.31050    0.91232    0.47706    1.000
    N39      N        0.36070    0.79967    0.47220    1.000
    N40      N        0.38910    0.61500    0.42330    1.000
    N41      N        0.33330    0.60980    0.48830    1.000
    N42      N        0.36010    0.72404    0.46620    1.000
    N43      N        0.41470    0.58955    0.01855    1.000
    N44      N        0.31050    0.58768    0.02294    1.000
    N45      N        0.36070    0.70033    0.02780    1.000
    N46      N        0.38910    0.88500    0.07670    1.000
    N47      N        0.33330    0.89020    0.01170    1.000
    N48      N        0.36010    0.77596    0.03380    1.000
    N49      N        0.41470    0.01855    0.58955    1.000
    N50      N        0.31050    0.02294    0.58768    1.000
    N51      N        0.36070    0.02780    0.70033    1.000
    N52      N        0.38910    0.07670    0.88500    1.000
    N53      N        0.33330    0.01170    0.89020    1.000
    N54      N        0.36010    0.03380    0.77596    1.000
    N55      N        0.41470    0.48145    0.91045    1.000
    N56      N        0.31050    0.47706    0.91232    1.000
    N57      N        0.36070    0.47220    0.79967    1.000
    N58      N        0.38910    0.42330    0.61500    1.000
    N59      N        0.33330    0.48830    0.60980    1.000
    N60      N        0.36010    0.46620    0.72404    1.000
    N61      N        0.91470    0.91045    0.01855    1.000
    N62      N        0.81050    0.91232    0.02294    1.000
    N63      N        0.86070    0.79967    0.02780    1.000
    N64      N        0.88910    0.61500    0.07670    1.000
    N65      N        0.83330    0.60980    0.01170    1.000
    N66      N        0.86010    0.72404    0.03380    1.000
    N67      N        0.91470    0.58955    0.48145    1.000
    N68      N        0.81050    0.58768    0.47706    1.000
    N69      N        0.86070    0.70033    0.47220    1.000
    N70      N        0.88910    0.88500    0.42330    1.000
    N71      N        0.83330    0.89020    0.48830    1.000
    N72      N        0.86010    0.77596    0.46620    1.000
    N73      N        0.08530    0.98145    0.08955    1.000
    N74      N        0.18950    0.97706    0.08768    1.000
    N75      N        0.13930    0.97220    0.20033    1.000
    N76      N        0.11090    0.92330    0.38500    1.000
    N77      N        0.16670    0.98830    0.39020    1.000
    N78      N        0.13990    0.96620    0.27596    1.000
    N79      N        0.08530    0.51855    0.41045    1.000
    N80      N        0.18950    0.52294    0.41232    1.000
    N81      N        0.13930    0.52780    0.29967    1.000
    N82      N        0.11090    0.57670    0.11500    1.000
    N83      N        0.16670    0.51170    0.10980    1.000
    N84      N        0.13990    0.53380    0.22404    1.000
    N85      N        0.58530    0.08955    0.51855    1.000
    N86      N        0.68950    0.08768    0.52294    1.000
    N87      N        0.63930    0.20033    0.52780    1.000
    N88      N        0.61090    0.38500    0.57670    1.000
    N89      N        0.66670    0.39020    0.51170    1.000
    N90      N        0.63990    0.27596    0.53380    1.000
    N91      N        0.58530    0.41045    0.98145    1.000
    N92      N        0.68950    0.41232    0.97706    1.000
    N93      N        0.63930    0.29967    0.97220    1.000
    N94      N        0.61090    0.11500    0.92330    1.000
    N95      N        0.66670    0.10980    0.98830    1.000
    N96      N        0.63990    0.22404    0.96620    1.000
    Cl17     Cl       0.62306    0.92004    0.57996    1.000
    Cl18     Cl       0.62306    0.57996    0.92004    1.000
    Cl19     Cl       0.12306    0.92004    0.92004    1.000
    Cl20     Cl       0.12306    0.57996    0.57996    1.000
    Cl21     Cl       0.87694    0.07996    0.07996    1.000
    Cl22     Cl       0.87694    0.42004    0.42004    1.000
    Cl23     Cl       0.37694    0.07996    0.42004    1.000
    Cl24     Cl       0.37694    0.42004    0.07996    1.000
