data_functionalizedCrystal
_audit_creation_method	'EQeq! by Chris Wilmer'
_symmetry_space_group_name_H-M	'P1'
_symmetry_Int_Tables_number	1
_symmetry_cell_setting	triclinic
loop_
_symmetry_equiv_pos_as_xyz
  x,y,z
_cell_length_a	20.423
_cell_length_b	43.214
_cell_length_c	7.0518
_cell_angle_alpha	90
_cell_angle_beta	90
_cell_angle_gamma	90
loop_
_atom_site_label
_atom_site_type_symbol
_atom_site_fract_x
_atom_site_fract_y
_atom_site_fract_z
_atom_site_charge
Mof_C 	C 	0.6264	0.81198	0.2845	0.362
Mof_C 	C 	0.5686	0.832	0.2448	-0.067
Mof_C 	C 	0.5094	0.81931	0.1835	0
Mof_H 	H 	0.5054	0.798	0.1667	0.032
Mof_C 	C 	0.4566	0.8386	0.1477	-0.059
Mof_C 	C 	0.4628	0.87028	0.1769	-0.1
Mof_H 	H 	0.4272	0.8833	0.1562	0.089
Mof_C 	C 	0.5227	0.88268	0.2376	0.162
Mof_C 	C 	0.5751	0.8637	0.2682	-0.109
Mof_H 	H 	0.6151	0.872	0.3047	0.077
Mof_C 	C 	0.3925	0.82615	0.0814	0.344
Mof_C 	C 	0.5859	0.92708	0.3026	-0.029
Mof_H 	H 	0.6171	0.9207	0.2066	0.047
Mof_H 	H 	0.601	0.9195	0.4245	0.052
Mof_C 	C 	0.5812	0.96153	0.3064	0.052
Mof_C 	C 	0.5851	0.97704	0.4799	-0.06
Mof_H 	H 	0.5894	0.9658	0.5918	0.068
Mof_C 	C 	0.5825	0.00931	0.4862	-0.054
Mof_H 	H 	0.5857	0.0195	0.602	0.061
Mof_C 	C 	0.5754	0.02587	0.3238	0.043
Mof_C 	C 	0.5708	0.0105	0.1513	-0.055
Mof_H 	H 	0.5658	0.0217	0.0396	0.065
Mof_C 	C 	0.5738	0.97868	0.1453	-0.066
Mof_H 	H 	0.5707	0.9687	0.029	0.067
Mof_C 	C 	0.5741	0.0608	0.3332	-0.019
Mof_H 	H 	0.5805	0.0675	0.4631	0.049
Mof_H 	H 	0.6093	0.0692	0.2567	0.042
Mof_C 	C 	0.5041	0.10316	0.2742	0.18
Mof_C 	C 	0.5531	0.1239	0.333	-0.112
Mof_H 	H 	0.5944	0.1165	0.3648	0.084
Mof_C 	C 	0.54	0.15494	0.3434	-0.039
Mof_C 	C 	0.4788	0.16617	0.2927	-0.016
Mof_H 	H 	0.4702	0.1873	0.2991	0.048
Mof_C 	C 	0.43	0.14572	0.2322	-0.024
Mof_C 	C 	0.4434	0.11432	0.224	-0.121
Mof_H 	H 	0.411	0.1006	0.1842	0.098
Mof_C 	C 	0.3653	0.1586	0.1719	0.312
Mof_C 	C 	0.5937	0.17677	0.4075	0.361
Mof_C 	C 	0.717	0.0564	0.921	-0.01
Mof_C 	C 	0.7182	0.0878	0.963	0.006
Mof_O 	O 	0.6822	0.82345	0.2891	-0.405
Mof_O 	O 	0.6152	0.78358	0.3186	-0.432
Mof_O 	O 	0.3854	0.79772	0.0589	-0.353
Mof_O 	O 	0.3478	0.84572	0.0533	-0.461
Mof_O 	O 	0.5235	0.91445	0.2616	-0.204
Mof_O 	O 	0.5133	0.07175	0.2655	-0.21
Mof_O 	O 	0.3254	0.14142	0.0879	-0.391
Mof_O 	O 	0.3544	0.18703	0.2026	-0.276
Mof_O 	O 	0.5768	0.20441	0.428	-0.489
Mof_O 	O 	0.6495	0.16613	0.4409	-0.319
Mof_C 	C 	0.7246	0.0678	0.63	-0.016
Mof_C 	C 	0.7262	0.0987	0.689	0.023
Mof_C 	C 	0.8736	0.68802	0.2845	0.363
Mof_C 	C 	0.9314	0.668	0.2448	-0.066
Mof_C 	C 	0.9906	0.68069	0.1835	-0
Mof_H 	H 	0.9946	0.702	0.1667	0.033
Mof_C 	C 	0.0434	0.6614	0.1477	-0.057
Mof_C 	C 	0.0372	0.62972	0.1769	-0.099
Mof_H 	H 	0.0728	0.6167	0.1562	0.09
Mof_C 	C 	0.9773	0.61732	0.2376	0.162
Mof_C 	C 	0.9249	0.6363	0.2682	-0.109
Mof_H 	H 	0.8849	0.628	0.3047	0.076
Mof_C 	C 	0.1075	0.67385	0.0814	0.344
Mof_C 	C 	0.9141	0.57292	0.3026	-0.029
Mof_H 	H 	0.8829	0.5793	0.2066	0.047
Mof_H 	H 	0.899	0.5805	0.4245	0.052
Mof_C 	C 	0.9188	0.53847	0.3064	0.052
Mof_C 	C 	0.9149	0.52296	0.4799	-0.06
Mof_H 	H 	0.9106	0.5342	0.5918	0.068
Mof_C 	C 	0.9175	0.49069	0.4862	-0.054
Mof_H 	H 	0.9143	0.4805	0.602	0.061
Mof_C 	C 	0.9246	0.47413	0.3238	0.043
Mof_C 	C 	0.9292	0.4895	0.1513	-0.055
Mof_H 	H 	0.9342	0.4783	0.0396	0.064
Mof_C 	C 	0.9262	0.52132	0.1453	-0.066
Mof_H 	H 	0.9293	0.5313	0.029	0.067
Mof_C 	C 	0.9259	0.4392	0.3332	-0.019
Mof_H 	H 	0.9195	0.4325	0.4631	0.049
Mof_H 	H 	0.8907	0.4308	0.2567	0.042
Mof_C 	C 	0.9959	0.39684	0.2742	0.179
Mof_C 	C 	0.9469	0.3761	0.333	-0.111
Mof_H 	H 	0.9056	0.3835	0.3648	0.083
Mof_C 	C 	0.96	0.34506	0.3434	-0.041
Mof_C 	C 	0.0212	0.33383	0.2927	-0.015
Mof_H 	H 	0.0298	0.3127	0.2991	0.048
Mof_C 	C 	0.07	0.35428	0.2322	-0.025
Mof_C 	C 	0.0566	0.38568	0.224	-0.12
Mof_H 	H 	0.089	0.3994	0.1842	0.098
Mof_C 	C 	0.1347	0.3414	0.1719	0.313
Mof_C 	C 	0.9063	0.32323	0.4075	0.361
Mof_C 	C 	0.783	0.4436	0.921	-0.009
Mof_C 	C 	0.7818	0.4122	0.963	0.007
Mof_O 	O 	0.8178	0.67655	0.2891	-0.405
Mof_O 	O 	0.8848	0.71642	0.3186	-0.432
Mof_O 	O 	0.1146	0.70228	0.0589	-0.353
Mof_O 	O 	0.1522	0.65428	0.0533	-0.461
Mof_O 	O 	0.9765	0.58555	0.2616	-0.204
Mof_O 	O 	0.9867	0.42825	0.2655	-0.21
Mof_O 	O 	0.1746	0.35858	0.0879	-0.391
Mof_O 	O 	0.1456	0.31297	0.2026	-0.276
Mof_O 	O 	0.9232	0.29559	0.428	-0.489
Mof_O 	O 	0.8505	0.33387	0.4409	-0.319
Mof_C 	C 	0.7754	0.4322	0.63	-0.016
Mof_C 	C 	0.7738	0.4013	0.689	0.023
Mof_C 	C 	0.3736	0.31198	0.7155	0.363
Mof_C 	C 	0.4314	0.332	0.7552	-0.066
Mof_C 	C 	0.4906	0.31931	0.8165	0.001
Mof_H 	H 	0.4946	0.298	0.8333	0.033
Mof_C 	C 	0.5434	0.3386	0.8523	-0.058
Mof_C 	C 	0.5372	0.37028	0.8231	-0.099
Mof_H 	H 	0.5728	0.3833	0.8438	0.09
Mof_C 	C 	0.4773	0.38268	0.7624	0.163
Mof_C 	C 	0.4249	0.3637	0.7318	-0.109
Mof_H 	H 	0.3849	0.372	0.6953	0.077
Mof_C 	C 	0.6075	0.32615	0.9186	0.344
Mof_C 	C 	0.4141	0.42708	0.6974	-0.029
Mof_H 	H 	0.3829	0.4207	0.7934	0.047
Mof_H 	H 	0.399	0.4195	0.5755	0.052
Mof_C 	C 	0.4188	0.46153	0.6936	0.052
Mof_C 	C 	0.4149	0.47704	0.5201	-0.06
Mof_H 	H 	0.4106	0.4658	0.4082	0.068
Mof_C 	C 	0.4175	0.50931	0.5138	-0.054
Mof_H 	H 	0.4143	0.5195	0.398	0.061
Mof_C 	C 	0.4246	0.52587	0.6762	0.043
Mof_C 	C 	0.4292	0.5105	0.8487	-0.055
Mof_H 	H 	0.4342	0.5217	0.9604	0.065
Mof_C 	C 	0.4262	0.47868	0.8547	-0.066
Mof_H 	H 	0.4293	0.4687	0.971	0.067
Mof_C 	C 	0.4259	0.5608	0.6668	-0.019
Mof_H 	H 	0.4195	0.5675	0.5369	0.049
Mof_H 	H 	0.3907	0.5692	0.7433	0.042
Mof_C 	C 	0.4959	0.60316	0.7258	0.18
Mof_C 	C 	0.4469	0.6239	0.667	-0.112
Mof_H 	H 	0.4056	0.6165	0.6352	0.084
Mof_C 	C 	0.46	0.65494	0.6566	-0.039
Mof_C 	C 	0.5212	0.66617	0.7073	-0.016
Mof_H 	H 	0.5298	0.6873	0.7009	0.048
Mof_C 	C 	0.57	0.64572	0.7678	-0.024
Mof_C 	C 	0.5566	0.61432	0.776	-0.121
Mof_H 	H 	0.589	0.6006	0.8158	0.098
Mof_C 	C 	0.6347	0.6586	0.8281	0.312
Mof_C 	C 	0.4063	0.67677	0.5925	0.361
Mof_C 	C 	0.283	0.5564	0.079	-0.01
Mof_C 	C 	0.2818	0.5878	0.037	0.006
Mof_O 	O 	0.3178	0.32345	0.7109	-0.405
Mof_O 	O 	0.3848	0.28358	0.6814	-0.432
Mof_O 	O 	0.6146	0.29772	0.9411	-0.353
Mof_O 	O 	0.6522	0.34572	0.9467	-0.461
Mof_O 	O 	0.4765	0.41445	0.7384	-0.204
Mof_O 	O 	0.4867	0.57175	0.7345	-0.21
Mof_O 	O 	0.6746	0.64142	0.9121	-0.391
Mof_O 	O 	0.6456	0.68703	0.7974	-0.276
Mof_O 	O 	0.4232	0.70441	0.572	-0.489
Mof_O 	O 	0.3505	0.66613	0.5591	-0.319
Mof_C 	C 	0.2754	0.5678	0.37	-0.016
Mof_C 	C 	0.2738	0.5987	0.311	0.023
Mof_C 	C 	0.1264	0.18802	0.7155	0.363
Mof_C 	C 	0.0686	0.168	0.7552	-0.066
Mof_C 	C 	0.0094	0.18069	0.8165	-0
Mof_H 	H 	0.0054	0.202	0.8333	0.033
Mof_C 	C 	0.9566	0.1614	0.8523	-0.057
Mof_C 	C 	0.9628	0.12972	0.8231	-0.099
Mof_H 	H 	0.9272	0.1167	0.8438	0.09
Mof_C 	C 	0.0227	0.11732	0.7624	0.162
Mof_C 	C 	0.0751	0.1363	0.7318	-0.109
Mof_H 	H 	0.1151	0.128	0.6953	0.076
Mof_C 	C 	0.8925	0.17385	0.9186	0.344
Mof_C 	C 	0.0859	0.07292	0.6974	-0.029
Mof_H 	H 	0.1171	0.0793	0.7934	0.047
Mof_H 	H 	0.101	0.0805	0.5755	0.052
Mof_C 	C 	0.0812	0.03847	0.6936	0.052
Mof_C 	C 	0.0851	0.02296	0.5201	-0.06
Mof_H 	H 	0.0894	0.0342	0.4082	0.068
Mof_C 	C 	0.0825	0.99069	0.5138	-0.054
Mof_H 	H 	0.0857	0.9805	0.398	0.061
Mof_C 	C 	0.0754	0.97413	0.6762	0.043
Mof_C 	C 	0.0708	0.9895	0.8487	-0.055
Mof_H 	H 	0.0658	0.9783	0.9604	0.064
Mof_C 	C 	0.0738	0.02132	0.8547	-0.066
Mof_H 	H 	0.0707	0.0313	0.971	0.067
Mof_C 	C 	0.0741	0.9392	0.6668	-0.019
Mof_H 	H 	0.0805	0.9325	0.5369	0.049
Mof_H 	H 	0.1093	0.9308	0.7433	0.042
Mof_C 	C 	0.0041	0.89684	0.7258	0.179
Mof_C 	C 	0.0531	0.8761	0.667	-0.111
Mof_H 	H 	0.0944	0.8835	0.6352	0.083
Mof_C 	C 	0.04	0.84506	0.6566	-0.041
Mof_C 	C 	0.9788	0.83383	0.7073	-0.015
Mof_H 	H 	0.9702	0.8127	0.7009	0.048
Mof_C 	C 	0.93	0.85428	0.7678	-0.025
Mof_C 	C 	0.9434	0.88568	0.776	-0.12
Mof_H 	H 	0.911	0.8994	0.8158	0.098
Mof_C 	C 	0.8653	0.8414	0.8281	0.313
Mof_C 	C 	0.0937	0.82323	0.5925	0.361
Mof_C 	C 	0.217	0.9436	0.079	-0.009
Mof_C 	C 	0.2182	0.9122	0.037	0.007
Mof_O 	O 	0.1822	0.17655	0.7109	-0.405
Mof_O 	O 	0.1152	0.21642	0.6814	-0.432
Mof_O 	O 	0.8854	0.20228	0.9411	-0.353
Mof_O 	O 	0.8478	0.15428	0.9467	-0.461
Mof_O 	O 	0.0235	0.08555	0.7384	-0.204
Mof_O 	O 	0.0133	0.92825	0.7345	-0.21
Mof_O 	O 	0.8254	0.85858	0.9121	-0.391
Mof_O 	O 	0.8544	0.81297	0.7974	-0.276
Mof_O 	O 	0.0768	0.79559	0.572	-0.489
Mof_O 	O 	0.1495	0.83387	0.5591	-0.319
Mof_C 	C 	0.2246	0.9322	0.37	-0.016
Mof_C 	C 	0.2262	0.9013	0.311	0.023
Mof_C 	C 	0.3736	0.18802	0.7155	0.363
Mof_C 	C 	0.4314	0.168	0.7552	-0.066
Mof_C 	C 	0.4906	0.18069	0.8165	0.001
Mof_H 	H 	0.4946	0.202	0.8333	0.033
Mof_C 	C 	0.5434	0.1614	0.8523	-0.058
Mof_C 	C 	0.5372	0.12972	0.8231	-0.099
Mof_H 	H 	0.5728	0.1167	0.8438	0.09
Mof_C 	C 	0.4773	0.11732	0.7624	0.163
Mof_C 	C 	0.4249	0.1363	0.7318	-0.109
Mof_H 	H 	0.3849	0.128	0.6953	0.077
Mof_C 	C 	0.6075	0.17385	0.9186	0.344
Mof_C 	C 	0.4141	0.07292	0.6974	-0.029
Mof_H 	H 	0.3829	0.0793	0.7934	0.047
Mof_H 	H 	0.399	0.0805	0.5755	0.052
Mof_C 	C 	0.4188	0.03847	0.6936	0.052
Mof_C 	C 	0.4149	0.02296	0.5201	-0.06
Mof_H 	H 	0.4106	0.0342	0.4082	0.068
Mof_C 	C 	0.4175	0.99069	0.5138	-0.054
Mof_H 	H 	0.4143	0.9805	0.398	0.061
Mof_C 	C 	0.4246	0.97413	0.6762	0.043
Mof_C 	C 	0.4292	0.9895	0.8487	-0.055
Mof_H 	H 	0.4342	0.9783	0.9604	0.065
Mof_C 	C 	0.4262	0.02132	0.8547	-0.066
Mof_H 	H 	0.4293	0.0313	0.971	0.067
Mof_C 	C 	0.4259	0.9392	0.6668	-0.019
Mof_H 	H 	0.4195	0.9325	0.5369	0.049
Mof_H 	H 	0.3907	0.9308	0.7433	0.042
Mof_C 	C 	0.4959	0.89684	0.7258	0.18
Mof_C 	C 	0.4469	0.8761	0.667	-0.112
Mof_H 	H 	0.4056	0.8835	0.6352	0.084
Mof_C 	C 	0.46	0.84506	0.6566	-0.039
Mof_C 	C 	0.5212	0.83383	0.7073	-0.016
Mof_H 	H 	0.5298	0.8127	0.7009	0.048
Mof_C 	C 	0.57	0.85428	0.7678	-0.024
Mof_C 	C 	0.5566	0.88568	0.776	-0.121
Mof_H 	H 	0.589	0.8994	0.8158	0.098
Mof_C 	C 	0.6347	0.8414	0.8281	0.312
Mof_C 	C 	0.4063	0.82323	0.5925	0.361
Mof_C 	C 	0.283	0.9436	0.079	-0.01
Mof_C 	C 	0.2818	0.9122	0.037	0.006
Mof_O 	O 	0.3178	0.17655	0.7109	-0.405
Mof_O 	O 	0.3848	0.21642	0.6814	-0.432
Mof_O 	O 	0.6146	0.20228	0.9411	-0.353
Mof_O 	O 	0.6522	0.15428	0.9467	-0.461
Mof_O 	O 	0.4765	0.08555	0.7384	-0.204
Mof_O 	O 	0.4867	0.92825	0.7345	-0.21
Mof_O 	O 	0.6746	0.85858	0.9121	-0.391
Mof_O 	O 	0.6456	0.81297	0.7974	-0.276
Mof_O 	O 	0.4232	0.79559	0.572	-0.489
Mof_O 	O 	0.3505	0.83387	0.5591	-0.319
Mof_C 	C 	0.2754	0.9322	0.37	-0.016
Mof_C 	C 	0.2738	0.9013	0.311	0.023
Mof_C 	C 	0.1264	0.31198	0.7155	0.363
Mof_C 	C 	0.0686	0.332	0.7552	-0.066
Mof_C 	C 	0.0094	0.31931	0.8165	-0
Mof_H 	H 	0.0054	0.298	0.8333	0.033
Mof_C 	C 	0.9566	0.3386	0.8523	-0.057
Mof_C 	C 	0.9628	0.37028	0.8231	-0.099
Mof_H 	H 	0.9272	0.3833	0.8438	0.09
Mof_C 	C 	0.0227	0.38268	0.7624	0.162
Mof_C 	C 	0.0751	0.3637	0.7318	-0.109
Mof_H 	H 	0.1151	0.372	0.6953	0.076
Mof_C 	C 	0.8925	0.32615	0.9186	0.344
Mof_C 	C 	0.0859	0.42708	0.6974	-0.029
Mof_H 	H 	0.1171	0.4207	0.7934	0.047
Mof_H 	H 	0.101	0.4195	0.5755	0.052
Mof_C 	C 	0.0812	0.46153	0.6936	0.052
Mof_C 	C 	0.0851	0.47704	0.5201	-0.06
Mof_H 	H 	0.0894	0.4658	0.4082	0.068
Mof_C 	C 	0.0825	0.50931	0.5138	-0.054
Mof_H 	H 	0.0857	0.5195	0.398	0.061
Mof_C 	C 	0.0754	0.52587	0.6762	0.043
Mof_C 	C 	0.0708	0.5105	0.8487	-0.055
Mof_H 	H 	0.0658	0.5217	0.9604	0.064
Mof_C 	C 	0.0738	0.47868	0.8547	-0.066
Mof_H 	H 	0.0707	0.4687	0.971	0.067
Mof_C 	C 	0.0741	0.5608	0.6668	-0.019
Mof_H 	H 	0.0805	0.5675	0.5369	0.049
Mof_H 	H 	0.1093	0.5692	0.7433	0.042
Mof_C 	C 	0.0041	0.60316	0.7258	0.179
Mof_C 	C 	0.0531	0.6239	0.667	-0.111
Mof_H 	H 	0.0944	0.6165	0.6352	0.083
Mof_C 	C 	0.04	0.65494	0.6566	-0.041
Mof_C 	C 	0.9788	0.66617	0.7073	-0.015
Mof_H 	H 	0.9702	0.6873	0.7009	0.048
Mof_C 	C 	0.93	0.64572	0.7678	-0.025
Mof_C 	C 	0.9434	0.61432	0.776	-0.12
Mof_H 	H 	0.911	0.6006	0.8158	0.098
Mof_C 	C 	0.8653	0.6586	0.8281	0.313
Mof_C 	C 	0.0937	0.67677	0.5925	0.361
Mof_C 	C 	0.217	0.5564	0.079	-0.009
Mof_C 	C 	0.2182	0.5878	0.037	0.007
Mof_O 	O 	0.1822	0.32345	0.7109	-0.405
Mof_O 	O 	0.1152	0.28358	0.6814	-0.432
Mof_O 	O 	0.8854	0.29772	0.9411	-0.353
Mof_O 	O 	0.8478	0.34572	0.9467	-0.461
Mof_O 	O 	0.0235	0.41445	0.7384	-0.204
Mof_O 	O 	0.0133	0.57175	0.7345	-0.21
Mof_O 	O 	0.8254	0.64142	0.9121	-0.391
Mof_O 	O 	0.8544	0.68703	0.7974	-0.276
Mof_O 	O 	0.0768	0.70441	0.572	-0.489
Mof_O 	O 	0.1495	0.66613	0.5591	-0.319
Mof_C 	C 	0.2246	0.5678	0.37	-0.016
Mof_C 	C 	0.2262	0.5987	0.311	0.023
Mof_C 	C 	0.6264	0.68802	0.2845	0.363
Mof_C 	C 	0.5686	0.668	0.2448	-0.066
Mof_C 	C 	0.5094	0.68069	0.1835	0.001
Mof_H 	H 	0.5054	0.702	0.1667	0.033
Mof_C 	C 	0.4566	0.6614	0.1477	-0.058
Mof_C 	C 	0.4628	0.62972	0.1769	-0.099
Mof_H 	H 	0.4272	0.6167	0.1562	0.09
Mof_C 	C 	0.5227	0.61732	0.2376	0.163
Mof_C 	C 	0.5751	0.6363	0.2682	-0.109
Mof_H 	H 	0.6151	0.628	0.3047	0.077
Mof_C 	C 	0.3925	0.67385	0.0814	0.344
Mof_C 	C 	0.5859	0.57292	0.3026	-0.029
Mof_H 	H 	0.6171	0.5793	0.2066	0.047
Mof_H 	H 	0.601	0.5805	0.4245	0.052
Mof_C 	C 	0.5812	0.53847	0.3064	0.052
Mof_C 	C 	0.5851	0.52296	0.4799	-0.06
Mof_H 	H 	0.5894	0.5342	0.5918	0.068
Mof_C 	C 	0.5825	0.49069	0.4862	-0.054
Mof_H 	H 	0.5857	0.4805	0.602	0.061
Mof_C 	C 	0.5754	0.47413	0.3238	0.043
Mof_C 	C 	0.5708	0.4895	0.1513	-0.055
Mof_H 	H 	0.5658	0.4783	0.0396	0.065
Mof_C 	C 	0.5738	0.52132	0.1453	-0.066
Mof_H 	H 	0.5707	0.5313	0.029	0.067
Mof_C 	C 	0.5741	0.4392	0.3332	-0.019
Mof_H 	H 	0.5805	0.4325	0.4631	0.049
Mof_H 	H 	0.6093	0.4308	0.2567	0.042
Mof_C 	C 	0.5041	0.39684	0.2742	0.18
Mof_C 	C 	0.5531	0.3761	0.333	-0.112
Mof_H 	H 	0.5944	0.3835	0.3648	0.084
Mof_C 	C 	0.54	0.34506	0.3434	-0.039
Mof_C 	C 	0.4788	0.33383	0.2927	-0.016
Mof_H 	H 	0.4702	0.3127	0.2991	0.048
Mof_C 	C 	0.43	0.35428	0.2322	-0.024
Mof_C 	C 	0.4434	0.38568	0.224	-0.121
Mof_H 	H 	0.411	0.3994	0.1842	0.098
Mof_C 	C 	0.3653	0.3414	0.1719	0.312
Mof_C 	C 	0.5937	0.32323	0.4075	0.361
Mof_C 	C 	0.717	0.4436	0.921	-0.01
Mof_C 	C 	0.7182	0.4122	0.963	0.006
Mof_O 	O 	0.6822	0.67655	0.2891	-0.405
Mof_O 	O 	0.6152	0.71642	0.3186	-0.432
Mof_O 	O 	0.3854	0.70228	0.0589	-0.353
Mof_O 	O 	0.3478	0.65428	0.0533	-0.461
Mof_O 	O 	0.5235	0.58555	0.2616	-0.204
Mof_O 	O 	0.5133	0.42825	0.2655	-0.21
Mof_O 	O 	0.3254	0.35858	0.0879	-0.391
Mof_O 	O 	0.3544	0.31297	0.2026	-0.276
Mof_O 	O 	0.5768	0.29559	0.428	-0.489
Mof_O 	O 	0.6495	0.33387	0.4409	-0.319
Mof_C 	C 	0.7246	0.4322	0.63	-0.016
Mof_C 	C 	0.7262	0.4013	0.689	0.023
Mof_C 	C 	0.8736	0.81198	0.2845	0.363
Mof_C 	C 	0.9314	0.832	0.2448	-0.066
Mof_C 	C 	0.9906	0.81931	0.1835	-0
Mof_H 	H 	0.9946	0.798	0.1667	0.033
Mof_C 	C 	0.0434	0.8386	0.1477	-0.057
Mof_C 	C 	0.0372	0.87028	0.1769	-0.099
Mof_H 	H 	0.0728	0.8833	0.1562	0.09
Mof_C 	C 	0.9773	0.88268	0.2376	0.162
Mof_C 	C 	0.9249	0.8637	0.2682	-0.109
Mof_H 	H 	0.8849	0.872	0.3047	0.076
Mof_C 	C 	0.1075	0.82615	0.0814	0.344
Mof_C 	C 	0.9141	0.92708	0.3026	-0.029
Mof_H 	H 	0.8829	0.9207	0.2066	0.047
Mof_H 	H 	0.899	0.9195	0.4245	0.052
Mof_C 	C 	0.9188	0.96153	0.3064	0.052
Mof_C 	C 	0.9149	0.97704	0.4799	-0.06
Mof_H 	H 	0.9106	0.9658	0.5918	0.068
Mof_C 	C 	0.9175	0.00931	0.4862	-0.054
Mof_H 	H 	0.9143	0.0195	0.602	0.061
Mof_C 	C 	0.9246	0.02587	0.3238	0.043
Mof_C 	C 	0.9292	0.0105	0.1513	-0.055
Mof_H 	H 	0.9342	0.0217	0.0396	0.064
Mof_C 	C 	0.9262	0.97868	0.1453	-0.066
Mof_H 	H 	0.9293	0.9687	0.029	0.067
Mof_C 	C 	0.9259	0.0608	0.3332	-0.019
Mof_H 	H 	0.9195	0.0675	0.4631	0.049
Mof_H 	H 	0.8907	0.0692	0.2567	0.042
Mof_C 	C 	0.9959	0.10316	0.2742	0.179
Mof_C 	C 	0.9469	0.1239	0.333	-0.111
Mof_H 	H 	0.9056	0.1165	0.3648	0.083
Mof_C 	C 	0.96	0.15494	0.3434	-0.041
Mof_C 	C 	0.0212	0.16617	0.2927	-0.015
Mof_H 	H 	0.0298	0.1873	0.2991	0.048
Mof_C 	C 	0.07	0.14572	0.2322	-0.025
Mof_C 	C 	0.0566	0.11432	0.224	-0.12
Mof_H 	H 	0.089	0.1006	0.1842	0.098
Mof_C 	C 	0.1347	0.1586	0.1719	0.313
Mof_C 	C 	0.9063	0.17677	0.4075	0.361
Mof_C 	C 	0.783	0.0564	0.921	-0.009
Mof_C 	C 	0.7818	0.0878	0.963	0.007
Mof_O 	O 	0.8178	0.82345	0.2891	-0.405
Mof_O 	O 	0.8848	0.78358	0.3186	-0.432
Mof_O 	O 	0.1146	0.79772	0.0589	-0.353
Mof_O 	O 	0.1522	0.84572	0.0533	-0.461
Mof_O 	O 	0.9765	0.91445	0.2616	-0.204
Mof_O 	O 	0.9867	0.07175	0.2655	-0.21
Mof_O 	O 	0.1746	0.14142	0.0879	-0.391
Mof_O 	O 	0.1456	0.18703	0.2026	-0.276
Mof_O 	O 	0.9232	0.20441	0.428	-0.489
Mof_O 	O 	0.8505	0.16613	0.4409	-0.319
Mof_C 	C 	0.7754	0.0678	0.63	-0.016
Mof_C 	C 	0.7738	0.0987	0.689	0.023
Mof_Co	Co	0.75	0.84311	0.0889	1.158
Mof_C 	C 	0.75	0.8844	0.4397	0.066
Mof_H 	H 	0.75	0.8651	0.4987	0.026
Mof_C 	C 	0.75	0.9104	0.5541	-0.127
Mof_H 	H 	0.75	0.9084	0.6854	0.092
Mof_C 	C 	0.75	0.9396	0.4698	0.053
Mof_C 	C 	0.75	0.9408	0.2724	-0.124
Mof_H 	H 	0.75	0.9598	0.21	0.079
Mof_C 	C 	0.75	0.9131	0.1686	0.063
Mof_H 	H 	0.75	0.9142	0.0369	0.004
Mof_C 	C 	0.75	0.9665	0.5977	0.08
Mof_C 	C 	0.75	0.0128	0.7198	0.106
Mof_C 	C 	0.75	0.0463	0.7527	-0.015
Mof_N 	N 	0.75	0.88503	0.2501	-0.225
Mof_N 	N 	0.75	0.9927	0.86	-0.098
Mof_N 	N 	0.75	0.9633	0.7828	-0.093
Mof_N 	N 	0.75	0.99723	0.552	-0.096
Mof_N 	N 	0.75	0.0118	0.374	-0.248
Mof_H 	H 	0.75	0.0317	0.3671	0.142
Mof_H 	H 	0.75	0.0009	0.2721	0.144
Mof_N 	N 	0.75	0.10908	0.8506	-0.215
Mof_O 	O 	0.75	0.78319	0.516	-0.364
Mof_Co	Co	0.75	0.65689	0.0889	1.158
Mof_C 	C 	0.75	0.6156	0.4397	0.066
Mof_H 	H 	0.75	0.6349	0.4987	0.026
Mof_C 	C 	0.75	0.5896	0.5541	-0.127
Mof_H 	H 	0.75	0.5916	0.6854	0.092
Mof_C 	C 	0.75	0.5604	0.4698	0.053
Mof_C 	C 	0.75	0.5592	0.2724	-0.124
Mof_H 	H 	0.75	0.5402	0.21	0.079
Mof_C 	C 	0.75	0.5869	0.1686	0.063
Mof_H 	H 	0.75	0.5858	0.0369	0.004
Mof_C 	C 	0.75	0.5335	0.5977	0.08
Mof_C 	C 	0.75	0.4872	0.7198	0.106
Mof_C 	C 	0.75	0.4537	0.7527	-0.015
Mof_N 	N 	0.75	0.61497	0.2501	-0.225
Mof_N 	N 	0.75	0.5073	0.86	-0.098
Mof_N 	N 	0.75	0.5367	0.7828	-0.093
Mof_N 	N 	0.75	0.50277	0.552	-0.096
Mof_N 	N 	0.75	0.4882	0.374	-0.248
Mof_H 	H 	0.75	0.4683	0.3671	0.142
Mof_H 	H 	0.75	0.4991	0.2721	0.144
Mof_N 	N 	0.75	0.39092	0.8506	-0.215
Mof_O 	O 	0.75	0.71681	0.516	-0.364
Mof_Co	Co	0.25	0.34311	0.9111	1.158
Mof_C 	C 	0.25	0.3844	0.5603	0.066
Mof_H 	H 	0.25	0.3651	0.5013	0.026
Mof_C 	C 	0.25	0.4104	0.4459	-0.127
Mof_H 	H 	0.25	0.4084	0.3146	0.092
Mof_C 	C 	0.25	0.4396	0.5302	0.053
Mof_C 	C 	0.25	0.4408	0.7276	-0.124
Mof_H 	H 	0.25	0.4598	0.79	0.079
Mof_C 	C 	0.25	0.4131	0.8314	0.063
Mof_H 	H 	0.25	0.4142	0.9631	0.004
Mof_C 	C 	0.25	0.4665	0.4023	0.08
Mof_C 	C 	0.25	0.5128	0.2802	0.106
Mof_C 	C 	0.25	0.5463	0.2473	-0.015
Mof_N 	N 	0.25	0.38503	0.7499	-0.225
Mof_N 	N 	0.25	0.4927	0.14	-0.098
Mof_N 	N 	0.25	0.4633	0.2172	-0.093
Mof_N 	N 	0.25	0.49723	0.448	-0.096
Mof_N 	N 	0.25	0.5118	0.626	-0.248
Mof_H 	H 	0.25	0.5317	0.6329	0.142
Mof_H 	H 	0.25	0.5009	0.7279	0.144
Mof_N 	N 	0.25	0.60908	0.1494	-0.215
Mof_O 	O 	0.25	0.28319	0.484	-0.364
Mof_Co	Co	0.25	0.15689	0.9111	1.158
Mof_C 	C 	0.25	0.1156	0.5603	0.066
Mof_H 	H 	0.25	0.1349	0.5013	0.026
Mof_C 	C 	0.25	0.0896	0.4459	-0.127
Mof_H 	H 	0.25	0.0916	0.3146	0.092
Mof_C 	C 	0.25	0.0604	0.5302	0.053
Mof_C 	C 	0.25	0.0592	0.7276	-0.124
Mof_H 	H 	0.25	0.0402	0.79	0.079
Mof_C 	C 	0.25	0.0869	0.8314	0.063
Mof_H 	H 	0.25	0.0858	0.9631	0.004
Mof_C 	C 	0.25	0.0335	0.4023	0.08
Mof_C 	C 	0.25	0.9872	0.2802	0.106
Mof_C 	C 	0.25	0.9537	0.2473	-0.015
Mof_N 	N 	0.25	0.11497	0.7499	-0.225
Mof_N 	N 	0.25	0.0073	0.14	-0.098
Mof_N 	N 	0.25	0.0367	0.2172	-0.093
Mof_N 	N 	0.25	0.00277	0.448	-0.096
Mof_N 	N 	0.25	0.9882	0.626	-0.248
Mof_H 	H 	0.25	0.9683	0.6329	0.142
Mof_H 	H 	0.25	0.9991	0.7279	0.144
Mof_N 	N 	0.25	0.89092	0.1494	-0.215
Mof_O 	O 	0.25	0.21681	0.484	-0.364
Mof_Co	Co	0.25	0.84292	0.05065	1.1
Mof_Co	Co	0.25	0.65708	0.05065	1.1
Mof_Co	Co	0.75	0.34292	0.94935	1.1
Mof_Co	Co	0.75	0.15708	0.94935	1.1
Mof_Co	Co	0.67566	0.75	0.4105	1.154
Mof_Co	Co	0.82434	0.75	0.4105	1.154
Mof_Co	Co	0.32434	0.25	0.5895	1.154
Mof_Co	Co	0.17566	0.25	0.5895	1.154
Mof_Co	Co	0.58975	0.25	0.4313	1.078
Mof_Co	Co	0.91025	0.25	0.4313	1.078
Mof_Co	Co	0.41025	0.75	0.5687	1.078
Mof_Co	Co	0.08975	0.75	0.5687	1.078
Mof_O 	O 	0.75	0.75	0.1936	-0.416
Mof_O 	O 	0.25	0.25	0.8064	-0.416
_end
