data_functionalizedCrystal
_audit_creation_method	'EQeq! by Chris Wilmer'
_symmetry_space_group_name_H-M	'P1'
_symmetry_Int_Tables_number	1
_symmetry_cell_setting	triclinic
loop_
_symmetry_equiv_pos_as_xyz
  x,y,z
_cell_length_a	10.5434
_cell_length_b	20.7244
_cell_length_c	20.7244
_cell_angle_alpha	86.29
_cell_angle_beta	75.2636
_cell_angle_gamma	75.2635
loop_
_atom_site_label
_atom_site_type_symbol
_atom_site_fract_x
_atom_site_fract_y
_atom_site_fract_z
_atom_site_charge
Mof_Co	Co	0.03389	0.68985	0.22555	1.173
Mof_Co	Co	0.74056	0.22555	0.81015	1.174
Mof_Co	Co	0.27626	0.27445	0.68985	1.174
Mof_Co	Co	0.44929	0.81015	0.27445	1.174
Mof_Co	Co	0.25944	0.77445	0.18985	1.174
Mof_Co	Co	0.55071	0.18985	0.72555	1.174
Mof_Co	Co	0.96611	0.31015	0.77445	1.173
Mof_Co	Co	0.72374	0.72555	0.31015	1.174
Mof_H 	H 	0.0046	0.9185	0.2047	-0.02
Mof_H 	H 	0.3813	0.1319	0.8719	-0.016
Mof_H 	H 	0.4261	0.002	0.2022	0.024
Mof_H 	H 	0.7468	0.8719	0.3681	-0.019
Mof_H 	H 	0.9954	0.0815	0.7953	-0.02
Mof_H 	H 	0.9231	0.7047	0.0815	-0.015
Mof_H 	H 	0.4379	0.1684	0.389	0.309
Mof_H 	H 	0.2532	0.1281	0.6319	-0.019
Mof_H 	H 	0.5136	0.5164	0.1128	0.185
Mof_H 	H 	0.5621	0.8316	0.611	0.309
Mof_H 	H 	0.0986	0.9701	0.7767	0.246
Mof_H 	H 	0.8753	0.2233	0.4701	0.248
Mof_H 	H 	0.5047	0.6684	0.889	0.309
Mof_H 	H 	0.5132	0.3719	0.8681	-0.021
Mof_H 	H 	0.0769	0.2953	0.9185	-0.016
Mof_H 	H 	0.8269	0.611	0.6684	0.309
Mof_H 	H 	0.4953	0.3316	0.111	0.309
Mof_H 	H 	0.6283	0.7978	0.502	0.019
Mof_H 	H 	0.172	0.973	0.1004	-0.01
Mof_H 	H 	0.1303	0.498	0.2978	0.019
Mof_H 	H 	0.3937	0.111	0.1684	0.305
Mof_H 	H 	0.7276	0.1004	0.527	-0.016
Mof_H 	H 	0.6187	0.8681	0.1281	-0.017
Mof_H 	H 	0.7775	0.4357	0.0815	0.216
Mof_H 	H 	0.1149	0.6319	0.3719	-0.021
Mof_H 	H 	0.6428	0.9836	0.3872	0.183
Mof_H 	H 	0.3454	0.5299	0.7233	0.247
Mof_H 	H 	0.5719	0.2978	0.002	0.019
Mof_H 	H 	0.2546	0.473	0.6004	-0.016
Mof_H 	H 	0.5739	0.998	0.7978	0.023
Mof_H 	H 	0.8851	0.3681	0.6281	-0.021
Mof_H 	H 	0.3736	0.1128	0.9836	0.181
Mof_H 	H 	0.2093	0.7953	0.4185	-0.021
Mof_H 	H 	0.9014	0.0299	0.2233	0.245
Mof_H 	H 	0.3572	0.0164	0.6128	0.183
Mof_H 	H 	0.7947	0.0643	0.4185	0.215
Mof_H 	H 	0.1247	0.7767	0.5299	0.247
Mof_H 	H 	0.6278	0.5815	0.2953	-0.021
Mof_H 	H 	0.2132	0.5815	0.5643	0.216
Mof_H 	H 	0.3717	0.2022	0.498	0.019
Mof_H 	H 	0.855	0.3996	0.973	-0.018
Mof_H 	H 	0.6063	0.889	0.8316	0.305
Mof_H 	H 	0.97	0.3872	0.5164	0.184
Mof_H 	H 	0.3722	0.4185	0.7047	-0.021
Mof_H 	H 	0.859	0.9185	0.9357	0.211
Mof_H 	H 	0.7868	0.4185	0.4357	0.216
Mof_H 	H 	0.7454	0.527	0.3996	-0.016
Mof_H 	H 	0.2053	0.9357	0.5815	0.215
Mof_H 	H 	0.141	0.0815	0.0643	0.211
Mof_H 	H 	0.2724	0.8996	0.473	-0.016
Mof_H 	H 	0.828	0.027	0.8996	-0.01
Mof_H 	H 	0.145	0.6004	0.027	-0.018
Mof_H 	H 	0.03	0.6128	0.4836	0.184
Mof_H 	H 	0.4864	0.4836	0.8872	0.184
Mof_H 	H 	0.6264	0.8872	0.0164	0.181
Mof_H 	H 	0.9313	0.7233	0.9701	0.239
Mof_H 	H 	0.1731	0.389	0.3316	0.309
Mof_H 	H 	0.2225	0.5643	0.9185	0.216
Mof_H 	H 	0.7907	0.2047	0.5815	-0.021
Mof_H 	H 	0.6546	0.4701	0.2767	0.247
Mof_H 	H 	0.4868	0.6281	0.1319	-0.021
Mof_H 	H 	0.4281	0.7022	0.998	0.019
Mof_H 	H 	0.0687	0.2767	0.0299	0.239
Mof_H 	H 	0.8697	0.502	0.7022	0.019
Mof_C 	C 	0.37197	0.61216	0.8915	0.447
Mof_C 	C 	0.09196	0.4066	0.68168	0.453
Mof_C 	C 	0.82853	0.24088	0.56846	0.246
Mof_C 	C 	0.06033	0.48189	0.32525	0.29
Mof_C 	C 	0.86213	0.74088	0.06846	0.234
Mof_C 	C 	0.70927	0.09253	0.43413	-0.36
Mof_C 	C 	0.22636	0.68168	0.0934	0.453
Mof_C 	C 	0.23995	0.98051	0.69359	0.404
Mof_C 	C 	0.08951	0.21597	0.14121	0.984
Mof_C 	C 	0.65101	0.9166	0.84578	-0.342
Mof_C 	C 	0.50144	0.81832	0.4066	0.452
Mof_C 	C 	0.885	0.33853	0.59627	0.231
Mof_C 	C 	0.48275	0.31187	0.76563	0.407
Mof_C 	C 	0.51725	0.68813	0.23437	0.407
Mof_C 	C 	0.1434	0.56587	0.59253	-0.361
Mof_C 	C 	0.93496	0.35012	0.52936	-0.324
Mof_C 	C 	0.86904	0.99834	0.25238	-0.325
Mof_C 	C 	0.38558	0.67475	0.98189	0.292
Mof_C 	C 	0.53568	0.52936	0.14988	-0.324
Mof_C 	C 	0.43419	0.89911	0.71891	0.981
Mof_C 	C 	0.60301	0.56846	0.25912	0.246
Mof_C 	C 	0.79462	0.26563	0.68813	0.407
Mof_C 	C 	0.71492	0.97064	0.35012	-0.32
Mof_C 	C 	0.1982	0.06587	0.09253	-0.35
Mof_C 	C 	0.98413	0.3915	0.38784	0.447
Mof_C 	C 	0.49679	0.15422	0.4166	-0.35
Mof_C 	C 	0.68024	0.0934	0.81832	0.448
Mof_C 	C 	0.08661	0.4166	0.34578	-0.352
Mof_C 	C 	0.86738	0.75238	0.00166	-0.312
Mof_C 	C 	0.54924	0.61612	0.2172	-0.245
Mof_C 	C 	0.24838	0.23437	0.81187	0.404
Mof_C 	C 	0.49856	0.18168	0.5934	0.452
Mof_C 	C 	0.69811	0.02403	0.84395	-0.249
Mof_C 	C 	0.58744	0.40719	0.18293	-0.534
Mof_C 	C 	0.93975	0.81187	0.26563	0.408
Mof_C 	C 	0.73593	0.40747	0.06587	-0.362
Mof_C 	C 	0.00537	0.31707	0.40719	-0.535
Mof_C 	C 	0.43239	0.65422	0.9166	-0.352
Mof_C 	C 	0.78305	0.99918	0.88592	0.257
Mof_C 	C 	0.90804	0.5934	0.31832	0.453
Mof_C 	C 	0.01587	0.6085	0.61216	0.447
Mof_C 	C 	0.3198	0.16147	0.90373	0.221
Mof_C 	C 	0.69452	0.35879	0.21597	0.987
Mof_C 	C 	0.06025	0.18813	0.73437	0.408
Mof_C 	C 	0.17147	0.75912	0.43154	0.246
Mof_C 	C 	0.27786	0.65605	0.02403	-0.262
Mof_C 	C 	0.30548	0.64121	0.78403	0.987
Mof_C 	C 	0.77037	0.81707	0.90719	-0.528
Mof_C 	C 	0.68556	0.85012	0.02936	-0.311
Mof_C 	C 	0.31444	0.14988	0.97064	-0.311
Mof_C 	C 	0.78223	0.38592	0.00082	0.275
Mof_C 	C 	0.76005	0.01949	0.30641	0.404
Mof_C 	C 	0.55221	0.60089	0.78109	0.981
Mof_C 	C 	0.33103	0.88592	0.50082	0.271
Mof_C 	C 	0.56761	0.34578	0.0834	-0.352
Mof_C 	C 	0.36747	0.01811	0.17475	0.28
Mof_C 	C 	0.26347	0.1085	0.11216	0.438
Mof_C 	C 	0.58595	0.48051	0.19359	0.408
Mof_C 	C 	0.94669	0.28403	0.35879	0.987
Mof_C 	C 	0.6802	0.83853	0.09627	0.221
Mof_C 	C 	0.8566	0.43413	0.40747	-0.361
Mof_C 	C 	0.30189	0.97597	0.15605	-0.249
Mof_C 	C 	0.16536	0.7172	0.38388	-0.246
Mof_C 	C 	0.22046	0.19359	0.01949	0.394
Mof_C 	C 	0.115	0.66147	0.40373	0.231
Mof_C 	C 	0.31976	0.9066	0.18168	0.448
Mof_C 	C 	0.61976	0.50166	0.24762	-0.33
Mof_C 	C 	0.50321	0.84578	0.5834	-0.35
Mof_C 	C 	0.83464	0.2828	0.61612	-0.246
Mof_C 	C 	0.75162	0.76563	0.18813	0.404
Mof_C 	C 	0.05331	0.71597	0.64121	0.987
Mof_C 	C 	0.06941	0.06846	0.75912	0.244
Mof_C 	C 	0.93059	0.93154	0.24088	0.244
Mof_C 	C 	0.83185	0.49918	0.38592	0.272
Mof_C 	C 	0.76928	0.14121	0.28403	0.986
Mof_C 	C 	0.46432	0.47064	0.85012	-0.324
Mof_C 	C 	0.44779	0.39911	0.21891	0.981
Mof_C 	C 	0.8018	0.93413	0.90747	-0.35
Mof_C 	C 	0.41405	0.51949	0.80641	0.408
Mof_C 	C 	0.93391	0.52403	0.34395	-0.261
Mof_C 	C 	0.67756	0.09281	0.31707	-0.533
Mof_C 	C 	0.21695	0.00082	0.11408	0.257
Mof_C 	C 	0.45778	0.17475	0.48189	0.29
Mof_C 	C 	0.51873	0.59627	0.16147	0.23
Mof_C 	C 	0.28508	0.02936	0.64988	-0.32
Mof_C 	C 	0.22963	0.18293	0.09281	-0.528
Mof_C 	C 	0.88256	0.88388	0.2828	-0.244
Mof_C 	C 	0.54206	0.15605	0.52403	-0.261
Mof_C 	C 	0.32244	0.90719	0.68293	-0.533
Mof_C 	C 	0.99463	0.68293	0.59281	-0.535
Mof_C 	C 	0.62803	0.38784	0.1085	0.447
Mof_C 	C 	0.91339	0.5834	0.65422	-0.352
Mof_C 	C 	0.93967	0.51811	0.67475	0.29
Mof_C 	C 	0.77647	0.90373	0.33853	0.228
Mof_C 	C 	0.21777	0.61408	0.99918	0.275
Mof_C 	C 	0.63253	0.98189	0.82525	0.28
Mof_C 	C 	0.61442	0.32525	0.01811	0.292
Mof_C 	C 	0.62437	0.11216	0.3915	0.446
Mof_C 	C 	0.48127	0.40373	0.83853	0.23
Mof_C 	C 	0.23356	0.2172	0.88388	-0.237
Mof_C 	C 	0.72214	0.34395	0.97597	-0.262
Mof_C 	C 	0.06609	0.47597	0.65605	-0.261
Mof_C 	C 	0.56581	0.10089	0.28109	0.981
Mof_C 	C 	0.8469	0.71891	0.60089	0.981
Mof_C 	C 	0.45076	0.38388	0.7828	-0.245
Mof_C 	C 	0.1531	0.28109	0.39911	0.981
Mof_C 	C 	0.39699	0.43154	0.74088	0.246
Mof_C 	C 	0.3333	0.21891	0.10089	0.979
Mof_C 	C 	0.29073	0.90747	0.56587	-0.36
Mof_C 	C 	0.26407	0.59253	0.93413	-0.362
Mof_C 	C 	0.91049	0.78403	0.85879	0.984
Mof_C 	C 	0.13262	0.24762	0.99834	-0.312
Mof_C 	C 	0.22353	0.09627	0.66147	0.228
Mof_C 	C 	0.6667	0.78109	0.89911	0.979
Mof_C 	C 	0.13787	0.25912	0.93154	0.234
Mof_C 	C 	0.77954	0.80641	0.98051	0.394
Mof_C 	C 	0.73653	0.8915	0.88784	0.438
Mof_C 	C 	0.12142	0.74762	0.49834	-0.331
Mof_C 	C 	0.16815	0.50082	0.61408	0.272
Mof_C 	C 	0.38024	0.49834	0.75238	-0.33
Mof_C 	C 	0.34899	0.0834	0.15422	-0.342
Mof_C 	C 	0.41256	0.59281	0.81707	-0.534
Mof_C 	C 	0.06646	0.69359	0.51949	0.408
Mof_C 	C 	0.06504	0.64988	0.47064	-0.324
Mof_C 	C 	0.45794	0.84395	0.47597	-0.261
Mof_C 	C 	0.20538	0.73437	0.31187	0.407
Mof_C 	C 	0.66897	0.11408	0.49918	0.271
Mof_C 	C 	0.23072	0.85879	0.71597	0.986
Mof_C 	C 	0.87858	0.25238	0.50166	-0.331
Mof_C 	C 	0.54222	0.82525	0.51811	0.29
Mof_C 	C 	0.13096	0.00166	0.74762	-0.325
Mof_C 	C 	0.76644	0.7828	0.11612	-0.237
Mof_C 	C 	0.77364	0.31832	0.9066	0.453
Mof_C 	C 	0.11744	0.11612	0.7172	-0.244
Mof_C 	C 	0.93354	0.30641	0.48051	0.408
Mof_C 	C 	0.37563	0.88784	0.6085	0.446
Mof_O 	O 	0.24026	0.78886	0.29522	-0.491
Mof_O 	O 	0.90161	0.76726	0.30412	-0.485
Mof_O 	O 	0.79427	0.30412	0.73274	-0.485
Mof_O 	O 	0.57443	0.16027	0.63207	-0.439
Mof_O 	O 	0.28208	0.72375	0.10909	-0.447
Mof_O 	O 	0.99417	0.39091	0.72375	-0.448
Mof_O 	O 	0.02912	0.79522	0.21114	-0.492
Mof_O 	O 	0.09839	0.23274	0.69588	-0.485
Mof_O 	O 	0.2653	0.86793	0.16027	-0.438
Mof_O 	O 	0.47299	0.73274	0.19588	-0.485
Mof_O 	O 	0.13323	0.66027	0.13207	-0.44
Mof_O 	O 	0.75974	0.21114	0.70478	-0.491
Mof_O 	O 	0.71792	0.27625	0.89091	-0.447
Mof_O 	O 	0.52701	0.26726	0.80412	-0.485
Mof_O 	O 	0.00583	0.60909	0.27625	-0.448
Mof_O 	O 	0.86677	0.33973	0.86793	-0.44
Mof_O 	O 	0.46452	0.29522	0.71114	-0.491
Mof_O 	O 	0.39117	0.89091	0.22375	-0.446
Mof_O 	O 	0.42557	0.83973	0.36793	-0.439
Mof_O 	O 	0.7935	0.63207	0.33973	-0.44
Mof_O 	O 	0.66887	0.80412	0.23274	-0.484
Mof_O 	O 	0.53548	0.70478	0.28886	-0.491
Mof_O 	O 	0.97088	0.20478	0.78886	-0.492
Mof_O 	O 	0.2065	0.36793	0.66027	-0.44
Mof_O 	O 	0.38508	0.22375	0.60909	-0.447
Mof_O 	O 	0.20573	0.69588	0.26726	-0.485
Mof_O 	O 	0.82434	0.71114	0.20478	-0.49
Mof_O 	O 	0.33113	0.19588	0.76726	-0.484
Mof_O 	O 	0.61492	0.77625	0.39091	-0.447
Mof_O 	O 	0.60883	0.10909	0.77625	-0.446
Mof_O 	O 	0.17566	0.28886	0.79522	-0.49
Mof_O 	O 	0.7347	0.13207	0.83973	-0.438
Mof_F 	F 	0.79372	0.14196	0.218	-0.401
Mof_F 	F 	0.40619	0.42611	0.28031	-0.46
Mof_F 	F 	0.33401	0.22702	0.16436	-0.382
Mof_F 	F 	0.22539	0.27298	0.33564	-0.383
Mof_F 	F 	0.81235	0.3015	0.3756	-0.441
Mof_F 	F 	0.4581	0.1864	0.07	-0.49
Mof_F 	F 	0.06432	0.282	0.14196	-0.401
Mof_F 	F 	0.01055	0.8015	0.8756	-0.44
Mof_F 	F 	0.50163	0.16436	0.27298	-0.383
Mof_F 	F 	0.11385	0.8756	0.6985	-0.441
Mof_F 	F 	0.28327	0.70336	0.8053	-0.368
Mof_F 	F 	0.2145	0.3136	0.43	-0.49
Mof_F 	F 	0.7855	0.6864	0.57	-0.49
Mof_F 	F 	0.01172	0.782	0.64196	-0.401
Mof_F 	F 	0.81205	0.3756	0.1985	-0.441
Mof_F 	F 	0.98945	0.1985	0.1244	-0.44
Mof_F 	F 	0.1677	0.21969	0.42611	-0.46
Mof_F 	F 	0.66599	0.77298	0.83564	-0.382
Mof_F 	F 	0.8323	0.78031	0.57389	-0.46
Mof_F 	F 	0.49837	0.83564	0.72702	-0.383
Mof_F 	F 	0.56103	0.66436	0.77298	-0.383
Mof_F 	F 	0.98663	0.3053	0.29664	-0.368
Mof_F 	F 	0.59381	0.57389	0.71969	-0.46
Mof_F 	F 	0.20628	0.85804	0.782	-0.401
Mof_F 	F 	0.18795	0.6244	0.8015	-0.441
Mof_F 	F 	0.01337	0.6947	0.70336	-0.368
Mof_F 	F 	0.29193	0.79664	0.6947	-0.368
Mof_F 	F 	0.91143	0.8053	0.79664	-0.368
Mof_F 	F 	0.88615	0.1244	0.3015	-0.441
Mof_F 	F 	0.3555	0.43	0.1864	-0.49
Mof_F 	F 	0.43897	0.33564	0.22702	-0.383
Mof_F 	F 	0.38739	0.92611	0.78031	-0.46
Mof_F 	F 	0.77461	0.72702	0.66436	-0.383
Mof_F 	F 	0.70807	0.20336	0.3053	-0.368
Mof_F 	F 	0.6865	0.71969	0.92611	-0.46
Mof_F 	F 	0.6445	0.57	0.8136	-0.49
Mof_F 	F 	0.08857	0.1947	0.20336	-0.368
Mof_F 	F 	0.61261	0.07389	0.21969	-0.46
Mof_F 	F 	0.98828	0.218	0.35804	-0.401
Mof_F 	F 	0.5281	0.93	0.6864	-0.49
Mof_F 	F 	0.5419	0.8136	0.93	-0.49
Mof_F 	F 	0.34632	0.64196	0.718	-0.401
Mof_F 	F 	0.65368	0.35804	0.282	-0.401
Mof_F 	F 	0.3135	0.28031	0.07389	-0.46
Mof_F 	F 	0.4719	0.07	0.3136	-0.49
Mof_F 	F 	0.71673	0.29664	0.1947	-0.368
Mof_F 	F 	0.18765	0.6985	0.6244	-0.441
Mof_F 	F 	0.93568	0.718	0.85804	-0.401
_end
