data_functionalizedCrystal
_audit_creation_method	'EQeq! by Chris Wilmer'
_symmetry_space_group_name_H-M	'P1'
_symmetry_Int_Tables_number	1
_symmetry_cell_setting	triclinic
loop_
_symmetry_equiv_pos_as_xyz
  x,y,z
_cell_length_a	11.4269
_cell_length_b	11.4269
_cell_length_c	18.8731
_cell_angle_alpha	94.7584
_cell_angle_beta	94.7584
_cell_angle_gamma	96.7219
loop_
_atom_site_label
_atom_site_type_symbol
_atom_site_fract_x
_atom_site_fract_y
_atom_site_fract_z
_atom_site_charge
Mof_Cu	Cu	0.97181	0.0955	0.47205	0.896
Mof_Cu	Cu	0.9045	0.02819	0.02795	0.893
Mof_Cu	Cu	0.02819	0.9045	0.52795	0.895
Mof_Cu	Cu	0.0955	0.97181	0.97205	0.892
Mof_H 	H 	0.7706	0.215	0.6417	0.065
Mof_H 	H 	0.3058	0.3242	0.5307	0.02
Mof_H 	H 	0.4844	0.4256	0.5859	0.081
Mof_H 	H 	0.5299	0.1499	0.7017	0.093
Mof_H 	H 	0.6251	0.4493	0.6975	0.078
Mof_H 	H 	0.6994	0.3658	0.6515	0.075
Mof_H 	H 	0.3541	0.0469	0.6456	0.024
Mof_H 	H 	0.785	0.2294	0.8583	0.065
Mof_H 	H 	0.6758	0.6942	0.9693	0.02
Mof_H 	H 	0.5744	0.5156	0.9141	0.081
Mof_H 	H 	0.8501	0.4701	0.7983	0.093
Mof_H 	H 	0.5507	0.3749	0.8025	0.078
Mof_H 	H 	0.6342	0.3006	0.8485	0.075
Mof_H 	H 	0.9531	0.6459	0.8544	0.024
Mof_H 	H 	0.2294	0.785	0.3583	0.065
Mof_H 	H 	0.6942	0.6758	0.4693	0.02
Mof_H 	H 	0.5156	0.5744	0.4141	0.081
Mof_H 	H 	0.4701	0.8501	0.2983	0.093
Mof_H 	H 	0.3749	0.5507	0.3025	0.078
Mof_H 	H 	0.3006	0.6342	0.3485	0.075
Mof_H 	H 	0.6459	0.9531	0.3544	0.024
Mof_H 	H 	0.215	0.7706	0.1417	0.065
Mof_H 	H 	0.3242	0.3058	0.0307	0.02
Mof_H 	H 	0.4256	0.4844	0.0859	0.081
Mof_H 	H 	0.1499	0.5299	0.2017	0.093
Mof_H 	H 	0.4493	0.6251	0.1975	0.078
Mof_H 	H 	0.3658	0.6994	0.1515	0.075
Mof_H 	H 	0.0469	0.3541	0.1456	0.024
Mof_H 	H 	0.9836	0.0164	0.75	0.052
Mof_H 	H 	0.0164	0.9836	0.25	0.052
Mof_C 	C 	0.80062	0.19068	0.6858	-0.06
Mof_C 	C 	0.88149	0.10947	0.686	-0.058
Mof_C 	C 	0.19727	0.10959	0.54992	0.372
Mof_C 	C 	0.52389	0.29779	0.64991	0.124
Mof_C 	C 	0.31135	0.17607	0.58353	-0.133
Mof_C 	C 	0.35104	0.28852	0.56552	0.072
Mof_C 	C 	0.45734	0.34904	0.59854	-0.159
Mof_C 	C 	0.48461	0.18559	0.66696	-0.157
Mof_C 	C 	0.63809	0.36605	0.68569	-0.149
Mof_C 	C 	0.37958	0.12446	0.63386	0.073
Mof_C 	C 	0.9217	0.06366	0.61677	0.33
Mof_C 	C 	0.80932	0.19938	0.8142	-0.059
Mof_C 	C 	0.89053	0.11851	0.814	-0.058
Mof_C 	C 	0.89041	0.80273	0.95008	0.372
Mof_C 	C 	0.70221	0.47611	0.85009	0.124
Mof_C 	C 	0.82393	0.68865	0.91647	-0.133
Mof_C 	C 	0.71148	0.64896	0.93448	0.072
Mof_C 	C 	0.65096	0.54266	0.90146	-0.159
Mof_C 	C 	0.81441	0.51539	0.83304	-0.157
Mof_C 	C 	0.63395	0.36191	0.81431	-0.149
Mof_C 	C 	0.87554	0.62042	0.86614	0.073
Mof_C 	C 	0.93634	0.0783	0.88323	0.332
Mof_C 	C 	0.19938	0.80932	0.3142	-0.06
Mof_C 	C 	0.11851	0.89053	0.314	-0.058
Mof_C 	C 	0.80273	0.89041	0.45008	0.372
Mof_C 	C 	0.47611	0.70221	0.35009	0.124
Mof_C 	C 	0.68865	0.82393	0.41647	-0.133
Mof_C 	C 	0.64896	0.71148	0.43448	0.072
Mof_C 	C 	0.54266	0.65096	0.40146	-0.159
Mof_C 	C 	0.51539	0.81441	0.33304	-0.157
Mof_C 	C 	0.36191	0.63395	0.31431	-0.149
Mof_C 	C 	0.62042	0.87554	0.36614	0.073
Mof_C 	C 	0.0783	0.93634	0.38323	0.33
Mof_C 	C 	0.19068	0.80062	0.1858	-0.059
Mof_C 	C 	0.10947	0.88149	0.186	-0.058
Mof_C 	C 	0.10959	0.19727	0.04992	0.372
Mof_C 	C 	0.29779	0.52389	0.14991	0.124
Mof_C 	C 	0.17607	0.31135	0.08353	-0.133
Mof_C 	C 	0.28852	0.35104	0.06552	0.072
Mof_C 	C 	0.34904	0.45734	0.09854	-0.159
Mof_C 	C 	0.18559	0.48461	0.16696	-0.157
Mof_C 	C 	0.36605	0.63809	0.18569	-0.149
Mof_C 	C 	0.12446	0.37958	0.13386	0.073
Mof_C 	C 	0.06366	0.9217	0.11677	0.332
Mof_C 	C 	0.76216	0.23784	0.75	0.068
Mof_C 	C 	0.92797	0.07203	0.75	-0
Mof_C 	C 	0.23784	0.76216	0.25	0.068
Mof_C 	C 	0.07203	0.92797	0.25	-0
Mof_N 	N 	0.6814	0.3186	0.75	-0.087
Mof_N 	N 	0.3186	0.6814	0.25	-0.087
Mof_O 	O 	0.91231	0.12765	0.56597	-0.405
Mof_O 	O 	0.13085	0.16683	0.5126	-0.404
Mof_O 	O 	0.17632	0.00316	0.56135	-0.41
Mof_O 	O 	0.96285	0.96631	0.61469	-0.385
Mof_O 	O 	0.87235	0.08769	0.93403	-0.403
Mof_O 	O 	0.83317	0.86915	0.9874	-0.404
Mof_O 	O 	0.99684	0.82368	0.93865	-0.409
Mof_O 	O 	0.03369	0.03715	0.88531	-0.386
Mof_O 	O 	0.08769	0.87235	0.43403	-0.405
Mof_O 	O 	0.86915	0.83317	0.4874	-0.404
Mof_O 	O 	0.82368	0.99684	0.43865	-0.41
Mof_O 	O 	0.03715	0.03369	0.38531	-0.385
Mof_O 	O 	0.12765	0.91231	0.06597	-0.403
Mof_O 	O 	0.16683	0.13085	0.0126	-0.404
Mof_O 	O 	0.00316	0.17632	0.06135	-0.409
Mof_O 	O 	0.96631	0.96285	0.11469	-0.386
_end
