data_functionalizedCrystal
_audit_creation_method	'EQeq! by Chris Wilmer'
_symmetry_space_group_name_H-M	'P1'
_symmetry_Int_Tables_number	1
_symmetry_cell_setting	triclinic
loop_
_symmetry_equiv_pos_as_xyz
  x,y,z
_cell_length_a	13.7619
_cell_length_b	15.3949
_cell_length_c	17.35
_cell_angle_alpha	98.3477
_cell_angle_beta	90
_cell_angle_gamma	116.549
loop_
_atom_site_label
_atom_site_type_symbol
_atom_site_fract_x
_atom_site_fract_y
_atom_site_fract_z
_atom_site_charge
Mof_Cu	Cu	0.47622	0.17918	0.73428	0.817
Mof_Cu	Cu	0.47005	0.37798	0.62212	0.819
Mof_Cu	Cu	0.72357	0.4214	0.73575	0.816
Mof_Cu	Cu	0.29704	0.82082	0.76572	0.817
Mof_Cu	Cu	0.09207	0.62202	0.87788	0.82
Mof_Cu	Cu	0.30217	0.5786	0.76425	0.817
Mof_Cu	Cu	0.52378	0.82082	0.26572	0.818
Mof_Cu	Cu	0.52995	0.62202	0.37788	0.82
Mof_Cu	Cu	0.27643	0.5786	0.26425	0.817
Mof_Cu	Cu	0.70296	0.17918	0.23428	0.818
Mof_Cu	Cu	0.90793	0.37798	0.12212	0.82
Mof_Cu	Cu	0.69783	0.4214	0.23575	0.817
Mof_Mo	Mo	0.59005	0.27954	0.62166	0.849
Mof_Mo	Mo	0.31051	0.72046	0.87834	0.849
Mof_Mo	Mo	0.40995	0.72046	0.37834	0.849
Mof_Mo	Mo	0.68949	0.27954	0.12166	0.849
Mof_H 	H 	0.2616	0.3446	0.5372	-0.003
Mof_H 	H 	0.1727	0.2942	0.4157	0.079
Mof_H 	H 	0.4492	0.3164	0.3258	0.075
Mof_H 	H 	0.5314	0.3714	0.4488	-0.014
Mof_H 	H 	0.1401	0.3228	0.2947	0.072
Mof_H 	H 	0.0519	0.267	0.1711	-0.002
Mof_H 	H 	0.2338	0.1412	0.1068	0.01
Mof_H 	H 	0.3251	0.1906	0.2278	0.083
Mof_H 	H 	0.3913	0.3288	0.7789	-0.049
Mof_H 	H 	0.3624	0.4182	0.8836	0.067
Mof_H 	H 	0.4292	0.2614	0.0208	0.076
Mof_H 	H 	0.4628	0.1794	0.9105	0.001
Mof_H 	H 	0.3996	0.4506	0.224	-0.027
Mof_H 	H 	0.4277	0.3582	0.1198	0.065
Mof_H 	H 	0.3153	0.485	0.9805	0.083
Mof_H 	H 	0.2956	0.5752	0.0908	-0.02
Mof_H 	H 	0.917	0.6554	0.9628	-0.002
Mof_H 	H 	0.8785	0.7058	0.0843	0.079
Mof_H 	H 	0.1328	0.6836	0.1742	0.075
Mof_H 	H 	0.16	0.6286	0.0512	-0.015
Mof_H 	H 	0.8173	0.6772	0.2053	0.071
Mof_H 	H 	0.7849	0.733	0.3289	-0.002
Mof_H 	H 	0.0926	0.8588	0.3932	0.01
Mof_H 	H 	0.1345	0.8094	0.2722	0.083
Mof_H 	H 	0.0625	0.6712	0.7211	-0.049
Mof_H 	H 	0.9442	0.5818	0.6164	0.068
Mof_H 	H 	0.1678	0.7386	0.4792	0.076
Mof_H 	H 	0.2834	0.8206	0.5895	0.001
Mof_H 	H 	0.949	0.5494	0.276	-0.027
Mof_H 	H 	0.0695	0.6418	0.3802	0.065
Mof_H 	H 	0.8303	0.515	0.5195	0.083
Mof_H 	H 	0.7204	0.4248	0.4092	-0.02
Mof_H 	H 	0.7384	0.6554	0.4628	-0.003
Mof_H 	H 	0.8273	0.7058	0.5843	0.079
Mof_H 	H 	0.5508	0.6836	0.6742	0.075
Mof_H 	H 	0.4686	0.6286	0.5512	-0.014
Mof_H 	H 	0.8599	0.6772	0.7053	0.072
Mof_H 	H 	0.9481	0.733	0.8289	-0.002
Mof_H 	H 	0.7662	0.8588	0.8932	0.01
Mof_H 	H 	0.6749	0.8094	0.7722	0.083
Mof_H 	H 	0.6087	0.6712	0.2211	-0.049
Mof_H 	H 	0.6376	0.5818	0.1164	0.067
Mof_H 	H 	0.5708	0.7386	0.9792	0.076
Mof_H 	H 	0.5372	0.8206	0.0895	0.001
Mof_H 	H 	0.6004	0.5494	0.776	-0.027
Mof_H 	H 	0.5723	0.6418	0.8802	0.065
Mof_H 	H 	0.6847	0.515	0.0195	0.083
Mof_H 	H 	0.7044	0.4248	0.9092	-0.02
Mof_H 	H 	0.083	0.3446	0.0372	-0.002
Mof_H 	H 	0.1215	0.2942	0.9157	0.079
Mof_H 	H 	0.8672	0.3164	0.8258	0.075
Mof_H 	H 	0.84	0.3714	0.9488	-0.015
Mof_H 	H 	0.1827	0.3228	0.7947	0.071
Mof_H 	H 	0.2151	0.267	0.6711	-0.002
Mof_H 	H 	0.9074	0.1412	0.6068	0.01
Mof_H 	H 	0.8655	0.1906	0.7278	0.083
Mof_H 	H 	0.9375	0.3288	0.2789	-0.049
Mof_H 	H 	0.0558	0.4182	0.3836	0.068
Mof_H 	H 	0.8322	0.2614	0.5208	0.076
Mof_H 	H 	0.7166	0.1794	0.4105	0.001
Mof_H 	H 	0.051	0.4506	0.724	-0.027
Mof_H 	H 	0.9305	0.3582	0.6198	0.065
Mof_H 	H 	0.1697	0.485	0.4805	0.083
Mof_H 	H 	0.2796	0.5752	0.5908	-0.02
Mof_C 	C 	0.3002	0.3394	0.4942	0.069
Mof_C 	C 	0.2458	0.3086	0.421	-0.125
Mof_C 	C 	0.3002	0.2986	0.3546	0.051
Mof_C 	C 	0.4089	0.3222	0.3675	-0.142
Mof_C 	C 	0.4577	0.3544	0.4424	0.07
Mof_C 	C 	0.2433	0.2636	0.2763	0.06
Mof_C 	C 	0.1607	0.2854	0.2576	-0.141
Mof_C 	C 	0.1074	0.2512	0.1827	0.076
Mof_C 	C 	0.2135	0.1774	0.1452	0.082
Mof_C 	C 	0.2699	0.2076	0.2181	-0.142
Mof_C 	C 	0.4013	0.316	0.8283	0.081
Mof_C 	C 	0.3821	0.3694	0.8911	-0.137
Mof_C 	C 	0.3917	0.351	0.966	0.051
Mof_C 	C 	0.4222	0.2776	0.9722	-0.123
Mof_C 	C 	0.4421	0.2282	0.9051	0.068
Mof_C 	C 	0.3821	0.4572	0.1741	0.077
Mof_C 	C 	0.3997	0.4014	0.1118	-0.138
Mof_C 	C 	0.3338	0.4766	0.0295	-0.145
Mof_C 	C 	0.321	0.5296	0.0965	0.088
Mof_C 	C 	0.3751	0.4104	0.0368	0.062
Mof_C 	C 	0.4069	0.0358	0.743	-0.166
Mof_C 	C 	0.4071	0.4508	0.6848	-0.178
Mof_C 	C 	0.9608	0.6606	0.0058	0.067
Mof_C 	C 	0.9372	0.6914	0.079	-0.125
Mof_C 	C 	0.0016	0.7014	0.1454	0.052
Mof_C 	C 	0.0867	0.6778	0.1325	-0.143
Mof_C 	C 	0.1033	0.6456	0.0576	0.071
Mof_C 	C 	0.9797	0.7364	0.2237	0.059
Mof_C 	C 	0.8753	0.7146	0.2424	-0.141
Mof_C 	C 	0.8562	0.7488	0.3173	0.076
Mof_C 	C 	0.0361	0.8226	0.3548	0.081
Mof_C 	C 	0.0623	0.7924	0.2819	-0.142
Mof_C 	C 	0.0853	0.684	0.6717	0.081
Mof_C 	C 	0.0127	0.6306	0.6089	-0.138
Mof_C 	C 	0.0407	0.649	0.534	0.051
Mof_C 	C 	0.1446	0.7224	0.5278	-0.123
Mof_C 	C 	0.2139	0.7718	0.5949	0.068
Mof_C 	C 	0.9249	0.5428	0.3259	0.077
Mof_C 	C 	0.9983	0.5986	0.3882	-0.138
Mof_C 	C 	0.8572	0.5234	0.4705	-0.146
Mof_C 	C 	0.7914	0.4704	0.4035	0.089
Mof_C 	C 	0.9647	0.5896	0.4632	0.062
Mof_C 	C 	0.3711	0.9642	0.757	-0.167
Mof_C 	C 	0.9563	0.5492	0.8152	-0.178
Mof_C 	C 	0.6998	0.6606	0.5058	0.069
Mof_C 	C 	0.7542	0.6914	0.579	-0.125
Mof_C 	C 	0.6998	0.7014	0.6454	0.051
Mof_C 	C 	0.5911	0.6778	0.6325	-0.142
Mof_C 	C 	0.5423	0.6456	0.5576	0.07
Mof_C 	C 	0.7567	0.7364	0.7237	0.06
Mof_C 	C 	0.8393	0.7146	0.7424	-0.141
Mof_C 	C 	0.8926	0.7488	0.8173	0.076
Mof_C 	C 	0.7865	0.8226	0.8548	0.082
Mof_C 	C 	0.7301	0.7924	0.7819	-0.142
Mof_C 	C 	0.5987	0.684	0.1717	0.081
Mof_C 	C 	0.6179	0.6306	0.1089	-0.137
Mof_C 	C 	0.6083	0.649	0.034	0.051
Mof_C 	C 	0.5778	0.7224	0.0278	-0.123
Mof_C 	C 	0.5579	0.7718	0.0949	0.068
Mof_C 	C 	0.6179	0.5428	0.8259	0.077
Mof_C 	C 	0.6003	0.5986	0.8882	-0.138
Mof_C 	C 	0.6662	0.5234	0.9705	-0.145
Mof_C 	C 	0.679	0.4704	0.9035	0.088
Mof_C 	C 	0.6249	0.5896	0.9632	0.062
Mof_C 	C 	0.5931	0.9642	0.257	-0.166
Mof_C 	C 	0.5929	0.5492	0.3152	-0.178
Mof_C 	C 	0.0392	0.3394	0.9942	0.067
Mof_C 	C 	0.0628	0.3086	0.921	-0.125
Mof_C 	C 	0.9984	0.2986	0.8546	0.052
Mof_C 	C 	0.9133	0.3222	0.8675	-0.143
Mof_C 	C 	0.8967	0.3544	0.9424	0.071
Mof_C 	C 	0.0203	0.2636	0.7763	0.059
Mof_C 	C 	0.1247	0.2854	0.7576	-0.141
Mof_C 	C 	0.1438	0.2512	0.6827	0.076
Mof_C 	C 	0.9639	0.1774	0.6452	0.081
Mof_C 	C 	0.9377	0.2076	0.7181	-0.142
Mof_C 	C 	0.9147	0.316	0.3283	0.081
Mof_C 	C 	0.9873	0.3694	0.3911	-0.138
Mof_C 	C 	0.9593	0.351	0.466	0.051
Mof_C 	C 	0.8554	0.2776	0.4722	-0.123
Mof_C 	C 	0.7861	0.2282	0.4051	0.068
Mof_C 	C 	0.0751	0.4572	0.6741	0.077
Mof_C 	C 	0.0017	0.4014	0.6118	-0.138
Mof_C 	C 	0.1428	0.4766	0.5295	-0.146
Mof_C 	C 	0.2086	0.5296	0.5965	0.089
Mof_C 	C 	0.0353	0.4104	0.5368	0.062
Mof_C 	C 	0.6289	0.0358	0.243	-0.167
Mof_C 	C 	0.0437	0.4508	0.1848	-0.178
Mof_S 	S 	0.65578	0.44414	0.62477	-0.59
Mof_S 	S 	0.4074	0.21236	0.62823	-0.571
Mof_S 	S 	0.66194	0.25538	0.72922	-0.594
Mof_S 	S 	0.21164	0.55586	0.87523	-0.59
Mof_S 	S 	0.19504	0.78764	0.87177	-0.571
Mof_S 	S 	0.40656	0.74462	0.77078	-0.594
Mof_S 	S 	0.34422	0.55586	0.37523	-0.59
Mof_S 	S 	0.5926	0.78764	0.37177	-0.571
Mof_S 	S 	0.33806	0.74462	0.27078	-0.594
Mof_S 	S 	0.78836	0.44414	0.12477	-0.59
Mof_S 	S 	0.80496	0.21236	0.12823	-0.571
Mof_S 	S 	0.59344	0.25538	0.22922	-0.594
Mof_N 	N 	0.3419	0.5202	0.1681	-0.242
Mof_N 	N 	0.4331	0.2472	0.8327	-0.244
Mof_N 	N 	0.4064	0.3626	0.5066	-0.225
Mof_N 	N 	0.1334	0.1966	0.1272	-0.132
Mof_N 	N 	0.3714	0.498	0.7214	-0.197
Mof_N 	N 	0.8217	0.4798	0.3319	-0.242
Mof_N 	N 	0.1859	0.7528	0.6673	-0.244
Mof_N 	N 	0.0438	0.6374	0.9934	-0.226
Mof_N 	N 	0.9368	0.8034	0.3728	-0.132
Mof_N 	N 	0.8734	0.502	0.7786	-0.197
Mof_N 	N 	0.6581	0.4798	0.8319	-0.242
Mof_N 	N 	0.5669	0.7528	0.1673	-0.244
Mof_N 	N 	0.5936	0.6374	0.4934	-0.225
Mof_N 	N 	0.8666	0.8034	0.8728	-0.132
Mof_N 	N 	0.6286	0.502	0.2786	-0.197
Mof_N 	N 	0.1783	0.5202	0.6681	-0.242
Mof_N 	N 	0.8141	0.2472	0.3327	-0.244
Mof_N 	N 	0.9562	0.3626	0.0066	-0.226
Mof_N 	N 	0.0632	0.1966	0.6272	-0.132
Mof_N 	N 	0.1266	0.498	0.2214	-0.197
Mof_O 	O 	0.6233	0.2276	0.5383	-0.399
Mof_O 	O 	0.3957	0.7724	0.9617	-0.399
Mof_O 	O 	0.3767	0.7724	0.4617	-0.399
Mof_O 	O 	0.6043	0.2276	0.0383	-0.399
_end
