data_functionalizedCrystal
_audit_creation_method	'EQeq! by Chris Wilmer'
_symmetry_space_group_name_H-M	'P1'
_symmetry_Int_Tables_number	1
_symmetry_cell_setting	triclinic
loop_
_symmetry_equiv_pos_as_xyz
  x,y,z
_cell_length_a	28.157
_cell_length_b	16.659
_cell_length_c	14.5584
_cell_angle_alpha	90
_cell_angle_beta	93.284
_cell_angle_gamma	90
loop_
_atom_site_label
_atom_site_type_symbol
_atom_site_fract_x
_atom_site_fract_y
_atom_site_fract_z
_atom_site_charge
Mof_Zn	Zn	0.30158	0.14792	0.64098	1.214
Mof_Zn	Zn	0.21144	0.2473	0.57495	1.217
Mof_O 	O 	0.25858	0.0785	0.7048	-0.466
Mof_O 	O 	0.19425	0.15504	0.6763	-0.422
Mof_O 	O 	0.17581	0.74023	0.7872	-0.477
Mof_O 	O 	0.24227	0.80793	0.8258	-0.454
Mof_O 	O 	0.83645	0.8112	0.5134	-0.443
Mof_O 	O 	0.80497	0.9338	0.5157	-0.271
Mof_O 	O 	0.03772	0.0706	0.6472	-0.228
Mof_N 	N 	0.86187	0.5833	0.6342	-0.282
Mof_N 	N 	0.15495	0.3202	0.6155	-0.247
Mof_N 	N 	0.06046	0.9413	0.658	-0.24
Mof_H 	H 	0.05	0.893	0.6513	0.128
Mof_C 	C 	0.97939	0.9695	0.6092	-0.029
Mof_C 	C 	0.9707	0.8907	0.5871	-0.044
Mof_H 	H 	0.9957	0.8542	0.5901	0.039
Mof_C 	C 	0.9252	0.8643	0.5604	-0
Mof_H 	H 	0.9199	0.8104	0.5466	0.043
Mof_C 	C 	0.88796	0.9176	0.5543	-0.075
Mof_C 	C 	0.89696	0.9966	0.5737	0.001
Mof_H 	H 	0.8722	0.0335	0.5685	0.049
Mof_C 	C 	0.94232	0.0225	0.601	-0.044
Mof_H 	H 	0.9476	0.0766	0.6139	0.064
Mof_C 	C 	0.10918	0.9477	0.6869	0.134
Mof_C 	C 	0.13558	0.0177	0.6815	-0.094
Mof_H 	H 	0.1214	0.0647	0.6591	0.098
Mof_C 	C 	0.18373	0.0167	0.71	-0.046
Mof_C 	C 	0.2048	0.9481	0.7447	0.001
Mof_H 	H 	0.2368	0.9487	0.7641	0.063
Mof_C 	C 	0.17877	0.8776	0.7511	-0.054
Mof_C 	C 	0.13079	0.8785	0.7211	-0.093
Mof_H 	H 	0.113	0.8316	0.7241	0.076
Mof_C 	C 	0.2137	0.0894	0.6956	0.361
Mof_C 	C 	0.20108	0.8039	0.7913	0.373
Mof_C 	C 	0.83888	0.8864	0.5252	0.345
Mof_C 	C 	0.02824	0.9991	0.6396	0.222
Mof_C 	C 	0.90408	0.6191	0.6315	0.108
Mof_H 	H 	0.9055	0.6749	0.6317	-0.023
Mof_C 	C 	0.9458	0.5759	0.6284	-0.192
Mof_H 	H 	0.9748	0.6027	0.6273	0.095
Mof_C 	C 	0.9447	0.4937	0.6271	0.142
Mof_C 	C 	0.9012	0.4569	0.6283	-0.195
Mof_H 	H 	0.899	0.4012	0.6277	0.101
Mof_C 	C 	0.8606	0.5034	0.6305	0.11
Mof_H 	H 	0.8312	0.4779	0.6294	-0.019
Mof_C 	C 	0.1126	0.2876	0.6282	0.098
Mof_H 	H 	0.1105	0.2321	0.6335	0.004
Mof_C 	C 	0.0719	0.3325	0.6337	-0.176
Mof_H 	H 	0.0431	0.3073	0.6425	0.096
Mof_C 	C 	0.07391	0.4161	0.626	0.124
Mof_C 	C 	0.1183	0.4493	0.6172	-0.177
Mof_H 	H 	0.1219	0.5047	0.6146	0.092
Mof_C 	C 	0.15702	0.3998	0.6122	0.094
Mof_H 	H 	0.1866	0.4235	0.6063	-0.004
Mof_C 	C 	0.9875	0.4427	0.6253	-0.099
Mof_H 	H 	0.9827	0.3875	0.6232	0.064
Mof_C 	C 	0.032	0.4679	0.6263	-0.082
Mof_H 	H 	0.0371	0.5231	0.6274	0.059
Mof_O 	O 	0.26709	0.17449	0.527	-0.636
Mof_Zn	Zn	0.80158	0.64792	0.64098	1.214
Mof_Zn	Zn	0.71144	0.7473	0.57495	1.217
Mof_O 	O 	0.75858	0.5785	0.7048	-0.466
Mof_O 	O 	0.69425	0.65504	0.6763	-0.422
Mof_O 	O 	0.67581	0.24023	0.7872	-0.477
Mof_O 	O 	0.74227	0.30793	0.8258	-0.454
Mof_O 	O 	0.33645	0.3112	0.5134	-0.443
Mof_O 	O 	0.30497	0.4338	0.5157	-0.271
Mof_O 	O 	0.53772	0.5706	0.6472	-0.228
Mof_N 	N 	0.36187	0.0833	0.6342	-0.282
Mof_N 	N 	0.65495	0.8202	0.6155	-0.247
Mof_N 	N 	0.56046	0.4413	0.658	-0.24
Mof_H 	H 	0.55	0.393	0.6513	0.128
Mof_C 	C 	0.47939	0.4695	0.6092	-0.029
Mof_C 	C 	0.4707	0.3907	0.5871	-0.044
Mof_H 	H 	0.4957	0.3542	0.5901	0.039
Mof_C 	C 	0.4252	0.3643	0.5604	-0.001
Mof_H 	H 	0.4199	0.3104	0.5466	0.043
Mof_C 	C 	0.38796	0.4176	0.5543	-0.075
Mof_C 	C 	0.39696	0.4966	0.5737	0.001
Mof_H 	H 	0.3722	0.5335	0.5685	0.05
Mof_C 	C 	0.44232	0.5225	0.601	-0.044
Mof_H 	H 	0.4476	0.5766	0.6139	0.064
Mof_C 	C 	0.60918	0.4477	0.6869	0.134
Mof_C 	C 	0.63558	0.5177	0.6815	-0.094
Mof_H 	H 	0.6214	0.5647	0.6591	0.098
Mof_C 	C 	0.68373	0.5167	0.71	-0.046
Mof_C 	C 	0.7048	0.4481	0.7447	0
Mof_H 	H 	0.7368	0.4487	0.7641	0.063
Mof_C 	C 	0.67877	0.3776	0.7511	-0.054
Mof_C 	C 	0.63079	0.3785	0.7211	-0.093
Mof_H 	H 	0.613	0.3316	0.7241	0.076
Mof_C 	C 	0.7137	0.5894	0.6956	0.36
Mof_C 	C 	0.70108	0.3039	0.7913	0.373
Mof_C 	C 	0.33888	0.3864	0.5252	0.345
Mof_C 	C 	0.52824	0.4991	0.6396	0.222
Mof_C 	C 	0.40408	0.1191	0.6315	0.108
Mof_H 	H 	0.4055	0.1749	0.6317	-0.023
Mof_C 	C 	0.4458	0.0759	0.6284	-0.192
Mof_H 	H 	0.4748	0.1027	0.6273	0.095
Mof_C 	C 	0.4447	0.9937	0.6271	0.142
Mof_C 	C 	0.4012	0.9569	0.6283	-0.195
Mof_H 	H 	0.399	0.9012	0.6277	0.101
Mof_C 	C 	0.3606	0.0034	0.6305	0.11
Mof_H 	H 	0.3312	0.9779	0.6294	-0.019
Mof_C 	C 	0.6126	0.7876	0.6282	0.098
Mof_H 	H 	0.6105	0.7321	0.6335	0.004
Mof_C 	C 	0.5719	0.8325	0.6337	-0.176
Mof_H 	H 	0.5431	0.8073	0.6425	0.096
Mof_C 	C 	0.57391	0.9161	0.626	0.123
Mof_C 	C 	0.6183	0.9493	0.6172	-0.177
Mof_H 	H 	0.6219	0.0047	0.6146	0.092
Mof_C 	C 	0.65702	0.8998	0.6122	0.094
Mof_H 	H 	0.6866	0.9235	0.6063	-0.004
Mof_C 	C 	0.4875	0.9427	0.6253	-0.099
Mof_H 	H 	0.4827	0.8875	0.6232	0.064
Mof_C 	C 	0.532	0.9679	0.6263	-0.082
Mof_H 	H 	0.5371	0.0231	0.6274	0.058
Mof_O 	O 	0.76709	0.67449	0.527	-0.636
Mof_Zn	Zn	0.69842	0.14792	0.85902	1.214
Mof_Zn	Zn	0.78856	0.2473	0.92505	1.217
Mof_O 	O 	0.74142	0.0785	0.7952	-0.466
Mof_O 	O 	0.80575	0.15504	0.8237	-0.422
Mof_O 	O 	0.82419	0.74023	0.7128	-0.477
Mof_O 	O 	0.75773	0.80793	0.6742	-0.454
Mof_O 	O 	0.16355	0.8112	0.9866	-0.443
Mof_O 	O 	0.19503	0.9338	0.9843	-0.271
Mof_O 	O 	0.96228	0.0706	0.8528	-0.228
Mof_N 	N 	0.13813	0.5833	0.8658	-0.282
Mof_N 	N 	0.84505	0.3202	0.8845	-0.247
Mof_N 	N 	0.93954	0.9413	0.842	-0.24
Mof_H 	H 	0.95	0.893	0.8487	0.128
Mof_C 	C 	0.02061	0.9695	0.8908	-0.028
Mof_C 	C 	0.0293	0.8907	0.9129	-0.045
Mof_H 	H 	0.0043	0.8542	0.9099	0.039
Mof_C 	C 	0.0748	0.8643	0.9396	0
Mof_H 	H 	0.0801	0.8104	0.9534	0.043
Mof_C 	C 	0.11204	0.9176	0.9457	-0.076
Mof_C 	C 	0.10304	0.9966	0.9263	0.003
Mof_H 	H 	0.1278	0.0335	0.9315	0.049
Mof_C 	C 	0.05768	0.0225	0.899	-0.046
Mof_H 	H 	0.0524	0.0766	0.8861	0.065
Mof_C 	C 	0.89082	0.9477	0.8131	0.134
Mof_C 	C 	0.86442	0.0177	0.8185	-0.094
Mof_H 	H 	0.8786	0.0647	0.8409	0.098
Mof_C 	C 	0.81627	0.0167	0.79	-0.046
Mof_C 	C 	0.7952	0.9481	0.7553	0.001
Mof_H 	H 	0.7632	0.9487	0.7359	0.063
Mof_C 	C 	0.82123	0.8776	0.7489	-0.054
Mof_C 	C 	0.86921	0.8785	0.7789	-0.093
Mof_H 	H 	0.887	0.8316	0.7759	0.076
Mof_C 	C 	0.7863	0.0894	0.8044	0.361
Mof_C 	C 	0.79892	0.8039	0.7087	0.373
Mof_C 	C 	0.16112	0.8864	0.9748	0.345
Mof_C 	C 	0.97176	0.9991	0.8604	0.221
Mof_C 	C 	0.09592	0.6191	0.8685	0.107
Mof_H 	H 	0.0945	0.6749	0.8683	-0.023
Mof_C 	C 	0.0542	0.5759	0.8716	-0.192
Mof_H 	H 	0.0252	0.6027	0.8727	0.095
Mof_C 	C 	0.0553	0.4937	0.8729	0.142
Mof_C 	C 	0.0988	0.4569	0.8717	-0.195
Mof_H 	H 	0.101	0.4012	0.8723	0.101
Mof_C 	C 	0.1394	0.5034	0.8695	0.11
Mof_H 	H 	0.1688	0.4779	0.8706	-0.019
Mof_C 	C 	0.8874	0.2876	0.8718	0.099
Mof_H 	H 	0.8895	0.2321	0.8665	0.004
Mof_C 	C 	0.9281	0.3325	0.8663	-0.176
Mof_H 	H 	0.9569	0.3073	0.8575	0.096
Mof_C 	C 	0.92609	0.4161	0.874	0.124
Mof_C 	C 	0.8817	0.4493	0.8828	-0.178
Mof_H 	H 	0.8781	0.5047	0.8854	0.092
Mof_C 	C 	0.84298	0.3998	0.8878	0.094
Mof_H 	H 	0.8134	0.4235	0.8937	-0.004
Mof_C 	C 	0.0125	0.4427	0.8747	-0.098
Mof_H 	H 	0.0173	0.3875	0.8768	0.064
Mof_C 	C 	0.968	0.4679	0.8737	-0.083
Mof_H 	H 	0.9629	0.5231	0.8726	0.059
Mof_O 	O 	0.73291	0.17449	0.973	-0.636
Mof_Zn	Zn	0.19842	0.64792	0.85902	1.214
Mof_Zn	Zn	0.28856	0.7473	0.92505	1.217
Mof_O 	O 	0.24142	0.5785	0.7952	-0.466
Mof_O 	O 	0.30575	0.65504	0.8237	-0.422
Mof_O 	O 	0.32419	0.24023	0.7128	-0.477
Mof_O 	O 	0.25773	0.30793	0.6742	-0.454
Mof_O 	O 	0.66355	0.3112	0.9866	-0.443
Mof_O 	O 	0.69503	0.4338	0.9843	-0.271
Mof_O 	O 	0.46228	0.5706	0.8528	-0.228
Mof_N 	N 	0.63813	0.0833	0.8658	-0.282
Mof_N 	N 	0.34505	0.8202	0.8845	-0.247
Mof_N 	N 	0.43954	0.4413	0.842	-0.24
Mof_H 	H 	0.45	0.393	0.8487	0.128
Mof_C 	C 	0.52061	0.4695	0.8908	-0.029
Mof_C 	C 	0.5293	0.3907	0.9129	-0.044
Mof_H 	H 	0.5043	0.3542	0.9099	0.039
Mof_C 	C 	0.5748	0.3643	0.9396	-0.001
Mof_H 	H 	0.5801	0.3104	0.9534	0.043
Mof_C 	C 	0.61204	0.4176	0.9457	-0.075
Mof_C 	C 	0.60304	0.4966	0.9263	0.001
Mof_H 	H 	0.6278	0.5335	0.9315	0.049
Mof_C 	C 	0.55768	0.5225	0.899	-0.044
Mof_H 	H 	0.5524	0.5766	0.8861	0.064
Mof_C 	C 	0.39082	0.4477	0.8131	0.134
Mof_C 	C 	0.36442	0.5177	0.8185	-0.094
Mof_H 	H 	0.3786	0.5647	0.8409	0.098
Mof_C 	C 	0.31627	0.5167	0.79	-0.046
Mof_C 	C 	0.2952	0.4481	0.7553	0
Mof_H 	H 	0.2632	0.4487	0.7359	0.063
Mof_C 	C 	0.32123	0.3776	0.7489	-0.054
Mof_C 	C 	0.36921	0.3785	0.7789	-0.093
Mof_H 	H 	0.387	0.3316	0.7759	0.076
Mof_C 	C 	0.2863	0.5894	0.8044	0.36
Mof_C 	C 	0.29892	0.3039	0.7087	0.373
Mof_C 	C 	0.66112	0.3864	0.9748	0.345
Mof_C 	C 	0.47176	0.4991	0.8604	0.221
Mof_C 	C 	0.59592	0.1191	0.8685	0.108
Mof_H 	H 	0.5945	0.1749	0.8683	-0.023
Mof_C 	C 	0.5542	0.0759	0.8716	-0.192
Mof_H 	H 	0.5252	0.1027	0.8727	0.096
Mof_C 	C 	0.5553	0.9937	0.8729	0.142
Mof_C 	C 	0.5988	0.9569	0.8717	-0.194
Mof_H 	H 	0.601	0.9012	0.8723	0.101
Mof_C 	C 	0.6394	0.0034	0.8695	0.109
Mof_H 	H 	0.6688	0.9779	0.8706	-0.019
Mof_C 	C 	0.3874	0.7876	0.8718	0.098
Mof_H 	H 	0.3895	0.7321	0.8665	0.004
Mof_C 	C 	0.4281	0.8325	0.8663	-0.175
Mof_H 	H 	0.4569	0.8073	0.8575	0.096
Mof_C 	C 	0.42609	0.9161	0.874	0.123
Mof_C 	C 	0.3817	0.9493	0.8828	-0.177
Mof_H 	H 	0.3781	0.0047	0.8854	0.091
Mof_C 	C 	0.34298	0.8998	0.8878	0.093
Mof_H 	H 	0.3134	0.9235	0.8937	-0.004
Mof_C 	C 	0.5125	0.9427	0.8747	-0.099
Mof_H 	H 	0.5173	0.8875	0.8768	0.064
Mof_C 	C 	0.468	0.9679	0.8737	-0.082
Mof_H 	H 	0.4629	0.0231	0.8726	0.058
Mof_O 	O 	0.23291	0.67449	0.973	-0.636
Mof_Zn	Zn	0.69842	0.85208	0.35902	1.214
Mof_Zn	Zn	0.78856	0.7527	0.42505	1.217
Mof_O 	O 	0.74142	0.9215	0.2952	-0.466
Mof_O 	O 	0.80575	0.84496	0.3237	-0.422
Mof_O 	O 	0.82419	0.25977	0.2128	-0.477
Mof_O 	O 	0.75773	0.19207	0.1742	-0.454
Mof_O 	O 	0.16355	0.1888	0.4866	-0.443
Mof_O 	O 	0.19503	0.0662	0.4843	-0.271
Mof_O 	O 	0.96228	0.9294	0.3528	-0.228
Mof_N 	N 	0.13813	0.4167	0.3658	-0.282
Mof_N 	N 	0.84505	0.6798	0.3845	-0.247
Mof_N 	N 	0.93954	0.0587	0.342	-0.24
Mof_H 	H 	0.95	0.107	0.3487	0.128
Mof_C 	C 	0.02061	0.0305	0.3908	-0.029
Mof_C 	C 	0.0293	0.1093	0.4129	-0.044
Mof_H 	H 	0.0043	0.1458	0.4099	0.039
Mof_C 	C 	0.0748	0.1357	0.4396	-0
Mof_H 	H 	0.0801	0.1896	0.4534	0.043
Mof_C 	C 	0.11204	0.0824	0.4457	-0.075
Mof_C 	C 	0.10304	0.0034	0.4263	0.001
Mof_H 	H 	0.1278	0.9665	0.4315	0.049
Mof_C 	C 	0.05768	0.9775	0.399	-0.044
Mof_H 	H 	0.0524	0.9234	0.3861	0.064
Mof_C 	C 	0.89082	0.0523	0.3131	0.134
Mof_C 	C 	0.86442	0.9823	0.3185	-0.094
Mof_H 	H 	0.8786	0.9353	0.3409	0.098
Mof_C 	C 	0.81627	0.9833	0.29	-0.046
Mof_C 	C 	0.7952	0.0519	0.2553	0.001
Mof_H 	H 	0.7632	0.0513	0.2359	0.063
Mof_C 	C 	0.82123	0.1224	0.2489	-0.054
Mof_C 	C 	0.86921	0.1215	0.2789	-0.093
Mof_H 	H 	0.887	0.1684	0.2759	0.076
Mof_C 	C 	0.7863	0.9106	0.3044	0.361
Mof_C 	C 	0.79892	0.1961	0.2087	0.373
Mof_C 	C 	0.16112	0.1136	0.4748	0.345
Mof_C 	C 	0.97176	0.0009	0.3604	0.222
Mof_C 	C 	0.09592	0.3809	0.3685	0.108
Mof_H 	H 	0.0945	0.3251	0.3683	-0.023
Mof_C 	C 	0.0542	0.4241	0.3716	-0.192
Mof_H 	H 	0.0252	0.3973	0.3727	0.095
Mof_C 	C 	0.0553	0.5063	0.3729	0.142
Mof_C 	C 	0.0988	0.5431	0.3717	-0.195
Mof_H 	H 	0.101	0.5988	0.3723	0.101
Mof_C 	C 	0.1394	0.4966	0.3695	0.11
Mof_H 	H 	0.1688	0.5221	0.3706	-0.019
Mof_C 	C 	0.8874	0.7124	0.3718	0.098
Mof_H 	H 	0.8895	0.7679	0.3665	0.004
Mof_C 	C 	0.9281	0.6675	0.3663	-0.176
Mof_H 	H 	0.9569	0.6927	0.3575	0.096
Mof_C 	C 	0.92609	0.5839	0.374	0.124
Mof_C 	C 	0.8817	0.5507	0.3828	-0.177
Mof_H 	H 	0.8781	0.4953	0.3854	0.092
Mof_C 	C 	0.84298	0.6002	0.3878	0.094
Mof_H 	H 	0.8134	0.5765	0.3937	-0.004
Mof_C 	C 	0.0125	0.5573	0.3747	-0.099
Mof_H 	H 	0.0173	0.6125	0.3768	0.064
Mof_C 	C 	0.968	0.5321	0.3737	-0.082
Mof_H 	H 	0.9629	0.4769	0.3726	0.059
Mof_O 	O 	0.73291	0.82551	0.473	-0.636
Mof_Zn	Zn	0.19842	0.35208	0.35902	1.214
Mof_Zn	Zn	0.28856	0.2527	0.42505	1.217
Mof_O 	O 	0.24142	0.4215	0.2952	-0.466
Mof_O 	O 	0.30575	0.34496	0.3237	-0.422
Mof_O 	O 	0.32419	0.75977	0.2128	-0.477
Mof_O 	O 	0.25773	0.69207	0.1742	-0.454
Mof_O 	O 	0.66355	0.6888	0.4866	-0.443
Mof_O 	O 	0.69503	0.5662	0.4843	-0.271
Mof_O 	O 	0.46228	0.4294	0.3528	-0.228
Mof_N 	N 	0.63813	0.9167	0.3658	-0.282
Mof_N 	N 	0.34505	0.1798	0.3845	-0.247
Mof_N 	N 	0.43954	0.5587	0.342	-0.24
Mof_H 	H 	0.45	0.607	0.3487	0.128
Mof_C 	C 	0.52061	0.5305	0.3908	-0.029
Mof_C 	C 	0.5293	0.6093	0.4129	-0.044
Mof_H 	H 	0.5043	0.6458	0.4099	0.039
Mof_C 	C 	0.5748	0.6357	0.4396	-0.001
Mof_H 	H 	0.5801	0.6896	0.4534	0.043
Mof_C 	C 	0.61204	0.5824	0.4457	-0.075
Mof_C 	C 	0.60304	0.5034	0.4263	0.001
Mof_H 	H 	0.6278	0.4665	0.4315	0.05
Mof_C 	C 	0.55768	0.4775	0.399	-0.044
Mof_H 	H 	0.5524	0.4234	0.3861	0.064
Mof_C 	C 	0.39082	0.5523	0.3131	0.134
Mof_C 	C 	0.36442	0.4823	0.3185	-0.094
Mof_H 	H 	0.3786	0.4353	0.3409	0.098
Mof_C 	C 	0.31627	0.4833	0.29	-0.046
Mof_C 	C 	0.2952	0.5519	0.2553	0
Mof_H 	H 	0.2632	0.5513	0.2359	0.063
Mof_C 	C 	0.32123	0.6224	0.2489	-0.054
Mof_C 	C 	0.36921	0.6215	0.2789	-0.093
Mof_H 	H 	0.387	0.6684	0.2759	0.076
Mof_C 	C 	0.2863	0.4106	0.3044	0.36
Mof_C 	C 	0.29892	0.6961	0.2087	0.373
Mof_C 	C 	0.66112	0.6136	0.4748	0.345
Mof_C 	C 	0.47176	0.5009	0.3604	0.222
Mof_C 	C 	0.59592	0.8809	0.3685	0.108
Mof_H 	H 	0.5945	0.8251	0.3683	-0.023
Mof_C 	C 	0.5542	0.9241	0.3716	-0.192
Mof_H 	H 	0.5252	0.8973	0.3727	0.095
Mof_C 	C 	0.5553	0.0063	0.3729	0.142
Mof_C 	C 	0.5988	0.0431	0.3717	-0.195
Mof_H 	H 	0.601	0.0988	0.3723	0.101
Mof_C 	C 	0.6394	0.9966	0.3695	0.11
Mof_H 	H 	0.6688	0.0221	0.3706	-0.019
Mof_C 	C 	0.3874	0.2124	0.3718	0.098
Mof_H 	H 	0.3895	0.2679	0.3665	0.004
Mof_C 	C 	0.4281	0.1675	0.3663	-0.176
Mof_H 	H 	0.4569	0.1927	0.3575	0.096
Mof_C 	C 	0.42609	0.0839	0.374	0.123
Mof_C 	C 	0.3817	0.0507	0.3828	-0.177
Mof_H 	H 	0.3781	0.9953	0.3854	0.092
Mof_C 	C 	0.34298	0.1002	0.3878	0.094
Mof_H 	H 	0.3134	0.0765	0.3937	-0.004
Mof_C 	C 	0.5125	0.0573	0.3747	-0.099
Mof_H 	H 	0.5173	0.1125	0.3768	0.064
Mof_C 	C 	0.468	0.0321	0.3737	-0.082
Mof_H 	H 	0.4629	0.9769	0.3726	0.058
Mof_O 	O 	0.23291	0.32551	0.473	-0.636
Mof_Zn	Zn	0.30158	0.85208	0.14098	1.214
Mof_Zn	Zn	0.21144	0.7527	0.07495	1.217
Mof_O 	O 	0.25858	0.9215	0.2048	-0.466
Mof_O 	O 	0.19425	0.84496	0.1763	-0.422
Mof_O 	O 	0.17581	0.25977	0.2872	-0.477
Mof_O 	O 	0.24227	0.19207	0.3258	-0.454
Mof_O 	O 	0.83645	0.1888	0.0134	-0.443
Mof_O 	O 	0.80497	0.0662	0.0157	-0.271
Mof_O 	O 	0.03772	0.9294	0.1472	-0.228
Mof_N 	N 	0.86187	0.4167	0.1342	-0.282
Mof_N 	N 	0.15495	0.6798	0.1155	-0.247
Mof_N 	N 	0.06046	0.0587	0.158	-0.24
Mof_H 	H 	0.05	0.107	0.1513	0.128
Mof_C 	C 	0.97939	0.0305	0.1092	-0.028
Mof_C 	C 	0.9707	0.1093	0.0871	-0.045
Mof_H 	H 	0.9957	0.1458	0.0901	0.039
Mof_C 	C 	0.9252	0.1357	0.0604	0
Mof_H 	H 	0.9199	0.1896	0.0466	0.043
Mof_C 	C 	0.88796	0.0824	0.0543	-0.076
Mof_C 	C 	0.89696	0.0034	0.0737	0.003
Mof_H 	H 	0.8722	0.9665	0.0685	0.049
Mof_C 	C 	0.94232	0.9775	0.101	-0.046
Mof_H 	H 	0.9476	0.9234	0.1139	0.065
Mof_C 	C 	0.10918	0.0523	0.1869	0.134
Mof_C 	C 	0.13558	0.9823	0.1815	-0.094
Mof_H 	H 	0.1214	0.9353	0.1591	0.098
Mof_C 	C 	0.18373	0.9833	0.21	-0.046
Mof_C 	C 	0.2048	0.0519	0.2447	0.001
Mof_H 	H 	0.2368	0.0513	0.2641	0.063
Mof_C 	C 	0.17877	0.1224	0.2511	-0.054
Mof_C 	C 	0.13079	0.1215	0.2211	-0.093
Mof_H 	H 	0.113	0.1684	0.2241	0.076
Mof_C 	C 	0.2137	0.9106	0.1956	0.361
Mof_C 	C 	0.20108	0.1961	0.2913	0.373
Mof_C 	C 	0.83888	0.1136	0.0252	0.345
Mof_C 	C 	0.02824	0.0009	0.1396	0.221
Mof_C 	C 	0.90408	0.3809	0.1315	0.107
Mof_H 	H 	0.9055	0.3251	0.1317	-0.023
Mof_C 	C 	0.9458	0.4241	0.1284	-0.192
Mof_H 	H 	0.9748	0.3973	0.1273	0.095
Mof_C 	C 	0.9447	0.5063	0.1271	0.142
Mof_C 	C 	0.9012	0.5431	0.1283	-0.195
Mof_H 	H 	0.899	0.5988	0.1277	0.101
Mof_C 	C 	0.8606	0.4966	0.1305	0.11
Mof_H 	H 	0.8312	0.5221	0.1294	-0.019
Mof_C 	C 	0.1126	0.7124	0.1282	0.099
Mof_H 	H 	0.1105	0.7679	0.1335	0.004
Mof_C 	C 	0.0719	0.6675	0.1337	-0.176
Mof_H 	H 	0.0431	0.6927	0.1425	0.096
Mof_C 	C 	0.07391	0.5839	0.126	0.124
Mof_C 	C 	0.1183	0.5507	0.1172	-0.178
Mof_H 	H 	0.1219	0.4953	0.1146	0.092
Mof_C 	C 	0.15702	0.6002	0.1122	0.094
Mof_H 	H 	0.1866	0.5765	0.1063	-0.004
Mof_C 	C 	0.9875	0.5573	0.1253	-0.098
Mof_H 	H 	0.9827	0.6125	0.1232	0.064
Mof_C 	C 	0.032	0.5321	0.1263	-0.083
Mof_H 	H 	0.0371	0.4769	0.1274	0.059
Mof_O 	O 	0.26709	0.82551	0.027	-0.636
Mof_Zn	Zn	0.80158	0.35208	0.14098	1.214
Mof_Zn	Zn	0.71144	0.2527	0.07495	1.217
Mof_O 	O 	0.75858	0.4215	0.2048	-0.466
Mof_O 	O 	0.69425	0.34496	0.1763	-0.422
Mof_O 	O 	0.67581	0.75977	0.2872	-0.477
Mof_O 	O 	0.74227	0.69207	0.3258	-0.454
Mof_O 	O 	0.33645	0.6888	0.0134	-0.443
Mof_O 	O 	0.30497	0.5662	0.0157	-0.271
Mof_O 	O 	0.53772	0.4294	0.1472	-0.228
Mof_N 	N 	0.36187	0.9167	0.1342	-0.282
Mof_N 	N 	0.65495	0.1798	0.1155	-0.247
Mof_N 	N 	0.56046	0.5587	0.158	-0.24
Mof_H 	H 	0.55	0.607	0.1513	0.128
Mof_C 	C 	0.47939	0.5305	0.1092	-0.029
Mof_C 	C 	0.4707	0.6093	0.0871	-0.044
Mof_H 	H 	0.4957	0.6458	0.0901	0.039
Mof_C 	C 	0.4252	0.6357	0.0604	-0.001
Mof_H 	H 	0.4199	0.6896	0.0466	0.043
Mof_C 	C 	0.38796	0.5824	0.0543	-0.075
Mof_C 	C 	0.39696	0.5034	0.0737	0.001
Mof_H 	H 	0.3722	0.4665	0.0685	0.049
Mof_C 	C 	0.44232	0.4775	0.101	-0.044
Mof_H 	H 	0.4476	0.4234	0.1139	0.064
Mof_C 	C 	0.60918	0.5523	0.1869	0.134
Mof_C 	C 	0.63558	0.4823	0.1815	-0.094
Mof_H 	H 	0.6214	0.4353	0.1591	0.098
Mof_C 	C 	0.68373	0.4833	0.21	-0.046
Mof_C 	C 	0.7048	0.5519	0.2447	0
Mof_H 	H 	0.7368	0.5513	0.2641	0.063
Mof_C 	C 	0.67877	0.6224	0.2511	-0.054
Mof_C 	C 	0.63079	0.6215	0.2211	-0.093
Mof_H 	H 	0.613	0.6684	0.2241	0.076
Mof_C 	C 	0.7137	0.4106	0.1956	0.36
Mof_C 	C 	0.70108	0.6961	0.2913	0.373
Mof_C 	C 	0.33888	0.6136	0.0252	0.345
Mof_C 	C 	0.52824	0.5009	0.1396	0.221
Mof_C 	C 	0.40408	0.8809	0.1315	0.108
Mof_H 	H 	0.4055	0.8251	0.1317	-0.023
Mof_C 	C 	0.4458	0.9241	0.1284	-0.192
Mof_H 	H 	0.4748	0.8973	0.1273	0.096
Mof_C 	C 	0.4447	0.0063	0.1271	0.142
Mof_C 	C 	0.4012	0.0431	0.1283	-0.194
Mof_H 	H 	0.399	0.0988	0.1277	0.101
Mof_C 	C 	0.3606	0.9966	0.1305	0.109
Mof_H 	H 	0.3312	0.0221	0.1294	-0.019
Mof_C 	C 	0.6126	0.2124	0.1282	0.098
Mof_H 	H 	0.6105	0.2679	0.1335	0.004
Mof_C 	C 	0.5719	0.1675	0.1337	-0.175
Mof_H 	H 	0.5431	0.1927	0.1425	0.096
Mof_C 	C 	0.57391	0.0839	0.126	0.123
Mof_C 	C 	0.6183	0.0507	0.1172	-0.177
Mof_H 	H 	0.6219	0.9953	0.1146	0.091
Mof_C 	C 	0.65702	0.1002	0.1122	0.093
Mof_H 	H 	0.6866	0.0765	0.1063	-0.004
Mof_C 	C 	0.4875	0.0573	0.1253	-0.099
Mof_H 	H 	0.4827	0.1125	0.1232	0.064
Mof_C 	C 	0.532	0.0321	0.1263	-0.082
Mof_H 	H 	0.5371	0.9769	0.1274	0.058
Mof_O 	O 	0.76709	0.32551	0.027	-0.636
_end
