data_functionalizedCrystal
_audit_creation_method	'EQeq! by Chris Wilmer'
_symmetry_space_group_name_H-M	'P1'
_symmetry_Int_Tables_number	1
_symmetry_cell_setting	triclinic
loop_
_symmetry_equiv_pos_as_xyz
  x,y,z
_cell_length_a	10.04
_cell_length_b	17.788
_cell_length_c	19.786
_cell_angle_alpha	90
_cell_angle_beta	90
_cell_angle_gamma	90
loop_
_atom_site_label
_atom_site_type_symbol
_atom_site_fract_x
_atom_site_fract_y
_atom_site_fract_z
_atom_site_charge
Mof_Gd	Gd	0.46953	0.25	0.25	1.736
Mof_Gd	Gd	0.03047	0.75	0.75	1.732
Mof_Gd	Gd	0.53047	0.75	0.75	1.737
Mof_Gd	Gd	0.96953	0.25	0.25	1.733
Mof_H 	H 	0.3302	0.1149	0.5717	0.086
Mof_H 	H 	0.2386	0.129	0.0815	0.015
Mof_H 	H 	0.3055	0.0618	0.9912	0.069
Mof_H 	H 	0.3761	0.1366	0.4589	-0.004
Mof_H 	H 	0.9871	0.2251	0.5549	0.086
Mof_H 	H 	0.0279	0.2448	0.4406	0
Mof_H 	H 	0.1387	0.1607	0.6198	-0.002
Mof_H 	H 	0.6232	0.9934	0.0936	0.071
Mof_H 	H 	0.5517	0.0619	0.1849	0
Mof_H 	H 	0.3302	0.3851	0.9283	0.088
Mof_H 	H 	0.2386	0.371	0.4185	0.014
Mof_H 	H 	0.3055	0.4382	0.5088	0.07
Mof_H 	H 	0.3761	0.3634	0.0411	-0.006
Mof_H 	H 	0.9871	0.2749	0.9451	0.09
Mof_H 	H 	0.0279	0.2552	0.0594	-0.003
Mof_H 	H 	0.1387	0.3393	0.8802	-0.006
Mof_H 	H 	0.6232	0.5066	0.4064	0.07
Mof_H 	H 	0.5517	0.4381	0.3151	0
Mof_H 	H 	0.1698	0.8851	0.0717	0.087
Mof_H 	H 	0.2614	0.871	0.5815	0.014
Mof_H 	H 	0.1945	0.9382	0.4912	0.069
Mof_H 	H 	0.1239	0.8634	0.9589	-0.005
Mof_H 	H 	0.5129	0.7749	0.0549	0.089
Mof_H 	H 	0.4721	0.7552	0.9406	-0.002
Mof_H 	H 	0.3613	0.8393	0.1198	-0.005
Mof_H 	H 	0.8768	0.0066	0.5936	0.066
Mof_H 	H 	0.9483	0.9381	0.6849	0.002
Mof_H 	H 	0.1698	0.6149	0.4283	0.087
Mof_H 	H 	0.2614	0.629	0.9185	0.014
Mof_H 	H 	0.1945	0.5618	0.0088	0.071
Mof_H 	H 	0.1239	0.6366	0.5411	-0.005
Mof_H 	H 	0.5129	0.7251	0.4451	0.089
Mof_H 	H 	0.4721	0.7448	0.5594	-0.003
Mof_H 	H 	0.3613	0.6607	0.3802	-0.005
Mof_H 	H 	0.8768	0.4934	0.9064	0.07
Mof_H 	H 	0.9483	0.5619	0.8151	0
Mof_H 	H 	0.6698	0.8851	0.4283	0.086
Mof_H 	H 	0.7614	0.871	0.9185	0.015
Mof_H 	H 	0.6945	0.9382	0.0088	0.069
Mof_H 	H 	0.6239	0.8634	0.5411	-0.004
Mof_H 	H 	0.0129	0.7749	0.4451	0.086
Mof_H 	H 	0.9721	0.7552	0.5594	0
Mof_H 	H 	0.8613	0.8393	0.3802	-0.002
Mof_H 	H 	0.3768	0.0066	0.9064	0.071
Mof_H 	H 	0.4483	0.9381	0.8151	0
Mof_H 	H 	0.6698	0.6149	0.0717	0.088
Mof_H 	H 	0.7614	0.629	0.5815	0.014
Mof_H 	H 	0.6945	0.5618	0.4912	0.07
Mof_H 	H 	0.6239	0.6366	0.9589	-0.006
Mof_H 	H 	0.0129	0.7251	0.0549	0.09
Mof_H 	H 	0.9721	0.7448	0.9406	-0.003
Mof_H 	H 	0.8613	0.6607	0.1198	-0.006
Mof_H 	H 	0.3768	0.4934	0.5936	0.07
Mof_H 	H 	0.4483	0.5619	0.6849	0
Mof_H 	H 	0.8302	0.1149	0.9283	0.087
Mof_H 	H 	0.7386	0.129	0.4185	0.014
Mof_H 	H 	0.8055	0.0618	0.5088	0.069
Mof_H 	H 	0.8761	0.1366	0.0411	-0.005
Mof_H 	H 	0.4871	0.2251	0.9451	0.089
Mof_H 	H 	0.5279	0.2448	0.0594	-0.002
Mof_H 	H 	0.6387	0.1607	0.8802	-0.005
Mof_H 	H 	0.1232	0.9934	0.4064	0.066
Mof_H 	H 	0.0517	0.0619	0.3151	0.002
Mof_H 	H 	0.8302	0.3851	0.5717	0.087
Mof_H 	H 	0.7386	0.371	0.0815	0.014
Mof_H 	H 	0.8055	0.4382	0.9912	0.071
Mof_H 	H 	0.8761	0.3634	0.4589	-0.005
Mof_H 	H 	0.4871	0.2749	0.5549	0.089
Mof_H 	H 	0.5279	0.2552	0.4406	-0.003
Mof_H 	H 	0.6387	0.3393	0.6198	-0.005
Mof_H 	H 	0.1232	0.5066	0.0936	0.07
Mof_H 	H 	0.0517	0.4381	0.1849	0
Mof_C 	C 	0.2299	0.2044	0.3631	0.505
Mof_C 	C 	0.4765	0.0214	0.0308	0.055
Mof_C 	C 	0.2061	0.193	0.4382	-0.201
Mof_C 	C 	0.27	0.1417	0.5454	-0.168
Mof_C 	C 	0.3177	0.1018	0.0835	0.061
Mof_C 	C 	0.3579	0.0622	0.03	-0.123
Mof_C 	C 	0.2972	0.1542	0.4777	0.105
Mof_C 	C 	0.0651	0.207	0.5354	-0.164
Mof_C 	C 	0.0898	0.2191	0.4669	0.108
Mof_C 	C 	0.1553	0.1686	0.5741	0.086
Mof_C 	C 	0.5454	0.0216	0.0901	-0.127
Mof_C 	C 	0.5026	0.0626	0.145	0.07
Mof_C 	C 	0.2299	0.2956	0.1369	0.507
Mof_C 	C 	0.4765	0.4786	0.4692	0.055
Mof_C 	C 	0.2061	0.307	0.0618	-0.206
Mof_C 	C 	0.27	0.3583	0.9546	-0.177
Mof_C 	C 	0.3177	0.3982	0.4165	0.062
Mof_C 	C 	0.3579	0.4378	0.47	-0.126
Mof_C 	C 	0.2972	0.3458	0.0223	0.111
Mof_C 	C 	0.0651	0.293	0.9646	-0.175
Mof_C 	C 	0.0898	0.2809	0.0331	0.117
Mof_C 	C 	0.1553	0.3314	0.9259	0.094
Mof_C 	C 	0.5454	0.4784	0.4099	-0.127
Mof_C 	C 	0.5026	0.4374	0.355	0.069
Mof_C 	C 	0.2701	0.7956	0.8631	0.506
Mof_C 	C 	0.0235	0.9786	0.5308	0.05
Mof_C 	C 	0.2939	0.807	0.9382	-0.204
Mof_C 	C 	0.23	0.8583	0.0454	-0.173
Mof_C 	C 	0.1823	0.8982	0.5835	0.06
Mof_C 	C 	0.1421	0.9378	0.53	-0.124
Mof_C 	C 	0.2028	0.8458	0.9777	0.107
Mof_C 	C 	0.4349	0.793	0.0354	-0.172
Mof_C 	C 	0.4102	0.7809	0.9669	0.113
Mof_C 	C 	0.3447	0.8314	0.0741	0.091
Mof_C 	C 	0.9546	0.9784	0.5901	-0.118
Mof_C 	C 	0.9974	0.9374	0.645	0.068
Mof_C 	C 	0.2701	0.7044	0.6369	0.507
Mof_C 	C 	0.0235	0.5214	0.9692	0.054
Mof_C 	C 	0.2939	0.693	0.5618	-0.205
Mof_C 	C 	0.23	0.6417	0.4546	-0.173
Mof_C 	C 	0.1823	0.6018	0.9165	0.062
Mof_C 	C 	0.1421	0.5622	0.97	-0.127
Mof_C 	C 	0.2028	0.6542	0.5223	0.108
Mof_C 	C 	0.4349	0.707	0.4646	-0.173
Mof_C 	C 	0.4102	0.7191	0.5331	0.114
Mof_C 	C 	0.3447	0.6686	0.4259	0.092
Mof_C 	C 	0.9546	0.5216	0.9099	-0.126
Mof_C 	C 	0.9974	0.5626	0.855	0.071
Mof_C 	C 	0.7701	0.7956	0.6369	0.505
Mof_C 	C 	0.5235	0.9786	0.9692	0.055
Mof_C 	C 	0.7939	0.807	0.5618	-0.201
Mof_C 	C 	0.73	0.8583	0.4546	-0.168
Mof_C 	C 	0.6823	0.8982	0.9165	0.061
Mof_C 	C 	0.6421	0.9378	0.97	-0.123
Mof_C 	C 	0.7028	0.8458	0.5223	0.105
Mof_C 	C 	0.9349	0.793	0.4646	-0.164
Mof_C 	C 	0.9102	0.7809	0.5331	0.108
Mof_C 	C 	0.8447	0.8314	0.4259	0.086
Mof_C 	C 	0.4546	0.9784	0.9099	-0.127
Mof_C 	C 	0.4974	0.9374	0.855	0.07
Mof_C 	C 	0.7701	0.7044	0.8631	0.507
Mof_C 	C 	0.5235	0.5214	0.5308	0.055
Mof_C 	C 	0.7939	0.693	0.9382	-0.206
Mof_C 	C 	0.73	0.6417	0.0454	-0.177
Mof_C 	C 	0.6823	0.6018	0.5835	0.062
Mof_C 	C 	0.6421	0.5622	0.53	-0.126
Mof_C 	C 	0.7028	0.6542	0.9777	0.111
Mof_C 	C 	0.9349	0.707	0.0354	-0.175
Mof_C 	C 	0.9102	0.7191	0.9669	0.117
Mof_C 	C 	0.8447	0.6686	0.0741	0.094
Mof_C 	C 	0.4546	0.5216	0.5901	-0.127
Mof_C 	C 	0.4974	0.5626	0.645	0.069
Mof_C 	C 	0.7299	0.2044	0.1369	0.506
Mof_C 	C 	0.9765	0.0214	0.4692	0.05
Mof_C 	C 	0.7061	0.193	0.0618	-0.204
Mof_C 	C 	0.77	0.1417	0.9546	-0.173
Mof_C 	C 	0.8177	0.1018	0.4165	0.06
Mof_C 	C 	0.8579	0.0622	0.47	-0.124
Mof_C 	C 	0.7972	0.1542	0.0223	0.107
Mof_C 	C 	0.5651	0.207	0.9646	-0.172
Mof_C 	C 	0.5898	0.2191	0.0331	0.113
Mof_C 	C 	0.6553	0.1686	0.9259	0.091
Mof_C 	C 	0.0454	0.0216	0.4099	-0.118
Mof_C 	C 	0.0026	0.0626	0.355	0.068
Mof_C 	C 	0.7299	0.2956	0.3631	0.507
Mof_C 	C 	0.9765	0.4786	0.0308	0.054
Mof_C 	C 	0.7061	0.307	0.4382	-0.205
Mof_C 	C 	0.77	0.3583	0.5454	-0.173
Mof_C 	C 	0.8177	0.3982	0.0835	0.062
Mof_C 	C 	0.8579	0.4378	0.03	-0.127
Mof_C 	C 	0.7972	0.3458	0.4777	0.108
Mof_C 	C 	0.5651	0.293	0.5354	-0.173
Mof_C 	C 	0.5898	0.2809	0.4669	0.114
Mof_C 	C 	0.6553	0.3314	0.5741	0.092
Mof_C 	C 	0.0454	0.4784	0.0901	-0.126
Mof_C 	C 	0.0026	0.4374	0.145	0.071
Mof_N 	N 	0.393	0.1026	0.1415	-0.078
Mof_N 	N 	0.393	0.3974	0.3585	-0.078
Mof_N 	N 	0.107	0.8974	0.6415	-0.079
Mof_N 	N 	0.107	0.6026	0.8585	-0.079
Mof_N 	N 	0.607	0.8974	0.8585	-0.078
Mof_N 	N 	0.607	0.6026	0.6415	-0.078
Mof_N 	N 	0.893	0.1026	0.3585	-0.079
Mof_N 	N 	0.893	0.3974	0.1415	-0.079
Mof_O 	O 	0.3525	0.1449	0.19425	-0.289
Mof_O 	O 	0.345	0.1982	0.34085	-0.494
Mof_O 	O 	0.1297	0.2198	0.32811	-0.527
Mof_O 	O 	0.3525	0.3551	0.30575	-0.289
Mof_O 	O 	0.345	0.3018	0.15915	-0.495
Mof_O 	O 	0.1297	0.2802	0.17189	-0.527
Mof_O 	O 	0.1475	0.8551	0.69425	-0.289
Mof_O 	O 	0.155	0.8018	0.84085	-0.495
Mof_O 	O 	0.3703	0.7802	0.82811	-0.528
Mof_O 	O 	0.1475	0.6449	0.80575	-0.289
Mof_O 	O 	0.155	0.6982	0.65915	-0.495
Mof_O 	O 	0.3703	0.7198	0.67189	-0.528
Mof_O 	O 	0.6475	0.8551	0.80575	-0.289
Mof_O 	O 	0.655	0.8018	0.65915	-0.494
Mof_O 	O 	0.8703	0.7802	0.67189	-0.527
Mof_O 	O 	0.6475	0.6449	0.69425	-0.289
Mof_O 	O 	0.655	0.6982	0.84085	-0.495
Mof_O 	O 	0.8703	0.7198	0.82811	-0.527
Mof_O 	O 	0.8525	0.1449	0.30575	-0.289
Mof_O 	O 	0.845	0.1982	0.15915	-0.495
Mof_O 	O 	0.6297	0.2198	0.17189	-0.528
Mof_O 	O 	0.8525	0.3551	0.19425	-0.289
Mof_O 	O 	0.845	0.3018	0.34085	-0.495
Mof_O 	O 	0.6297	0.2802	0.32811	-0.528
_end
