# CIF file generated by openbabel 3.1.0, see https://openbabel.org
data_I
_chemical_name_common 'image0'
_cell_length_a 9.6323
_cell_length_b 16.676
_cell_length_c 21.182
_cell_angle_alpha 104.08
_cell_angle_beta 100.39
_cell_angle_gamma 97.03
_space_group_name_H-M_alt 'P 1'
_space_group_name_Hall 'P 1'
loop_
    _symmetry_equiv_pos_as_xyz
    x,y,z
loop_
    _atom_site_label
    _atom_site_type_symbol
    _atom_site_fract_x
    _atom_site_fract_y
    _atom_site_fract_z
    _atom_site_occupancy
    Gd1      Gd       0.77664    0.01350    0.49731    1.000
    Cu1      Cu       0.46200    0.31722    0.09884    1.000
    Cu2      Cu       0.51374    0.44241    0.04037    1.000
    Cu3      Cu       0.31938    0.44455    0.12205    1.000
    Cu4      Cu       0.25496    0.32682    0.00169    1.000
    I1       I        0.58871    0.47754    0.17426    1.000
    I2       I        0.48967    0.27962    0.97062    1.000
    I3       I        0.19593    0.28844    0.11258    1.000
    I4       I        0.26220    0.48978    0.99999    1.000
    O1       O        0.85930    0.08360    0.42211    1.000
    O2       O        0.07660    0.05090    0.43990    1.000
    O3       O        0.95160    0.12450    0.57207    1.000
    O4       O        0.17040    0.09140    0.58677    1.000
    O5       O        0.66940    0.04320    0.59008    1.000
    O6       O        0.44110    0.98430    0.57023    1.000
    N1       N        0.59780    0.25340    0.14120    1.000
    N2       N        0.79200    0.47410    0.83160    1.000
    N3       N        0.07730    0.26190    0.93240    1.000
    C1       C        0.56180    0.19930    0.17490    1.000
    H1       H        0.46580    0.18620    0.17590    1.000
    C2       C        0.65960    0.16160    0.20860    1.000
    H2       H        0.62750    0.12320    0.23030    1.000
    C3       C        0.80390    0.18010    0.21030    1.000
    C4       C        0.83550    0.23350    0.17300    1.000
    H3       H        0.93010    0.24650    0.16970    1.000
    C5       C        0.73510    0.26830    0.14080    1.000
    H4       H        0.76470    0.30470    0.11690    1.000
    C6       C        0.90920    0.14300    0.24620    1.000
    C7       C        0.89530    0.12620    0.30640    1.000
    H5       H        0.81400    0.13670    0.32270    1.000
    C8       C        0.99840    0.09440    0.34240    1.000
    C9       C        0.12060    0.07760    0.31790    1.000
    H6       H        0.19100    0.05620    0.34180    1.000
    C10      C        0.13590    0.09260    0.25880    1.000
    H7       H        0.21720    0.08180    0.24260    1.000
    C11      C        0.03080    0.12400    0.22240    1.000
    H8       H        0.04170    0.13250    0.18160    1.000
    C12      C        0.97810    0.07470    0.40660    1.000
    C13      C        0.73800    0.39900    0.78900    1.000
    H9       H        0.63880    0.38420    0.77570    1.000
    C14      C        0.81920    0.34160    0.76310    1.000
    H10      H        0.77490    0.29010    0.73360    1.000
    C15      C        0.96580    0.36150    0.78150    1.000
    C16      C        0.02220    0.44000    0.82630    1.000
    H11      H        0.12100    0.45610    0.84100    1.000
    C17      C        0.93470    0.49350    0.84880    1.000
    H12      H        0.97640    0.54600    0.87750    1.000
    C18      C        0.06230    0.30470    0.75690    1.000
    C19      C        0.02470    0.24650    0.69590    1.000
    H13      H        0.93400    0.24120    0.66960    1.000
    C20      C        0.11860    0.19450    0.67190    1.000
    C21      C        0.25380    0.20300    0.71110    1.000
    H14      H        0.31730    0.16930    0.69570    1.000
    C22      C        0.29610    0.26160    0.77350    1.000
    H15      H        0.38750    0.26760    0.79950    1.000
    C23      C        0.19930    0.31060    0.79580    1.000
    H16      H        0.22590    0.34860    0.83790    1.000
    C24      C        0.07600    0.13240    0.60500    1.000
    C25      C        0.07800    0.19320    0.88450    1.000
    H17      H        0.16530    0.17550    0.88210    1.000
    C26      C        0.96010    0.14760    0.83910    1.000
    H18      H        0.96840    0.10110    0.80620    1.000
    C27      C        0.82560    0.17050    0.84160    1.000
    C28      C        0.82390    0.24160    0.89170    1.000
    H19      H        0.73790    0.25990    0.89640    1.000
    C29      C        0.95100    0.28490    0.93440    1.000
    H20      H        0.94780    0.33340    0.96660    1.000
    C30      C        0.69330    0.12270    0.79530    1.000
    C31      C        0.68670    0.09470    0.72650    1.000
    H21      H        0.76800    0.10690    0.71030    1.000
    C32      C        0.56250    0.04970    0.68250    1.000
    C33      C        0.44000    0.03020    0.70590    1.000
    H22      H        0.35570    0.00010    0.67650    1.000
    C34      C        0.44600    0.05660    0.77430    1.000
    H23      H        0.36570    0.04270    0.79070    1.000
    C35      C        0.57050    0.10330    0.81800    1.000
    H24      H        0.57170    0.12190    0.86320    1.000
    C36      C        0.55700    0.02350    0.60890    1.000
    Gd2      Gd       0.22336    0.98650    0.50269    1.000
    Cu5      Cu       0.53800    0.68278    0.90116    1.000
    Cu6      Cu       0.48626    0.55759    0.95963    1.000
    Cu7      Cu       0.68062    0.55545    0.87795    1.000
    Cu8      Cu       0.74504    0.67318    0.99831    1.000
    I5       I        0.41129    0.52246    0.82574    1.000
    I6       I        0.51033    0.72038    0.02938    1.000
    I7       I        0.80407    0.71156    0.88742    1.000
    I8       I        0.73780    0.51022    0.00001    1.000
    O7       O        0.14070    0.91640    0.57789    1.000
    O8       O        0.92340    0.94910    0.56010    1.000
    O9       O        0.04840    0.87550    0.42793    1.000
    O10      O        0.82960    0.90860    0.41323    1.000
    O11      O        0.33060    0.95680    0.40992    1.000
    O12      O        0.55890    0.01570    0.42977    1.000
    N4       N        0.40220    0.74660    0.85880    1.000
    N5       N        0.20800    0.52590    0.16840    1.000
    N6       N        0.92270    0.73810    0.06760    1.000
    C37      C        0.43820    0.80070    0.82510    1.000
    H25      H        0.53420    0.81380    0.82410    1.000
    C38      C        0.34040    0.83840    0.79140    1.000
    H26      H        0.37250    0.87680    0.76970    1.000
    C39      C        0.19610    0.81990    0.78970    1.000
    C40      C        0.16450    0.76650    0.82700    1.000
    H27      H        0.06990    0.75350    0.83030    1.000
    C41      C        0.26490    0.73170    0.85920    1.000
    H28      H        0.23530    0.69530    0.88310    1.000
    C42      C        0.09080    0.85700    0.75380    1.000
    C43      C        0.10470    0.87380    0.69360    1.000
    H29      H        0.18600    0.86330    0.67730    1.000
    C44      C        0.00160    0.90560    0.65760    1.000
    C45      C        0.87940    0.92240    0.68210    1.000
    H30      H        0.80900    0.94380    0.65820    1.000
    C46      C        0.86410    0.90740    0.74120    1.000
    H31      H        0.78280    0.91820    0.75740    1.000
    C47      C        0.96920    0.87600    0.77760    1.000
    H32      H        0.95830    0.86750    0.81840    1.000
    C48      C        0.02190    0.92530    0.59340    1.000
    C49      C        0.26200    0.60100    0.21100    1.000
    H33      H        0.36120    0.61580    0.22430    1.000
    C50      C        0.18080    0.65840    0.23690    1.000
    H34      H        0.22510    0.70990    0.26640    1.000
    C51      C        0.03420    0.63850    0.21850    1.000
    C52      C        0.97780    0.56000    0.17370    1.000
    H35      H        0.87900    0.54390    0.15900    1.000
    C53      C        0.06530    0.50650    0.15120    1.000
    H36      H        0.02360    0.45400    0.12250    1.000
    C54      C        0.93770    0.69530    0.24310    1.000
    C55      C        0.97530    0.75350    0.30410    1.000
    H37      H        0.06600    0.75880    0.33040    1.000
    C56      C        0.88140    0.80550    0.32810    1.000
    C57      C        0.74620    0.79700    0.28890    1.000
    H38      H        0.68270    0.83070    0.30430    1.000
    C58      C        0.70390    0.73840    0.22650    1.000
    H39      H        0.61250    0.73240    0.20050    1.000
    C59      C        0.80070    0.68940    0.20420    1.000
    H40      H        0.77410    0.65140    0.16210    1.000
    C60      C        0.92400    0.86760    0.39500    1.000
    C61      C        0.92200    0.80680    0.11550    1.000
    H41      H        0.83470    0.82450    0.11790    1.000
    C62      C        0.03990    0.85240    0.16090    1.000
    H42      H        0.03160    0.89890    0.19380    1.000
    C63      C        0.17440    0.82950    0.15840    1.000
    C64      C        0.17610    0.75840    0.10830    1.000
    H43      H        0.26210    0.74010    0.10360    1.000
    C65      C        0.04900    0.71510    0.06560    1.000
    H44      H        0.05220    0.66660    0.03340    1.000
    C66      C        0.30670    0.87730    0.20470    1.000
    C67      C        0.31330    0.90530    0.27350    1.000
    H45      H        0.23200    0.89310    0.28970    1.000
    C68      C        0.43750    0.95030    0.31750    1.000
    C69      C        0.56000    0.96980    0.29410    1.000
    H46      H        0.64430    0.99990    0.32350    1.000
    C70      C        0.55400    0.94340    0.22570    1.000
    H47      H        0.63430    0.95730    0.20930    1.000
    C71      C        0.42950    0.89670    0.18200    1.000
    H48      H        0.42830    0.87810    0.13680    1.000
    C72      C        0.44300    0.97650    0.39110    1.000
