# CIF file generated by openbabel 3.1.0, see https://openbabel.org
data_I
_chemical_name_common 'image0'
_cell_length_a 14.4784
_cell_length_b 13.8157
_cell_length_c 19.3044
_cell_angle_alpha 90
_cell_angle_beta 104.539
_cell_angle_gamma 90
_space_group_name_H-M_alt 'P 1'
_space_group_name_Hall 'P 1'
loop_
    _symmetry_equiv_pos_as_xyz
    x,y,z
loop_
    _atom_site_label
    _atom_site_type_symbol
    _atom_site_fract_x
    _atom_site_fract_y
    _atom_site_fract_z
    _atom_site_occupancy
    Ca1      Ca       0.09796    0.45358    0.19342    1.000
    S1       S        0.05363    0.24547    0.07124    1.000
    O1       O        0.03420    0.45630    0.84873    1.000
    O2       O        0.14690    0.44350    0.79113    1.000
    O3       O        0.05700    0.33780    0.10040    1.000
    O4       O        0.04450    0.16930    0.12580    1.000
    O5       O        0.98750    0.23000    0.00590    1.000
    C1       C        0.17220    0.21950    0.06140    1.000
    C2       C        0.20400    0.26130    0.00460    1.000
    C3       C        0.14460    0.32420    0.95570    1.000
    H1       H        0.08650    0.34180    0.96430    1.000
    C4       C        0.26670    0.34090    0.88790    1.000
    C5       C        0.16610    0.35930    0.89890    1.000
    C6       C        0.11160    0.42480    0.84180    1.000
    N1       N        0.03100    0.19370    0.25400    1.000
    C7       C        0.97770    0.27020    0.24500    1.000
    H2       H        0.92280    0.25740    0.20680    1.000
    C8       C        0.13140    0.20280    0.29110    1.000
    H3       H        0.15290    0.26830    0.28960    1.000
    H4       H        0.14020    0.18300    0.34000    1.000
    H5       H        0.16750    0.16100    0.26790    1.000
    C9       C        0.03360    0.09800    0.26160    1.000
    H6       H        0.96860    0.08060    0.23980    1.000
    H7       H        0.07540    0.06170    0.23980    1.000
    H8       H        0.04810    0.08360    0.31190    1.000
    O6       O        0.08820    0.31270    0.13010    1.000
    O7       O        0.05440    0.15100    0.08340    1.000
    O8       O        0.95580    0.28610    0.02740    1.000
    C10      C        0.12780    0.27780    0.01020    1.000
    C11      C        0.09730    0.33780    0.94780    1.000
    H9       H        0.03620    0.36400    0.93640    1.000
    C12      C        0.22280    0.24180    0.02530    1.000
    C13      C        0.24500    0.31430    0.91210    1.000
    Ca2      Ca       0.59796    0.95358    0.19342    1.000
    S2       S        0.55363    0.74547    0.07124    1.000
    O9       O        0.53420    0.95630    0.84873    1.000
    O10      O        0.64690    0.94350    0.79113    1.000
    O11      O        0.55700    0.83780    0.10040    1.000
    O12      O        0.54450    0.66930    0.12580    1.000
    O13      O        0.48750    0.73000    0.00590    1.000
    C14      C        0.67220    0.71950    0.06140    1.000
    C15      C        0.70400    0.76130    0.00460    1.000
    C16      C        0.64460    0.82420    0.95570    1.000
    H10      H        0.58650    0.84180    0.96430    1.000
    C17      C        0.76670    0.84090    0.88790    1.000
    C18      C        0.66610    0.85930    0.89890    1.000
    C19      C        0.61160    0.92480    0.84180    1.000
    N2       N        0.53100    0.69370    0.25400    1.000
    C20      C        0.47770    0.77020    0.24500    1.000
    H11      H        0.42280    0.75740    0.20680    1.000
    C21      C        0.63140    0.70280    0.29110    1.000
    H12      H        0.65290    0.76830    0.28960    1.000
    H13      H        0.64020    0.68300    0.34000    1.000
    H14      H        0.66750    0.66100    0.26790    1.000
    C22      C        0.53360    0.59800    0.26160    1.000
    H15      H        0.46860    0.58060    0.23980    1.000
    H16      H        0.57540    0.56170    0.23980    1.000
    H17      H        0.54810    0.58360    0.31190    1.000
    O14      O        0.58820    0.81270    0.13010    1.000
    O15      O        0.55440    0.65100    0.08340    1.000
    O16      O        0.45580    0.78610    0.02740    1.000
    C23      C        0.62780    0.77780    0.01020    1.000
    C24      C        0.59730    0.83780    0.94780    1.000
    H18      H        0.53620    0.86400    0.93640    1.000
    C25      C        0.72280    0.74180    0.02530    1.000
    C26      C        0.74500    0.81430    0.91210    1.000
    Ca3      Ca       0.90204    0.45358    0.30658    1.000
    S3       S        0.94637    0.24547    0.42876    1.000
    O17      O        0.96580    0.45630    0.65127    1.000
    O18      O        0.85310    0.44350    0.70887    1.000
    O19      O        0.94300    0.33780    0.39960    1.000
    O20      O        0.95550    0.16930    0.37420    1.000
    O21      O        0.01250    0.23000    0.49410    1.000
    C27      C        0.82780    0.21950    0.43860    1.000
    C28      C        0.79600    0.26130    0.49540    1.000
    C29      C        0.85540    0.32420    0.54430    1.000
    H19      H        0.91350    0.34180    0.53570    1.000
    C30      C        0.73330    0.34090    0.61210    1.000
    C31      C        0.83390    0.35930    0.60110    1.000
    C32      C        0.88840    0.42480    0.65820    1.000
    N3       N        0.96900    0.19370    0.24600    1.000
    C33      C        0.02230    0.27020    0.25500    1.000
    H20      H        0.07720    0.25740    0.29320    1.000
    C34      C        0.86860    0.20280    0.20890    1.000
    H21      H        0.84710    0.26830    0.21040    1.000
    H22      H        0.85980    0.18300    0.16000    1.000
    H23      H        0.83250    0.16100    0.23210    1.000
    C35      C        0.96640    0.09800    0.23840    1.000
    H24      H        0.03140    0.08060    0.26020    1.000
    H25      H        0.92460    0.06170    0.26020    1.000
    H26      H        0.95190    0.08360    0.18810    1.000
    O22      O        0.91180    0.31270    0.36990    1.000
    O23      O        0.94560    0.15100    0.41660    1.000
    O24      O        0.04420    0.28610    0.47260    1.000
    C36      C        0.87220    0.27780    0.48980    1.000
    C37      C        0.90270    0.33780    0.55220    1.000
    H27      H        0.96380    0.36400    0.56360    1.000
    C38      C        0.77720    0.24180    0.47470    1.000
    C39      C        0.75500    0.31430    0.58790    1.000
    Ca4      Ca       0.40204    0.95358    0.30658    1.000
    S4       S        0.44637    0.74547    0.42876    1.000
    O25      O        0.46580    0.95630    0.65127    1.000
    O26      O        0.35310    0.94350    0.70887    1.000
    O27      O        0.44300    0.83780    0.39960    1.000
    O28      O        0.45550    0.66930    0.37420    1.000
    O29      O        0.51250    0.73000    0.49410    1.000
    C40      C        0.32780    0.71950    0.43860    1.000
    C41      C        0.29600    0.76130    0.49540    1.000
    C42      C        0.35540    0.82420    0.54430    1.000
    H28      H        0.41350    0.84180    0.53570    1.000
    C43      C        0.23330    0.84090    0.61210    1.000
    C44      C        0.33390    0.85930    0.60110    1.000
    C45      C        0.38840    0.92480    0.65820    1.000
    N4       N        0.46900    0.69370    0.24600    1.000
    C46      C        0.52230    0.77020    0.25500    1.000
    H29      H        0.57720    0.75740    0.29320    1.000
    C47      C        0.36860    0.70280    0.20890    1.000
    H30      H        0.34710    0.76830    0.21040    1.000
    H31      H        0.35980    0.68300    0.16000    1.000
    H32      H        0.33250    0.66100    0.23210    1.000
    C48      C        0.46640    0.59800    0.23840    1.000
    H33      H        0.53140    0.58060    0.26020    1.000
    H34      H        0.42460    0.56170    0.26020    1.000
    H35      H        0.45190    0.58360    0.18810    1.000
    O30      O        0.41180    0.81270    0.36990    1.000
    O31      O        0.44560    0.65100    0.41660    1.000
    O32      O        0.54420    0.78610    0.47260    1.000
    C49      C        0.37220    0.77780    0.48980    1.000
    C50      C        0.40270    0.83780    0.55220    1.000
    H36      H        0.46380    0.86400    0.56360    1.000
    C51      C        0.27720    0.74180    0.47470    1.000
    C52      C        0.25500    0.81430    0.58790    1.000
    Ca5      Ca       0.90204    0.54642    0.80658    1.000
    S5       S        0.94637    0.75453    0.92876    1.000
    O33      O        0.96580    0.54370    0.15127    1.000
    O34      O        0.85310    0.55650    0.20887    1.000
    O35      O        0.94300    0.66220    0.89960    1.000
    O36      O        0.95550    0.83070    0.87420    1.000
    O37      O        0.01250    0.77000    0.99410    1.000
    C53      C        0.82780    0.78050    0.93860    1.000
    C54      C        0.79600    0.73870    0.99540    1.000
    C55      C        0.85540    0.67580    0.04430    1.000
    H37      H        0.91350    0.65820    0.03570    1.000
    C56      C        0.73330    0.65910    0.11210    1.000
    C57      C        0.83390    0.64070    0.10110    1.000
    C58      C        0.88840    0.57520    0.15820    1.000
    N5       N        0.96900    0.80630    0.74600    1.000
    C59      C        0.02230    0.72980    0.75500    1.000
    H38      H        0.07720    0.74260    0.79320    1.000
    C60      C        0.86860    0.79720    0.70890    1.000
    H39      H        0.84710    0.73170    0.71040    1.000
    H40      H        0.85980    0.81700    0.66000    1.000
    H41      H        0.83250    0.83900    0.73210    1.000
    C61      C        0.96640    0.90200    0.73840    1.000
    H42      H        0.03140    0.91940    0.76020    1.000
    H43      H        0.92460    0.93830    0.76020    1.000
    H44      H        0.95190    0.91640    0.68810    1.000
    O38      O        0.91180    0.68730    0.86990    1.000
    O39      O        0.94560    0.84900    0.91660    1.000
    O40      O        0.04420    0.71390    0.97260    1.000
    C62      C        0.87220    0.72220    0.98980    1.000
    C63      C        0.90270    0.66220    0.05220    1.000
    H45      H        0.96380    0.63600    0.06360    1.000
    C64      C        0.77720    0.75820    0.97470    1.000
    C65      C        0.75500    0.68570    0.08790    1.000
    Ca6      Ca       0.40204    0.04642    0.80658    1.000
    S6       S        0.44637    0.25453    0.92876    1.000
    O41      O        0.46580    0.04370    0.15127    1.000
    O42      O        0.35310    0.05650    0.20887    1.000
    O43      O        0.44300    0.16220    0.89960    1.000
    O44      O        0.45550    0.33070    0.87420    1.000
    O45      O        0.51250    0.27000    0.99410    1.000
    C66      C        0.32780    0.28050    0.93860    1.000
    C67      C        0.29600    0.23870    0.99540    1.000
    C68      C        0.35540    0.17580    0.04430    1.000
    H46      H        0.41350    0.15820    0.03570    1.000
    C69      C        0.23330    0.15910    0.11210    1.000
    C70      C        0.33390    0.14070    0.10110    1.000
    C71      C        0.38840    0.07520    0.15820    1.000
    N6       N        0.46900    0.30630    0.74600    1.000
    C72      C        0.52230    0.22980    0.75500    1.000
    H47      H        0.57720    0.24260    0.79320    1.000
    C73      C        0.36860    0.29720    0.70890    1.000
    H48      H        0.34710    0.23170    0.71040    1.000
    H49      H        0.35980    0.31700    0.66000    1.000
    H50      H        0.33250    0.33900    0.73210    1.000
    C74      C        0.46640    0.40200    0.73840    1.000
    H51      H        0.53140    0.41940    0.76020    1.000
    H52      H        0.42460    0.43830    0.76020    1.000
    H53      H        0.45190    0.41640    0.68810    1.000
    O46      O        0.41180    0.18730    0.86990    1.000
    O47      O        0.44560    0.34900    0.91660    1.000
    O48      O        0.54420    0.21390    0.97260    1.000
    C75      C        0.37220    0.22220    0.98980    1.000
    C76      C        0.40270    0.16220    0.05220    1.000
    H54      H        0.46380    0.13600    0.06360    1.000
    C77      C        0.27720    0.25820    0.97470    1.000
    C78      C        0.25500    0.18570    0.08790    1.000
    Ca7      Ca       0.09796    0.54642    0.69342    1.000
    S7       S        0.05363    0.75453    0.57124    1.000
    O49      O        0.03420    0.54370    0.34873    1.000
    O50      O        0.14690    0.55650    0.29113    1.000
    O51      O        0.05700    0.66220    0.60040    1.000
    O52      O        0.04450    0.83070    0.62580    1.000
    O53      O        0.98750    0.77000    0.50590    1.000
    C79      C        0.17220    0.78050    0.56140    1.000
    C80      C        0.20400    0.73870    0.50460    1.000
    C81      C        0.14460    0.67580    0.45570    1.000
    H55      H        0.08650    0.65820    0.46430    1.000
    C82      C        0.26670    0.65910    0.38790    1.000
    C83      C        0.16610    0.64070    0.39890    1.000
    C84      C        0.11160    0.57520    0.34180    1.000
    N7       N        0.03100    0.80630    0.75400    1.000
    C85      C        0.97770    0.72980    0.74500    1.000
    H56      H        0.92280    0.74260    0.70680    1.000
    C86      C        0.13140    0.79720    0.79110    1.000
    H57      H        0.15290    0.73170    0.78960    1.000
    H58      H        0.14020    0.81700    0.84000    1.000
    H59      H        0.16750    0.83900    0.76790    1.000
    C87      C        0.03360    0.90200    0.76160    1.000
    H60      H        0.96860    0.91940    0.73980    1.000
    H61      H        0.07540    0.93830    0.73980    1.000
    H62      H        0.04810    0.91640    0.81190    1.000
    O54      O        0.08820    0.68730    0.63010    1.000
    O55      O        0.05440    0.84900    0.58340    1.000
    O56      O        0.95580    0.71390    0.52740    1.000
    C88      C        0.12780    0.72220    0.51020    1.000
    C89      C        0.09730    0.66220    0.44780    1.000
    H63      H        0.03620    0.63600    0.43640    1.000
    C90      C        0.22280    0.75820    0.52530    1.000
    C91      C        0.24500    0.68570    0.41210    1.000
    Ca8      Ca       0.59796    0.04642    0.69342    1.000
    S8       S        0.55363    0.25453    0.57124    1.000
    O57      O        0.53420    0.04370    0.34873    1.000
    O58      O        0.64690    0.05650    0.29113    1.000
    O59      O        0.55700    0.16220    0.60040    1.000
    O60      O        0.54450    0.33070    0.62580    1.000
    O61      O        0.48750    0.27000    0.50590    1.000
    C92      C        0.67220    0.28050    0.56140    1.000
    C93      C        0.70400    0.23870    0.50460    1.000
    C94      C        0.64460    0.17580    0.45570    1.000
    H64      H        0.58650    0.15820    0.46430    1.000
    C95      C        0.76670    0.15910    0.38790    1.000
    C96      C        0.66610    0.14070    0.39890    1.000
    C97      C        0.61160    0.07520    0.34180    1.000
    N8       N        0.53100    0.30630    0.75400    1.000
    C98      C        0.47770    0.22980    0.74500    1.000
    H65      H        0.42280    0.24260    0.70680    1.000
    C99      C        0.63140    0.29720    0.79110    1.000
    H66      H        0.65290    0.23170    0.78960    1.000
    H67      H        0.64020    0.31700    0.84000    1.000
    H68      H        0.66750    0.33900    0.76790    1.000
    C100     C        0.53360    0.40200    0.76160    1.000
    H69      H        0.46860    0.41940    0.73980    1.000
    H70      H        0.57540    0.43830    0.73980    1.000
    H71      H        0.54810    0.41640    0.81190    1.000
    O62      O        0.58820    0.18730    0.63010    1.000
    O63      O        0.55440    0.34900    0.58340    1.000
    O64      O        0.45580    0.21390    0.52740    1.000
    C101     C        0.62780    0.22220    0.51020    1.000
    C102     C        0.59730    0.16220    0.44780    1.000
    H72      H        0.53620    0.13600    0.43640    1.000
    C103     C        0.72280    0.25820    0.52530    1.000
    C104     C        0.74500    0.18570    0.41210    1.000
    O65      O        0.00000    0.35480    0.25000    1.000
    O66      O        0.50000    0.85480    0.25000    1.000
    O67      O        0.00000    0.64520    0.75000    1.000
    O68      O        0.50000    0.14520    0.75000    1.000
