# CIF file generated by openbabel 3.1.0, see https://openbabel.org
data_I
_chemical_name_common 'image0'
_cell_length_a 19.1595
_cell_length_b 15.1428
_cell_length_c 6.618
_cell_angle_alpha 90
_cell_angle_beta 90
_cell_angle_gamma 90
_space_group_name_H-M_alt 'P 1'
_space_group_name_Hall 'P 1'
loop_
    _symmetry_equiv_pos_as_xyz
    x,y,z
loop_
    _atom_site_label
    _atom_site_type_symbol
    _atom_site_fract_x
    _atom_site_fract_y
    _atom_site_fract_z
    _atom_site_occupancy
    P1       P        0.05990    0.38750    0.92170    1.000
    O1       O        0.31940    0.51790    0.81080    1.000
    O2       O        0.10730    0.60460    0.68430    1.000
    O3       O        0.27510    0.77040    0.81320    1.000
    O4       O        0.06600    0.38370    0.68090    1.000
    H1       H        0.04100    0.42300    0.58310    1.000
    P2       P        0.94010    0.61250    0.92170    1.000
    O5       O        0.68060    0.48210    0.81080    1.000
    O6       O        0.89270    0.39540    0.68430    1.000
    O7       O        0.72490    0.22960    0.81320    1.000
    O8       O        0.93400    0.61630    0.68090    1.000
    H2       H        0.95900    0.57700    0.58310    1.000
    P3       P        0.44010    0.88750    0.57830    1.000
    O9       O        0.18060    0.01790    0.68920    1.000
    O10      O        0.39270    0.10460    0.81570    1.000
    O11      O        0.22490    0.27040    0.68680    1.000
    O12      O        0.43400    0.88370    0.81910    1.000
    H3       H        0.45900    0.92300    0.91690    1.000
    P4       P        0.55990    0.11250    0.57830    1.000
    O13      O        0.81940    0.98210    0.68920    1.000
    O14      O        0.60730    0.89540    0.81570    1.000
    O15      O        0.77510    0.72960    0.68680    1.000
    O16      O        0.56600    0.11630    0.81910    1.000
    H4       H        0.54100    0.07700    0.91690    1.000
    P5       P        0.94010    0.61250    0.07830    1.000
    O17      O        0.68060    0.48210    0.18920    1.000
    O18      O        0.89270    0.39540    0.31570    1.000
    O19      O        0.72490    0.22960    0.18680    1.000
    O20      O        0.93400    0.61630    0.31910    1.000
    H5       H        0.95900    0.57700    0.41690    1.000
    P6       P        0.05990    0.38750    0.07830    1.000
    O21      O        0.31940    0.51790    0.18920    1.000
    O22      O        0.10730    0.60460    0.31570    1.000
    O23      O        0.27510    0.77040    0.18680    1.000
    O24      O        0.06600    0.38370    0.31910    1.000
    H6       H        0.04100    0.42300    0.41690    1.000
    P7       P        0.55990    0.11250    0.42170    1.000
    O25      O        0.81940    0.98210    0.31080    1.000
    O26      O        0.60730    0.89540    0.18430    1.000
    O27      O        0.77510    0.72960    0.31320    1.000
    O28      O        0.56600    0.11630    0.18090    1.000
    H7       H        0.54100    0.07700    0.08310    1.000
    P8       P        0.44010    0.88750    0.42170    1.000
    O29      O        0.18060    0.01790    0.31080    1.000
    O30      O        0.39270    0.10460    0.18430    1.000
    O31      O        0.22490    0.27040    0.31320    1.000
    O32      O        0.43400    0.88370    0.18090    1.000
    H8       H        0.45900    0.92300    0.08310    1.000
    Zr1      Zr       0.11320    0.60463    0.00000    1.000
    Zr2      Zr       0.22056    0.27578    0.00000    1.000
    P9       P        0.27730    0.49920    0.00000    1.000
    P10      P        0.22670    0.78360    0.00000    1.000
    O33      O        0.20930    0.55160    0.00000    1.000
    O34      O        0.07770    0.47940    0.00000    1.000
    O35      O        0.15840    0.71800    0.00000    1.000
    O36      O        0.26170    0.40180    0.00000    1.000
    O37      O        0.11480    0.32520    0.00000    1.000
    O38      O        0.98780    0.35150    0.00000    1.000
    O39      O        0.20370    0.88090    0.00000    1.000
    Zr3      Zr       0.88680    0.39537    0.00000    1.000
    Zr4      Zr       0.77944    0.72422    0.00000    1.000
    P11      P        0.72270    0.50080    0.00000    1.000
    P12      P        0.77330    0.21640    0.00000    1.000
    O40      O        0.79070    0.44840    0.00000    1.000
    O41      O        0.92230    0.52060    0.00000    1.000
    O42      O        0.84160    0.28200    0.00000    1.000
    O43      O        0.73830    0.59820    0.00000    1.000
    O44      O        0.88520    0.67480    0.00000    1.000
    O45      O        0.01220    0.64850    0.00000    1.000
    O46      O        0.79630    0.11910    0.00000    1.000
    Zr5      Zr       0.38680    0.10463    0.50000    1.000
    Zr6      Zr       0.27944    0.77578    0.50000    1.000
    P13      P        0.22270    0.99920    0.50000    1.000
    P14      P        0.27330    0.28360    0.50000    1.000
    O47      O        0.29070    0.05160    0.50000    1.000
    O48      O        0.42230    0.97940    0.50000    1.000
    O49      O        0.34160    0.21800    0.50000    1.000
    O50      O        0.23830    0.90180    0.50000    1.000
    O51      O        0.38520    0.82520    0.50000    1.000
    O52      O        0.51220    0.85150    0.50000    1.000
    O53      O        0.29630    0.38090    0.50000    1.000
    Zr7      Zr       0.61320    0.89537    0.50000    1.000
    Zr8      Zr       0.72056    0.22422    0.50000    1.000
    P15      P        0.77730    0.00080    0.50000    1.000
    P16      P        0.72670    0.71640    0.50000    1.000
    O54      O        0.70930    0.94840    0.50000    1.000
    O55      O        0.57770    0.02060    0.50000    1.000
    O56      O        0.65840    0.78200    0.50000    1.000
    O57      O        0.76170    0.09820    0.50000    1.000
    O58      O        0.61480    0.17480    0.50000    1.000
    O59      O        0.48780    0.14850    0.50000    1.000
    O60      O        0.70370    0.61910    0.50000    1.000
    Zr9      Zr       0.31685    0.51094    0.50000    1.000
    P17      P        0.15320    0.61420    0.50000    1.000
    F1       F        0.33090    0.65020    0.50000    1.000
    O61      O        0.18830    0.70730    0.50000    1.000
    O62      O        0.21070    0.54840    0.50000    1.000
    F2       F        0.41840    0.51050    0.50000    1.000
    Zr10     Zr       0.68315    0.48906    0.50000    1.000
    P18      P        0.84680    0.38580    0.50000    1.000
    F3       F        0.66910    0.34980    0.50000    1.000
    O63      O        0.81170    0.29270    0.50000    1.000
    O64      O        0.78930    0.45160    0.50000    1.000
    F4       F        0.58160    0.48950    0.50000    1.000
    Zr11     Zr       0.18315    0.01094    0.00000    1.000
    P19      P        0.34680    0.11420    0.00000    1.000
    F5       F        0.16910    0.15020    0.00000    1.000
    O65      O        0.31170    0.20730    0.00000    1.000
    O66      O        0.28930    0.04840    0.00000    1.000
    F6       F        0.08160    0.01050    0.00000    1.000
    Zr12     Zr       0.81685    0.98906    0.00000    1.000
    P20      P        0.65320    0.88580    0.00000    1.000
    F7       F        0.83090    0.84980    0.00000    1.000
    O67      O        0.68830    0.79270    0.00000    1.000
    O68      O        0.71070    0.95160    0.00000    1.000
    F8       F        0.91840    0.98950    0.00000    1.000
