data_functionalizedCrystal
_audit_creation_method	'EQeq! by Chris Wilmer'
_symmetry_space_group_name_H-M	'P1'
_symmetry_Int_Tables_number	1
_symmetry_cell_setting	triclinic
loop_
_symmetry_equiv_pos_as_xyz
  x,y,z
_cell_length_a	12.2751
_cell_length_b	19.9288
_cell_length_c	19.9288
_cell_angle_alpha	103.536
_cell_angle_beta	93.8976
_cell_angle_gamma	93.8976
loop_
_atom_site_label
_atom_site_type_symbol
_atom_site_fract_x
_atom_site_fract_y
_atom_site_fract_z
_atom_site_charge
Mof_Zn	Zn	0.81324	0.60609	0.11638	1.213
Mof_Zn	Zn	0.6138	0.66722	0.15566	1.212
Mof_Zn	Zn	0.92931	0.19862	0.93606	1.211
Mof_Zn	Zn	0.01809	0.34034	0.08545	1.202
Mof_Zn	Zn	0.31324	0.11638	0.60609	1.212
Mof_Zn	Zn	0.1138	0.15566	0.66722	1.211
Mof_Zn	Zn	0.42931	0.93606	0.19862	1.21
Mof_Zn	Zn	0.51809	0.08545	0.34034	1.201
Mof_H 	H 	0.5053	0.7313	0.2829	0.04
Mof_H 	H 	0.4286	0.6619	0.2481	0.041
Mof_H 	H 	0.3017	0.845	0.2804	0.041
Mof_H 	H 	0.4285	0.8417	0.3031	0.03
Mof_H 	H 	0.3227	0.801	0.0998	0.037
Mof_H 	H 	0.2379	0.8216	0.1572	0.028
Mof_H 	H 	0.1883	0.7417	0.2269	0.038
Mof_H 	H 	0.2383	0.6681	0.2139	0.041
Mof_H 	H 	0.3611	0.6378	0.1258	0.038
Mof_H 	H 	0.3943	0.691	0.0802	0.039
Mof_H 	H 	0.5125	0.7966	0.1326	0.045
Mof_H 	H 	0.5575	0.8126	0.2126	0.037
Mof_H 	H 	0.057	0.5944	0.1736	0.034
Mof_H 	H 	0.0663	0.6401	0.1177	0.035
Mof_H 	H 	0.871	0.4608	0.0714	0.039
Mof_H 	H 	0.9389	0.4864	0.1456	0.033
Mof_H 	H 	0.9631	0.6008	0.0036	0.043
Mof_H 	H 	0.8865	0.5296	0.9852	0.043
Mof_H 	H 	0.2	0.4585	0.0875	0.035
Mof_H 	H 	0.1379	0.4853	0.1555	0.035
Mof_H 	H 	0.1586	0.599	0.0154	0.041
Mof_H 	H 	0.2113	0.5262	0.0034	0.036
Mof_H 	H 	0.9644	0.4219	0.9675	0.034
Mof_H 	H 	0.0948	0.4197	0.9733	0.043
Mof_H 	H 	0.6583	0.836	0.0556	0.067
Mof_H 	H 	0.6338	0.9548	0.0386	0.069
Mof_H 	H 	0.7006	0.0503	0.0033	0.042
Mof_H 	H 	0.9556	0.9504	0.9244	0.061
Mof_H 	H 	0.9799	0.8302	0.941	0.065
Mof_H 	H 	0.9235	0.7397	0.9877	0.037
Mof_H 	H 	0.7924	0.4514	0.2274	0.058
Mof_H 	H 	0.4533	0.4205	0.3149	0.067
Mof_H 	H 	0.4932	0.5152	0.2714	0.038
Mof_H 	H 	0.8473	0.3429	0.2531	0.067
Mof_H 	H 	0.8076	0.2465	0.2953	0.043
Mof_H 	H 	0.5086	0.3076	0.3408	0.061
Mof_H 	H 	0.7646	0.8332	0.3318	0.057
Mof_H 	H 	0.7819	0.9394	0.4296	0.063
Mof_H 	H 	0.163	0.9277	0.4525	0.054
Mof_H 	H 	0.1437	0.8167	0.3603	0.062
Mof_H 	H 	0.0344	0.7357	0.2759	0.036
Mof_H 	H 	0.8904	0.0183	0.5147	0.034
Mof_H 	H 	0.6782	0.3863	0.1065	0.039
Mof_H 	H 	0.4907	0.388	0.1076	0.069
Mof_H 	H 	0.3033	0.3395	0.0559	0.058
Mof_H 	H 	0.642	0.2254	0.9372	0.042
Mof_H 	H 	0.4533	0.1728	0.8884	0.063
Mof_H 	H 	0.2665	0.1742	0.8902	0.041
Mof_H 	H 	0.0053	0.2829	0.7313	0.04
Mof_H 	H 	0.9286	0.2481	0.6619	0.041
Mof_H 	H 	0.8017	0.2804	0.845	0.041
Mof_H 	H 	0.9285	0.3031	0.8417	0.03
Mof_H 	H 	0.8227	0.0998	0.801	0.037
Mof_H 	H 	0.7379	0.1572	0.8216	0.028
Mof_H 	H 	0.6883	0.2269	0.7417	0.038
Mof_H 	H 	0.7383	0.2139	0.6681	0.041
Mof_H 	H 	0.8611	0.1258	0.6378	0.039
Mof_H 	H 	0.8943	0.0802	0.691	0.04
Mof_H 	H 	0.0125	0.1326	0.7966	0.045
Mof_H 	H 	0.0575	0.2126	0.8126	0.037
Mof_H 	H 	0.557	0.1736	0.5944	0.034
Mof_H 	H 	0.5663	0.1177	0.6401	0.035
Mof_H 	H 	0.371	0.0714	0.4608	0.039
Mof_H 	H 	0.4389	0.1456	0.4864	0.033
Mof_H 	H 	0.4631	0.0036	0.6008	0.043
Mof_H 	H 	0.3865	0.9852	0.5296	0.044
Mof_H 	H 	0.7	0.0875	0.4585	0.035
Mof_H 	H 	0.6379	0.1555	0.4853	0.035
Mof_H 	H 	0.6586	0.0154	0.599	0.041
Mof_H 	H 	0.7113	0.0034	0.5262	0.036
Mof_H 	H 	0.4644	0.9675	0.4219	0.034
Mof_H 	H 	0.5948	0.9733	0.4197	0.043
Mof_H 	H 	0.1583	0.0556	0.836	0.066
Mof_H 	H 	0.1338	0.0386	0.9548	0.069
Mof_H 	H 	0.2006	0.0033	0.0503	0.041
Mof_H 	H 	0.4556	0.9244	0.9504	0.061
Mof_H 	H 	0.4799	0.941	0.8302	0.065
Mof_H 	H 	0.4235	0.9877	0.7397	0.037
Mof_H 	H 	0.2924	0.2274	0.4514	0.058
Mof_H 	H 	0.9533	0.3149	0.4205	0.067
Mof_H 	H 	0.9932	0.2714	0.5152	0.038
Mof_H 	H 	0.3473	0.2531	0.3429	0.067
Mof_H 	H 	0.3076	0.2953	0.2465	0.043
Mof_H 	H 	0.0086	0.3408	0.3076	0.061
Mof_H 	H 	0.2646	0.3318	0.8332	0.057
Mof_H 	H 	0.2819	0.4296	0.9394	0.063
Mof_H 	H 	0.663	0.4525	0.9277	0.054
Mof_H 	H 	0.6437	0.3603	0.8167	0.062
Mof_H 	H 	0.5344	0.2759	0.7357	0.036
Mof_H 	H 	0.3904	0.5147	0.0183	0.033
Mof_H 	H 	0.1782	0.1065	0.3863	0.039
Mof_H 	H 	0.9907	0.1076	0.388	0.07
Mof_H 	H 	0.8033	0.0559	0.3395	0.058
Mof_H 	H 	0.142	0.9372	0.2254	0.042
Mof_H 	H 	0.9533	0.8884	0.1728	0.063
Mof_H 	H 	0.7665	0.8902	0.1742	0.041
Mof_C 	C 	0.4431	0.71135	0.24807	-0.022
Mof_C 	C 	0.3676	0.82055	0.26767	-0.015
Mof_C 	C 	0.304	0.79673	0.14621	-0.014
Mof_C 	C 	0.2546	0.71755	0.21441	-0.002
Mof_C 	C 	0.3765	0.68743	0.12699	-0.014
Mof_C 	C 	0.4941	0.79187	0.17897	-0.04
Mof_C 	C 	0.0575	0.59211	0.12345	-0.012
Mof_C 	C 	0.9409	0.48493	0.09569	-0.029
Mof_C 	C 	0.9559	0.55326	0.01074	-0.025
Mof_C 	C 	0.1373	0.48371	0.10547	-0.018
Mof_C 	C 	0.1488	0.55125	0.02207	0.001
Mof_C 	C 	0.0337	0.44569	0.99287	-0.016
Mof_C 	C 	0.7538	0.72253	0.06023	0.385
Mof_C 	C 	0.7856	0.77988	0.02654	-0.09
Mof_C 	C 	0.7243	0.83586	0.0333	-0.031
Mof_C 	C 	0.7588	0.8937	0.00716	0.024
Mof_C 	C 	0.7003	0.95374	0.01672	-0.082
Mof_C 	C 	0.739	0.00976	0.99484	0.002
Mof_C 	C 	0.8915	0.95107	0.94859	-0.05
Mof_C 	C 	0.9156	0.83257	0.96505	-0.092
Mof_C 	C 	0.8816	0.77861	0.99221	0.021
Mof_C 	C 	0.8352	0.00865	0.95985	-0.061
Mof_C 	C 	0.8785	0.07163	0.93749	0.3
Mof_C 	C 	0.8561	0.8919	0.97232	0.031
Mof_C 	C 	0.6702	0.55196	0.2118	0.385
Mof_C 	C 	0.6476	0.49282	0.24484	-0.092
Mof_C 	C 	0.7238	0.44476	0.24542	-0.027
Mof_C 	C 	0.7017	0.38631	0.27207	0.02
Mof_C 	C 	0.5997	0.37638	0.29898	0.033
Mof_C 	C 	0.5225	0.42637	0.29743	-0.093
Mof_C 	C 	0.546	0.48247	0.27159	0.023
Mof_C 	C 	0.7786	0.3365	0.27102	-0.079
Mof_C 	C 	0.7549	0.27926	0.29558	-0.006
Mof_C 	C 	0.5771	0.31557	0.32319	-0.052
Mof_C 	C 	0.6534	0.26853	0.32127	-0.056
Mof_C 	C 	0.6254	0.20178	0.34304	0.29
Mof_C 	C 	0.8206	0.72609	0.23745	0.386
Mof_C 	C 	0.8886	0.77765	0.29533	-0.084
Mof_C 	C 	0.8415	0.83039	0.33759	-0.029
Mof_C 	C 	0.9061	0.88052	0.38964	0.028
Mof_C 	C 	0.8586	0.93579	0.43447	-0.087
Mof_C 	C 	0.0857	0.92905	0.44799	-0.024
Mof_C 	C 	0.0207	0.8769	0.3971	0.024
Mof_C 	C 	0.0672	0.82102	0.35446	-0.084
Mof_C 	C 	0.0022	0.77279	0.30453	0.017
Mof_C 	C 	0.0383	0.981	0.49056	-0.091
Mof_C 	C 	0.1065	0.03479	0.54395	0.376
Mof_C 	C 	0.9232	0.98307	0.48395	0.022
Mof_C 	C 	0.6771	0.30581	0.02007	-0.103
Mof_C 	C 	0.7984	0.30605	0.02015	0.38
Mof_C 	C 	0.6314	0.35415	0.07209	0.029
Mof_C 	C 	0.5208	0.35468	0.07306	-0.091
Mof_C 	C 	0.3348	0.30606	0.0223	-0.033
Mof_C 	C 	0.1465	0.26049	0.97309	0.382
Mof_C 	C 	0.4507	0.30635	0.02351	0.032
Mof_C 	C 	0.4957	0.25635	0.97171	0.02
Mof_C 	C 	0.6104	0.25796	0.97154	-0.019
Mof_C 	C 	0.4238	0.20682	0.92234	-0.083
Mof_C 	C 	0.2671	0.25827	0.97329	-0.098
Mof_C 	C 	0.3133	0.2078	0.92334	0.022
Mof_C 	C 	0.9431	0.24807	0.71135	-0.022
Mof_C 	C 	0.8676	0.26767	0.82055	-0.015
Mof_C 	C 	0.804	0.14621	0.79673	-0.014
Mof_C 	C 	0.7546	0.21441	0.71755	-0.002
Mof_C 	C 	0.8765	0.12699	0.68743	-0.014
Mof_C 	C 	0.9941	0.17897	0.79187	-0.04
Mof_C 	C 	0.5575	0.12345	0.59211	-0.011
Mof_C 	C 	0.4409	0.09569	0.48493	-0.03
Mof_C 	C 	0.4559	0.01074	0.55326	-0.027
Mof_C 	C 	0.6373	0.10547	0.48371	-0.018
Mof_C 	C 	0.6488	0.02207	0.55125	0.002
Mof_C 	C 	0.5337	0.99287	0.44569	-0.018
Mof_C 	C 	0.2538	0.06023	0.72253	0.385
Mof_C 	C 	0.2856	0.02654	0.77988	-0.091
Mof_C 	C 	0.2243	0.0333	0.83586	-0.03
Mof_C 	C 	0.2588	0.00716	0.8937	0.023
Mof_C 	C 	0.2003	0.01672	0.95374	-0.082
Mof_C 	C 	0.239	0.99484	0.00976	0.002
Mof_C 	C 	0.3915	0.94859	0.95107	-0.049
Mof_C 	C 	0.4156	0.96505	0.83257	-0.093
Mof_C 	C 	0.3816	0.99221	0.77861	0.023
Mof_C 	C 	0.3352	0.95985	0.00865	-0.061
Mof_C 	C 	0.3785	0.93749	0.07163	0.3
Mof_C 	C 	0.3561	0.97232	0.8919	0.032
Mof_C 	C 	0.1702	0.2118	0.55196	0.385
Mof_C 	C 	0.1476	0.24484	0.49282	-0.092
Mof_C 	C 	0.2238	0.24542	0.44476	-0.027
Mof_C 	C 	0.2017	0.27207	0.38631	0.02
Mof_C 	C 	0.0997	0.29898	0.37638	0.033
Mof_C 	C 	0.0225	0.29743	0.42637	-0.093
Mof_C 	C 	0.046	0.27159	0.48247	0.023
Mof_C 	C 	0.2786	0.27102	0.3365	-0.079
Mof_C 	C 	0.2549	0.29558	0.27926	-0.006
Mof_C 	C 	0.0771	0.32319	0.31557	-0.052
Mof_C 	C 	0.1534	0.32127	0.26853	-0.056
Mof_C 	C 	0.1254	0.34304	0.20178	0.29
Mof_C 	C 	0.3206	0.23745	0.72609	0.387
Mof_C 	C 	0.3886	0.29533	0.77765	-0.085
Mof_C 	C 	0.3415	0.33759	0.83039	-0.029
Mof_C 	C 	0.4061	0.38964	0.88052	0.028
Mof_C 	C 	0.3586	0.43447	0.93579	-0.088
Mof_C 	C 	0.5857	0.44799	0.92905	-0.023
Mof_C 	C 	0.5207	0.3971	0.8769	0.024
Mof_C 	C 	0.5672	0.35446	0.82102	-0.085
Mof_C 	C 	0.5022	0.30453	0.77279	0.017
Mof_C 	C 	0.5383	0.49056	0.981	-0.091
Mof_C 	C 	0.6065	0.54395	0.03479	0.377
Mof_C 	C 	0.4232	0.48395	0.98307	0.023
Mof_C 	C 	0.1771	0.02007	0.30581	-0.104
Mof_C 	C 	0.2984	0.02015	0.30605	0.379
Mof_C 	C 	0.1314	0.07209	0.35415	0.031
Mof_C 	C 	0.0208	0.07306	0.35468	-0.095
Mof_C 	C 	0.8348	0.0223	0.30606	-0.033
Mof_C 	C 	0.6465	0.97309	0.26049	0.381
Mof_C 	C 	0.9507	0.02351	0.30635	0.034
Mof_C 	C 	0.9957	0.97171	0.25635	0.019
Mof_C 	C 	0.1104	0.97154	0.25796	-0.018
Mof_C 	C 	0.9238	0.92234	0.20682	-0.082
Mof_C 	C 	0.7671	0.97329	0.25827	-0.098
Mof_C 	C 	0.8133	0.92334	0.2078	0.021
Mof_N 	N 	0.4734	0.71688	0.17796	-0.199
Mof_N 	N 	0.3461	0.74755	0.26747	-0.094
Mof_N 	N 	0.2795	0.72331	0.14471	-0.095
Mof_N 	N 	0.3968	0.82972	0.19842	-0.195
Mof_N 	N 	0.9511	0.55694	0.0865	-0.201
Mof_N 	N 	0.0324	0.44543	0.06861	-0.186
Mof_N 	N 	0.1501	0.55455	0.09615	-0.096
Mof_N 	N 	0.0469	0.51648	0.98312	-0.093
Mof_N 	N 	0.9734	0.17796	0.71688	-0.199
Mof_N 	N 	0.8461	0.26747	0.74755	-0.094
Mof_N 	N 	0.7795	0.14471	0.72331	-0.095
Mof_N 	N 	0.8968	0.19842	0.82972	-0.195
Mof_N 	N 	0.4511	0.0865	0.55694	-0.201
Mof_N 	N 	0.5324	0.06861	0.44543	-0.185
Mof_N 	N 	0.6501	0.09615	0.55455	-0.096
Mof_N 	N 	0.5469	0.98312	0.51648	-0.093
Mof_O 	O 	0.8162	0.67478	0.05604	-0.465
Mof_O 	O 	0.6693	0.72696	0.09282	-0.465
Mof_O 	O 	0.8354	0.1274	0.96234	-0.454
Mof_O 	O 	0.9529	0.0686	0.89832	-0.333
Mof_O 	O 	0.7601	0.55436	0.18536	-0.474
Mof_O 	O 	0.5992	0.59422	0.21226	-0.456
Mof_O 	O 	0.6949	0.1596	0.3422	-0.344
Mof_O 	O 	0.5285	0.19016	0.358	-0.43
Mof_O 	O 	0.8736	0.68509	0.19761	-0.469
Mof_O 	O 	0.7188	0.72817	0.23399	-0.46
Mof_O 	O 	0.0565	0.07198	0.59142	-0.464
Mof_O 	O 	0.2075	0.04258	0.53938	-0.455
Mof_O 	O 	0.1097	0.31523	0.00627	-0.513
Mof_O 	O 	0.0885	0.2074	0.93918	-0.496
Mof_O 	O 	0.8549	0.33801	0.07493	-0.479
Mof_O 	O 	0.8382	0.27698	0.9648	-0.507
Mof_O 	O 	0.3162	0.05604	0.67478	-0.466
Mof_O 	O 	0.1693	0.09282	0.72696	-0.465
Mof_O 	O 	0.3354	0.96234	0.1274	-0.454
Mof_O 	O 	0.4529	0.89832	0.0686	-0.333
Mof_O 	O 	0.2601	0.18536	0.55436	-0.474
Mof_O 	O 	0.0992	0.21226	0.59422	-0.456
Mof_O 	O 	0.1949	0.3422	0.1596	-0.344
Mof_O 	O 	0.0285	0.358	0.19016	-0.43
Mof_O 	O 	0.3736	0.19761	0.68509	-0.47
Mof_O 	O 	0.2188	0.23399	0.72817	-0.46
Mof_O 	O 	0.5565	0.59142	0.07198	-0.464
Mof_O 	O 	0.7075	0.53938	0.04258	-0.455
Mof_O 	O 	0.6097	0.00627	0.31523	-0.512
Mof_O 	O 	0.5885	0.93918	0.2074	-0.496
Mof_O 	O 	0.3549	0.07493	0.33801	-0.479
Mof_O 	O 	0.3382	0.9648	0.27698	-0.507
_end
