# CIF file generated by openbabel 3.1.0, see https://openbabel.org
data_I
_chemical_name_common 'XAMHEA_clean5b'
_cell_length_a 17.1168
_cell_length_b 17.2215
_cell_length_c 17.2215
_cell_angle_alpha 90
_cell_angle_beta 90
_cell_angle_gamma 90
_space_group_name_H-M_alt 'P 1'
_space_group_name_Hall 'P 1'
loop_
    _symmetry_equiv_pos_as_xyz
    x,y,z
loop_
    _atom_site_label
    _atom_site_type_symbol
    _atom_site_fract_x
    _atom_site_fract_y
    _atom_site_fract_z
    _atom_site_occupancy
    Zn1      Zn       0.05519    0.93462    0.43462    1.000
    Zn2      Zn       0.05519    0.06538    0.56538    1.000
    Zn3      Zn       0.18439    0.93437    0.56563    1.000
    Zn4      Zn       0.18439    0.06563    0.43437    1.000
    H5       H        0.04505    0.89789    0.19781    1.000
    H6       H        0.04846    0.89642    0.05068    1.000
    H7       H        0.18544    0.10013    0.20162    1.000
    H8       H        0.50465    0.88967    0.69860    1.000
    H9       H        0.26401    0.21327    0.04224    1.000
    H10      H        0.26992    0.14597    0.12663    1.000
    H11      H        0.18226    0.20856    0.11338    1.000
    H12      H        0.04505    0.10211    0.80219    1.000
    H13      H        0.04846    0.10358    0.94932    1.000
    H14      H        0.18603    0.89909    0.80007    1.000
    H15      H        0.20754    0.76744    0.93846    1.000
    H16      H        0.29520    0.83003    0.92521    1.000
    H17      H        0.21345    0.83474    0.85407    1.000
    H18      H        0.04505    0.30219    0.60211    1.000
    H19      H        0.04846    0.44932    0.60358    1.000
    H20      H        0.18603    0.30007    0.39909    1.000
    H21      H        0.54635    0.79894    0.65693    1.000
    H22      H        0.21345    0.35407    0.33474    1.000
    H23      H        0.29520    0.42521    0.33003    1.000
    H24      H        0.20754    0.43846    0.26744    1.000
    H25      H        0.04505    0.69781    0.39789    1.000
    H26      H        0.04846    0.55068    0.39642    1.000
    H27      H        0.18544    0.70162    0.60013    1.000
    H28      H        0.81840    0.09066    0.59066    1.000
    H29      H        0.66990    0.08921    0.58921    1.000
    H30      H        0.81840    0.90934    0.40934    1.000
    H31      H        0.66990    0.91079    0.41079    1.000
    H32      H        0.41865    0.90881    0.59119    1.000
    H33      H        0.46295    0.84800    0.60787    1.000
    H34      H        0.41865    0.09119    0.40881    1.000
    C35      C        0.11730    0.00050    0.29080    1.000
    C36      C        0.11530    0.99950    0.20450    1.000
    C37      C        0.07870    0.94500    0.16550    1.000
    C38      C        0.08050    0.94400    0.08390    1.000
    C39      C        0.11860    0.99710    0.04420    1.000
    C40      C        0.15430    0.05060    0.08170    1.000
    C41      C        0.15350    0.05290    0.16780    1.000
    C42      C        0.22910    0.17340    0.08210    1.000
    C43      C        0.11730    0.99950    0.70920    1.000
    C44      C        0.11530    0.00050    0.79550    1.000
    C45      C        0.07870    0.05500    0.83450    1.000
    C46      C        0.08050    0.05600    0.91610    1.000
    C47      C        0.11860    0.00290    0.95580    1.000
    C48      C        0.15430    0.94940    0.91830    1.000
    C49      C        0.15350    0.94710    0.83220    1.000
    C50      C        0.22910    0.82660    0.91790    1.000
    C51      C        0.11730    0.20920    0.49950    1.000
    C52      C        0.11530    0.29550    0.50050    1.000
    C53      C        0.07870    0.33450    0.55500    1.000
    C54      C        0.08050    0.41610    0.55600    1.000
    C55      C        0.11860    0.45580    0.50290    1.000
    C56      C        0.15430    0.41830    0.44940    1.000
    C57      C        0.15350    0.33220    0.44710    1.000
    C58      C        0.22910    0.41790    0.32660    1.000
    C59      C        0.11730    0.79080    0.50050    1.000
    C60      C        0.11530    0.70450    0.49950    1.000
    C61      C        0.07870    0.66550    0.44500    1.000
    C62      C        0.08050    0.58390    0.44400    1.000
    C63      C        0.11860    0.54420    0.49710    1.000
    C64      C        0.15430    0.58170    0.55060    1.000
    C65      C        0.15350    0.66780    0.55290    1.000
    C66      C        0.78590    0.04980    0.54980    1.000
    C67      C        0.70400    0.04900    0.54900    1.000
    C68      C        0.78590    0.95020    0.45020    1.000
    C69      C        0.70400    0.95100    0.45100    1.000
    C70      C        0.53240    0.95094    0.54906    1.000
    C71      C        0.45080    0.94980    0.55020    1.000
    C72      C        0.51890    0.85750    0.64250    1.000
    C73      C        0.53240    0.04906    0.45094    1.000
    C74      C        0.45080    0.05020    0.44980    1.000
    C75      C        0.90860    0.00000    0.50000    1.000
    C76      C        0.82820    0.00000    0.50000    1.000
    C77      C        0.65980    0.00000    0.50000    1.000
    C78      C        0.57850    0.00000    0.50000    1.000
    C79      C        0.41530    0.00000    0.50000    1.000
    C80      C        0.32370    0.00000    0.50000    1.000
    O81      O        0.07200    0.95040    0.32523    1.000
    O82      O        0.15770    0.04830    0.32540    1.000
    O83      O        0.19310    0.11410    0.03730    1.000
    O84      O        0.07200    0.04960    0.67477    1.000
    O85      O        0.15770    0.95170    0.67460    1.000
    O86      O        0.19310    0.88590    0.96270    1.000
    O87      O        0.07200    0.17477    0.54960    1.000
    O88      O        0.15770    0.17460    0.45170    1.000
    O89      O        0.19310    0.46270    0.38590    1.000
    O90      O        0.07200    0.82523    0.45040    1.000
    O91      O        0.15770    0.82540    0.54830    1.000
    O92      O        0.94420    0.94750    0.44750    1.000
    O93      O        0.94420    0.05250    0.55250    1.000
    O94      O        0.29100    0.94600    0.55400    1.000
    O95      O        0.57070    0.90100    0.59900    1.000
    O96      O        0.29100    0.05400    0.44600    1.000
    O97      O        0.11900    0.00000    0.50000    1.000
    Zn98     Zn       0.94481    0.43462    0.06538    1.000
    Zn99     Zn       0.94481    0.56538    0.93462    1.000
    Zn100    Zn       0.81561    0.56563    0.06563    1.000
    Zn101    Zn       0.81561    0.43437    0.93437    1.000
    H102     H        0.95495    0.19781    0.10211    1.000
    H103     H        0.95154    0.05068    0.10358    1.000
    H104     H        0.81397    0.19993    0.89909    1.000
    H105     H        0.51943    0.67852    0.10209    1.000
    H106     H        0.81657    0.09951    0.78167    1.000
    H107     H        0.74397    0.13651    0.85316    1.000
    H108     H        0.72327    0.04623    0.79738    1.000
    H109     H        0.95495    0.80219    0.89789    1.000
    H110     H        0.95154    0.94932    0.89642    1.000
    H111     H        0.81397    0.80007    0.10091    1.000
    H112     H        0.79927    0.85806    0.17590    1.000
    H113     H        0.70597    0.91134    0.16020    1.000
    H114     H        0.77857    0.94834    0.23169    1.000
    H115     H        0.95495    0.60211    0.69781    1.000
    H116     H        0.95154    0.60358    0.55068    1.000
    H117     H        0.81456    0.39987    0.70162    1.000
    H118     H        0.44719    0.68279    0.18279    1.000
    H119     H        0.95495    0.39789    0.30219    1.000
    H120     H        0.95154    0.39642    0.44932    1.000
    H121     H        0.81397    0.60091    0.30007    1.000
    H122     H        0.70597    0.66020    0.41134    1.000
    H123     H        0.79927    0.67590    0.35806    1.000
    H124     H        0.77857    0.73169    0.44834    1.000
    H125     H        0.18160    0.59066    0.90934    1.000
    H126     H        0.33010    0.58921    0.91079    1.000
    H127     H        0.18160    0.40934    0.09066    1.000
    H128     H        0.33010    0.41079    0.08921    1.000
    H129     H        0.58135    0.59119    0.09119    1.000
    H130     H        0.51943    0.60209    0.17852    1.000
    H131     H        0.58135    0.40881    0.90881    1.000
    C132     C        0.88270    0.29080    0.99950    1.000
    C133     C        0.88470    0.20450    0.00050    1.000
    C134     C        0.92130    0.16550    0.05500    1.000
    C135     C        0.91950    0.08390    0.05600    1.000
    C136     C        0.88140    0.04420    0.00290    1.000
    C137     C        0.84570    0.08170    0.94940    1.000
    C138     C        0.84650    0.16780    0.94710    1.000
    C139     C        0.77090    0.08210    0.82660    1.000
    C140     C        0.88270    0.70920    0.00050    1.000
    C141     C        0.88470    0.79550    0.99950    1.000
    C142     C        0.92130    0.83450    0.94500    1.000
    C143     C        0.91950    0.91610    0.94400    1.000
    C144     C        0.88140    0.95580    0.99710    1.000
    C145     C        0.84570    0.91830    0.05060    1.000
    C146     C        0.84650    0.83220    0.05290    1.000
    C147     C        0.77090    0.91790    0.17340    1.000
    C148     C        0.88270    0.49950    0.79080    1.000
    C149     C        0.88470    0.50050    0.70450    1.000
    C150     C        0.92130    0.55500    0.66550    1.000
    C151     C        0.91950    0.55600    0.58390    1.000
    C152     C        0.88140    0.50290    0.54420    1.000
    C153     C        0.84570    0.44940    0.58170    1.000
    C154     C        0.84650    0.44710    0.66780    1.000
    C155     C        0.88270    0.50050    0.20920    1.000
    C156     C        0.88470    0.49950    0.29550    1.000
    C157     C        0.92130    0.44500    0.33450    1.000
    C158     C        0.91950    0.44400    0.41610    1.000
    C159     C        0.88140    0.49710    0.45580    1.000
    C160     C        0.84570    0.55060    0.41830    1.000
    C161     C        0.84650    0.55290    0.33220    1.000
    C162     C        0.77090    0.67340    0.41790    1.000
    C163     C        0.21410    0.54980    0.95020    1.000
    C164     C        0.29600    0.54900    0.95100    1.000
    C165     C        0.21410    0.45020    0.04980    1.000
    C166     C        0.29600    0.45100    0.04900    1.000
    C167     C        0.46760    0.54906    0.04906    1.000
    C168     C        0.54920    0.55020    0.05020    1.000
    C169     C        0.48110    0.64250    0.14250    1.000
    C170     C        0.46760    0.45094    0.95094    1.000
    C171     C        0.54920    0.44980    0.94980    1.000
    C172     C        0.09140    0.50000    0.00000    1.000
    C173     C        0.17180    0.50000    0.00000    1.000
    C174     C        0.34020    0.50000    0.00000    1.000
    C175     C        0.42150    0.50000    0.00000    1.000
    C176     C        0.58470    0.50000    0.00000    1.000
    C177     C        0.67630    0.50000    0.00000    1.000
    O178     O        0.92800    0.32523    0.04960    1.000
    O179     O        0.84230    0.32540    0.95170    1.000
    O180     O        0.80690    0.03730    0.88590    1.000
    O181     O        0.92800    0.67477    0.95040    1.000
    O182     O        0.84230    0.67460    0.04830    1.000
    O183     O        0.80690    0.96270    0.11410    1.000
    O184     O        0.92800    0.54960    0.82523    1.000
    O185     O        0.84230    0.45170    0.82540    1.000
    O186     O        0.92800    0.45040    0.17477    1.000
    O187     O        0.84230    0.54830    0.17460    1.000
    O188     O        0.80690    0.61410    0.46270    1.000
    O189     O        0.05580    0.44750    0.05250    1.000
    O190     O        0.05580    0.55250    0.94750    1.000
    O191     O        0.70900    0.55400    0.05400    1.000
    O192     O        0.42930    0.59900    0.09900    1.000
    O193     O        0.70900    0.44600    0.94600    1.000
    O194     O        0.88100    0.50000    0.00000    1.000
    H195     H        0.18753    0.54891    0.59767    1.000
    H196     H        0.56684    0.08912    0.41088    1.000
    H197     H        0.81247    0.40233    0.54891    1.000
    H198     H        0.43316    0.41088    0.91088    1.000
