# CIF file generated by openbabel 3.1.0, see https://openbabel.org
data_I
_chemical_name_common 'image0'
_cell_length_a 9.45
_cell_length_b 9.75
_cell_length_c 10.29
_cell_angle_alpha 96.11
_cell_angle_beta 90.4
_cell_angle_gamma 116.54
_space_group_name_H-M_alt 'P 1'
_space_group_name_Hall 'P 1'
loop_
    _symmetry_equiv_pos_as_xyz
    x,y,z
loop_
    _atom_site_label
    _atom_site_type_symbol
    _atom_site_fract_x
    _atom_site_fract_y
    _atom_site_fract_z
    _atom_site_occupancy
    Cd1      Cd       0.23604    0.05758    0.02924    1.000
    O1       O        0.30540    0.12500    0.26040    1.000
    O2       O        0.36270    0.95120    0.15400    1.000
    O3       O        0.98400    0.86960    0.08150    1.000
    O4       O        0.77750    0.71820    0.95000    1.000
    N1       N        0.18860    0.89820    0.83600    1.000
    C1       C        0.36400    0.03000    0.25980    1.000
    C2       C        0.43300    0.01250    0.38320    1.000
    C3       C        0.44400    0.10600    0.49870    1.000
    C4       C        0.48900    0.90700    0.38730    1.000
    C5       C        0.90100    0.74100    0.01490    1.000
    C6       C        0.94870    0.61640    0.00850    1.000
    C7       C        0.05900    0.61730    0.10300    1.000
    C8       C        0.10700    0.50500    0.09400    1.000
    C9       C        0.08900    0.89400    0.73980    1.000
    C10      C        0.05300    0.79400    0.62520    1.000
    C11      C        0.12100    0.69300    0.60880    1.000
    C12      C        0.22300    0.70100    0.70750    1.000
    C13      C        0.25500    0.80100    0.81840    1.000
    C14      C        0.07600    0.57700    0.48860    1.000
    H1       H        0.39750    0.17230    0.49780    1.000
    H2       H        0.47930    0.84300    0.30810    1.000
    H3       H        0.09960    0.70020    0.17440    1.000
    H4       H        0.18380    0.51020    0.15870    1.000
    H5       H        0.04390    0.96560    0.74840    1.000
    H6       H        0.98280    0.79550    0.55540    1.000
    H7       H        0.27100    0.63610    0.69790    1.000
    H8       H        0.32650    0.80260    0.88720    1.000
    H9       H        0.04770    0.61970    0.41670    1.000
    H10      H        0.16090    0.55700    0.46470    1.000
    Cd2      Cd       0.76396    0.94242    0.97076    1.000
    O5       O        0.69460    0.87500    0.73960    1.000
    O6       O        0.63730    0.04880    0.84600    1.000
    O7       O        0.01600    0.13040    0.91850    1.000
    O8       O        0.22250    0.28180    0.05000    1.000
    N2       N        0.81140    0.10180    0.16400    1.000
    C15      C        0.63600    0.97000    0.74020    1.000
    C16      C        0.56700    0.98750    0.61680    1.000
    C17      C        0.55600    0.89400    0.50130    1.000
    C18      C        0.51100    0.09300    0.61270    1.000
    C19      C        0.09900    0.25900    0.98510    1.000
    C20      C        0.05130    0.38360    0.99150    1.000
    C21      C        0.94100    0.38270    0.89700    1.000
    C22      C        0.89300    0.49500    0.90600    1.000
    C23      C        0.91100    0.10600    0.26020    1.000
    C24      C        0.94700    0.20600    0.37480    1.000
    C25      C        0.87900    0.30700    0.39120    1.000
    C26      C        0.77700    0.29900    0.29250    1.000
    C27      C        0.74500    0.19900    0.18160    1.000
    C28      C        0.92400    0.42300    0.51140    1.000
    H11      H        0.60250    0.82770    0.50220    1.000
    H12      H        0.52070    0.15700    0.69190    1.000
    H13      H        0.90040    0.29980    0.82560    1.000
    H14      H        0.81620    0.48980    0.84130    1.000
    H15      H        0.95610    0.03440    0.25160    1.000
    H16      H        0.01720    0.20450    0.44460    1.000
    H17      H        0.72900    0.36390    0.30210    1.000
    H18      H        0.67350    0.19740    0.11280    1.000
    H19      H        0.95230    0.38030    0.58330    1.000
    H20      H        0.83910    0.44300    0.53530    1.000
