data_functionalizedCrystal
_audit_creation_method	'EQeq! by Chris Wilmer'
_symmetry_space_group_name_H-M	'P1'
_symmetry_Int_Tables_number	1
_symmetry_cell_setting	triclinic
loop_
_symmetry_equiv_pos_as_xyz
  x,y,z
_cell_length_a	25.838
_cell_length_b	25.838
_cell_length_c	25.838
_cell_angle_alpha	90
_cell_angle_beta	90
_cell_angle_gamma	90
loop_
_atom_site_label
_atom_site_type_symbol
_atom_site_fract_x
_atom_site_fract_y
_atom_site_fract_z
_atom_site_charge
Mof_Ni	Ni	0.20654	0.20654	0.20654	1.081
Mof_Ni	Ni	0.20654	0.70654	0.70654	1.081
Mof_Ni	Ni	0.70654	0.20654	0.70654	1.081
Mof_Ni	Ni	0.70654	0.70654	0.20654	1.081
Mof_Ni	Ni	0.79346	0.79346	0.20654	1.081
Mof_Ni	Ni	0.79346	0.29346	0.70654	1.081
Mof_Ni	Ni	0.29346	0.79346	0.70654	1.081
Mof_Ni	Ni	0.29346	0.29346	0.20654	1.081
Mof_Ni	Ni	0.79346	0.20654	0.79346	1.081
Mof_Ni	Ni	0.79346	0.70654	0.29346	1.081
Mof_Ni	Ni	0.29346	0.20654	0.29346	1.081
Mof_Ni	Ni	0.29346	0.70654	0.79346	1.081
Mof_Ni	Ni	0.20654	0.79346	0.79346	1.081
Mof_Ni	Ni	0.20654	0.29346	0.29346	1.081
Mof_Ni	Ni	0.70654	0.79346	0.29346	1.081
Mof_Ni	Ni	0.70654	0.29346	0.79346	1.081
Mof_Ni	Ni	0.20654	0.20654	0.79346	1.081
Mof_Ni	Ni	0.20654	0.70654	0.29346	1.081
Mof_Ni	Ni	0.70654	0.20654	0.29346	1.081
Mof_Ni	Ni	0.70654	0.70654	0.79346	1.081
Mof_Ni	Ni	0.79346	0.79346	0.79346	1.081
Mof_Ni	Ni	0.79346	0.29346	0.29346	1.081
Mof_Ni	Ni	0.29346	0.79346	0.29346	1.081
Mof_Ni	Ni	0.29346	0.29346	0.79346	1.081
Mof_Ni	Ni	0.20654	0.79346	0.20654	1.082
Mof_Ni	Ni	0.20654	0.29346	0.70654	1.082
Mof_Ni	Ni	0.70654	0.79346	0.70654	1.082
Mof_Ni	Ni	0.70654	0.29346	0.20654	1.082
Mof_Ni	Ni	0.79346	0.20654	0.20654	1.082
Mof_Ni	Ni	0.79346	0.70654	0.70654	1.082
Mof_Ni	Ni	0.29346	0.20654	0.70654	1.082
Mof_Ni	Ni	0.29346	0.70654	0.20654	1.082
Mof_O 	O 	0.25	0.25	0.25	-0.851
Mof_O 	O 	0.75	0.75	0.25	-0.851
Mof_O 	O 	0.75	0.25	0.75	-0.851
Mof_O 	O 	0.25	0.75	0.75	-0.851
Mof_O 	O 	0.25	0.25	0.75	-0.851
Mof_O 	O 	0.75	0.75	0.75	-0.851
Mof_O 	O 	0.75	0.25	0.25	-0.851
Mof_O 	O 	0.25	0.75	0.25	-0.851
Mof_O 	O 	0.21893	0.21893	0.13338	-0.458
Mof_C 	C 	0.21749	0.21749	0.0271	-0.017
Mof_H 	H 	0.195	0.195	0.0455	0.051
Mof_O 	O 	0.21893	0.71893	0.63338	-0.458
Mof_C 	C 	0.21749	0.71749	0.5271	-0.017
Mof_H 	H 	0.195	0.695	0.5455	0.051
Mof_O 	O 	0.71893	0.21893	0.63338	-0.458
Mof_C 	C 	0.71749	0.21749	0.5271	-0.017
Mof_H 	H 	0.695	0.195	0.5455	0.051
Mof_O 	O 	0.71893	0.71893	0.13338	-0.458
Mof_C 	C 	0.71749	0.71749	0.0271	-0.017
Mof_H 	H 	0.695	0.695	0.0455	0.051
Mof_O 	O 	0.78107	0.78107	0.13338	-0.458
Mof_C 	C 	0.78251	0.78251	0.0271	-0.017
Mof_H 	H 	0.805	0.805	0.0455	0.051
Mof_O 	O 	0.78107	0.28107	0.63338	-0.458
Mof_C 	C 	0.78251	0.28251	0.5271	-0.017
Mof_H 	H 	0.805	0.305	0.5455	0.051
Mof_O 	O 	0.28107	0.78107	0.63338	-0.458
Mof_C 	C 	0.28251	0.78251	0.5271	-0.017
Mof_H 	H 	0.305	0.805	0.5455	0.051
Mof_O 	O 	0.28107	0.28107	0.13338	-0.458
Mof_C 	C 	0.28251	0.28251	0.0271	-0.017
Mof_H 	H 	0.305	0.305	0.0455	0.051
Mof_O 	O 	0.78107	0.21893	0.86662	-0.458
Mof_C 	C 	0.78251	0.21749	0.9729	-0.017
Mof_H 	H 	0.805	0.195	0.9545	0.051
Mof_O 	O 	0.78107	0.71893	0.36662	-0.458
Mof_C 	C 	0.78251	0.71749	0.4729	-0.017
Mof_H 	H 	0.805	0.695	0.4545	0.051
Mof_O 	O 	0.28107	0.21893	0.36662	-0.458
Mof_C 	C 	0.28251	0.21749	0.4729	-0.017
Mof_H 	H 	0.305	0.195	0.4545	0.051
Mof_O 	O 	0.28107	0.71893	0.86662	-0.458
Mof_C 	C 	0.28251	0.71749	0.9729	-0.017
Mof_H 	H 	0.305	0.695	0.9545	0.051
Mof_O 	O 	0.21893	0.78107	0.86662	-0.458
Mof_C 	C 	0.21749	0.78251	0.9729	-0.017
Mof_H 	H 	0.195	0.805	0.9545	0.051
Mof_O 	O 	0.21893	0.28107	0.36662	-0.458
Mof_C 	C 	0.21749	0.28251	0.4729	-0.017
Mof_H 	H 	0.195	0.305	0.4545	0.051
Mof_O 	O 	0.71893	0.78107	0.36662	-0.458
Mof_C 	C 	0.71749	0.78251	0.4729	-0.017
Mof_H 	H 	0.695	0.805	0.4545	0.051
Mof_O 	O 	0.71893	0.28107	0.86662	-0.458
Mof_C 	C 	0.71749	0.28251	0.9729	-0.017
Mof_H 	H 	0.695	0.305	0.9545	0.051
Mof_O 	O 	0.13338	0.21893	0.21893	-0.458
Mof_C 	C 	0.0271	0.21749	0.21749	-0.017
Mof_H 	H 	0.0455	0.195	0.195	0.051
Mof_O 	O 	0.13338	0.71893	0.71893	-0.458
Mof_C 	C 	0.0271	0.71749	0.71749	-0.017
Mof_H 	H 	0.0455	0.695	0.695	0.051
Mof_O 	O 	0.63338	0.21893	0.71893	-0.458
Mof_C 	C 	0.5271	0.21749	0.71749	-0.017
Mof_H 	H 	0.5455	0.195	0.695	0.051
Mof_O 	O 	0.63338	0.71893	0.21893	-0.458
Mof_C 	C 	0.5271	0.71749	0.21749	-0.017
Mof_H 	H 	0.5455	0.695	0.195	0.051
Mof_O 	O 	0.13338	0.78107	0.78107	-0.458
Mof_C 	C 	0.0271	0.78251	0.78251	-0.017
Mof_H 	H 	0.0455	0.805	0.805	0.051
Mof_O 	O 	0.13338	0.28107	0.28107	-0.458
Mof_C 	C 	0.0271	0.28251	0.28251	-0.017
Mof_H 	H 	0.0455	0.305	0.305	0.051
Mof_O 	O 	0.63338	0.78107	0.28107	-0.458
Mof_C 	C 	0.5271	0.78251	0.28251	-0.017
Mof_H 	H 	0.5455	0.805	0.305	0.051
Mof_O 	O 	0.63338	0.28107	0.78107	-0.458
Mof_C 	C 	0.5271	0.28251	0.78251	-0.017
Mof_H 	H 	0.5455	0.305	0.805	0.051
Mof_O 	O 	0.86662	0.78107	0.21893	-0.458
Mof_C 	C 	0.9729	0.78251	0.21749	-0.017
Mof_H 	H 	0.9545	0.805	0.195	0.051
Mof_O 	O 	0.86662	0.28107	0.71893	-0.458
Mof_C 	C 	0.9729	0.28251	0.71749	-0.017
Mof_H 	H 	0.9545	0.305	0.695	0.051
Mof_O 	O 	0.36662	0.78107	0.71893	-0.458
Mof_C 	C 	0.4729	0.78251	0.71749	-0.017
Mof_H 	H 	0.4545	0.805	0.695	0.051
Mof_O 	O 	0.36662	0.28107	0.21893	-0.458
Mof_C 	C 	0.4729	0.28251	0.21749	-0.017
Mof_H 	H 	0.4545	0.305	0.195	0.051
Mof_O 	O 	0.86662	0.21893	0.78107	-0.458
Mof_C 	C 	0.9729	0.21749	0.78251	-0.017
Mof_H 	H 	0.9545	0.195	0.805	0.051
Mof_O 	O 	0.86662	0.71893	0.28107	-0.458
Mof_C 	C 	0.9729	0.71749	0.28251	-0.017
Mof_H 	H 	0.9545	0.695	0.305	0.051
Mof_O 	O 	0.36662	0.21893	0.28107	-0.458
Mof_C 	C 	0.4729	0.21749	0.28251	-0.017
Mof_H 	H 	0.4545	0.195	0.305	0.051
Mof_O 	O 	0.36662	0.71893	0.78107	-0.458
Mof_C 	C 	0.4729	0.71749	0.78251	-0.017
Mof_H 	H 	0.4545	0.695	0.805	0.051
Mof_O 	O 	0.21893	0.13338	0.21893	-0.458
Mof_C 	C 	0.21749	0.0271	0.21749	-0.017
Mof_H 	H 	0.195	0.0455	0.195	0.051
Mof_O 	O 	0.21893	0.63338	0.71893	-0.458
Mof_C 	C 	0.21749	0.5271	0.71749	-0.017
Mof_H 	H 	0.195	0.5455	0.695	0.051
Mof_O 	O 	0.71893	0.13338	0.71893	-0.458
Mof_C 	C 	0.71749	0.0271	0.71749	-0.017
Mof_H 	H 	0.695	0.0455	0.695	0.051
Mof_O 	O 	0.71893	0.63338	0.21893	-0.458
Mof_C 	C 	0.71749	0.5271	0.21749	-0.017
Mof_H 	H 	0.695	0.5455	0.195	0.051
Mof_O 	O 	0.78107	0.13338	0.78107	-0.458
Mof_C 	C 	0.78251	0.0271	0.78251	-0.017
Mof_H 	H 	0.805	0.0455	0.805	0.051
Mof_O 	O 	0.78107	0.63338	0.28107	-0.458
Mof_C 	C 	0.78251	0.5271	0.28251	-0.017
Mof_H 	H 	0.805	0.5455	0.305	0.051
Mof_O 	O 	0.28107	0.13338	0.28107	-0.458
Mof_C 	C 	0.28251	0.0271	0.28251	-0.017
Mof_H 	H 	0.305	0.0455	0.305	0.051
Mof_O 	O 	0.28107	0.63338	0.78107	-0.458
Mof_C 	C 	0.28251	0.5271	0.78251	-0.017
Mof_H 	H 	0.305	0.5455	0.805	0.051
Mof_O 	O 	0.21893	0.86662	0.78107	-0.458
Mof_C 	C 	0.21749	0.9729	0.78251	-0.017
Mof_H 	H 	0.195	0.9545	0.805	0.051
Mof_O 	O 	0.21893	0.36662	0.28107	-0.458
Mof_C 	C 	0.21749	0.4729	0.28251	-0.017
Mof_H 	H 	0.195	0.4545	0.305	0.051
Mof_O 	O 	0.71893	0.86662	0.28107	-0.458
Mof_C 	C 	0.71749	0.9729	0.28251	-0.017
Mof_H 	H 	0.695	0.9545	0.305	0.051
Mof_O 	O 	0.71893	0.36662	0.78107	-0.458
Mof_C 	C 	0.71749	0.4729	0.78251	-0.017
Mof_H 	H 	0.695	0.4545	0.805	0.051
Mof_O 	O 	0.78107	0.86662	0.21893	-0.458
Mof_C 	C 	0.78251	0.9729	0.21749	-0.017
Mof_H 	H 	0.805	0.9545	0.195	0.051
Mof_O 	O 	0.78107	0.36662	0.71893	-0.458
Mof_C 	C 	0.78251	0.4729	0.71749	-0.017
Mof_H 	H 	0.805	0.4545	0.695	0.051
Mof_O 	O 	0.28107	0.86662	0.71893	-0.458
Mof_C 	C 	0.28251	0.9729	0.71749	-0.017
Mof_H 	H 	0.305	0.9545	0.695	0.051
Mof_O 	O 	0.28107	0.36662	0.21893	-0.458
Mof_C 	C 	0.28251	0.4729	0.21749	-0.017
Mof_H 	H 	0.305	0.4545	0.195	0.051
Mof_O 	O 	0.21893	0.21893	0.86662	-0.458
Mof_C 	C 	0.21749	0.21749	0.9729	-0.017
Mof_H 	H 	0.195	0.195	0.9545	0.051
Mof_O 	O 	0.21893	0.71893	0.36662	-0.458
Mof_C 	C 	0.21749	0.71749	0.4729	-0.017
Mof_H 	H 	0.195	0.695	0.4545	0.051
Mof_O 	O 	0.71893	0.21893	0.36662	-0.458
Mof_C 	C 	0.71749	0.21749	0.4729	-0.017
Mof_H 	H 	0.695	0.195	0.4545	0.051
Mof_O 	O 	0.71893	0.71893	0.86662	-0.458
Mof_C 	C 	0.71749	0.71749	0.9729	-0.017
Mof_H 	H 	0.695	0.695	0.9545	0.051
Mof_O 	O 	0.78107	0.78107	0.86662	-0.458
Mof_C 	C 	0.78251	0.78251	0.9729	-0.017
Mof_H 	H 	0.805	0.805	0.9545	0.051
Mof_O 	O 	0.78107	0.28107	0.36662	-0.458
Mof_C 	C 	0.78251	0.28251	0.4729	-0.017
Mof_H 	H 	0.805	0.305	0.4545	0.051
Mof_O 	O 	0.28107	0.78107	0.36662	-0.458
Mof_C 	C 	0.28251	0.78251	0.4729	-0.017
Mof_H 	H 	0.305	0.805	0.4545	0.051
Mof_O 	O 	0.28107	0.28107	0.86662	-0.458
Mof_C 	C 	0.28251	0.28251	0.9729	-0.017
Mof_H 	H 	0.305	0.305	0.9545	0.051
Mof_O 	O 	0.21893	0.78107	0.13338	-0.458
Mof_C 	C 	0.21749	0.78251	0.0271	-0.017
Mof_H 	H 	0.195	0.805	0.0455	0.051
Mof_O 	O 	0.21893	0.28107	0.63338	-0.458
Mof_C 	C 	0.21749	0.28251	0.5271	-0.017
Mof_H 	H 	0.195	0.305	0.5455	0.051
Mof_O 	O 	0.71893	0.78107	0.63338	-0.458
Mof_C 	C 	0.71749	0.78251	0.5271	-0.017
Mof_H 	H 	0.695	0.805	0.5455	0.051
Mof_O 	O 	0.71893	0.28107	0.13338	-0.458
Mof_C 	C 	0.71749	0.28251	0.0271	-0.017
Mof_H 	H 	0.695	0.305	0.0455	0.051
Mof_O 	O 	0.78107	0.21893	0.13338	-0.458
Mof_C 	C 	0.78251	0.21749	0.0271	-0.017
Mof_H 	H 	0.805	0.195	0.0455	0.051
Mof_O 	O 	0.78107	0.71893	0.63338	-0.458
Mof_C 	C 	0.78251	0.71749	0.5271	-0.017
Mof_H 	H 	0.805	0.695	0.5455	0.051
Mof_O 	O 	0.28107	0.21893	0.63338	-0.458
Mof_C 	C 	0.28251	0.21749	0.5271	-0.017
Mof_H 	H 	0.305	0.195	0.5455	0.051
Mof_O 	O 	0.28107	0.71893	0.13338	-0.458
Mof_C 	C 	0.28251	0.71749	0.0271	-0.017
Mof_H 	H 	0.305	0.695	0.0455	0.051
Mof_O 	O 	0.21893	0.13338	0.78107	-0.458
Mof_C 	C 	0.21749	0.0271	0.78251	-0.017
Mof_H 	H 	0.195	0.0455	0.805	0.051
Mof_O 	O 	0.21893	0.63338	0.28107	-0.458
Mof_C 	C 	0.21749	0.5271	0.28251	-0.017
Mof_H 	H 	0.195	0.5455	0.305	0.051
Mof_O 	O 	0.71893	0.13338	0.28107	-0.458
Mof_C 	C 	0.71749	0.0271	0.28251	-0.017
Mof_H 	H 	0.695	0.0455	0.305	0.051
Mof_O 	O 	0.71893	0.63338	0.78107	-0.458
Mof_C 	C 	0.71749	0.5271	0.78251	-0.017
Mof_H 	H 	0.695	0.5455	0.805	0.051
Mof_O 	O 	0.78107	0.13338	0.21893	-0.458
Mof_C 	C 	0.78251	0.0271	0.21749	-0.017
Mof_H 	H 	0.805	0.0455	0.195	0.051
Mof_O 	O 	0.78107	0.63338	0.71893	-0.458
Mof_C 	C 	0.78251	0.5271	0.71749	-0.017
Mof_H 	H 	0.805	0.5455	0.695	0.051
Mof_O 	O 	0.28107	0.13338	0.71893	-0.458
Mof_C 	C 	0.28251	0.0271	0.71749	-0.017
Mof_H 	H 	0.305	0.0455	0.695	0.051
Mof_O 	O 	0.28107	0.63338	0.21893	-0.458
Mof_C 	C 	0.28251	0.5271	0.21749	-0.017
Mof_H 	H 	0.305	0.5455	0.195	0.051
Mof_O 	O 	0.78107	0.86662	0.78107	-0.458
Mof_C 	C 	0.78251	0.9729	0.78251	-0.017
Mof_H 	H 	0.805	0.9545	0.805	0.051
Mof_O 	O 	0.78107	0.36662	0.28107	-0.458
Mof_C 	C 	0.78251	0.4729	0.28251	-0.017
Mof_H 	H 	0.805	0.4545	0.305	0.051
Mof_O 	O 	0.28107	0.86662	0.28107	-0.458
Mof_C 	C 	0.28251	0.9729	0.28251	-0.017
Mof_H 	H 	0.305	0.9545	0.305	0.051
Mof_O 	O 	0.28107	0.36662	0.78107	-0.458
Mof_C 	C 	0.28251	0.4729	0.78251	-0.017
Mof_H 	H 	0.305	0.4545	0.805	0.051
Mof_O 	O 	0.21893	0.86662	0.21893	-0.458
Mof_C 	C 	0.21749	0.9729	0.21749	-0.017
Mof_H 	H 	0.195	0.9545	0.195	0.051
Mof_O 	O 	0.21893	0.36662	0.71893	-0.458
Mof_C 	C 	0.21749	0.4729	0.71749	-0.017
Mof_H 	H 	0.195	0.4545	0.695	0.051
Mof_O 	O 	0.71893	0.86662	0.71893	-0.458
Mof_C 	C 	0.71749	0.9729	0.71749	-0.017
Mof_H 	H 	0.695	0.9545	0.695	0.051
Mof_O 	O 	0.71893	0.36662	0.21893	-0.458
Mof_C 	C 	0.71749	0.4729	0.21749	-0.017
Mof_H 	H 	0.695	0.4545	0.195	0.051
Mof_O 	O 	0.13338	0.21893	0.78107	-0.458
Mof_C 	C 	0.0271	0.21749	0.78251	-0.017
Mof_H 	H 	0.0455	0.195	0.805	0.051
Mof_O 	O 	0.13338	0.71893	0.28107	-0.458
Mof_C 	C 	0.0271	0.71749	0.28251	-0.017
Mof_H 	H 	0.0455	0.695	0.305	0.051
Mof_O 	O 	0.63338	0.21893	0.28107	-0.458
Mof_C 	C 	0.5271	0.21749	0.28251	-0.017
Mof_H 	H 	0.5455	0.195	0.305	0.051
Mof_O 	O 	0.63338	0.71893	0.78107	-0.458
Mof_C 	C 	0.5271	0.71749	0.78251	-0.017
Mof_H 	H 	0.5455	0.695	0.805	0.051
Mof_O 	O 	0.13338	0.78107	0.21893	-0.458
Mof_C 	C 	0.0271	0.78251	0.21749	-0.017
Mof_H 	H 	0.0455	0.805	0.195	0.051
Mof_O 	O 	0.13338	0.28107	0.71893	-0.458
Mof_C 	C 	0.0271	0.28251	0.71749	-0.017
Mof_H 	H 	0.0455	0.305	0.695	0.051
Mof_O 	O 	0.63338	0.78107	0.71893	-0.458
Mof_C 	C 	0.5271	0.78251	0.71749	-0.017
Mof_H 	H 	0.5455	0.805	0.695	0.051
Mof_O 	O 	0.63338	0.28107	0.21893	-0.458
Mof_C 	C 	0.5271	0.28251	0.21749	-0.017
Mof_H 	H 	0.5455	0.305	0.195	0.051
Mof_O 	O 	0.86662	0.21893	0.21893	-0.458
Mof_C 	C 	0.9729	0.21749	0.21749	-0.017
Mof_H 	H 	0.9545	0.195	0.195	0.051
Mof_O 	O 	0.86662	0.71893	0.71893	-0.458
Mof_C 	C 	0.9729	0.71749	0.71749	-0.017
Mof_H 	H 	0.9545	0.695	0.695	0.051
Mof_O 	O 	0.36662	0.21893	0.71893	-0.458
Mof_C 	C 	0.4729	0.21749	0.71749	-0.017
Mof_H 	H 	0.4545	0.195	0.695	0.051
Mof_O 	O 	0.36662	0.71893	0.21893	-0.458
Mof_C 	C 	0.4729	0.71749	0.21749	-0.017
Mof_H 	H 	0.4545	0.695	0.195	0.051
Mof_O 	O 	0.86662	0.78107	0.78107	-0.458
Mof_C 	C 	0.9729	0.78251	0.78251	-0.017
Mof_H 	H 	0.9545	0.805	0.805	0.051
Mof_O 	O 	0.86662	0.28107	0.28107	-0.458
Mof_C 	C 	0.9729	0.28251	0.28251	-0.017
Mof_H 	H 	0.9545	0.305	0.305	0.051
Mof_O 	O 	0.36662	0.78107	0.28107	-0.458
Mof_C 	C 	0.4729	0.78251	0.28251	-0.017
Mof_H 	H 	0.4545	0.805	0.305	0.051
Mof_O 	O 	0.36662	0.28107	0.78107	-0.458
Mof_C 	C 	0.4729	0.28251	0.78251	-0.017
Mof_H 	H 	0.4545	0.305	0.805	0.051
Mof_C 	C 	0.25	0.25	0.1108	0.345
Mof_C 	C 	0.25	0.25	0.0532	-0.076
Mof_C 	C 	0.25	0.75	0.6108	0.345
Mof_C 	C 	0.25	0.75	0.5532	-0.076
Mof_C 	C 	0.75	0.75	0.1108	0.345
Mof_C 	C 	0.75	0.75	0.0532	-0.076
Mof_C 	C 	0.75	0.25	0.6108	0.345
Mof_C 	C 	0.75	0.25	0.5532	-0.076
Mof_C 	C 	0.75	0.25	0.8892	0.345
Mof_C 	C 	0.75	0.25	0.9468	-0.076
Mof_C 	C 	0.75	0.75	0.3892	0.345
Mof_C 	C 	0.75	0.75	0.4468	-0.076
Mof_C 	C 	0.25	0.25	0.3892	0.345
Mof_C 	C 	0.25	0.25	0.4468	-0.076
Mof_C 	C 	0.25	0.75	0.8892	0.345
Mof_C 	C 	0.25	0.75	0.9468	-0.076
Mof_C 	C 	0.1108	0.25	0.25	0.345
Mof_C 	C 	0.0532	0.25	0.25	-0.076
Mof_C 	C 	0.6108	0.25	0.75	0.345
Mof_C 	C 	0.5532	0.25	0.75	-0.076
Mof_C 	C 	0.1108	0.75	0.75	0.345
Mof_C 	C 	0.0532	0.75	0.75	-0.076
Mof_C 	C 	0.6108	0.75	0.25	0.345
Mof_C 	C 	0.5532	0.75	0.25	-0.076
Mof_C 	C 	0.8892	0.75	0.25	0.345
Mof_C 	C 	0.9468	0.75	0.25	-0.076
Mof_C 	C 	0.3892	0.75	0.75	0.345
Mof_C 	C 	0.4468	0.75	0.75	-0.076
Mof_C 	C 	0.3892	0.25	0.25	0.345
Mof_C 	C 	0.4468	0.25	0.25	-0.076
Mof_C 	C 	0.8892	0.25	0.75	0.345
Mof_C 	C 	0.9468	0.25	0.75	-0.076
Mof_C 	C 	0.25	0.1108	0.25	0.345
Mof_C 	C 	0.25	0.0532	0.25	-0.076
Mof_C 	C 	0.25	0.6108	0.75	0.345
Mof_C 	C 	0.25	0.5532	0.75	-0.076
Mof_C 	C 	0.75	0.1108	0.75	0.345
Mof_C 	C 	0.75	0.0532	0.75	-0.076
Mof_C 	C 	0.75	0.6108	0.25	0.345
Mof_C 	C 	0.75	0.5532	0.25	-0.076
Mof_C 	C 	0.25	0.8892	0.75	0.345
Mof_C 	C 	0.25	0.9468	0.75	-0.076
Mof_C 	C 	0.25	0.3892	0.25	0.345
Mof_C 	C 	0.25	0.4468	0.25	-0.076
Mof_C 	C 	0.75	0.8892	0.25	0.345
Mof_C 	C 	0.75	0.9468	0.25	-0.076
Mof_C 	C 	0.75	0.3892	0.75	0.345
Mof_C 	C 	0.75	0.4468	0.75	-0.076
Mof_C 	C 	0.25	0.25	0.8892	0.345
Mof_C 	C 	0.25	0.25	0.9468	-0.076
Mof_C 	C 	0.25	0.75	0.3892	0.345
Mof_C 	C 	0.25	0.75	0.4468	-0.076
Mof_C 	C 	0.75	0.75	0.8892	0.345
Mof_C 	C 	0.75	0.75	0.9468	-0.076
Mof_C 	C 	0.75	0.25	0.3892	0.345
Mof_C 	C 	0.75	0.25	0.4468	-0.076
Mof_C 	C 	0.25	0.75	0.1108	0.345
Mof_C 	C 	0.25	0.75	0.0532	-0.076
Mof_C 	C 	0.25	0.25	0.6108	0.345
Mof_C 	C 	0.25	0.25	0.5532	-0.076
Mof_C 	C 	0.75	0.25	0.1108	0.345
Mof_C 	C 	0.75	0.25	0.0532	-0.076
Mof_C 	C 	0.75	0.75	0.6108	0.345
Mof_C 	C 	0.75	0.75	0.5532	-0.076
Mof_C 	C 	0.25	0.1108	0.75	0.345
Mof_C 	C 	0.25	0.0532	0.75	-0.076
Mof_C 	C 	0.25	0.6108	0.25	0.345
Mof_C 	C 	0.25	0.5532	0.25	-0.076
Mof_C 	C 	0.75	0.1108	0.25	0.345
Mof_C 	C 	0.75	0.0532	0.25	-0.076
Mof_C 	C 	0.75	0.6108	0.75	0.345
Mof_C 	C 	0.75	0.5532	0.75	-0.076
Mof_C 	C 	0.75	0.8892	0.75	0.345
Mof_C 	C 	0.75	0.9468	0.75	-0.076
Mof_C 	C 	0.75	0.3892	0.25	0.345
Mof_C 	C 	0.75	0.4468	0.25	-0.076
Mof_C 	C 	0.25	0.8892	0.25	0.345
Mof_C 	C 	0.25	0.9468	0.25	-0.076
Mof_C 	C 	0.25	0.3892	0.75	0.345
Mof_C 	C 	0.25	0.4468	0.75	-0.076
Mof_C 	C 	0.1108	0.25	0.75	0.345
Mof_C 	C 	0.0532	0.25	0.75	-0.076
Mof_C 	C 	0.6108	0.25	0.25	0.345
Mof_C 	C 	0.5532	0.25	0.25	-0.076
Mof_C 	C 	0.1108	0.75	0.25	0.345
Mof_C 	C 	0.0532	0.75	0.25	-0.076
Mof_C 	C 	0.6108	0.75	0.75	0.345
Mof_C 	C 	0.5532	0.75	0.75	-0.076
Mof_C 	C 	0.8892	0.25	0.25	0.345
Mof_C 	C 	0.9468	0.25	0.25	-0.076
Mof_C 	C 	0.3892	0.25	0.75	0.345
Mof_C 	C 	0.4468	0.25	0.75	-0.076
Mof_C 	C 	0.8892	0.75	0.75	0.345
Mof_C 	C 	0.9468	0.75	0.75	-0.076
Mof_C 	C 	0.3892	0.75	0.25	0.345
Mof_C 	C 	0.4468	0.75	0.25	-0.076
_end
