data_functionalizedCrystal
_audit_creation_method	'EQeq! by Chris Wilmer'
_symmetry_space_group_name_H-M	'P1'
_symmetry_Int_Tables_number	1
_symmetry_cell_setting	triclinic
loop_
_symmetry_equiv_pos_as_xyz
  x,y,z
_cell_length_a	13.905
_cell_length_b	16.403
_cell_length_c	16.403
_cell_angle_alpha	90
_cell_angle_beta	90
_cell_angle_gamma	90
loop_
_atom_site_label
_atom_site_type_symbol
_atom_site_fract_x
_atom_site_fract_y
_atom_site_fract_z
_atom_site_charge
Mof_Cu	Cu	0.5	0.68259	0.68259	0.887
Mof_Cu	Cu	8.15124e-33	0.31741	0.31741	0.89
Mof_Cu	Cu	0.25	0.81741	0.18259	0.885
Mof_Cu	Cu	0.75	0.18259	0.81741	0.886
Mof_H 	H 	0.475	0.556	0.615	0.861
Mof_H 	H 	0.6697	0.6663	0.5805	-0.002
Mof_H 	H 	0.7718	0.7374	0.5016	0.113
Mof_H 	H 	0.6177	0.9385	0.5494	0.098
Mof_H 	H 	0.5193	0.8607	0.6269	0.002
Mof_H 	H 	0.9755	0.7723	0.3639	0.078
Mof_H 	H 	0.3549	0.7868	0.7576	0.019
Mof_H 	H 	0.3827	0.718	0.5322	0.009
Mof_H 	H 	0.9976	0.0034	0.2893	0.07
Mof_H 	H 	0.975	0.444	0.385	0.823
Mof_H 	H 	0.1697	0.3337	0.4195	-0.002
Mof_H 	H 	0.2718	0.2626	0.4984	0.114
Mof_H 	H 	0.1177	0.0615	0.4506	0.1
Mof_H 	H 	0.0193	0.1393	0.3731	0.007
Mof_H 	H 	0.4755	0.2277	0.6361	0.116
Mof_H 	H 	0.8549	0.2132	0.2424	0.018
Mof_H 	H 	0.8827	0.282	0.4678	0.006
Mof_H 	H 	0.4976	0.9966	0.7107	0.102
Mof_H 	H 	0.225	0.885	0.056	0.861
Mof_H 	H 	0.4197	0.9195	0.1663	-0.002
Mof_H 	H 	0.5218	0.9984	0.2374	0.111
Mof_H 	H 	0.3677	0.9506	0.4385	0.097
Mof_H 	H 	0.2693	0.8731	0.3607	0.003
Mof_H 	H 	0.7255	0.1361	0.2723	0.117
Mof_H 	H 	0.1049	0.7424	0.2868	0.037
Mof_H 	H 	0.1327	0.9678	0.218	0.024
Mof_H 	H 	0.7476	0.2107	0.5034	0.106
Mof_H 	H 	0.725	0.115	0.944	0.862
Mof_H 	H 	0.9197	0.0805	0.8337	-0.01
Mof_H 	H 	0.0218	0.0016	0.7626	0.132
Mof_H 	H 	0.8677	0.0494	0.5615	0.098
Mof_H 	H 	0.7693	0.1269	0.6393	0.001
Mof_H 	H 	0.2255	0.8639	0.7277	0.117
Mof_H 	H 	0.6049	0.2576	0.7132	0.02
Mof_H 	H 	0.6327	0.0322	0.782	0.011
Mof_H 	H 	0.2476	0.7893	0.4966	0.106
Mof_H 	H 	0.275	0.944	0.115	0.86
Mof_H 	H 	0.0803	0.8337	0.0805	0.005
Mof_H 	H 	0.9782	0.7626	0.0016	0.094
Mof_H 	H 	0.1323	0.5615	0.0494	0.099
Mof_H 	H 	0.2307	0.6393	0.1269	0.002
Mof_H 	H 	0.7745	0.7277	0.8639	0.116
Mof_H 	H 	0.3951	0.7132	0.2576	0.019
Mof_H 	H 	0.3673	0.782	0.0322	0.007
Mof_H 	H 	0.7524	0.4966	0.7893	0.105
Mof_H 	H 	0.775	0.056	0.885	0.861
Mof_H 	H 	0.5803	0.1663	0.9195	-0.003
Mof_H 	H 	0.4782	0.2374	0.9984	0.115
Mof_H 	H 	0.6323	0.4385	0.9506	0.1
Mof_H 	H 	0.7307	0.3607	0.8731	0.001
Mof_H 	H 	0.2745	0.2723	0.1361	0.116
Mof_H 	H 	0.8951	0.2868	0.7424	0.002
Mof_H 	H 	0.8673	0.218	0.9678	-0.006
Mof_H 	H 	0.2524	0.5034	0.2107	0.106
Mof_H 	H 	0.525	0.615	0.556	0.861
Mof_H 	H 	0.3303	0.5805	0.6663	-0.002
Mof_H 	H 	0.2282	0.5016	0.7374	0.114
Mof_H 	H 	0.3823	0.5494	0.9385	0.1
Mof_H 	H 	0.4807	0.6269	0.8607	0.002
Mof_H 	H 	0.0245	0.3639	0.7723	0.154
Mof_H 	H 	0.6451	0.7576	0.7868	0.019
Mof_H 	H 	0.6173	0.5322	0.718	0.009
Mof_H 	H 	0.0024	0.2893	0.0034	0.143
Mof_H 	H 	0.025	0.385	0.444	0.835
Mof_H 	H 	0.8303	0.4195	0.3337	-0.003
Mof_H 	H 	0.7282	0.4984	0.2626	0.114
Mof_H 	H 	0.8823	0.4506	0.0615	0.097
Mof_H 	H 	0.9807	0.3731	0.1393	-0.003
Mof_H 	H 	0.5245	0.6361	0.2277	0.117
Mof_H 	H 	0.1451	0.2424	0.2132	0.02
Mof_H 	H 	0.1173	0.4678	0.282	0.012
Mof_H 	H 	0.5024	0.7107	0.9966	0.11
Mof_C 	C 	0.6599	0.722	0.5738	0.073
Mof_C 	C 	0.7207	0.764	0.5267	-0.11
Mof_C 	C 	0.708	0.847	0.5151	0.061
Mof_C 	C 	0.6295	0.8829	0.5549	-0.132
Mof_C 	C 	0.5715	0.8363	0.6012	0.099
Mof_C 	C 	0.7703	0.8941	0.4628	0.169
Mof_C 	C 	0.8875	0.9135	0.3827	0.201
Mof_C 	C 	0.972	0.8937	0.3361	-0.014
Mof_C 	C 	0.0061	0.8131	0.3343	-0.018
Mof_C 	C 	0.3343	0.7886	0.7037	0.091
Mof_C 	C 	0.3504	0.7474	0.5721	0.089
Mof_C 	C 	0.0195	0.9498	0.291	-0.034
Mof_C 	C 	0.1599	0.278	0.4262	0.074
Mof_C 	C 	0.2207	0.236	0.4733	-0.11
Mof_C 	C 	0.208	0.153	0.4849	0.062
Mof_C 	C 	0.1295	0.1171	0.4451	-0.131
Mof_C 	C 	0.0715	0.1637	0.3988	0.1
Mof_C 	C 	0.2703	0.1059	0.5372	0.17
Mof_C 	C 	0.3875	0.0865	0.6173	0.177
Mof_C 	C 	0.472	0.1063	0.6639	0.062
Mof_C 	C 	0.5061	0.1869	0.6657	-0.104
Mof_C 	C 	0.8343	0.2114	0.2963	0.09
Mof_C 	C 	0.8504	0.2526	0.4279	0.088
Mof_C 	C 	0.5195	0.0502	0.709	-0.111
Mof_C 	C 	0.4099	0.9262	0.222	0.071
Mof_C 	C 	0.4707	0.9733	0.264	-0.108
Mof_C 	C 	0.458	0.9849	0.347	0.056
Mof_C 	C 	0.3795	0.9451	0.3829	-0.129
Mof_C 	C 	0.3215	0.8988	0.3363	0.097
Mof_C 	C 	0.5203	0.0372	0.3941	0.173
Mof_C 	C 	0.6375	0.1173	0.4135	0.176
Mof_C 	C 	0.722	0.1639	0.3937	0.065
Mof_C 	C 	0.7561	0.1657	0.3131	-0.106
Mof_C 	C 	0.0843	0.7963	0.2886	0.045
Mof_C 	C 	0.1004	0.9279	0.2474	0.047
Mof_C 	C 	0.7695	0.209	0.4498	-0.119
Mof_C 	C 	0.9099	0.0738	0.778	0.088
Mof_C 	C 	0.9707	0.0267	0.736	-0.14
Mof_C 	C 	0.958	0.0151	0.653	0.062
Mof_C 	C 	0.8795	0.0549	0.6171	-0.135
Mof_C 	C 	0.8215	0.1012	0.6637	0.101
Mof_C 	C 	0.0203	0.9628	0.6059	0.176
Mof_C 	C 	0.1375	0.8827	0.5865	0.177
Mof_C 	C 	0.222	0.8361	0.6063	0.065
Mof_C 	C 	0.2561	0.8343	0.6869	-0.106
Mof_C 	C 	0.5843	0.2037	0.7114	0.09
Mof_C 	C 	0.6004	0.0721	0.7526	0.086
Mof_C 	C 	0.2695	0.791	0.5502	-0.118
Mof_C 	C 	0.0901	0.778	0.0738	0.058
Mof_C 	C 	0.0293	0.736	0.0267	-0.079
Mof_C 	C 	0.042	0.653	0.0151	0.06
Mof_C 	C 	0.1205	0.6171	0.0549	-0.129
Mof_C 	C 	0.1785	0.6637	0.1012	0.097
Mof_C 	C 	0.9797	0.6059	0.9628	0.163
Mof_C 	C 	0.8625	0.5865	0.8827	0.175
Mof_C 	C 	0.778	0.6063	0.8361	0.064
Mof_C 	C 	0.7439	0.6869	0.8343	-0.106
Mof_C 	C 	0.4157	0.7114	0.2037	0.092
Mof_C 	C 	0.3996	0.7526	0.0721	0.092
Mof_C 	C 	0.7305	0.5502	0.791	-0.118
Mof_C 	C 	0.5901	0.222	0.9262	0.075
Mof_C 	C 	0.5293	0.264	0.9733	-0.113
Mof_C 	C 	0.542	0.347	0.9849	0.065
Mof_C 	C 	0.6205	0.3829	0.9451	-0.135
Mof_C 	C 	0.6785	0.3363	0.8988	0.101
Mof_C 	C 	0.4797	0.3941	0.0372	0.166
Mof_C 	C 	0.3625	0.4135	0.1173	0.176
Mof_C 	C 	0.278	0.3937	0.1639	0.065
Mof_C 	C 	0.2439	0.3131	0.1657	-0.106
Mof_C 	C 	0.9157	0.2886	0.7963	0.136
Mof_C 	C 	0.8996	0.2474	0.9279	0.131
Mof_C 	C 	0.2305	0.4498	0.209	-0.117
Mof_C 	C 	0.3401	0.5738	0.722	0.073
Mof_C 	C 	0.2793	0.5267	0.764	-0.111
Mof_C 	C 	0.292	0.5151	0.847	0.062
Mof_C 	C 	0.3705	0.5549	0.8829	-0.133
Mof_C 	C 	0.4285	0.6012	0.8363	0.1
Mof_C 	C 	0.2297	0.4628	0.8941	0.169
Mof_C 	C 	0.1125	0.3827	0.9135	0.151
Mof_C 	C 	0.028	0.3361	0.8937	0.143
Mof_C 	C 	0.9939	0.3343	0.8131	-0.192
Mof_C 	C 	0.6657	0.7037	0.7886	0.091
Mof_C 	C 	0.6496	0.5721	0.7474	0.089
Mof_C 	C 	0.9805	0.291	0.9498	-0.203
Mof_C 	C 	0.8401	0.4262	0.278	0.074
Mof_C 	C 	0.7793	0.4733	0.236	-0.112
Mof_C 	C 	0.792	0.4849	0.153	0.062
Mof_C 	C 	0.8705	0.4451	0.1171	-0.134
Mof_C 	C 	0.9285	0.3988	0.1637	0.1
Mof_C 	C 	0.7297	0.5372	0.1059	0.169
Mof_C 	C 	0.6125	0.6173	0.0865	0.174
Mof_C 	C 	0.528	0.6639	0.1063	0.068
Mof_C 	C 	0.4939	0.6657	0.1869	-0.108
Mof_C 	C 	0.1657	0.2963	0.2114	0.092
Mof_C 	C 	0.1496	0.4279	0.2526	0.089
Mof_C 	C 	0.4805	0.709	0.0502	-0.126
Mof_N 	N 	0.5855	0.7573	0.6116	-0.23
Mof_N 	N 	0.7682	0.9696	0.4447	-0.097
Mof_N 	N 	0.8447	0.9826	0.3903	-0.1
Mof_N 	N 	0.3843	0.7458	0.649	-0.228
Mof_N 	N 	0.0855	0.2427	0.3884	-0.228
Mof_N 	N 	0.2682	0.0304	0.5553	-0.095
Mof_N 	N 	0.3447	0.0174	0.6097	-0.093
Mof_N 	N 	0.8843	0.2542	0.351	-0.232
Mof_N 	N 	0.3355	0.8884	0.2573	-0.229
Mof_N 	N 	0.5182	0.0553	0.4696	-0.096
Mof_N 	N 	0.5947	0.1097	0.4826	-0.093
Mof_N 	N 	0.1343	0.851	0.2458	-0.212
Mof_N 	N 	0.8355	0.1116	0.7427	-0.233
Mof_N 	N 	0.0182	0.9447	0.5304	-0.094
Mof_N 	N 	0.0947	0.8903	0.5174	-0.092
Mof_N 	N 	0.6343	0.149	0.7542	-0.228
Mof_N 	N 	0.1645	0.7427	0.1116	-0.227
Mof_N 	N 	0.9818	0.5304	0.9447	-0.098
Mof_N 	N 	0.9053	0.5174	0.8903	-0.095
Mof_N 	N 	0.3657	0.7542	0.149	-0.229
Mof_N 	N 	0.6645	0.2573	0.8884	-0.231
Mof_N 	N 	0.4818	0.4696	0.0553	-0.096
Mof_N 	N 	0.4053	0.4826	0.1097	-0.094
Mof_N 	N 	0.8657	0.2458	0.851	-0.245
Mof_N 	N 	0.4145	0.6116	0.7573	-0.23
Mof_N 	N 	0.2318	0.4447	0.9696	-0.095
Mof_N 	N 	0.1553	0.3903	0.9826	-0.087
Mof_N 	N 	0.6157	0.649	0.7458	-0.228
Mof_N 	N 	0.9145	0.3884	0.2427	-0.233
Mof_N 	N 	0.7318	0.5553	0.0304	-0.097
Mof_N 	N 	0.6553	0.6097	0.0174	-0.094
Mof_N 	N 	0.1157	0.351	0.2542	-0.227
Mof_O 	O 	0.84549	0.85435	0.42754	-0.22
Mof_O 	O 	0.34549	0.14565	0.57246	-0.213
Mof_O 	O 	0.59549	0.07246	0.35435	-0.213
Mof_O 	O 	0.09549	0.92754	0.64565	-0.213
Mof_O 	O 	0.90451	0.64565	0.92754	-0.213
Mof_O 	O 	0.40451	0.35435	0.07246	-0.213
Mof_O 	O 	0.15451	0.42754	0.85435	-0.206
Mof_O 	O 	0.65451	0.57246	0.14565	-0.213
Mof_O 	O 	0.5	0.5864	0.5864	-1.699
Mof_O 	O 	1.5324e-32	0.4136	0.4136	-1.638
Mof_O 	O 	0.25	0.9136	0.0864	-1.699
Mof_O 	O 	0.75	0.0864	0.9136	-1.699
Mof_Cl	Cl	0.0764	0.6919	0.7631	-0.219
Mof_O 	O 	0.0497	0.6226	0.7936	0.027
Mof_O 	O 	0.0791	0.6463	0.6473	-0.036
Mof_O 	O 	0.1309	0.6796	0.6959	0.028
Mof_O 	O 	0.1279	0.7336	0.818	-0.007
Mof_Cl	Cl	0.5764	0.3081	0.2369	-0.223
Mof_O 	O 	0.5497	0.3774	0.2064	0.022
Mof_O 	O 	0.5791	0.3537	0.3527	-0.042
Mof_O 	O 	0.6309	0.3204	0.3041	0.029
Mof_O 	O 	0.6279	0.2664	0.182	-0.008
Mof_Cl	Cl	0.8264	0.7369	0.1919	-0.222
Mof_O 	O 	0.7997	0.7064	0.1226	0.02
Mof_O 	O 	0.8291	0.8527	0.1463	-0.043
Mof_O 	O 	0.8809	0.8041	0.1796	0.025
Mof_O 	O 	0.8779	0.682	0.2336	-0.012
Mof_Cl	Cl	0.3264	0.2631	0.8081	-0.223
Mof_O 	O 	0.2997	0.2936	0.8774	0.023
Mof_O 	O 	0.3291	0.1473	0.8537	-0.041
Mof_O 	O 	0.3809	0.1959	0.8204	0.029
Mof_O 	O 	0.3779	0.318	0.7664	-0.008
Mof_Cl	Cl	0.6736	0.8081	0.2631	-0.223
Mof_O 	O 	0.7003	0.8774	0.2936	0.022
Mof_O 	O 	0.6709	0.8537	0.1473	-0.043
Mof_O 	O 	0.6191	0.8204	0.1959	0.029
Mof_O 	O 	0.6221	0.7664	0.318	-0.008
Mof_Cl	Cl	0.1736	0.1919	0.7369	-0.225
Mof_O 	O 	0.2003	0.1226	0.7064	0.024
Mof_O 	O 	0.1709	0.1463	0.8527	-0.04
Mof_O 	O 	0.1191	0.1796	0.8041	0.033
Mof_O 	O 	0.1221	0.2336	0.682	-0.005
Mof_Cl	Cl	0.9236	0.7631	0.6919	-0.227
Mof_O 	O 	0.9503	0.7936	0.6226	0.018
Mof_O 	O 	0.9209	0.6473	0.6463	-0.047
Mof_O 	O 	0.8691	0.6959	0.6796	0.03
Mof_O 	O 	0.8721	0.818	0.7336	-0.01
Mof_Cl	Cl	0.4236	0.2369	0.3081	-0.223
Mof_O 	O 	0.4503	0.2064	0.3774	0.023
Mof_O 	O 	0.4209	0.3527	0.3537	-0.042
Mof_O 	O 	0.3691	0.3041	0.3204	0.029
Mof_O 	O 	0.3721	0.182	0.2664	-0.008
Mof_Cl	Cl	0.5	0.87173	0.87173	-0.204
Mof_O 	O 	0.4157	0.9199	0.8455	-0.027
Mof_O 	O 	0.4738	0.7879	0.8669	-0.061
Mof_O 	O 	0.5843	0.8455	0.9199	-0.027
Mof_O 	O 	0.5262	0.8669	0.7879	-0.061
Mof_Cl	Cl	3.94101e-33	0.12827	0.12827	-0.184
Mof_O 	O 	0.9157	0.0801	0.1545	-0.037
Mof_O 	O 	0.9738	0.2121	0.1331	-0.076
Mof_O 	O 	0.0843	0.1545	0.0801	-0.028
Mof_O 	O 	0.0262	0.1331	0.2121	-0.057
Mof_Cl	Cl	0.25	0.62827	0.37173	-0.205
Mof_O 	O 	0.1657	0.6545	0.4199	-0.025
Mof_O 	O 	0.2238	0.6331	0.2879	-0.061
Mof_O 	O 	0.3343	0.5801	0.3455	-0.027
Mof_O 	O 	0.2762	0.7121	0.3669	-0.061
Mof_Cl	Cl	0.75	0.37173	0.62827	-0.205
Mof_O 	O 	0.6657	0.3455	0.5801	-0.028
Mof_O 	O 	0.7238	0.3669	0.7121	-0.061
Mof_O 	O 	0.8343	0.4199	0.6545	-0.03
Mof_O 	O 	0.7762	0.2879	0.6331	-0.061
_end
