# CIF file generated by openbabel 3.1.0, see https://openbabel.org
data_I
_chemical_name_common 'image0'
_cell_length_a 9.7186
_cell_length_b 25.346
_cell_length_c 19.306
_cell_angle_alpha 90
_cell_angle_beta 90
_cell_angle_gamma 90
_space_group_name_H-M_alt 'P 1'
_space_group_name_Hall 'P 1'
loop_
    _symmetry_equiv_pos_as_xyz
    x,y,z
loop_
    _atom_site_label
    _atom_site_type_symbol
    _atom_site_fract_x
    _atom_site_fract_y
    _atom_site_fract_z
    _atom_site_occupancy
    Cu1      Cu       0.60847    0.47555    0.55242    1.000
    Cu2      Cu       0.80833    0.43433    0.44712    1.000
    C1       C        0.83410    0.43469    0.86397    1.000
    H1       H        0.82490    0.45550    0.82450    1.000
    C2       C        0.89330    0.45435    0.92095    1.000
    H2       H        0.92450    0.48900    0.92100    1.000
    C3       C        0.90870    0.42403    0.97935    1.000
    H3       H        0.95080    0.43810    0.01840    1.000
    C4       C        0.86170    0.37250    0.98016    1.000
    C5       C        0.79850    0.35340    0.92267    1.000
    H4       H        0.76240    0.31940    0.92270    1.000
    C6       C        0.78770    0.38433    0.86419    1.000
    H5       H        0.74810    0.37040    0.82430    1.000
    C7       C        0.84610    0.36181    0.10604    1.000
    C8       C        0.73050    0.39317    0.11339    1.000
    H6       H        0.67530    0.40020    0.07510    1.000
    C9       C        0.69610    0.41431    0.17757    1.000
    H7       H        0.61830    0.43540    0.18180    1.000
    C10      C        0.77601    0.40430    0.23495    1.000
    C11      C        0.89290    0.37283    0.22735    1.000
    H8       H        0.94840    0.36580    0.26550    1.000
    C12      C        0.92640    0.35206    0.16312    1.000
    H9       H        0.00450    0.33120    0.15860    1.000
    C13      C        0.93579    0.28956    0.03367    1.000
    C14      C        0.90464    0.25002    0.08042    1.000
    H10      H        0.84810    0.25750    0.11800    1.000
    C15      C        0.95649    0.19932    0.07212    1.000
    H11      H        0.93340    0.17320    0.10390    1.000
    C16      C        0.04163    0.18734    0.01739    1.000
    C17      C        0.07450    0.22698    0.97030    1.000
    H12      H        0.13190    0.21960    0.93300    1.000
    C18      C        0.02240    0.27723    0.97865    1.000
    H13      H        0.04560    0.30330    0.94690    1.000
    C19      C        0.09764    0.13325    0.00810    1.000
    C20      C        0.73652    0.42531    0.30457    1.000
    N1       N        0.88011    0.34043    0.04060    1.000
    O1       O        0.04499    0.09702    0.04532    1.000
    O2       O        0.19273    0.12684    0.96461    1.000
    O3       O        0.62898    0.45007    0.31234    1.000
    O4       O        0.82408    0.41538    0.35204    1.000
    O5       O        0.80237    0.45422    0.54609    1.000
    H14      H        0.86500    0.45360    0.57680    1.000
    O6       O        0.41886    0.49808    0.56426    1.000
    H15      H        0.40590    0.50730    0.60610    1.000
    Cu3      Cu       0.89153    0.52445    0.55242    1.000
    Cu4      Cu       0.69167    0.56567    0.44712    1.000
    C21      C        0.66590    0.56531    0.86397    1.000
    H16      H        0.67510    0.54450    0.82450    1.000
    C22      C        0.60670    0.54565    0.92095    1.000
    H17      H        0.57550    0.51100    0.92100    1.000
    C23      C        0.59130    0.57597    0.97935    1.000
    H18      H        0.54920    0.56190    0.01840    1.000
    C24      C        0.63830    0.62750    0.98016    1.000
    C25      C        0.70150    0.64660    0.92267    1.000
    H19      H        0.73760    0.68060    0.92270    1.000
    C26      C        0.71230    0.61567    0.86419    1.000
    H20      H        0.75190    0.62960    0.82430    1.000
    C27      C        0.65390    0.63819    0.10604    1.000
    C28      C        0.76950    0.60683    0.11339    1.000
    H21      H        0.82470    0.59980    0.07510    1.000
    C29      C        0.80390    0.58569    0.17757    1.000
    H22      H        0.88170    0.56460    0.18180    1.000
    C30      C        0.72399    0.59570    0.23495    1.000
    C31      C        0.60710    0.62717    0.22735    1.000
    H23      H        0.55160    0.63420    0.26550    1.000
    C32      C        0.57360    0.64794    0.16312    1.000
    H24      H        0.49550    0.66880    0.15860    1.000
    C33      C        0.56421    0.71044    0.03367    1.000
    C34      C        0.59536    0.74998    0.08042    1.000
    H25      H        0.65190    0.74250    0.11800    1.000
    C35      C        0.54351    0.80068    0.07212    1.000
    H26      H        0.56660    0.82680    0.10390    1.000
    C36      C        0.45837    0.81266    0.01739    1.000
    C37      C        0.42550    0.77302    0.97030    1.000
    H27      H        0.36810    0.78040    0.93300    1.000
    C38      C        0.47760    0.72277    0.97865    1.000
    H28      H        0.45440    0.69670    0.94690    1.000
    C39      C        0.40236    0.86675    0.00810    1.000
    C40      C        0.76348    0.57469    0.30457    1.000
    N2       N        0.61989    0.65957    0.04060    1.000
    O7       O        0.45501    0.90298    0.04532    1.000
    O8       O        0.30727    0.87316    0.96461    1.000
    O9       O        0.87102    0.54993    0.31234    1.000
    O10      O        0.67592    0.58462    0.35204    1.000
    O11      O        0.69763    0.54578    0.54609    1.000
    H29      H        0.63500    0.54640    0.57680    1.000
    O12      O        0.08114    0.50192    0.56426    1.000
    H30      H        0.09410    0.49270    0.60610    1.000
    Cu5      Cu       0.89153    0.97555    0.94758    1.000
    Cu6      Cu       0.69167    0.93433    0.05288    1.000
    C41      C        0.66590    0.93469    0.63603    1.000
    H31      H        0.67510    0.95550    0.67550    1.000
    C42      C        0.60670    0.95435    0.57905    1.000
    H32      H        0.57550    0.98900    0.57900    1.000
    C43      C        0.59130    0.92403    0.52065    1.000
    H33      H        0.54920    0.93810    0.48160    1.000
    C44      C        0.63830    0.87250    0.51984    1.000
    C45      C        0.70150    0.85340    0.57733    1.000
    H34      H        0.73760    0.81940    0.57730    1.000
    C46      C        0.71230    0.88433    0.63581    1.000
    H35      H        0.75190    0.87040    0.67570    1.000
    C47      C        0.65390    0.86181    0.39396    1.000
    C48      C        0.76950    0.89317    0.38661    1.000
    H36      H        0.82470    0.90020    0.42490    1.000
    C49      C        0.80390    0.91431    0.32243    1.000
    H37      H        0.88170    0.93540    0.31820    1.000
    C50      C        0.72399    0.90430    0.26505    1.000
    C51      C        0.60710    0.87283    0.27265    1.000
    H38      H        0.55160    0.86580    0.23450    1.000
    C52      C        0.57360    0.85206    0.33688    1.000
    H39      H        0.49550    0.83120    0.34140    1.000
    C53      C        0.56421    0.78956    0.46633    1.000
    C54      C        0.59536    0.75002    0.41958    1.000
    H40      H        0.65190    0.75750    0.38200    1.000
    C55      C        0.54351    0.69932    0.42788    1.000
    H41      H        0.56660    0.67320    0.39610    1.000
    C56      C        0.45837    0.68734    0.48261    1.000
    C57      C        0.42550    0.72698    0.52970    1.000
    H42      H        0.36810    0.71960    0.56700    1.000
    C58      C        0.47760    0.77723    0.52135    1.000
    H43      H        0.45440    0.80330    0.55310    1.000
    C59      C        0.40236    0.63325    0.49190    1.000
    C60      C        0.76348    0.92531    0.19543    1.000
    N3       N        0.61989    0.84043    0.45940    1.000
    O13      O        0.45501    0.59702    0.45468    1.000
    O14      O        0.30727    0.62684    0.53539    1.000
    O15      O        0.87102    0.95007    0.18766    1.000
    O16      O        0.67592    0.91538    0.14796    1.000
    O17      O        0.69763    0.95422    0.95391    1.000
    H44      H        0.63500    0.95360    0.92320    1.000
    O18      O        0.08114    0.99808    0.93574    1.000
    H45      H        0.09410    0.00730    0.89390    1.000
    Cu7      Cu       0.60847    0.02445    0.94758    1.000
    Cu8      Cu       0.80833    0.06567    0.05288    1.000
    C61      C        0.83410    0.06531    0.63603    1.000
    H46      H        0.82490    0.04450    0.67550    1.000
    C62      C        0.89330    0.04565    0.57905    1.000
    H47      H        0.92450    0.01100    0.57900    1.000
    C63      C        0.90870    0.07597    0.52065    1.000
    H48      H        0.95080    0.06190    0.48160    1.000
    C64      C        0.86170    0.12750    0.51984    1.000
    C65      C        0.79850    0.14660    0.57733    1.000
    H49      H        0.76240    0.18060    0.57730    1.000
    C66      C        0.78770    0.11567    0.63581    1.000
    H50      H        0.74810    0.12960    0.67570    1.000
    C67      C        0.84610    0.13819    0.39396    1.000
    C68      C        0.73050    0.10683    0.38661    1.000
    H51      H        0.67530    0.09980    0.42490    1.000
    C69      C        0.69610    0.08569    0.32243    1.000
    H52      H        0.61830    0.06460    0.31820    1.000
    C70      C        0.77601    0.09570    0.26505    1.000
    C71      C        0.89290    0.12717    0.27265    1.000
    H53      H        0.94840    0.13420    0.23450    1.000
    C72      C        0.92640    0.14794    0.33688    1.000
    H54      H        0.00450    0.16880    0.34140    1.000
    C73      C        0.93579    0.21044    0.46633    1.000
    C74      C        0.90464    0.24998    0.41958    1.000
    H55      H        0.84810    0.24250    0.38200    1.000
    C75      C        0.95649    0.30068    0.42788    1.000
    H56      H        0.93340    0.32680    0.39610    1.000
    C76      C        0.04163    0.31266    0.48261    1.000
    C77      C        0.07450    0.27302    0.52970    1.000
    H57      H        0.13190    0.28040    0.56700    1.000
    C78      C        0.02240    0.22277    0.52135    1.000
    H58      H        0.04560    0.19670    0.55310    1.000
    C79      C        0.09764    0.36675    0.49190    1.000
    C80      C        0.73652    0.07469    0.19543    1.000
    N4       N        0.88011    0.15957    0.45940    1.000
    O19      O        0.04499    0.40298    0.45468    1.000
    O20      O        0.19273    0.37316    0.53539    1.000
    O21      O        0.62898    0.04993    0.18766    1.000
    O22      O        0.82408    0.08462    0.14796    1.000
    O23      O        0.80237    0.04578    0.95391    1.000
    H59      H        0.86500    0.04640    0.92320    1.000
    O24      O        0.41886    0.00192    0.93574    1.000
    H60      H        0.40590    0.99270    0.89390    1.000
    Cu9      Cu       0.39153    0.52445    0.44758    1.000
    Cu10     Cu       0.19167    0.56567    0.55288    1.000
    C81      C        0.16590    0.56531    0.13603    1.000
    H61      H        0.17510    0.54450    0.17550    1.000
    C82      C        0.10670    0.54565    0.07905    1.000
    H62      H        0.07550    0.51100    0.07900    1.000
    C83      C        0.09130    0.57597    0.02065    1.000
    H63      H        0.04920    0.56190    0.98160    1.000
    C84      C        0.13830    0.62750    0.01984    1.000
    C85      C        0.20150    0.64660    0.07733    1.000
    H64      H        0.23760    0.68060    0.07730    1.000
    C86      C        0.21230    0.61567    0.13581    1.000
    H65      H        0.25190    0.62960    0.17570    1.000
    C87      C        0.15390    0.63819    0.89396    1.000
    C88      C        0.26950    0.60683    0.88661    1.000
    H66      H        0.32470    0.59980    0.92490    1.000
    C89      C        0.30390    0.58569    0.82243    1.000
    H67      H        0.38170    0.56460    0.81820    1.000
    C90      C        0.22399    0.59570    0.76505    1.000
    C91      C        0.10710    0.62717    0.77265    1.000
    H68      H        0.05160    0.63420    0.73450    1.000
    C92      C        0.07360    0.64794    0.83688    1.000
    H69      H        0.99550    0.66880    0.84140    1.000
    C93      C        0.06421    0.71044    0.96633    1.000
    C94      C        0.09536    0.74998    0.91958    1.000
    H70      H        0.15190    0.74250    0.88200    1.000
    C95      C        0.04351    0.80068    0.92788    1.000
    H71      H        0.06660    0.82680    0.89610    1.000
    C96      C        0.95837    0.81266    0.98261    1.000
    C97      C        0.92550    0.77302    0.02970    1.000
    H72      H        0.86810    0.78040    0.06700    1.000
    C98      C        0.97760    0.72277    0.02135    1.000
    H73      H        0.95440    0.69670    0.05310    1.000
    C99      C        0.90236    0.86675    0.99190    1.000
    C100     C        0.26348    0.57469    0.69543    1.000
    N5       N        0.11989    0.65957    0.95940    1.000
    O25      O        0.95501    0.90298    0.95468    1.000
    O26      O        0.80727    0.87316    0.03539    1.000
    O27      O        0.37102    0.54993    0.68766    1.000
    O28      O        0.17592    0.58462    0.64796    1.000
    O29      O        0.19763    0.54578    0.45391    1.000
    H74      H        0.13500    0.54640    0.42320    1.000
    O30      O        0.58114    0.50192    0.43574    1.000
    H75      H        0.59410    0.49270    0.39390    1.000
    Cu11     Cu       0.10847    0.47555    0.44758    1.000
    Cu12     Cu       0.30833    0.43433    0.55288    1.000
    C101     C        0.33410    0.43469    0.13603    1.000
    H76      H        0.32490    0.45550    0.17550    1.000
    C102     C        0.39330    0.45435    0.07905    1.000
    H77      H        0.42450    0.48900    0.07900    1.000
    C103     C        0.40870    0.42403    0.02065    1.000
    H78      H        0.45080    0.43810    0.98160    1.000
    C104     C        0.36170    0.37250    0.01984    1.000
    C105     C        0.29850    0.35340    0.07733    1.000
    H79      H        0.26240    0.31940    0.07730    1.000
    C106     C        0.28770    0.38433    0.13581    1.000
    H80      H        0.24810    0.37040    0.17570    1.000
    C107     C        0.34610    0.36181    0.89396    1.000
    C108     C        0.23050    0.39317    0.88661    1.000
    H81      H        0.17530    0.40020    0.92490    1.000
    C109     C        0.19610    0.41431    0.82243    1.000
    H82      H        0.11830    0.43540    0.81820    1.000
    C110     C        0.27601    0.40430    0.76505    1.000
    C111     C        0.39290    0.37283    0.77265    1.000
    H83      H        0.44840    0.36580    0.73450    1.000
    C112     C        0.42640    0.35206    0.83688    1.000
    H84      H        0.50450    0.33120    0.84140    1.000
    C113     C        0.43579    0.28956    0.96633    1.000
    C114     C        0.40464    0.25002    0.91958    1.000
    H85      H        0.34810    0.25750    0.88200    1.000
    C115     C        0.45649    0.19932    0.92788    1.000
    H86      H        0.43340    0.17320    0.89610    1.000
    C116     C        0.54163    0.18734    0.98261    1.000
    C117     C        0.57450    0.22698    0.02970    1.000
    H87      H        0.63190    0.21960    0.06700    1.000
    C118     C        0.52240    0.27723    0.02135    1.000
    H88      H        0.54560    0.30330    0.05310    1.000
    C119     C        0.59764    0.13325    0.99190    1.000
    C120     C        0.23652    0.42531    0.69543    1.000
    N6       N        0.38011    0.34043    0.95940    1.000
    O31      O        0.54499    0.09702    0.95468    1.000
    O32      O        0.69273    0.12684    0.03539    1.000
    O33      O        0.12898    0.45007    0.68766    1.000
    O34      O        0.32408    0.41538    0.64796    1.000
    O35      O        0.30237    0.45422    0.45391    1.000
    H89      H        0.36500    0.45360    0.42320    1.000
    O36      O        0.91886    0.49808    0.43574    1.000
    H90      H        0.90590    0.50730    0.39390    1.000
    Cu13     Cu       0.10847    0.02445    0.05242    1.000
    Cu14     Cu       0.30833    0.06567    0.94712    1.000
    C121     C        0.33410    0.06531    0.36397    1.000
    H91      H        0.32490    0.04450    0.32450    1.000
    C122     C        0.39330    0.04565    0.42095    1.000
    H92      H        0.42450    0.01100    0.42100    1.000
    C123     C        0.40870    0.07597    0.47935    1.000
    H93      H        0.45080    0.06190    0.51840    1.000
    C124     C        0.36170    0.12750    0.48016    1.000
    C125     C        0.29850    0.14660    0.42267    1.000
    H94      H        0.26240    0.18060    0.42270    1.000
    C126     C        0.28770    0.11567    0.36419    1.000
    H95      H        0.24810    0.12960    0.32430    1.000
    C127     C        0.34610    0.13819    0.60604    1.000
    C128     C        0.23050    0.10683    0.61339    1.000
    H96      H        0.17530    0.09980    0.57510    1.000
    C129     C        0.19610    0.08569    0.67757    1.000
    H97      H        0.11830    0.06460    0.68180    1.000
    C130     C        0.27601    0.09570    0.73495    1.000
    C131     C        0.39290    0.12717    0.72735    1.000
    H98      H        0.44840    0.13420    0.76550    1.000
    C132     C        0.42640    0.14794    0.66312    1.000
    H99      H        0.50450    0.16880    0.65860    1.000
    C133     C        0.43579    0.21044    0.53367    1.000
    C134     C        0.40464    0.24998    0.58042    1.000
    H100     H        0.34810    0.24250    0.61800    1.000
    C135     C        0.45649    0.30068    0.57212    1.000
    H101     H        0.43340    0.32680    0.60390    1.000
    C136     C        0.54163    0.31266    0.51739    1.000
    C137     C        0.57450    0.27302    0.47030    1.000
    H102     H        0.63190    0.28040    0.43300    1.000
    C138     C        0.52240    0.22277    0.47865    1.000
    H103     H        0.54560    0.19670    0.44690    1.000
    C139     C        0.59764    0.36675    0.50810    1.000
    C140     C        0.23652    0.07469    0.80457    1.000
    N7       N        0.38011    0.15957    0.54060    1.000
    O37      O        0.54499    0.40298    0.54532    1.000
    O38      O        0.69273    0.37316    0.46461    1.000
    O39      O        0.12898    0.04993    0.81234    1.000
    O40      O        0.32408    0.08462    0.85204    1.000
    O41      O        0.30237    0.04578    0.04609    1.000
    H104     H        0.36500    0.04640    0.07680    1.000
    O42      O        0.91886    0.00192    0.06426    1.000
    H105     H        0.90590    0.99270    0.10610    1.000
    Cu15     Cu       0.39153    0.97555    0.05242    1.000
    Cu16     Cu       0.19167    0.93433    0.94712    1.000
    C141     C        0.16590    0.93469    0.36397    1.000
    H106     H        0.17510    0.95550    0.32450    1.000
    C142     C        0.10670    0.95435    0.42095    1.000
    H107     H        0.07550    0.98900    0.42100    1.000
    C143     C        0.09130    0.92403    0.47935    1.000
    H108     H        0.04920    0.93810    0.51840    1.000
    C144     C        0.13830    0.87250    0.48016    1.000
    C145     C        0.20150    0.85340    0.42267    1.000
    H109     H        0.23760    0.81940    0.42270    1.000
    C146     C        0.21230    0.88433    0.36419    1.000
    H110     H        0.25190    0.87040    0.32430    1.000
    C147     C        0.15390    0.86181    0.60604    1.000
    C148     C        0.26950    0.89317    0.61339    1.000
    H111     H        0.32470    0.90020    0.57510    1.000
    C149     C        0.30390    0.91431    0.67757    1.000
    H112     H        0.38170    0.93540    0.68180    1.000
    C150     C        0.22399    0.90430    0.73495    1.000
    C151     C        0.10710    0.87283    0.72735    1.000
    H113     H        0.05160    0.86580    0.76550    1.000
    C152     C        0.07360    0.85206    0.66312    1.000
    H114     H        0.99550    0.83120    0.65860    1.000
    C153     C        0.06421    0.78956    0.53367    1.000
    C154     C        0.09536    0.75002    0.58042    1.000
    H115     H        0.15190    0.75750    0.61800    1.000
    C155     C        0.04351    0.69932    0.57212    1.000
    H116     H        0.06660    0.67320    0.60390    1.000
    C156     C        0.95837    0.68734    0.51739    1.000
    C157     C        0.92550    0.72698    0.47030    1.000
    H117     H        0.86810    0.71960    0.43300    1.000
    C158     C        0.97760    0.77723    0.47865    1.000
    H118     H        0.95440    0.80330    0.44690    1.000
    C159     C        0.90236    0.63325    0.50810    1.000
    C160     C        0.26348    0.92531    0.80457    1.000
    N8       N        0.11989    0.84043    0.54060    1.000
    O43      O        0.95501    0.59702    0.54532    1.000
    O44      O        0.80727    0.62684    0.46461    1.000
    O45      O        0.37102    0.95007    0.81234    1.000
    O46      O        0.17592    0.91538    0.85204    1.000
    O47      O        0.19763    0.95422    0.04609    1.000
    H119     H        0.13500    0.95360    0.07680    1.000
    O48      O        0.58114    0.99808    0.06426    1.000
    H120     H        0.59410    0.00730    0.10610    1.000
