data_functionalizedCrystal
_audit_creation_method	'EQeq! by Chris Wilmer'
_symmetry_space_group_name_H-M	'P1'
_symmetry_Int_Tables_number	1
_symmetry_cell_setting	triclinic
loop_
_symmetry_equiv_pos_as_xyz
  x,y,z
_cell_length_a	8.491
_cell_length_b	19.915
_cell_length_c	22.077
_cell_angle_alpha	90
_cell_angle_beta	90
_cell_angle_gamma	90
loop_
_atom_site_label
_atom_site_type_symbol
_atom_site_fract_x
_atom_site_fract_y
_atom_site_fract_z
_atom_site_charge
Mof_K 	K 	0.1483	0.0061	0.6512	3.975
Mof_K 	K 	0.3517	0.9939	0.1512	3.981
Mof_K 	K 	0.8517	0.5061	0.8488	3.977
Mof_K 	K 	0.6483	0.4939	0.3488	3.989
Mof_Cu	Cu	0.0016	0.0726	0.40672	0.868
Mof_Cu	Cu	0.6948	0.169	0.364	0.875
Mof_Cu	Cu	0.4984	0.9274	0.90672	0.871
Mof_Cu	Cu	0.8052	0.831	0.864	0.875
Mof_Cu	Cu	0.9984	0.5726	0.09328	0.869
Mof_Cu	Cu	0.3052	0.669	0.136	0.875
Mof_Cu	Cu	0.5016	0.4274	0.59328	0.87
Mof_Cu	Cu	0.1948	0.331	0.636	0.875
Mof_H 	H 	0.84479	0.16238	0.46065	0.16
Mof_H 	H 	0.83196	0.94859	0.55058	0.047
Mof_H 	H 	0.64787	0.97264	0.6297	-0.075
Mof_H 	H 	0.64728	0.08252	0.66964	0.018
Mof_H 	H 	0.77126	0.1704	0.61987	-0.008
Mof_H 	H 	0.94629	0.14676	0.54056	0.046
Mof_H 	H 	0.33271	0.88046	0.46387	0.001
Mof_H 	H 	0.4084	0.85631	0.36415	0.042
Mof_H 	H 	0.32198	0.92469	0.28009	-0.112
Mof_H 	H 	0.91556	0.09437	0.20849	0.042
Mof_H 	H 	0.83708	0.18128	0.14834	-0.031
Mof_H 	H 	0.86651	0.29227	0.18848	0.061
Mof_H 	H 	0.96292	0.30999	0.28588	-0.032
Mof_H 	H 	0.05768	0.21749	0.34365	0.066
Mof_H 	H 	0.35555	0.14718	0.18535	-0.159
Mof_H 	H 	0.31197	0.26192	0.17362	0.044
Mof_H 	H 	0.43234	0.3404	0.23974	-0.024
Mof_H 	H 	0.77723	0.98539	0.25715	0.035
Mof_H 	H 	0.87116	0.88269	0.29085	-0.01
Mof_H 	H 	0.84601	0.84983	0.39415	0.054
Mof_H 	H 	0.71551	0.91238	0.4617	-0.015
Mof_H 	H 	0.64767	0.0253	0.43362	0.066
Mof_H 	H 	0.65331	0.2362	0.49616	0.067
Mof_H 	H 	0.76184	0.28892	0.58537	-0.014
Mof_H 	H 	0.91637	0.38288	0.57525	0.031
Mof_H 	H 	0.98726	0.42111	0.48364	-0.045
Mof_H 	H 	0.89191	0.37111	0.3921	-0.023
Mof_H 	H 	0.65521	0.83762	0.96065	0.161
Mof_H 	H 	0.66804	0.05141	0.05058	0.04
Mof_H 	H 	0.85213	0.02736	0.1297	-0.063
Mof_H 	H 	0.85272	0.91748	0.16964	0.01
Mof_H 	H 	0.72874	0.8296	0.11987	-0.002
Mof_H 	H 	0.55371	0.85324	0.04056	0.039
Mof_H 	H 	0.16729	0.11954	0.96387	0
Mof_H 	H 	0.0916	0.14369	0.86415	0.042
Mof_H 	H 	0.17802	0.07531	0.78009	-0.112
Mof_H 	H 	0.58444	0.90563	0.70849	0.04
Mof_H 	H 	0.66292	0.81872	0.64834	-0.03
Mof_H 	H 	0.63349	0.70773	0.68848	0.06
Mof_H 	H 	0.53708	0.69001	0.78588	-0.03
Mof_H 	H 	0.44232	0.78251	0.84365	0.065
Mof_H 	H 	0.14445	0.85282	0.68535	-0.159
Mof_H 	H 	0.18803	0.73808	0.67362	0.045
Mof_H 	H 	0.06766	0.6596	0.73974	-0.024
Mof_H 	H 	0.72277	0.01461	0.75715	0.038
Mof_H 	H 	0.62884	0.11731	0.79085	-0.012
Mof_H 	H 	0.65399	0.15017	0.89415	0.057
Mof_H 	H 	0.78449	0.08762	0.9617	-0.02
Mof_H 	H 	0.85233	0.9747	0.93362	0.073
Mof_H 	H 	0.84669	0.7638	0.99616	0.066
Mof_H 	H 	0.73816	0.71108	0.08537	-0.014
Mof_H 	H 	0.58363	0.61712	0.07525	0.032
Mof_H 	H 	0.51274	0.57889	0.98364	-0.045
Mof_H 	H 	0.60809	0.62889	0.8921	-0.023
Mof_H 	H 	0.15521	0.66238	0.03935	0.159
Mof_H 	H 	0.16804	0.44859	0.94942	0.049
Mof_H 	H 	0.35213	0.47264	0.8703	-0.078
Mof_H 	H 	0.35272	0.58252	0.83036	0.02
Mof_H 	H 	0.22874	0.6704	0.88013	-0.009
Mof_H 	H 	0.05371	0.64676	0.95944	0.048
Mof_H 	H 	0.66729	0.38046	0.03613	0.001
Mof_H 	H 	0.5916	0.35631	0.13585	0.042
Mof_H 	H 	0.67802	0.42469	0.21991	-0.112
Mof_H 	H 	0.08444	0.59437	0.29151	0.042
Mof_H 	H 	0.16292	0.68128	0.35166	-0.032
Mof_H 	H 	0.13349	0.79227	0.31152	0.061
Mof_H 	H 	0.03708	0.80999	0.21412	-0.032
Mof_H 	H 	0.94232	0.71749	0.15635	0.066
Mof_H 	H 	0.64445	0.64718	0.31465	-0.16
Mof_H 	H 	0.68803	0.76192	0.32638	0.044
Mof_H 	H 	0.56766	0.8404	0.26026	-0.024
Mof_H 	H 	0.22277	0.48539	0.24285	0.033
Mof_H 	H 	0.12884	0.38269	0.20915	-0.008
Mof_H 	H 	0.15399	0.34983	0.10585	0.054
Mof_H 	H 	0.28449	0.41238	0.0383	-0.014
Mof_H 	H 	0.35233	0.5253	0.06638	0.063
Mof_H 	H 	0.34669	0.7362	0.00384	0.067
Mof_H 	H 	0.23816	0.78892	0.91463	-0.013
Mof_H 	H 	0.08363	0.88288	0.92475	0.031
Mof_H 	H 	0.01274	0.92111	0.01636	-0.043
Mof_H 	H 	0.10809	0.87111	0.1079	-0.024
Mof_H 	H 	0.34479	0.33762	0.53935	0.16
Mof_H 	H 	0.33196	0.55141	0.44942	0.048
Mof_H 	H 	0.14787	0.52736	0.3703	-0.077
Mof_H 	H 	0.14728	0.41748	0.33036	0.019
Mof_H 	H 	0.27126	0.3296	0.38013	-0.009
Mof_H 	H 	0.44629	0.35324	0.45944	0.045
Mof_H 	H 	0.83271	0.61954	0.53613	0.001
Mof_H 	H 	0.9084	0.64369	0.63585	0.041
Mof_H 	H 	0.82198	0.57531	0.71991	-0.112
Mof_H 	H 	0.41556	0.40563	0.79151	0.04
Mof_H 	H 	0.33708	0.31872	0.85166	-0.03
Mof_H 	H 	0.36651	0.20773	0.81152	0.06
Mof_H 	H 	0.46292	0.19001	0.71412	-0.03
Mof_H 	H 	0.55768	0.28251	0.65635	0.065
Mof_H 	H 	0.85555	0.35282	0.81465	-0.159
Mof_H 	H 	0.81197	0.23808	0.82638	0.043
Mof_H 	H 	0.93234	0.1596	0.76026	-0.023
Mof_H 	H 	0.27723	0.51461	0.74285	0.034
Mof_H 	H 	0.37116	0.61731	0.70915	-0.008
Mof_H 	H 	0.34601	0.65017	0.60585	0.053
Mof_H 	H 	0.21551	0.58762	0.5383	-0.014
Mof_H 	H 	0.14767	0.4747	0.56638	0.063
Mof_H 	H 	0.15331	0.2638	0.50384	0.066
Mof_H 	H 	0.26184	0.21108	0.41463	-0.014
Mof_H 	H 	0.41637	0.11712	0.42475	0.032
Mof_H 	H 	0.48726	0.07889	0.51636	-0.044
Mof_H 	H 	0.39191	0.12889	0.6079	-0.023
Mof_C 	C 	0.905	0.0455	0.5396	-0.014
Mof_C 	C 	0.821	0.997	0.5666	-0.292
Mof_C 	C 	0.715	0.009	0.613	0.006
Mof_C 	C 	0.707	0.074	0.634	-0.19
Mof_C 	C 	0.787	0.124	0.6078	0.028
Mof_C 	C 	0.886	0.1104	0.5603	-0.221
Mof_C 	C 	0.111	0.98	0.4944	0.221
Mof_C 	C 	0.188	0.9617	0.4384	-0.057
Mof_C 	C 	0.29	0.908	0.429	0.003
Mof_C 	C 	0.341	0.897	0.37	-0.098
Mof_C 	C 	0.294	0.936	0.322	0.063
Mof_C 	C 	0.194	0.989	0.3347	-0.116
Mof_C 	C 	0.125	0.041	0.2903	0.356
Mof_C 	C 	0.998	0.1445	0.2817	0.138
Mof_C 	C 	0.927	0.138	0.2275	-0.179
Mof_C 	C 	0.881	0.189	0.192	0.046
Mof_C 	C 	0.899	0.255	0.214	-0.152
Mof_C 	C 	0.962	0.265	0.27	0.079
Mof_C 	C 	0.009	0.209	0.3034	-0.216
Mof_C 	C 	0.689	0.0154	0.3424	0.139
Mof_C 	C 	0.765	0.974	0.3015	-0.152
Mof_C 	C 	0.82	0.913	0.319	0.038
Mof_C 	C 	0.803	0.892	0.379	-0.14
Mof_C 	C 	0.733	0.932	0.419	0.065
Mof_C 	C 	0.682	0.9941	0.401	-0.204
Mof_C 	C 	0.559	0.0847	0.2746	0.356
Mof_C 	C 	0.507	0.1578	0.2608	-0.127
Mof_C 	C 	0.408	0.179	0.2153	0.072
Mof_C 	C 	0.381	0.248	0.208	-0.133
Mof_C 	C 	0.452	0.291	0.2475	0.057
Mof_C 	C 	0.547	0.267	0.2929	-0.115
Mof_C 	C 	0.637	0.3039	0.34	0.373
Mof_C 	C 	0.757	0.2982	0.4368	0.14
Mof_C 	C 	0.724	0.2749	0.4922	-0.194
Mof_C 	C 	0.785	0.305	0.5445	0.035
Mof_C 	C 	0.879	0.36	0.5391	-0.17
Mof_C 	C 	0.917	0.381	0.484	0.047
Mof_C 	C 	0.861	0.353	0.4325	-0.212
Mof_C 	C 	0.595	0.9545	0.0396	-0.041
Mof_C 	C 	0.679	0.003	0.0666	-0.261
Mof_C 	C 	0.785	0.991	0.113	-0.025
Mof_C 	C 	0.793	0.926	0.134	-0.166
Mof_C 	C 	0.713	0.876	0.1078	0.006
Mof_C 	C 	0.614	0.8896	0.0603	-0.202
Mof_C 	C 	0.389	0.02	0.9944	0.206
Mof_C 	C 	0.312	0.0383	0.9384	-0.054
Mof_C 	C 	0.21	0.092	0.929	0.001
Mof_C 	C 	0.159	0.103	0.87	-0.098
Mof_C 	C 	0.206	0.064	0.822	0.063
Mof_C 	C 	0.306	0.011	0.8347	-0.119
Mof_C 	C 	0.375	0.959	0.7903	0.36
Mof_C 	C 	0.502	0.8555	0.7817	0.131
Mof_C 	C 	0.573	0.862	0.7275	-0.174
Mof_C 	C 	0.619	0.811	0.692	0.043
Mof_C 	C 	0.601	0.745	0.714	-0.148
Mof_C 	C 	0.538	0.735	0.77	0.074
Mof_C 	C 	0.491	0.791	0.8034	-0.209
Mof_C 	C 	0.811	0.9846	0.8424	0.151
Mof_C 	C 	0.735	0.026	0.8015	-0.162
Mof_C 	C 	0.68	0.087	0.819	0.046
Mof_C 	C 	0.697	0.108	0.879	-0.149
Mof_C 	C 	0.767	0.068	0.919	0.075
Mof_C 	C 	0.818	0.0059	0.901	-0.222
Mof_C 	C 	0.941	0.9153	0.7746	0.356
Mof_C 	C 	0.993	0.8422	0.7608	-0.128
Mof_C 	C 	0.092	0.821	0.7153	0.075
Mof_C 	C 	0.119	0.752	0.708	-0.136
Mof_C 	C 	0.048	0.709	0.7475	0.061
Mof_C 	C 	0.953	0.733	0.7929	-0.119
Mof_C 	C 	0.863	0.6961	0.84	0.373
Mof_C 	C 	0.743	0.7018	0.9368	0.138
Mof_C 	C 	0.776	0.7251	0.9922	-0.193
Mof_C 	C 	0.715	0.695	0.0445	0.033
Mof_C 	C 	0.621	0.64	0.0391	-0.17
Mof_C 	C 	0.583	0.619	0.984	0.047
Mof_C 	C 	0.639	0.647	0.9325	-0.212
Mof_C 	C 	0.095	0.5455	0.9604	-0.011
Mof_C 	C 	0.179	0.497	0.9334	-0.297
Mof_C 	C 	0.285	0.509	0.887	0.012
Mof_C 	C 	0.293	0.574	0.866	-0.194
Mof_C 	C 	0.213	0.624	0.8922	0.031
Mof_C 	C 	0.114	0.6104	0.9397	-0.223
Mof_C 	C 	0.889	0.48	0.0056	0.22
Mof_C 	C 	0.812	0.4617	0.0616	-0.058
Mof_C 	C 	0.71	0.408	0.071	0.004
Mof_C 	C 	0.659	0.397	0.13	-0.099
Mof_C 	C 	0.706	0.436	0.178	0.063
Mof_C 	C 	0.806	0.489	0.1653	-0.117
Mof_C 	C 	0.875	0.541	0.2097	0.356
Mof_C 	C 	0.002	0.6445	0.2183	0.138
Mof_C 	C 	0.073	0.638	0.2725	-0.179
Mof_C 	C 	0.119	0.689	0.308	0.047
Mof_C 	C 	0.101	0.755	0.286	-0.152
Mof_C 	C 	0.038	0.765	0.23	0.081
Mof_C 	C 	0.991	0.709	0.1966	-0.217
Mof_C 	C 	0.311	0.5154	0.1576	0.131
Mof_C 	C 	0.235	0.474	0.1985	-0.146
Mof_C 	C 	0.18	0.413	0.181	0.034
Mof_C 	C 	0.197	0.392	0.121	-0.135
Mof_C 	C 	0.267	0.432	0.081	0.06
Mof_C 	C 	0.318	0.4941	0.099	-0.198
Mof_C 	C 	0.441	0.5847	0.2254	0.356
Mof_C 	C 	0.493	0.6578	0.2392	-0.127
Mof_C 	C 	0.592	0.679	0.2847	0.072
Mof_C 	C 	0.619	0.748	0.292	-0.133
Mof_C 	C 	0.548	0.791	0.2525	0.056
Mof_C 	C 	0.453	0.767	0.2071	-0.115
Mof_C 	C 	0.363	0.8039	0.16	0.373
Mof_C 	C 	0.243	0.7982	0.0632	0.139
Mof_C 	C 	0.276	0.7749	0.0078	-0.197
Mof_C 	C 	0.215	0.805	0.9555	0.036
Mof_C 	C 	0.121	0.86	0.9609	-0.162
Mof_C 	C 	0.083	0.881	0.016	0.039
Mof_C 	C 	0.139	0.853	0.0675	-0.209
Mof_C 	C 	0.405	0.4545	0.4604	-0.016
Mof_C 	C 	0.321	0.503	0.4334	-0.296
Mof_C 	C 	0.215	0.491	0.387	0.01
Mof_C 	C 	0.207	0.426	0.366	-0.192
Mof_C 	C 	0.287	0.376	0.3922	0.029
Mof_C 	C 	0.386	0.3896	0.4397	-0.222
Mof_C 	C 	0.611	0.52	0.5056	0.219
Mof_C 	C 	0.688	0.5383	0.5616	-0.057
Mof_C 	C 	0.79	0.592	0.571	0.003
Mof_C 	C 	0.841	0.603	0.63	-0.098
Mof_C 	C 	0.794	0.564	0.678	0.062
Mof_C 	C 	0.694	0.511	0.6653	-0.116
Mof_C 	C 	0.625	0.459	0.7097	0.355
Mof_C 	C 	0.498	0.3555	0.7183	0.131
Mof_C 	C 	0.427	0.362	0.7725	-0.174
Mof_C 	C 	0.381	0.311	0.808	0.042
Mof_C 	C 	0.399	0.245	0.786	-0.148
Mof_C 	C 	0.462	0.235	0.73	0.073
Mof_C 	C 	0.509	0.291	0.6966	-0.209
Mof_C 	C 	0.189	0.4846	0.6576	0.132
Mof_C 	C 	0.265	0.526	0.6985	-0.146
Mof_C 	C 	0.32	0.587	0.681	0.034
Mof_C 	C 	0.303	0.608	0.621	-0.136
Mof_C 	C 	0.233	0.568	0.581	0.06
Mof_C 	C 	0.182	0.5059	0.599	-0.198
Mof_C 	C 	0.059	0.4153	0.7254	0.355
Mof_C 	C 	0.007	0.3422	0.7392	-0.124
Mof_C 	C 	0.908	0.321	0.7847	0.07
Mof_C 	C 	0.881	0.252	0.792	-0.132
Mof_C 	C 	0.952	0.209	0.7525	0.056
Mof_C 	C 	0.047	0.233	0.7071	-0.116
Mof_C 	C 	0.137	0.1961	0.66	0.372
Mof_C 	C 	0.257	0.2018	0.5632	0.139
Mof_C 	C 	0.224	0.2251	0.5078	-0.195
Mof_C 	C 	0.285	0.195	0.4555	0.035
Mof_C 	C 	0.379	0.14	0.4609	-0.171
Mof_C 	C 	0.417	0.119	0.516	0.047
Mof_C 	C 	0.361	0.147	0.5675	-0.212
Mof_N 	N 	0.007	0.0307	0.489	-0.298
Mof_N 	N 	0.145	0.9997	0.3906	-0.2
Mof_N 	N 	0.054	0.0914	0.3186	-0.314
Mof_N 	N 	0.637	0.079	0.3264	-0.31
Mof_N 	N 	0.568	0.1995	0.2988	-0.193
Mof_N 	N 	0.689	0.2679	0.3852	-0.317
Mof_N 	N 	0.493	0.9693	0.989	-0.285
Mof_N 	N 	0.355	0.0003	0.8906	-0.202
Mof_N 	N 	0.446	0.9086	0.8186	-0.312
Mof_N 	N 	0.863	0.921	0.8264	-0.312
Mof_N 	N 	0.932	0.8005	0.7988	-0.192
Mof_N 	N 	0.811	0.7321	0.8852	-0.317
Mof_N 	N 	0.993	0.5307	0.011	-0.298
Mof_N 	N 	0.855	0.4997	0.1094	-0.2
Mof_N 	N 	0.946	0.5914	0.1814	-0.314
Mof_N 	N 	0.363	0.579	0.1736	-0.309
Mof_N 	N 	0.432	0.6995	0.2012	-0.193
Mof_N 	N 	0.311	0.7679	0.1148	-0.316
Mof_N 	N 	0.507	0.4693	0.511	-0.295
Mof_N 	N 	0.645	0.5003	0.6094	-0.2
Mof_N 	N 	0.554	0.4086	0.6814	-0.312
Mof_N 	N 	0.137	0.421	0.6736	-0.309
Mof_N 	N 	0.068	0.3005	0.7012	-0.193
Mof_N 	N 	0.189	0.2321	0.6148	-0.317
Mof_O 	O 	0.846	0.1404	0.4202	-0.582
Mof_O 	O 	0.143	0.9478	0.5422	-0.705
Mof_O 	O 	0.151	0.0309	0.2364	-0.745
Mof_O 	O 	0.523	0.041	0.2368	-0.772
Mof_O 	O 	0.646	0.3669	0.3341	-0.793
Mof_O 	O 	0.654	0.8596	0.9202	-0.583
Mof_O 	O 	0.357	0.0522	0.0422	-0.698
Mof_O 	O 	0.349	0.9691	0.7364	-0.744
Mof_O 	O 	0.977	0.959	0.7368	-0.772
Mof_O 	O 	0.854	0.6331	0.8341	-0.793
Mof_O 	O 	0.154	0.6404	0.0798	-0.582
Mof_O 	O 	0.857	0.4478	0.9578	-0.709
Mof_O 	O 	0.849	0.5309	0.2636	-0.747
Mof_O 	O 	0.477	0.541	0.2632	-0.775
Mof_O 	O 	0.354	0.8669	0.1659	-0.792
Mof_O 	O 	0.346	0.3596	0.5798	-0.583
Mof_O 	O 	0.643	0.5522	0.4578	-0.707
Mof_O 	O 	0.651	0.4691	0.7636	-0.746
Mof_O 	O 	0.023	0.459	0.7632	-0.772
Mof_O 	O 	0.146	0.1331	0.6659	-0.792
_end
