# CIF file generated by openbabel 3.1.0, see https://openbabel.org
data_I
_chemical_name_common 'image0'
_cell_length_a 15.4556
_cell_length_b 18.3812
_cell_length_c 31.0901
_cell_angle_alpha 90
_cell_angle_beta 90
_cell_angle_gamma 90
_space_group_name_H-M_alt 'P 1'
_space_group_name_Hall 'P 1'
loop_
    _symmetry_equiv_pos_as_xyz
    x,y,z
loop_
    _atom_site_label
    _atom_site_type_symbol
    _atom_site_fract_x
    _atom_site_fract_y
    _atom_site_fract_z
    _atom_site_occupancy
    C1       C        0.68300    0.25757    0.18784    1.000
    C2       C        0.74860    0.25823    0.22390    1.000
    C3       C        0.77980    0.19310    0.24084    1.000
    H1       H        0.75790    0.14910    0.23080    1.000
    C4       C        0.84290    0.19323    0.27234    1.000
    H2       H        0.86310    0.14940    0.28330    1.000
    C5       C        0.87622    0.25854    0.28771    1.000
    C6       C        0.84390    0.32353    0.27144    1.000
    H3       H        0.86490    0.36750    0.28190    1.000
    C7       C        0.78070    0.32337    0.23988    1.000
    H4       H        0.75970    0.36730    0.22930    1.000
    C8       C        0.94770    0.25880    0.32039    1.000
    C9       C        0.69760    0.25250    0.06930    1.000
    C10      C        0.76620    0.25174    0.03516    1.000
    C11      C        0.80270    0.31600    0.02098    1.000
    H5       H        0.78480    0.36000    0.03280    1.000
    C12      C        0.86560    0.31537    0.98936    1.000
    H6       H        0.89000    0.35890    0.98020    1.000
    C13      C        0.89260    0.25016    0.97124    1.000
    C14      C        0.85560    0.18569    0.98558    1.000
    H7       H        0.87320    0.14160    0.97380    1.000
    C15      C        0.79300    0.18661    0.01716    1.000
    H8       H        0.76850    0.14310    0.02640    1.000
    C16      C        0.96010    0.24936    0.93647    1.000
    C17      C        0.59190    0.48620    0.15239    1.000
    H9       H        0.60360    0.46410    0.17870    1.000
    C18      C        0.59090    0.56073    0.15048    1.000
    H10      H        0.60130    0.58810    0.17510    1.000
    C19      C        0.57390    0.59558    0.11108    1.000
    C20      C        0.55980    0.55142    0.07573    1.000
    H11      H        0.54880    0.57190    0.04890    1.000
    C21      C        0.56220    0.47646    0.08059    1.000
    H12      H        0.55320    0.44750    0.05650    1.000
    C22      C        0.57200    0.67570    0.10921    1.000
    C23      C        0.51620    0.71523    0.08122    1.000
    C24      C        0.51480    0.79377    0.08200    1.000
    C25      C        0.57100    0.83333    0.10969    1.000
    C26      C        0.62520    0.79256    0.13494    1.000
    H13      H        0.66360    0.81650    0.15310    1.000
    C27      C        0.62510    0.71624    0.13466    1.000
    H14      H        0.66330    0.69210    0.15280    1.000
    C28      C        0.57230    0.91334    0.11254    1.000
    C29      C        0.64940    0.95130    0.11952    1.000
    H15      H        0.70170    0.92640    0.12060    1.000
    C30      C        0.64750    0.02530    0.12473    1.000
    H16      H        0.69950    0.04950    0.12920    1.000
    C31      C        0.50130    0.02874    0.11733    1.000
    H17      H        0.45000    0.05520    0.11710    1.000
    C32      C        0.49710    0.95447    0.11110    1.000
    H18      H        0.44410    0.93210    0.10600    1.000
    N1       N        0.57689    0.44389    0.11832    1.000
    N2       N        0.57518    0.06428    0.12372    1.000
    N3       N        0.46063    0.68690    0.05220    1.000
    N4       N        0.45811    0.82250    0.05369    1.000
    O1       O        0.65621    0.31784    0.17487    1.000
    O2       O        0.66241    0.19668    0.17289    1.000
    O3       O        0.97271    0.31909    0.33387    1.000
    O4       O        0.97839    0.19777    0.33034    1.000
    O5       O        0.67358    0.31319    0.08324    1.000
    O6       O        0.66778    0.19234    0.08122    1.000
    O7       O        0.98301    0.30988    0.92195    1.000
    O8       O        0.98962    0.18874    0.92560    1.000
    S1       S        0.41370    0.75477    0.02929    1.000
    Zn1      Zn       0.57349    0.33355    0.12421    1.000
    Zn2      Zn       0.57366    0.17462    0.12595    1.000
    C33      C        0.18300    0.24243    0.81216    1.000
    C34      C        0.24860    0.24177    0.77610    1.000
    C35      C        0.27980    0.30690    0.75916    1.000
    H19      H        0.25790    0.35090    0.76920    1.000
    C36      C        0.34290    0.30677    0.72766    1.000
    H20      H        0.36310    0.35060    0.71670    1.000
    C37      C        0.37622    0.24146    0.71229    1.000
    C38      C        0.34390    0.17647    0.72856    1.000
    H21      H        0.36490    0.13250    0.71810    1.000
    C39      C        0.28070    0.17663    0.76012    1.000
    H22      H        0.25970    0.13270    0.77070    1.000
    C40      C        0.44770    0.24120    0.67961    1.000
    C41      C        0.19760    0.24750    0.93070    1.000
    C42      C        0.26620    0.24826    0.96484    1.000
    C43      C        0.30270    0.18400    0.97902    1.000
    H23      H        0.28480    0.14000    0.96720    1.000
    C44      C        0.36560    0.18463    0.01064    1.000
    H24      H        0.39000    0.14110    0.01980    1.000
    C45      C        0.39260    0.24984    0.02876    1.000
    C46      C        0.35560    0.31431    0.01442    1.000
    H25      H        0.37320    0.35840    0.02620    1.000
    C47      C        0.29300    0.31339    0.98284    1.000
    H26      H        0.26850    0.35690    0.97360    1.000
    C48      C        0.46010    0.25064    0.06353    1.000
    C49      C        0.09190    0.01380    0.84761    1.000
    H27      H        0.10360    0.03590    0.82130    1.000
    C50      C        0.09090    0.93927    0.84952    1.000
    H28      H        0.10130    0.91190    0.82490    1.000
    C51      C        0.07390    0.90442    0.88892    1.000
    C52      C        0.05980    0.94858    0.92427    1.000
    H29      H        0.04880    0.92810    0.95110    1.000
    C53      C        0.06220    0.02354    0.91941    1.000
    H30      H        0.05320    0.05250    0.94350    1.000
    C54      C        0.07200    0.82430    0.89079    1.000
    C55      C        0.01620    0.78477    0.91878    1.000
    C56      C        0.01480    0.70623    0.91800    1.000
    C57      C        0.07100    0.66667    0.89031    1.000
    C58      C        0.12520    0.70744    0.86506    1.000
    H31      H        0.16360    0.68350    0.84690    1.000
    C59      C        0.12510    0.78376    0.86534    1.000
    H32      H        0.16330    0.80790    0.84720    1.000
    C60      C        0.07230    0.58666    0.88746    1.000
    C61      C        0.14940    0.54870    0.88048    1.000
    H33      H        0.20170    0.57360    0.87940    1.000
    C62      C        0.14750    0.47470    0.87527    1.000
    H34      H        0.19950    0.45050    0.87080    1.000
    C63      C        0.00130    0.47126    0.88267    1.000
    H35      H        0.95000    0.44480    0.88290    1.000
    C64      C        0.99710    0.54553    0.88890    1.000
    H36      H        0.94410    0.56790    0.89400    1.000
    N5       N        0.07689    0.05611    0.88168    1.000
    N6       N        0.07518    0.43572    0.87628    1.000
    N7       N        0.96063    0.81310    0.94780    1.000
    N8       N        0.95811    0.67750    0.94631    1.000
    O9       O        0.15621    0.18216    0.82513    1.000
    O10      O        0.16241    0.30332    0.82711    1.000
    O11      O        0.47271    0.18091    0.66613    1.000
    O12      O        0.47839    0.30223    0.66966    1.000
    O13      O        0.17358    0.18681    0.91676    1.000
    O14      O        0.16778    0.30766    0.91878    1.000
    O15      O        0.48301    0.19012    0.07805    1.000
    O16      O        0.48962    0.31126    0.07440    1.000
    S2       S        0.91370    0.74523    0.97071    1.000
    Zn3      Zn       0.07349    0.16645    0.87579    1.000
    Zn4      Zn       0.07366    0.32538    0.87405    1.000
    C65      C        0.18300    0.25757    0.31216    1.000
    C66      C        0.24860    0.25823    0.27610    1.000
    C67      C        0.27980    0.19310    0.25916    1.000
    H37      H        0.25790    0.14910    0.26920    1.000
    C68      C        0.34290    0.19323    0.22766    1.000
    H38      H        0.36310    0.14940    0.21670    1.000
    C69      C        0.37622    0.25854    0.21229    1.000
    C70      C        0.34390    0.32353    0.22856    1.000
    H39      H        0.36490    0.36750    0.21810    1.000
    C71      C        0.28070    0.32337    0.26012    1.000
    H40      H        0.25970    0.36730    0.27070    1.000
    C72      C        0.44770    0.25880    0.17961    1.000
    C73      C        0.19760    0.25250    0.43070    1.000
    C74      C        0.26620    0.25174    0.46484    1.000
    C75      C        0.30270    0.31600    0.47902    1.000
    H41      H        0.28480    0.36000    0.46720    1.000
    C76      C        0.36560    0.31537    0.51064    1.000
    H42      H        0.39000    0.35890    0.51980    1.000
    C77      C        0.39260    0.25016    0.52876    1.000
    C78      C        0.35560    0.18569    0.51442    1.000
    H43      H        0.37320    0.14160    0.52620    1.000
    C79      C        0.29300    0.18661    0.48284    1.000
    H44      H        0.26850    0.14310    0.47360    1.000
    C80      C        0.46010    0.24936    0.56353    1.000
    C81      C        0.09190    0.48620    0.34761    1.000
    H45      H        0.10360    0.46410    0.32130    1.000
    C82      C        0.09090    0.56073    0.34952    1.000
    H46      H        0.10130    0.58810    0.32490    1.000
    C83      C        0.07390    0.59558    0.38892    1.000
    C84      C        0.05980    0.55142    0.42427    1.000
    H47      H        0.04880    0.57190    0.45110    1.000
    C85      C        0.06220    0.47646    0.41941    1.000
    H48      H        0.05320    0.44750    0.44350    1.000
    C86      C        0.07200    0.67570    0.39079    1.000
    C87      C        0.01620    0.71523    0.41878    1.000
    C88      C        0.01480    0.79377    0.41800    1.000
    C89      C        0.07100    0.83333    0.39031    1.000
    C90      C        0.12520    0.79256    0.36506    1.000
    H49      H        0.16360    0.81650    0.34690    1.000
    C91      C        0.12510    0.71624    0.36534    1.000
    H50      H        0.16330    0.69210    0.34720    1.000
    C92      C        0.07230    0.91334    0.38746    1.000
    C93      C        0.14940    0.95130    0.38048    1.000
    H51      H        0.20170    0.92640    0.37940    1.000
    C94      C        0.14750    0.02530    0.37527    1.000
    H52      H        0.19950    0.04950    0.37080    1.000
    C95      C        0.00130    0.02874    0.38267    1.000
    H53      H        0.95000    0.05520    0.38290    1.000
    C96      C        0.99710    0.95447    0.38890    1.000
    H54      H        0.94410    0.93210    0.39400    1.000
    N9       N        0.07689    0.44389    0.38168    1.000
    N10      N        0.07518    0.06428    0.37628    1.000
    N11      N        0.96063    0.68690    0.44780    1.000
    N12      N        0.95811    0.82250    0.44631    1.000
    O17      O        0.15621    0.31784    0.32513    1.000
    O18      O        0.16241    0.19668    0.32711    1.000
    O19      O        0.47271    0.31909    0.16613    1.000
    O20      O        0.47839    0.19777    0.16966    1.000
    O21      O        0.17358    0.31319    0.41676    1.000
    O22      O        0.16778    0.19234    0.41878    1.000
    O23      O        0.48301    0.30988    0.57805    1.000
    O24      O        0.48962    0.18874    0.57440    1.000
    S3       S        0.91370    0.75477    0.47071    1.000
    Zn5      Zn       0.07349    0.33355    0.37579    1.000
    Zn6      Zn       0.07366    0.17462    0.37405    1.000
    C97      C        0.68300    0.24243    0.68784    1.000
    C98      C        0.74860    0.24177    0.72390    1.000
    C99      C        0.77980    0.30690    0.74084    1.000
    H55      H        0.75790    0.35090    0.73080    1.000
    C100     C        0.84290    0.30677    0.77234    1.000
    H56      H        0.86310    0.35060    0.78330    1.000
    C101     C        0.87622    0.24146    0.78771    1.000
    C102     C        0.84390    0.17647    0.77144    1.000
    H57      H        0.86490    0.13250    0.78190    1.000
    C103     C        0.78070    0.17663    0.73988    1.000
    H58      H        0.75970    0.13270    0.72930    1.000
    C104     C        0.94770    0.24120    0.82039    1.000
    C105     C        0.69760    0.24750    0.56930    1.000
    C106     C        0.76620    0.24826    0.53516    1.000
    C107     C        0.80270    0.18400    0.52098    1.000
    H59      H        0.78480    0.14000    0.53280    1.000
    C108     C        0.86560    0.18463    0.48936    1.000
    H60      H        0.89000    0.14110    0.48020    1.000
    C109     C        0.89260    0.24984    0.47124    1.000
    C110     C        0.85560    0.31431    0.48558    1.000
    H61      H        0.87320    0.35840    0.47380    1.000
    C111     C        0.79300    0.31339    0.51716    1.000
    H62      H        0.76850    0.35690    0.52640    1.000
    C112     C        0.96010    0.25064    0.43647    1.000
    C113     C        0.59190    0.01380    0.65239    1.000
    H63      H        0.60360    0.03590    0.67870    1.000
    C114     C        0.59090    0.93927    0.65048    1.000
    H64      H        0.60130    0.91190    0.67510    1.000
    C115     C        0.57390    0.90442    0.61108    1.000
    C116     C        0.55980    0.94858    0.57573    1.000
    H65      H        0.54880    0.92810    0.54890    1.000
    C117     C        0.56220    0.02354    0.58059    1.000
    H66      H        0.55320    0.05250    0.55650    1.000
    C118     C        0.57200    0.82430    0.60921    1.000
    C119     C        0.51620    0.78477    0.58122    1.000
    C120     C        0.51480    0.70623    0.58200    1.000
    C121     C        0.57100    0.66667    0.60969    1.000
    C122     C        0.62520    0.70744    0.63494    1.000
    H67      H        0.66360    0.68350    0.65310    1.000
    C123     C        0.62510    0.78376    0.63466    1.000
    H68      H        0.66330    0.80790    0.65280    1.000
    C124     C        0.57230    0.58666    0.61254    1.000
    C125     C        0.64940    0.54870    0.61952    1.000
    H69      H        0.70170    0.57360    0.62060    1.000
    C126     C        0.64750    0.47470    0.62473    1.000
    H70      H        0.69950    0.45050    0.62920    1.000
    C127     C        0.50130    0.47126    0.61733    1.000
    H71      H        0.45000    0.44480    0.61710    1.000
    C128     C        0.49710    0.54553    0.61110    1.000
    H72      H        0.44410    0.56790    0.60600    1.000
    N13      N        0.57689    0.05611    0.61832    1.000
    N14      N        0.57518    0.43572    0.62372    1.000
    N15      N        0.46063    0.81310    0.55220    1.000
    N16      N        0.45811    0.67750    0.55369    1.000
    O25      O        0.65621    0.18216    0.67487    1.000
    O26      O        0.66241    0.30332    0.67289    1.000
    O27      O        0.97271    0.18091    0.83387    1.000
    O28      O        0.97839    0.30223    0.83034    1.000
    O29      O        0.67358    0.18681    0.58324    1.000
    O30      O        0.66778    0.30766    0.58122    1.000
    O31      O        0.98301    0.19012    0.42195    1.000
    O32      O        0.98962    0.31126    0.42560    1.000
    S4       S        0.41370    0.74523    0.52929    1.000
    Zn7      Zn       0.57349    0.16645    0.62421    1.000
    Zn8      Zn       0.57366    0.32538    0.62595    1.000
    C129     C        0.81700    0.74243    0.68784    1.000
    C130     C        0.75140    0.74177    0.72390    1.000
    C131     C        0.72020    0.80690    0.74084    1.000
    H73      H        0.74210    0.85090    0.73080    1.000
    C132     C        0.65710    0.80677    0.77234    1.000
    H74      H        0.63690    0.85060    0.78330    1.000
    C133     C        0.62378    0.74146    0.78771    1.000
    C134     C        0.65610    0.67647    0.77144    1.000
    H75      H        0.63510    0.63250    0.78190    1.000
    C135     C        0.71930    0.67663    0.73988    1.000
    H76      H        0.74030    0.63270    0.72930    1.000
    C136     C        0.55230    0.74120    0.82039    1.000
    C137     C        0.80240    0.74750    0.56930    1.000
    C138     C        0.73380    0.74826    0.53516    1.000
    C139     C        0.69730    0.68400    0.52098    1.000
    H77      H        0.71520    0.64000    0.53280    1.000
    C140     C        0.63440    0.68463    0.48936    1.000
    H78      H        0.61000    0.64110    0.48020    1.000
    C141     C        0.60740    0.74984    0.47124    1.000
    C142     C        0.64440    0.81431    0.48558    1.000
    H79      H        0.62680    0.85840    0.47380    1.000
    C143     C        0.70700    0.81339    0.51716    1.000
    H80      H        0.73150    0.85690    0.52640    1.000
    C144     C        0.53990    0.75064    0.43647    1.000
    C145     C        0.90810    0.51380    0.65239    1.000
    H81      H        0.89640    0.53590    0.67870    1.000
    C146     C        0.90910    0.43927    0.65048    1.000
    H82      H        0.89870    0.41190    0.67510    1.000
    C147     C        0.92610    0.40442    0.61108    1.000
    C148     C        0.94020    0.44858    0.57573    1.000
    H83      H        0.95120    0.42810    0.54890    1.000
    C149     C        0.93780    0.52354    0.58059    1.000
    H84      H        0.94680    0.55250    0.55650    1.000
    C150     C        0.92800    0.32430    0.60921    1.000
    C151     C        0.98380    0.28477    0.58122    1.000
    C152     C        0.98520    0.20623    0.58200    1.000
    C153     C        0.92900    0.16667    0.60969    1.000
    C154     C        0.87480    0.20744    0.63494    1.000
    H85      H        0.83640    0.18350    0.65310    1.000
    C155     C        0.87490    0.28376    0.63466    1.000
    H86      H        0.83670    0.30790    0.65280    1.000
    C156     C        0.92770    0.08666    0.61254    1.000
    C157     C        0.85060    0.04870    0.61952    1.000
    H87      H        0.79830    0.07360    0.62060    1.000
    C158     C        0.85250    0.97470    0.62473    1.000
    H88      H        0.80050    0.95050    0.62920    1.000
    C159     C        0.99870    0.97126    0.61733    1.000
    H89      H        0.05000    0.94480    0.61710    1.000
    C160     C        0.00290    0.04553    0.61110    1.000
    H90      H        0.05590    0.06790    0.60600    1.000
    N17      N        0.92311    0.55611    0.61832    1.000
    N18      N        0.92482    0.93572    0.62372    1.000
    N19      N        0.03937    0.31310    0.55220    1.000
    N20      N        0.04189    0.17750    0.55369    1.000
    O33      O        0.84379    0.68216    0.67487    1.000
    O34      O        0.83759    0.80332    0.67289    1.000
    O35      O        0.52729    0.68091    0.83387    1.000
    O36      O        0.52161    0.80223    0.83034    1.000
    O37      O        0.82642    0.68681    0.58324    1.000
    O38      O        0.83222    0.80766    0.58122    1.000
    O39      O        0.51699    0.69012    0.42195    1.000
    O40      O        0.51038    0.81126    0.42560    1.000
    S5       S        0.08630    0.24523    0.52929    1.000
    Zn9      Zn       0.92651    0.66645    0.62421    1.000
    Zn10     Zn       0.92634    0.82538    0.62595    1.000
    C161     C        0.31700    0.75757    0.31216    1.000
    C162     C        0.25140    0.75823    0.27610    1.000
    C163     C        0.22020    0.69310    0.25916    1.000
    H91      H        0.24210    0.64910    0.26920    1.000
    C164     C        0.15710    0.69323    0.22766    1.000
    H92      H        0.13690    0.64940    0.21670    1.000
    C165     C        0.12378    0.75854    0.21229    1.000
    C166     C        0.15610    0.82353    0.22856    1.000
    H93      H        0.13510    0.86750    0.21810    1.000
    C167     C        0.21930    0.82337    0.26012    1.000
    H94      H        0.24030    0.86730    0.27070    1.000
    C168     C        0.05230    0.75880    0.17961    1.000
    C169     C        0.30240    0.75250    0.43070    1.000
    C170     C        0.23380    0.75174    0.46484    1.000
    C171     C        0.19730    0.81600    0.47902    1.000
    H95      H        0.21520    0.86000    0.46720    1.000
    C172     C        0.13440    0.81537    0.51064    1.000
    H96      H        0.11000    0.85890    0.51980    1.000
    C173     C        0.10740    0.75016    0.52876    1.000
    C174     C        0.14440    0.68569    0.51442    1.000
    H97      H        0.12680    0.64160    0.52620    1.000
    C175     C        0.20700    0.68661    0.48284    1.000
    H98      H        0.23150    0.64310    0.47360    1.000
    C176     C        0.03990    0.74936    0.56353    1.000
    C177     C        0.40810    0.98620    0.34761    1.000
    H99      H        0.39640    0.96410    0.32130    1.000
    C178     C        0.40910    0.06073    0.34952    1.000
    H100     H        0.39870    0.08810    0.32490    1.000
    C179     C        0.42610    0.09558    0.38892    1.000
    C180     C        0.44020    0.05142    0.42427    1.000
    H101     H        0.45120    0.07190    0.45110    1.000
    C181     C        0.43780    0.97646    0.41941    1.000
    H102     H        0.44680    0.94750    0.44350    1.000
    C182     C        0.42800    0.17570    0.39079    1.000
    C183     C        0.48380    0.21523    0.41878    1.000
    C184     C        0.48520    0.29377    0.41800    1.000
    C185     C        0.42900    0.33333    0.39031    1.000
    C186     C        0.37480    0.29256    0.36506    1.000
    H103     H        0.33640    0.31650    0.34690    1.000
    C187     C        0.37490    0.21624    0.36534    1.000
    H104     H        0.33670    0.19210    0.34720    1.000
    C188     C        0.42770    0.41334    0.38746    1.000
    C189     C        0.35060    0.45130    0.38048    1.000
    H105     H        0.29830    0.42640    0.37940    1.000
    C190     C        0.35250    0.52530    0.37527    1.000
    H106     H        0.30050    0.54950    0.37080    1.000
    C191     C        0.49870    0.52874    0.38267    1.000
    H107     H        0.55000    0.55520    0.38290    1.000
    C192     C        0.50290    0.45447    0.38890    1.000
    H108     H        0.55590    0.43210    0.39400    1.000
    N21      N        0.42311    0.94389    0.38168    1.000
    N22      N        0.42482    0.56428    0.37628    1.000
    N23      N        0.53937    0.18690    0.44780    1.000
    N24      N        0.54189    0.32250    0.44631    1.000
    O41      O        0.34379    0.81784    0.32513    1.000
    O42      O        0.33759    0.69668    0.32711    1.000
    O43      O        0.02729    0.81909    0.16613    1.000
    O44      O        0.02161    0.69777    0.16966    1.000
    O45      O        0.32642    0.81319    0.41676    1.000
    O46      O        0.33222    0.69234    0.41878    1.000
    O47      O        0.01699    0.80988    0.57805    1.000
    O48      O        0.01038    0.68874    0.57440    1.000
    S6       S        0.58630    0.25477    0.47071    1.000
    Zn11     Zn       0.42651    0.83355    0.37579    1.000
    Zn12     Zn       0.42634    0.67462    0.37405    1.000
    C193     C        0.31700    0.74243    0.81216    1.000
    C194     C        0.25140    0.74177    0.77610    1.000
    C195     C        0.22020    0.80690    0.75916    1.000
    H109     H        0.24210    0.85090    0.76920    1.000
    C196     C        0.15710    0.80677    0.72766    1.000
    H110     H        0.13690    0.85060    0.71670    1.000
    C197     C        0.12378    0.74146    0.71229    1.000
    C198     C        0.15610    0.67647    0.72856    1.000
    H111     H        0.13510    0.63250    0.71810    1.000
    C199     C        0.21930    0.67663    0.76012    1.000
    H112     H        0.24030    0.63270    0.77070    1.000
    C200     C        0.05230    0.74120    0.67961    1.000
    C201     C        0.30240    0.74750    0.93070    1.000
    C202     C        0.23380    0.74826    0.96484    1.000
    C203     C        0.19730    0.68400    0.97902    1.000
    H113     H        0.21520    0.64000    0.96720    1.000
    C204     C        0.13440    0.68463    0.01064    1.000
    H114     H        0.11000    0.64110    0.01980    1.000
    C205     C        0.10740    0.74984    0.02876    1.000
    C206     C        0.14440    0.81431    0.01442    1.000
    H115     H        0.12680    0.85840    0.02620    1.000
    C207     C        0.20700    0.81339    0.98284    1.000
    H116     H        0.23150    0.85690    0.97360    1.000
    C208     C        0.03990    0.75064    0.06353    1.000
    C209     C        0.40810    0.51380    0.84761    1.000
    H117     H        0.39640    0.53590    0.82130    1.000
    C210     C        0.40910    0.43927    0.84952    1.000
    H118     H        0.39870    0.41190    0.82490    1.000
    C211     C        0.42610    0.40442    0.88892    1.000
    C212     C        0.44020    0.44858    0.92427    1.000
    H119     H        0.45120    0.42810    0.95110    1.000
    C213     C        0.43780    0.52354    0.91941    1.000
    H120     H        0.44680    0.55250    0.94350    1.000
    C214     C        0.42800    0.32430    0.89079    1.000
    C215     C        0.48380    0.28477    0.91878    1.000
    C216     C        0.48520    0.20623    0.91800    1.000
    C217     C        0.42900    0.16667    0.89031    1.000
    C218     C        0.37480    0.20744    0.86506    1.000
    H121     H        0.33640    0.18350    0.84690    1.000
    C219     C        0.37490    0.28376    0.86534    1.000
    H122     H        0.33670    0.30790    0.84720    1.000
    C220     C        0.42770    0.08666    0.88746    1.000
    C221     C        0.35060    0.04870    0.88048    1.000
    H123     H        0.29830    0.07360    0.87940    1.000
    C222     C        0.35250    0.97470    0.87527    1.000
    H124     H        0.30050    0.95050    0.87080    1.000
    C223     C        0.49870    0.97126    0.88267    1.000
    H125     H        0.55000    0.94480    0.88290    1.000
    C224     C        0.50290    0.04553    0.88890    1.000
    H126     H        0.55590    0.06790    0.89400    1.000
    N25      N        0.42311    0.55611    0.88168    1.000
    N26      N        0.42482    0.93572    0.87628    1.000
    N27      N        0.53937    0.31310    0.94780    1.000
    N28      N        0.54189    0.17750    0.94631    1.000
    O49      O        0.34379    0.68216    0.82513    1.000
    O50      O        0.33759    0.80332    0.82711    1.000
    O51      O        0.02729    0.68091    0.66613    1.000
    O52      O        0.02161    0.80223    0.66966    1.000
    O53      O        0.32642    0.68681    0.91676    1.000
    O54      O        0.33222    0.80766    0.91878    1.000
    O55      O        0.01699    0.69012    0.07805    1.000
    O56      O        0.01038    0.81126    0.07440    1.000
    S7       S        0.58630    0.24523    0.97071    1.000
    Zn13     Zn       0.42651    0.66645    0.87579    1.000
    Zn14     Zn       0.42634    0.82538    0.87405    1.000
    C225     C        0.81700    0.75757    0.18784    1.000
    C226     C        0.75140    0.75823    0.22390    1.000
    C227     C        0.72020    0.69310    0.24084    1.000
    H127     H        0.74210    0.64910    0.23080    1.000
    C228     C        0.65710    0.69323    0.27234    1.000
    H128     H        0.63690    0.64940    0.28330    1.000
    C229     C        0.62378    0.75854    0.28771    1.000
    C230     C        0.65610    0.82353    0.27144    1.000
    H129     H        0.63510    0.86750    0.28190    1.000
    C231     C        0.71930    0.82337    0.23988    1.000
    H130     H        0.74030    0.86730    0.22930    1.000
    C232     C        0.55230    0.75880    0.32039    1.000
    C233     C        0.80240    0.75250    0.06930    1.000
    C234     C        0.73380    0.75174    0.03516    1.000
    C235     C        0.69730    0.81600    0.02098    1.000
    H131     H        0.71520    0.86000    0.03280    1.000
    C236     C        0.63440    0.81537    0.98936    1.000
    H132     H        0.61000    0.85890    0.98020    1.000
    C237     C        0.60740    0.75016    0.97124    1.000
    C238     C        0.64440    0.68569    0.98558    1.000
    H133     H        0.62680    0.64160    0.97380    1.000
    C239     C        0.70700    0.68661    0.01716    1.000
    H134     H        0.73150    0.64310    0.02640    1.000
    C240     C        0.53990    0.74936    0.93647    1.000
    C241     C        0.90810    0.98620    0.15239    1.000
    H135     H        0.89640    0.96410    0.17870    1.000
    C242     C        0.90910    0.06073    0.15048    1.000
    H136     H        0.89870    0.08810    0.17510    1.000
    C243     C        0.92610    0.09558    0.11108    1.000
    C244     C        0.94020    0.05142    0.07573    1.000
    H137     H        0.95120    0.07190    0.04890    1.000
    C245     C        0.93780    0.97646    0.08059    1.000
    H138     H        0.94680    0.94750    0.05650    1.000
    C246     C        0.92800    0.17570    0.10921    1.000
    C247     C        0.98380    0.21523    0.08122    1.000
    C248     C        0.98520    0.29377    0.08200    1.000
    C249     C        0.92900    0.33333    0.10969    1.000
    C250     C        0.87480    0.29256    0.13494    1.000
    H139     H        0.83640    0.31650    0.15310    1.000
    C251     C        0.87490    0.21624    0.13466    1.000
    H140     H        0.83670    0.19210    0.15280    1.000
    C252     C        0.92770    0.41334    0.11254    1.000
    C253     C        0.85060    0.45130    0.11952    1.000
    H141     H        0.79830    0.42640    0.12060    1.000
    C254     C        0.85250    0.52530    0.12473    1.000
    H142     H        0.80050    0.54950    0.12920    1.000
    C255     C        0.99870    0.52874    0.11733    1.000
    H143     H        0.05000    0.55520    0.11710    1.000
    C256     C        0.00290    0.45447    0.11110    1.000
    H144     H        0.05590    0.43210    0.10600    1.000
    N29      N        0.92311    0.94389    0.11832    1.000
    N30      N        0.92482    0.56428    0.12372    1.000
    N31      N        0.03937    0.18690    0.05220    1.000
    N32      N        0.04189    0.32250    0.05369    1.000
    O57      O        0.84379    0.81784    0.17487    1.000
    O58      O        0.83759    0.69668    0.17289    1.000
    O59      O        0.52729    0.81909    0.33387    1.000
    O60      O        0.52161    0.69777    0.33034    1.000
    O61      O        0.82642    0.81319    0.08324    1.000
    O62      O        0.83222    0.69234    0.08122    1.000
    O63      O        0.51699    0.80988    0.92195    1.000
    O64      O        0.51038    0.68874    0.92560    1.000
    S8       S        0.08630    0.25477    0.02929    1.000
    Zn15     Zn       0.92651    0.83355    0.12421    1.000
    Zn16     Zn       0.92634    0.67462    0.12595    1.000
