data_functionalizedCrystal
_audit_creation_method	'EQeq! by Chris Wilmer'
_symmetry_space_group_name_H-M	'P1'
_symmetry_Int_Tables_number	1
_symmetry_cell_setting	triclinic
loop_
_symmetry_equiv_pos_as_xyz
  x,y,z
_cell_length_a	14.2241
_cell_length_b	13.4911
_cell_length_c	13.9998
_cell_angle_alpha	90
_cell_angle_beta	90.169
_cell_angle_gamma	90
loop_
_atom_site_label
_atom_site_type_symbol
_atom_site_fract_x
_atom_site_fract_y
_atom_site_fract_z
_atom_site_charge
Mof_Zn	Zn	0.9776	0.2349	0.1259	1.261
Mof_Zn	Zn	0.875	0.6326	0.2214	1.24
Mof_P 	P 	0.9728	0.7531	0.3924	0.699
Mof_P 	P 	0.8572	0.1149	0.2772	0.568
Mof_O 	O 	0.9206	0.1416	0.3605	-0.436
Mof_O 	O 	0.8672	0.1906	0.1969	-0.446
Mof_O 	O 	0.9333	0.7578	0.4938	-0.391
Mof_O 	O 	0.0047	0.3708	0.1597	-0.486
Mof_O 	O 	0.0535	0.6772	0.3886	-0.539
Mof_O 	O 	0.0881	0.498	0.2511	-0.451
Mof_O 	O 	0.8929	0.7233	0.3272	-0.469
Mof_O 	O 	0.7551	0.1144	0.3107	-0.418
Mof_O 	O 	0.1161	0.0107	0.2565	-0.465
Mof_O 	O 	0.0095	0.8554	0.3659	-0.541
Mof_Zn	Zn	0.4776	0.7349	0.1259	1.232
Mof_Zn	Zn	0.375	0.1326	0.2214	1.235
Mof_P 	P 	0.4728	0.2531	0.3924	0.564
Mof_P 	P 	0.3572	0.6149	0.2772	0.569
Mof_O 	O 	0.4206	0.6416	0.3605	-0.479
Mof_O 	O 	0.3672	0.6906	0.1969	-0.468
Mof_O 	O 	0.4333	0.2578	0.4938	-0.409
Mof_O 	O 	0.5047	0.8708	0.1597	-0.452
Mof_O 	O 	0.5535	0.1772	0.3886	-0.461
Mof_O 	O 	0.5881	0.998	0.2511	-0.446
Mof_O 	O 	0.3929	0.2233	0.3272	-0.472
Mof_O 	O 	0.2551	0.6144	0.3107	-0.426
Mof_O 	O 	0.6161	0.5107	0.2565	-0.444
Mof_O 	O 	0.5095	0.3554	0.3659	-0.452
Mof_Zn	Zn	0.0224	0.2349	0.3741	1.199
Mof_Zn	Zn	0.125	0.6326	0.2786	1.23
Mof_P 	P 	0.0272	0.7531	0.1076	0.431
Mof_P 	P 	0.1428	0.1149	0.2228	0.569
Mof_O 	O 	0.0794	0.1416	0.1395	-0.517
Mof_O 	O 	0.1328	0.1906	0.3031	-0.485
Mof_O 	O 	0.0667	0.7578	0.0062	-0.422
Mof_O 	O 	0.9953	0.3708	0.3403	-0.348
Mof_O 	O 	0.9465	0.6772	0.1114	-0.385
Mof_O 	O 	0.9119	0.498	0.2489	-0.376
Mof_O 	O 	0.1071	0.7233	0.1728	-0.47
Mof_O 	O 	0.2449	0.1144	0.1893	-0.425
Mof_O 	O 	0.8839	0.0107	0.2435	-0.415
Mof_O 	O 	0.9905	0.8554	0.1341	-0.353
Mof_Zn	Zn	0.5224	0.7349	0.3741	1.231
Mof_Zn	Zn	0.625	0.1326	0.2786	1.236
Mof_P 	P 	0.5272	0.2531	0.1076	0.564
Mof_P 	P 	0.6428	0.6149	0.2228	0.57
Mof_O 	O 	0.5794	0.6416	0.1395	-0.477
Mof_O 	O 	0.6328	0.6906	0.3031	-0.465
Mof_O 	O 	0.5667	0.2578	0.0062	-0.406
Mof_O 	O 	0.4953	0.8708	0.3403	-0.453
Mof_O 	O 	0.4465	0.1772	0.1114	-0.463
Mof_O 	O 	0.4119	0.998	0.2489	-0.449
Mof_O 	O 	0.6071	0.2233	0.1728	-0.468
Mof_O 	O 	0.7449	0.6144	0.1893	-0.418
Mof_O 	O 	0.3839	0.5107	0.2435	-0.448
Mof_O 	O 	0.4905	0.3554	0.1341	-0.453
Mof_Zn	Zn	0.0224	0.7651	0.8741	1.198
Mof_Zn	Zn	0.125	0.3674	0.7786	1.229
Mof_P 	P 	0.0272	0.2469	0.6076	0.426
Mof_P 	P 	0.1428	0.8851	0.7228	0.569
Mof_O 	O 	0.0794	0.8584	0.6395	-0.52
Mof_O 	O 	0.1328	0.8094	0.8031	-0.487
Mof_O 	O 	0.0667	0.2422	0.5062	-0.424
Mof_O 	O 	0.9953	0.6292	0.8403	-0.346
Mof_O 	O 	0.9465	0.3228	0.6114	-0.382
Mof_O 	O 	0.9119	0.502	0.7489	-0.374
Mof_O 	O 	0.1071	0.2767	0.6728	-0.47
Mof_O 	O 	0.2449	0.8856	0.6893	-0.425
Mof_O 	O 	0.8839	0.9893	0.7435	-0.414
Mof_O 	O 	0.9905	0.1446	0.6341	-0.349
Mof_Zn	Zn	0.5224	0.2651	0.8741	1.231
Mof_Zn	Zn	0.625	0.8674	0.7786	1.236
Mof_P 	P 	0.5272	0.7469	0.6076	0.564
Mof_P 	P 	0.6428	0.3851	0.7228	0.57
Mof_O 	O 	0.5794	0.3584	0.6395	-0.477
Mof_O 	O 	0.6328	0.3094	0.8031	-0.465
Mof_O 	O 	0.5667	0.7422	0.5062	-0.406
Mof_O 	O 	0.4953	0.1292	0.8403	-0.454
Mof_O 	O 	0.4465	0.8228	0.6114	-0.464
Mof_O 	O 	0.4119	0.002	0.7489	-0.449
Mof_O 	O 	0.6071	0.7767	0.6728	-0.468
Mof_O 	O 	0.7449	0.3856	0.6893	-0.418
Mof_O 	O 	0.3839	0.4893	0.7435	-0.448
Mof_O 	O 	0.4905	0.6446	0.6341	-0.453
Mof_Zn	Zn	0.9776	0.7651	0.6259	1.263
Mof_Zn	Zn	0.875	0.3674	0.7214	1.241
Mof_P 	P 	0.9728	0.2469	0.8924	0.703
Mof_P 	P 	0.8572	0.8851	0.7772	0.569
Mof_O 	O 	0.9206	0.8584	0.8605	-0.435
Mof_O 	O 	0.8672	0.8094	0.6969	-0.446
Mof_O 	O 	0.9333	0.2422	0.9938	-0.393
Mof_O 	O 	0.0047	0.6292	0.6597	-0.488
Mof_O 	O 	0.0535	0.3228	0.8886	-0.542
Mof_O 	O 	0.0881	0.502	0.7511	-0.451
Mof_O 	O 	0.8929	0.2767	0.8272	-0.469
Mof_O 	O 	0.7551	0.8856	0.8107	-0.419
Mof_O 	O 	0.1161	0.9893	0.7565	-0.467
Mof_O 	O 	0.0095	0.1446	0.8659	-0.544
Mof_Zn	Zn	0.4776	0.2651	0.6259	1.231
Mof_Zn	Zn	0.375	0.8674	0.7214	1.235
Mof_P 	P 	0.4728	0.7469	0.8924	0.564
Mof_P 	P 	0.3572	0.3851	0.7772	0.569
Mof_O 	O 	0.4206	0.3584	0.8605	-0.481
Mof_O 	O 	0.3672	0.3094	0.6969	-0.469
Mof_O 	O 	0.4333	0.7422	0.9938	-0.412
Mof_O 	O 	0.5047	0.1292	0.6597	-0.453
Mof_O 	O 	0.5535	0.8228	0.8886	-0.462
Mof_O 	O 	0.5881	0.002	0.7511	-0.447
Mof_O 	O 	0.3929	0.7767	0.8272	-0.473
Mof_O 	O 	0.2551	0.3856	0.8107	-0.427
Mof_O 	O 	0.6161	0.4893	0.7565	-0.444
Mof_O 	O 	0.5095	0.6446	0.8659	-0.453
Mof_Zn	Zn	-8.2651e-20	0.9347	0.25	1.205
Mof_P 	P 	-1.65302e-19	0.4335	0.25	0.444
Mof_Zn	Zn	0.5	0.4347	0.25	1.235
Mof_P 	P 	0.5	0.9335	0.25	0.578
Mof_Zn	Zn	2.77587e-33	0.0653	0.75	1.204
Mof_P 	P 	-3.30604e-19	0.5665	0.75	0.44
Mof_Zn	Zn	0.5	0.5653	0.75	1.235
Mof_P 	P 	0.5	0.0665	0.75	0.578
_end
