data_functionalizedCrystal
_audit_creation_method	'EQeq! by Chris Wilmer'
_symmetry_space_group_name_H-M	'P1'
_symmetry_Int_Tables_number	1
_symmetry_cell_setting	triclinic
loop_
_symmetry_equiv_pos_as_xyz
  x,y,z
_cell_length_a	10.445
_cell_length_b	11.119
_cell_length_c	12.43
_cell_angle_alpha	103.726
_cell_angle_beta	106.487
_cell_angle_gamma	98.395
loop_
_atom_site_label
_atom_site_type_symbol
_atom_site_fract_x
_atom_site_fract_y
_atom_site_fract_z
_atom_site_charge
Mof_Ce	Ce	0.09465	0.04501	0.68386	2.302
Mof_Ce	Ce	0.90535	0.95499	0.31614	2.302
Mof_H 	H 	0.0073	0.652	0.6687	0.057
Mof_H 	H 	0.3906	0.058	0.6365	0.026
Mof_H 	H 	0.9269	0.6196	0.2886	0.262
Mof_H 	H 	0.1791	0.434	0.9564	0.256
Mof_H 	H 	0.9927	0.348	0.3313	0.058
Mof_H 	H 	0.6094	0.942	0.3635	0.027
Mof_H 	H 	0.0731	0.3804	0.7114	0.262
Mof_H 	H 	0.8209	0.566	0.0436	0.256
Mof_C 	C 	0.2055	0.96	0.4252	0.452
Mof_C 	C 	0.9449	0.7463	0.4918	0.49
Mof_C 	C 	0.0042	0.5897	0.6002	-0.068
Mof_C 	C 	0.4242	0.9477	0.3808	0.164
Mof_C 	C 	0.5395	0.3971	0.9391	0.018
Mof_C 	C 	0.3621	0.4938	0.9891	0.19
Mof_C 	C 	0.357	0.9811	0.4625	-0.156
Mof_C 	C 	0.9678	0.527	0.3915	0.226
Mof_C 	C 	0.4001	0.3904	0.9282	-0.15
Mof_C 	C 	0.9716	0.6167	0.4934	-0.192
Mof_C 	C 	0.2952	0.2715	0.8534	0.342
Mof_C 	C 	0.4355	0.0339	0.5808	-0.053
Mof_C 	C 	0.7945	0.04	0.5748	0.452
Mof_C 	C 	0.0551	0.2537	0.5082	0.49
Mof_C 	C 	0.9958	0.4103	0.3998	-0.068
Mof_C 	C 	0.5758	0.0523	0.6192	0.164
Mof_C 	C 	0.4605	0.6029	0.0609	0.018
Mof_C 	C 	0.6379	0.5062	0.0109	0.19
Mof_C 	C 	0.643	0.0189	0.5375	-0.156
Mof_C 	C 	0.0322	0.473	0.6085	0.226
Mof_C 	C 	0.5999	0.6096	0.0718	-0.15
Mof_C 	C 	0.0284	0.3833	0.5066	-0.192
Mof_C 	C 	0.7048	0.7285	0.1466	0.342
Mof_C 	C 	0.5645	0.9661	0.4192	-0.053
Mof_O 	O 	0.9612	0.826	0.5876	-0.589
Mof_O 	O 	0.9077	0.7666	0.3923	-0.533
Mof_O 	O 	0.1715	0.2609	0.8509	-0.463
Mof_O 	O 	0.3327	0.1837	0.7925	-0.482
Mof_O 	O 	0.1455	0.9805	0.5004	-0.641
Mof_O 	O 	0.1377	0.9207	0.3159	-0.489
Mof_O 	O 	0.3562	0.8971	0.2632	-0.188
Mof_O 	O 	0.9379	0.5453	0.2835	-0.403
Mof_O 	O 	0.2334	0.5059	0.9863	-0.379
Mof_O 	O 	0.0388	0.174	0.4124	-0.589
Mof_O 	O 	0.0923	0.2334	0.6077	-0.533
Mof_O 	O 	0.8285	0.7391	0.1491	-0.463
Mof_O 	O 	0.6673	0.8163	0.2075	-0.482
Mof_O 	O 	0.8545	0.0195	0.4996	-0.641
Mof_O 	O 	0.8623	0.0793	0.6841	-0.489
Mof_O 	O 	0.6438	0.1029	0.7368	-0.188
Mof_O 	O 	0.0621	0.4547	0.7165	-0.403
Mof_O 	O 	0.7666	0.4941	0.0137	-0.379
_end
