data_functionalizedCrystal
_audit_creation_method	'EQeq! by Chris Wilmer'
_symmetry_space_group_name_H-M	'P1'
_symmetry_Int_Tables_number	1
_symmetry_cell_setting	triclinic
loop_
_symmetry_equiv_pos_as_xyz
  x,y,z
_cell_length_a	12.345
_cell_length_b	33.257
_cell_length_c	12.934
_cell_angle_alpha	90
_cell_angle_beta	96.66
_cell_angle_gamma	90
loop_
_atom_site_label
_atom_site_type_symbol
_atom_site_fract_x
_atom_site_fract_y
_atom_site_fract_z
_atom_site_charge
Mof_N 	N 	0.6242	0.7932	0.7571	-0.177
Mof_C 	C 	0.5765	0.8248	0.7214	0.21
Mof_N 	N 	0.5543	0.78503	0.8406	-0.1
Mof_C 	C 	0.4856	0.8385	0.7639	-0.187
Mof_C 	C 	0.627	0.8452	0.624	-0.521
Mof_C 	C 	0.4735	0.81235	0.8355	0.074
Mof_C 	C 	0.4134	0.8751	0.7349	0.217
Mof_H 	H 	0.6661	0.8248	0.5881	0.158
Mof_H 	H 	0.6776	0.8667	0.6493	0.179
Mof_H 	H 	0.5679	0.8565	0.5755	0.177
Mof_C 	C 	0.4421	0.91	0.7613	-0.284
Mof_C 	C 	0.3072	0.8727	0.6914	-0.231
Mof_C 	C 	0.3896	0.9449	0.7218	0.18
Mof_H 	H 	0.504	0.913	0.8117	0.117
Mof_C 	C 	0.2417	0.9076	0.6589	0.149
Mof_H 	H 	0.2747	0.8469	0.6822	0.102
Mof_C 	C 	0.2923	0.94326	0.6697	-0.254
Mof_H 	H 	0.425	0.9702	0.733	-0.027
Mof_H 	H 	0.1671	0.9054	0.6315	-0.014
Mof_C 	C 	0.2342	0.97965	0.6263	0.439
Mof_O 	O 	0.2807	0.01361	0.648	-0.416
Mof_O 	O 	0.147	0.97536	0.5718	-0.421
Mof_Mn	Mn	0.2074	0.06858	0.59737	0.887
Mof_N 	N 	0.3641	0.10194	0.6163	-0.19
Mof_N 	N 	0.2032	0.08749	0.7671	-0.185
Mof_O 	O 	0.0341	0.05547	0.5953	-0.485
Mof_O 	O 	0.2097	0.06721	0.4355	-0.427
Mof_O 	O 	0.0712	0.02699	0.3775	-0.427
Mof_N 	N 	0.3856	0.1327	0.6856	-0.139
Mof_C 	C 	0.4616	0.09013	0.5911	0.277
Mof_N 	N 	0.2549	0.12204	0.804	-0.139
Mof_C 	C 	0.1728	0.06835	0.849	0.295
Mof_C 	C 	0.9981	0.09152	0.593	0.444
Mof_C 	C 	0.2943	0.1494	0.7312	0.025
Mof_C 	C 	0.4935	0.14037	0.7028	0.262
Mof_C 	C 	0.5451	0.11371	0.6433	-0.265
Mof_C 	C 	0.4702	0.0557	0.5184	-0.651
Mof_C 	C 	0.2592	0.1242	0.9091	0.286
Mof_C 	C 	0.2083	0.09038	0.9415	-0.298
Mof_C 	C 	0.1154	0.02934	0.8378	-0.658
Mof_O 	O 	0.0615	0.12068	0.5791	-0.365
Mof_C 	C 	0.8832	0.09862	0.61	-0.198
Mof_H 	H 	0.3169	0.1748	0.7673	0.011
Mof_H 	H 	0.2348	0.1556	0.6755	0.027
Mof_C 	C 	0.542	0.1717	0.7767	-0.607
Mof_C 	C 	0.6628	0.10953	0.6358	0.198
Mof_H 	H 	0.4725	0.0304	0.5575	0.208
Mof_H 	H 	0.5371	0.0584	0.4848	0.213
Mof_H 	H 	0.4069	0.0556	0.4652	0.214
Mof_C 	C 	0.3132	0.1583	0.9709	-0.651
Mof_C 	C 	0.1908	0.08012	0.0485	0.277
Mof_H 	H 	0.0486	0.0323	0.7896	0.211
Mof_H 	H 	0.0968	0.0206	0.9059	0.202
Mof_H 	H 	0.1629	0.0093	0.8105	0.212
Mof_C 	C 	0.8208	0.06673	0.6434	0.135
Mof_C 	C 	0.8353	0.13591	0.5941	0.126
Mof_H 	H 	0.507	0.1977	0.7592	0.187
Mof_H 	H 	0.6204	0.1739	0.7715	0.199
Mof_H 	H 	0.5306	0.1642	0.8479	0.192
Mof_C 	C 	0.7146	0.07253	0.656	-0.226
Mof_C 	C 	0.7257	0.14157	0.6083	-0.219
Mof_H 	H 	0.3924	0.1564	0.9712	0.206
Mof_H 	H 	0.2949	0.157	0.0426	0.221
Mof_H 	H 	0.2876	0.1839	0.9394	0.218
Mof_C 	C 	0.0865	0.0675	0.0725	-0.181
Mof_C 	C 	0.2765	0.0834	0.1261	-0.157
Mof_H 	H 	0.8533	0.0411	0.6572	-0.006
Mof_H 	H 	0.877	0.1579	0.5734	0.004
Mof_H 	H 	0.6739	0.0507	0.6793	0.1
Mof_H 	H 	0.694	0.1675	0.5991	0.098
Mof_H 	H 	0.0264	0.0662	0.0197	0.073
Mof_C 	C 	0.0741	0.0572	0.175	0.09
Mof_C 	C 	0.2629	0.0723	0.2281	0.08
Mof_H 	H 	0.3451	0.0932	0.1104	0.072
Mof_C 	C 	0.1635	0.06111	0.2556	-0.259
Mof_H 	H 	0.0058	0.0475	0.1916	-0.013
Mof_H 	H 	0.3243	0.0726	0.2797	-0.007
Mof_C 	C 	0.1468	0.05075	0.3646	0.442
Mof_C 	C 	0.2045	0.0401	0.0903	-0.173
Mof_H 	H 	0.2248	0.0189	0.0471	0.074
Mof_C 	C 	0.1653	0.1014	0.2258	0.1
Mof_H 	H 	0.1606	0.1222	0.2754	-0.015
Mof_C 	C 	0.1884	0.0319	0.1935	0.102
Mof_H 	H 	0.1954	0.0051	0.2191	-0.017
Mof_C 	C 	0.174	0.1104	0.1237	-0.169
Mof_H 	H 	0.1689	0.1377	0.1021	0.081
Mof_N 	N 	0.3758	0.2932	0.2429	-0.175
Mof_C 	C 	0.4235	0.3248	0.2786	0.209
Mof_N 	N 	0.4457	0.28503	0.1594	-0.1
Mof_C 	C 	0.5144	0.3385	0.2361	-0.185
Mof_C 	C 	0.373	0.3452	0.376	-0.518
Mof_C 	C 	0.5265	0.31235	0.1645	0.081
Mof_C 	C 	0.5866	0.3751	0.2651	0.215
Mof_H 	H 	0.3339	0.3248	0.4119	0.156
Mof_H 	H 	0.3224	0.3667	0.3507	0.177
Mof_H 	H 	0.4321	0.3565	0.4245	0.176
Mof_C 	C 	0.5579	0.41	0.2387	-0.277
Mof_C 	C 	0.6928	0.3727	0.3086	-0.223
Mof_C 	C 	0.6104	0.4449	0.2782	0.173
Mof_H 	H 	0.496	0.413	0.1883	0.115
Mof_C 	C 	0.7583	0.4076	0.3411	0.144
Mof_H 	H 	0.7253	0.3469	0.3178	0.108
Mof_C 	C 	0.7077	0.44326	0.3303	-0.242
Mof_H 	H 	0.575	0.4702	0.267	-0.027
Mof_H 	H 	0.8329	0.4054	0.3685	0.001
Mof_C 	C 	0.7658	0.47965	0.3737	0.423
Mof_O 	O 	0.7193	0.51361	0.352	-0.407
Mof_O 	O 	0.853	0.47536	0.4282	-0.405
Mof_Mn	Mn	0.7926	0.56858	0.40263	0.887
Mof_N 	N 	0.6359	0.60194	0.3837	-0.19
Mof_N 	N 	0.7968	0.58749	0.2329	-0.186
Mof_O 	O 	0.9659	0.55547	0.4047	-0.384
Mof_O 	O 	0.7903	0.56721	0.5645	-0.422
Mof_O 	O 	0.9288	0.52699	0.6225	-0.395
Mof_N 	N 	0.6144	0.6327	0.3144	-0.138
Mof_C 	C 	0.5384	0.59013	0.4089	0.274
Mof_N 	N 	0.7451	0.62204	0.196	-0.136
Mof_C 	C 	0.8272	0.56835	0.151	0.318
Mof_C 	C 	0.0019	0.59152	0.407	0.256
Mof_C 	C 	0.7057	0.6494	0.2688	0.023
Mof_C 	C 	0.5065	0.64037	0.2972	0.255
Mof_C 	C 	0.4549	0.61371	0.3567	-0.256
Mof_C 	C 	0.5298	0.5557	0.4816	-0.651
Mof_C 	C 	0.7408	0.6242	0.0909	0.288
Mof_C 	C 	0.7917	0.59038	0.0585	-0.296
Mof_C 	C 	0.8846	0.52934	0.1622	-0.715
Mof_O 	O 	0.9385	0.62068	0.4209	-0.269
Mof_C 	C 	0.1168	0.59862	0.39	-0.137
Mof_H 	H 	0.6831	0.6748	0.2327	0.014
Mof_H 	H 	0.7652	0.6556	0.3245	0.031
Mof_C 	C 	0.458	0.6717	0.2233	-0.595
Mof_C 	C 	0.3372	0.60953	0.3642	0.174
Mof_H 	H 	0.5275	0.5304	0.4425	0.21
Mof_H 	H 	0.4629	0.5584	0.5152	0.214
Mof_H 	H 	0.5931	0.5556	0.5348	0.215
Mof_C 	C 	0.6868	0.6583	0.0291	-0.642
Mof_C 	C 	0.8092	0.58012	0.9515	0.271
Mof_H 	H 	0.9514	0.5323	0.2104	0.251
Mof_H 	H 	0.9032	0.5206	0.0941	0.236
Mof_H 	H 	0.8371	0.5093	0.1895	0.239
Mof_C 	C 	0.1792	0.56673	0.3566	0.084
Mof_C 	C 	0.1647	0.63591	0.4059	0.076
Mof_H 	H 	0.493	0.6977	0.2408	0.182
Mof_H 	H 	0.3796	0.6739	0.2285	0.19
Mof_H 	H 	0.4694	0.6642	0.1521	0.186
Mof_C 	C 	0.2854	0.57253	0.344	-0.195
Mof_C 	C 	0.2743	0.64157	0.3917	-0.192
Mof_H 	H 	0.6076	0.6564	0.0288	0.204
Mof_H 	H 	0.7051	0.657	0.9574	0.218
Mof_H 	H 	0.7124	0.6839	0.0606	0.22
Mof_C 	C 	0.9135	0.5675	0.9275	-0.173
Mof_C 	C 	0.7235	0.5834	0.8739	-0.154
Mof_H 	H 	0.1467	0.5411	0.3428	0.001
Mof_H 	H 	0.123	0.6579	0.4266	0.002
Mof_H 	H 	0.3261	0.5507	0.3207	0.091
Mof_H 	H 	0.306	0.6675	0.4009	0.084
Mof_H 	H 	0.9736	0.5662	0.9803	0.087
Mof_C 	C 	0.9259	0.5572	0.825	0.088
Mof_C 	C 	0.7371	0.5723	0.7719	0.073
Mof_H 	H 	0.6549	0.5932	0.8896	0.07
Mof_C 	C 	0.8365	0.56111	0.7444	-0.247
Mof_H 	H 	0.9942	0.5475	0.8084	0.014
Mof_H 	H 	0.6757	0.5726	0.7203	-0.004
Mof_C 	C 	0.8532	0.55075	0.6354	0.437
Mof_C 	C 	0.7955	0.5401	0.9097	-0.168
Mof_H 	H 	0.7752	0.5189	0.9529	0.077
Mof_C 	C 	0.8347	0.6014	0.7742	0.1
Mof_H 	H 	0.8394	0.6222	0.7246	-0.008
Mof_C 	C 	0.8116	0.5319	0.8065	0.1
Mof_H 	H 	0.8046	0.5051	0.7809	-0.007
Mof_C 	C 	0.826	0.6104	0.8763	-0.164
Mof_H 	H 	0.8311	0.6377	0.8979	0.084
Mof_N 	N 	0.3758	0.2068	0.2429	-0.175
Mof_C 	C 	0.4235	0.1752	0.2786	0.209
Mof_N 	N 	0.4457	0.21497	0.1594	-0.099
Mof_C 	C 	0.5144	0.1615	0.2361	-0.185
Mof_C 	C 	0.373	0.1548	0.376	-0.518
Mof_C 	C 	0.5265	0.18765	0.1645	0.081
Mof_C 	C 	0.5866	0.1249	0.2651	0.213
Mof_H 	H 	0.3339	0.1752	0.4119	0.156
Mof_H 	H 	0.3224	0.1333	0.3507	0.177
Mof_H 	H 	0.4321	0.1435	0.4245	0.176
Mof_C 	C 	0.5579	0.09	0.2387	-0.275
Mof_C 	C 	0.6928	0.1273	0.3086	-0.221
Mof_C 	C 	0.6104	0.0551	0.2782	0.169
Mof_H 	H 	0.496	0.087	0.1883	0.114
Mof_C 	C 	0.7583	0.0924	0.3411	0.141
Mof_H 	H 	0.7253	0.1531	0.3178	0.108
Mof_C 	C 	0.7077	0.05674	0.3303	-0.238
Mof_H 	H 	0.575	0.0298	0.267	-0.028
Mof_H 	H 	0.8329	0.0946	0.3685	0.002
Mof_C 	C 	0.7658	0.02035	0.3737	0.411
Mof_O 	O 	0.7193	0.98639	0.352	-0.398
Mof_O 	O 	0.853	0.02464	0.4282	-0.403
Mof_Mn	Mn	0.7926	0.93142	0.40263	0.888
Mof_N 	N 	0.6359	0.89806	0.3837	-0.19
Mof_N 	N 	0.7968	0.91251	0.2329	-0.186
Mof_O 	O 	0.9659	0.94453	0.4047	-0.381
Mof_O 	O 	0.7903	0.93279	0.5645	-0.421
Mof_O 	O 	0.9288	0.97301	0.6225	-0.389
Mof_N 	N 	0.6144	0.8673	0.3144	-0.138
Mof_C 	C 	0.5384	0.90987	0.4089	0.276
Mof_N 	N 	0.7451	0.87796	0.196	-0.136
Mof_C 	C 	0.8272	0.93165	0.151	0.321
Mof_C 	C 	0.0019	0.90848	0.407	0.254
Mof_C 	C 	0.7057	0.8506	0.2688	0.024
Mof_C 	C 	0.5065	0.85963	0.2972	0.255
Mof_C 	C 	0.4549	0.88629	0.3567	-0.256
Mof_C 	C 	0.5298	0.9443	0.4816	-0.656
Mof_C 	C 	0.7408	0.8758	0.0909	0.288
Mof_C 	C 	0.7917	0.90962	0.0585	-0.296
Mof_C 	C 	0.8846	0.97066	0.1622	-0.722
Mof_O 	O 	0.9385	0.87932	0.4209	-0.269
Mof_C 	C 	0.1168	0.90138	0.39	-0.136
Mof_H 	H 	0.6831	0.8252	0.2327	0.014
Mof_H 	H 	0.7652	0.8444	0.3245	0.031
Mof_C 	C 	0.458	0.8283	0.2233	-0.595
Mof_C 	C 	0.3372	0.89047	0.3642	0.174
Mof_H 	H 	0.5275	0.9696	0.4425	0.214
Mof_H 	H 	0.4629	0.9416	0.5152	0.216
Mof_H 	H 	0.5931	0.9444	0.5348	0.217
Mof_C 	C 	0.6868	0.8417	0.0291	-0.642
Mof_C 	C 	0.8092	0.91988	0.9515	0.271
Mof_H 	H 	0.9514	0.9677	0.2104	0.255
Mof_H 	H 	0.9032	0.9794	0.0941	0.24
Mof_H 	H 	0.8371	0.9907	0.1895	0.244
Mof_C 	C 	0.1792	0.93327	0.3566	0.083
Mof_C 	C 	0.1647	0.86409	0.4059	0.075
Mof_H 	H 	0.493	0.8023	0.2408	0.182
Mof_H 	H 	0.3796	0.8261	0.2285	0.19
Mof_H 	H 	0.4694	0.8358	0.1521	0.187
Mof_C 	C 	0.2854	0.92747	0.344	-0.195
Mof_C 	C 	0.2743	0.85843	0.3917	-0.192
Mof_H 	H 	0.6076	0.8436	0.0288	0.205
Mof_H 	H 	0.7051	0.843	0.9574	0.218
Mof_H 	H 	0.7124	0.8161	0.0606	0.22
Mof_C 	C 	0.9135	0.9325	0.9275	-0.172
Mof_C 	C 	0.7235	0.9166	0.8739	-0.153
Mof_H 	H 	0.1467	0.9589	0.3428	0.004
Mof_H 	H 	0.123	0.8421	0.4266	0.002
Mof_H 	H 	0.3261	0.9493	0.3207	0.092
Mof_H 	H 	0.306	0.8325	0.4009	0.084
Mof_H 	H 	0.9736	0.9338	0.9803	0.088
Mof_C 	C 	0.9259	0.9428	0.825	0.088
Mof_C 	C 	0.7371	0.9277	0.7719	0.073
Mof_H 	H 	0.6549	0.9068	0.8896	0.07
Mof_C 	C 	0.8365	0.93889	0.7444	-0.245
Mof_H 	H 	0.9942	0.9525	0.8084	0.015
Mof_H 	H 	0.6757	0.9274	0.7203	-0.004
Mof_C 	C 	0.8532	0.94925	0.6354	0.435
Mof_C 	C 	0.7955	0.9599	0.9097	-0.167
Mof_H 	H 	0.7752	0.9811	0.9529	0.079
Mof_C 	C 	0.8347	0.8986	0.7742	0.099
Mof_H 	H 	0.8394	0.8778	0.7246	-0.008
Mof_C 	C 	0.8116	0.9681	0.8065	0.099
Mof_H 	H 	0.8046	0.9949	0.7809	-0.003
Mof_C 	C 	0.826	0.8896	0.8763	-0.164
Mof_H 	H 	0.8311	0.8623	0.8979	0.084
Mof_N 	N 	0.6242	0.7068	0.7571	-0.176
Mof_C 	C 	0.5765	0.6752	0.7214	0.21
Mof_N 	N 	0.5543	0.71497	0.8406	-0.099
Mof_C 	C 	0.4856	0.6615	0.7639	-0.186
Mof_C 	C 	0.627	0.6548	0.624	-0.521
Mof_C 	C 	0.4735	0.68765	0.8355	0.074
Mof_C 	C 	0.4134	0.6249	0.7349	0.216
Mof_H 	H 	0.6661	0.6752	0.5881	0.158
Mof_H 	H 	0.6776	0.6333	0.6493	0.179
Mof_H 	H 	0.5679	0.6435	0.5755	0.177
Mof_C 	C 	0.4421	0.59	0.7613	-0.282
Mof_C 	C 	0.3072	0.6273	0.6914	-0.23
Mof_C 	C 	0.3896	0.5551	0.7218	0.177
Mof_H 	H 	0.504	0.587	0.8117	0.116
Mof_C 	C 	0.2417	0.5924	0.6589	0.147
Mof_H 	H 	0.2747	0.6531	0.6822	0.101
Mof_C 	C 	0.2923	0.55674	0.6697	-0.251
Mof_H 	H 	0.425	0.5298	0.733	-0.029
Mof_H 	H 	0.1671	0.5946	0.6315	-0.014
Mof_C 	C 	0.2342	0.52035	0.6263	0.429
Mof_O 	O 	0.2807	0.48639	0.648	-0.408
Mof_O 	O 	0.147	0.52464	0.5718	-0.423
Mof_Mn	Mn	0.2074	0.43142	0.59737	0.887
Mof_N 	N 	0.3641	0.39806	0.6163	-0.191
Mof_N 	N 	0.2032	0.41251	0.7671	-0.185
Mof_O 	O 	0.0341	0.44453	0.5953	-0.485
Mof_O 	O 	0.2097	0.43279	0.4355	-0.427
Mof_O 	O 	0.0712	0.47301	0.3775	-0.426
Mof_N 	N 	0.3856	0.3673	0.6856	-0.139
Mof_C 	C 	0.4616	0.40987	0.5911	0.279
Mof_N 	N 	0.2549	0.37796	0.804	-0.139
Mof_C 	C 	0.1728	0.43165	0.849	0.298
Mof_C 	C 	0.9981	0.40848	0.593	0.445
Mof_C 	C 	0.2943	0.3506	0.7312	0.025
Mof_C 	C 	0.4935	0.35963	0.7028	0.263
Mof_C 	C 	0.5451	0.38629	0.6433	-0.266
Mof_C 	C 	0.4702	0.4443	0.5184	-0.656
Mof_C 	C 	0.2592	0.3758	0.9091	0.287
Mof_C 	C 	0.2083	0.40962	0.9415	-0.299
Mof_C 	C 	0.1154	0.47066	0.8378	-0.665
Mof_O 	O 	0.0615	0.37932	0.5791	-0.366
Mof_C 	C 	0.8832	0.40138	0.61	-0.198
Mof_H 	H 	0.3169	0.3252	0.7673	0.011
Mof_H 	H 	0.2348	0.3444	0.6755	0.027
Mof_C 	C 	0.542	0.3283	0.7767	-0.608
Mof_C 	C 	0.6628	0.39047	0.6358	0.199
Mof_H 	H 	0.4725	0.4696	0.5575	0.212
Mof_H 	H 	0.5371	0.4416	0.4848	0.215
Mof_H 	H 	0.4069	0.4444	0.4652	0.216
Mof_C 	C 	0.3132	0.3417	0.9709	-0.652
Mof_C 	C 	0.1908	0.41988	0.0485	0.278
Mof_H 	H 	0.0486	0.4677	0.7896	0.214
Mof_H 	H 	0.0968	0.4794	0.9059	0.205
Mof_H 	H 	0.1629	0.4907	0.8105	0.216
Mof_C 	C 	0.8208	0.43327	0.6434	0.136
Mof_C 	C 	0.8353	0.36409	0.5941	0.126
Mof_H 	H 	0.507	0.3023	0.7592	0.187
Mof_H 	H 	0.6204	0.3261	0.7715	0.199
Mof_H 	H 	0.5306	0.3358	0.8479	0.192
Mof_C 	C 	0.7146	0.42747	0.656	-0.226
Mof_C 	C 	0.7257	0.35843	0.6083	-0.22
Mof_H 	H 	0.3924	0.3436	0.9712	0.207
Mof_H 	H 	0.2949	0.343	0.0426	0.222
Mof_H 	H 	0.2876	0.3161	0.9394	0.219
Mof_C 	C 	0.0865	0.4325	0.0725	-0.181
Mof_C 	C 	0.2765	0.4166	0.1261	-0.158
Mof_H 	H 	0.8533	0.4589	0.6572	-0.004
Mof_H 	H 	0.877	0.3421	0.5734	0.003
Mof_H 	H 	0.6739	0.4493	0.6793	0.102
Mof_H 	H 	0.694	0.3325	0.5991	0.098
Mof_H 	H 	0.0264	0.4338	0.0197	0.074
Mof_C 	C 	0.0741	0.4428	0.175	0.091
Mof_C 	C 	0.2629	0.4277	0.2281	0.08
Mof_H 	H 	0.3451	0.4068	0.1104	0.072
Mof_C 	C 	0.1635	0.43889	0.2556	-0.258
Mof_H 	H 	0.0058	0.4525	0.1916	-0.012
Mof_H 	H 	0.3243	0.4274	0.2797	-0.006
Mof_C 	C 	0.1468	0.44925	0.3646	0.443
Mof_C 	C 	0.2045	0.4599	0.0903	-0.172
Mof_H 	H 	0.2248	0.4811	0.0471	0.075
Mof_C 	C 	0.1653	0.3986	0.2258	0.1
Mof_H 	H 	0.1606	0.3778	0.2754	-0.015
Mof_C 	C 	0.1884	0.4681	0.1935	0.102
Mof_H 	H 	0.1954	0.4949	0.2191	-0.014
Mof_C 	C 	0.174	0.3896	0.1237	-0.169
Mof_H 	H 	0.1689	0.3623	0.1021	0.081
Mof_Fe	Fe	0.7527	0.75	0.7241	0.546
Mof_Cl	Cl	0.8545	0.75	0.9036	-0.408
Mof_C 	C 	0.5693	0.75	0.9135	-0.02
Mof_H 	H 	0.514	0.75	0.9631	0.024
Mof_H 	H 	0.643	0.75	0.9529	0.047
Mof_Fe	Fe	0.2473	0.25	0.2759	0.533
Mof_Cl	Cl	0.1455	0.25	0.0964	-0.428
Mof_C 	C 	0.4307	0.25	0.0865	-0.019
Mof_H 	H 	0.486	0.25	0.0369	0.027
Mof_H 	H 	0.357	0.25	0.0471	0.048
Mof_Mn	Mn	1.07774e-17	2.39306e-33	0.5	0.979
Mof_Mn	Mn	2.19194e-33	0.5	0.5	0.991
_end
