# CIF file generated by openbabel 3.1.0, see https://openbabel.org
data_I
_chemical_name_common 'image0'
_cell_length_a 9.6103
_cell_length_b 9.6103
_cell_length_c 6.9723
_cell_angle_alpha 90
_cell_angle_beta 90
_cell_angle_gamma 120
_space_group_name_H-M_alt 'P 1'
_space_group_name_Hall 'P 1'
loop_
    _symmetry_equiv_pos_as_xyz
    x,y,z
loop_
    _atom_site_label
    _atom_site_type_symbol
    _atom_site_fract_x
    _atom_site_fract_y
    _atom_site_fract_z
    _atom_site_occupancy
    Ni1      Ni       0.00000    0.00000    0.00000    1.000
    N1       N        0.00000    0.00000    0.30050    1.000
    N2       N        0.00000    0.00000    0.69950    1.000
    O1       O        0.76290    0.00000    0.00000    1.000
    O2       O        0.00000    0.76290    0.00000    1.000
    O3       O        0.23710    0.23710    0.00000    1.000
    O4       O        0.23710    0.00000    0.00000    1.000
    O5       O        0.00000    0.23710    0.00000    1.000
    O6       O        0.76290    0.76290    0.00000    1.000
    C1       C        0.74670    0.25330    0.00000    1.000
    C2       C        0.82960    0.17040    0.00000    1.000
    O7       O        0.88190    0.11810    0.00000    1.000
    C3       C        0.74670    0.49340    0.00000    1.000
    C4       C        0.82960    0.65920    0.00000    1.000
    O8       O        0.88190    0.76380    0.00000    1.000
    C5       C        0.50660    0.25330    0.00000    1.000
    C6       C        0.34080    0.17040    0.00000    1.000
    O9       O        0.23620    0.11810    0.00000    1.000
    C7       C        0.25330    0.74670    0.00000    1.000
    C8       C        0.17040    0.82960    0.00000    1.000
    O10      O        0.11810    0.88190    0.00000    1.000
    C9       C        0.25330    0.50660    0.00000    1.000
    C10      C        0.17040    0.34080    0.00000    1.000
    O11      O        0.11810    0.23620    0.00000    1.000
    C11      C        0.49340    0.74670    0.00000    1.000
    C12      C        0.65920    0.82960    0.00000    1.000
    O12      O        0.76380    0.88190    0.00000    1.000
    C13      C        0.58240    0.16480    0.00000    1.000
    H1       H        0.52535    0.05070    0.00000    1.000
    C14      C        0.83520    0.41760    0.00000    1.000
    H2       H        0.94930    0.47465    0.00000    1.000
    C15      C        0.58240    0.41760    0.00000    1.000
    H3       H        0.52535    0.47465    0.00000    1.000
    C16      C        0.41760    0.83520    0.00000    1.000
    H4       H        0.47465    0.94930    0.00000    1.000
    C17      C        0.16480    0.58240    0.00000    1.000
    H5       H        0.05070    0.52535    0.00000    1.000
    C18      C        0.41760    0.58240    0.00000    1.000
    H6       H        0.47465    0.52535    0.00000    1.000
    C19      C        0.06950    0.13900    0.40100    1.000
    C20      C        0.86100    0.93050    0.40100    1.000
    C21      C        0.06950    0.93050    0.40100    1.000
    C22      C        0.93050    0.86100    0.40100    1.000
    C23      C        0.13900    0.06950    0.40100    1.000
    C24      C        0.93050    0.06950    0.40100    1.000
    C25      C        0.13900    0.06950    0.59900    1.000
    C26      C        0.93050    0.86100    0.59900    1.000
    C27      C        0.93050    0.06950    0.59900    1.000
    C28      C        0.86100    0.93050    0.59900    1.000
    C29      C        0.06950    0.13900    0.59900    1.000
    C30      C        0.06950    0.93050    0.59900    1.000
    C31      C        0.65730    0.18520    0.00000    1.000
    C32      C        0.71970    0.07020    0.00000    1.000
    C33      C        0.81480    0.47210    0.00000    1.000
    C34      C        0.92980    0.64950    0.00000    1.000
    C35      C        0.52790    0.34270    0.00000    1.000
    C36      C        0.35050    0.28030    0.00000    1.000
    C37      C        0.34270    0.81480    0.00000    1.000
    C38      C        0.28030    0.92980    0.00000    1.000
    C39      C        0.18520    0.52790    0.00000    1.000
    C40      C        0.07020    0.35050    0.00000    1.000
    C41      C        0.47210    0.65730    0.00000    1.000
    C42      C        0.64950    0.71970    0.00000    1.000
    C43      C        0.18520    0.65730    0.00000    1.000
    C44      C        0.07020    0.71970    0.00000    1.000
    C45      C        0.47210    0.81480    0.00000    1.000
    C46      C        0.64950    0.92980    0.00000    1.000
    C47      C        0.34270    0.52790    0.00000    1.000
    C48      C        0.28030    0.35050    0.00000    1.000
    C49      C        0.81480    0.34270    0.00000    1.000
    C50      C        0.92980    0.28030    0.00000    1.000
    C51      C        0.52790    0.18520    0.00000    1.000
    C52      C        0.35050    0.07020    0.00000    1.000
    C53      C        0.65730    0.47210    0.00000    1.000
    C54      C        0.71970    0.64950    0.00000    1.000
    C55      C        0.11800    0.11800    0.40100    1.000
    C56      C        0.88200    0.00000    0.40100    1.000
    C57      C        0.00000    0.88200    0.40100    1.000
    C58      C        0.88200    0.88200    0.40100    1.000
    C59      C        0.11800    0.00000    0.40100    1.000
    C60      C        0.00000    0.11800    0.40100    1.000
    C61      C        0.11800    0.11800    0.59900    1.000
    C62      C        0.00000    0.88200    0.59900    1.000
    C63      C        0.88200    0.00000    0.59900    1.000
    C64      C        0.88200    0.88200    0.59900    1.000
    C65      C        0.00000    0.11800    0.59900    1.000
    C66      C        0.11800    0.00000    0.59900    1.000
