# CIF file generated by openbabel 3.1.0, see https://openbabel.org
data_I
_chemical_name_common 'image0'
_cell_length_a 5.04
_cell_length_b 22.738
_cell_length_c 9.2968
_cell_angle_alpha 90
_cell_angle_beta 103.8
_cell_angle_gamma 90
_space_group_name_H-M_alt 'P 1'
_space_group_name_Hall 'P 1'
loop_
    _symmetry_equiv_pos_as_xyz
    x,y,z
loop_
    _atom_site_label
    _atom_site_type_symbol
    _atom_site_fract_x
    _atom_site_fract_y
    _atom_site_fract_z
    _atom_site_occupancy
    Ga1      Ga       0.81950    0.21119    0.74583    1.000
    Ga2      Ga       0.17960    0.06307    0.60166    1.000
    Ga3      Ga       0.93190    0.92714    0.01698    1.000
    Ga4      Ga       0.57130    0.07737    0.15127    1.000
    P1       P        0.35000    0.15500    0.87770    1.000
    P2       P        0.11610    0.01690    0.26910    1.000
    P3       P        0.40520    0.98278    0.87700    1.000
    P4       P        0.31700    0.83047    0.13620    1.000
    P5       P        0.63140    0.12765    0.48410    1.000
    O1       O        0.76490    0.18660    0.55610    1.000
    O2       O        0.28210    0.78900    0.25990    1.000
    O3       O        0.17960    0.21400    0.85150    1.000
    O4       O        0.63460    0.16740    0.85370    1.000
    O5       O        0.18920    0.11050    0.77800    1.000
    O6       O        0.80170    0.07510    0.54810    1.000
    O7       O        0.35190    0.00090    0.71340    1.000
    O8       O        0.13820    0.00980    0.43460    1.000
    O9       O        0.34600    0.12310    0.51470    1.000
    O10      O        0.03460    0.85060    0.04390    1.000
    O11      O        0.58860    0.92820    0.89720    1.000
    O12      O        0.12920    0.96790    0.90730    1.000
    O13      O        0.97300    0.96170    0.19810    1.000
    O14      O        0.38610    0.14150    0.04280    1.000
    O15      O        0.55280    0.03210    0.97620    1.000
    O16      O        0.60950    0.13670    0.31980    1.000
    O17      O        0.40330    0.02300    0.24350    1.000
    O18      O        0.95270    0.07270    0.20460    1.000
    O19      O        0.42510    0.79280    0.01920    1.000
    O20      O        0.50430    0.88020    0.19720    1.000
    Ga5      Ga       0.18050    0.71119    0.25417    1.000
    Ga6      Ga       0.82040    0.56307    0.39834    1.000
    Ga7      Ga       0.06810    0.42714    0.98302    1.000
    Ga8      Ga       0.42870    0.57737    0.84873    1.000
    P6       P        0.65000    0.65500    0.12230    1.000
    P7       P        0.88390    0.51690    0.73090    1.000
    P8       P        0.59480    0.48278    0.12300    1.000
    P9       P        0.68300    0.33047    0.86380    1.000
    P10      P        0.36860    0.62765    0.51590    1.000
    O21      O        0.23510    0.68660    0.44390    1.000
    O22      O        0.71790    0.28900    0.74010    1.000
    O23      O        0.82040    0.71400    0.14850    1.000
    O24      O        0.36540    0.66740    0.14630    1.000
    O25      O        0.81080    0.61050    0.22200    1.000
    O26      O        0.19830    0.57510    0.45190    1.000
    O27      O        0.64810    0.50090    0.28660    1.000
    O28      O        0.86180    0.50980    0.56540    1.000
    O29      O        0.65400    0.62310    0.48530    1.000
    O30      O        0.96540    0.35060    0.95610    1.000
    O31      O        0.41140    0.42820    0.10280    1.000
    O32      O        0.87080    0.46790    0.09270    1.000
    O33      O        0.02700    0.46170    0.80190    1.000
    O34      O        0.61390    0.64150    0.95720    1.000
    O35      O        0.44720    0.53210    0.02380    1.000
    O36      O        0.39050    0.63670    0.68020    1.000
    O37      O        0.59670    0.52300    0.75650    1.000
    O38      O        0.04730    0.57270    0.79540    1.000
    O39      O        0.57490    0.29280    0.98080    1.000
    O40      O        0.49570    0.38020    0.80280    1.000
