data_functionalizedCrystal
_audit_creation_method	'EQeq! by Chris Wilmer'
_symmetry_space_group_name_H-M	'P1'
_symmetry_Int_Tables_number	1
_symmetry_cell_setting	triclinic
loop_
_symmetry_equiv_pos_as_xyz
  x,y,z
_cell_length_a	9.636
_cell_length_b	9.885
_cell_length_c	24.555
_cell_angle_alpha	90
_cell_angle_beta	111.479
_cell_angle_gamma	90
loop_
_atom_site_label
_atom_site_type_symbol
_atom_site_fract_x
_atom_site_fract_y
_atom_site_fract_z
_atom_site_charge
Mof_Cu	Cu	0.20261	0.45791	0.75854	0.915
Mof_C 	C 	0.4012	0.5863	0.87191	0.124
Mof_H 	H 	0.4429	0.5033	0.8871	0.055
Mof_C 	C 	0.267	0.7314	0.81459	0.125
Mof_H 	H 	0.1974	0.7748	0.7826	0.008
Mof_C 	C 	0.3657	0.9372	0.8755	-0.006
Mof_H 	H 	0.2671	0.9775	0.8603	0.084
Mof_H 	H 	0.425	0.9787	0.8556	0.089
Mof_C 	C 	0.4355	0.9662	0.93937	-0.085
Mof_C 	C 	0.57	0.0331	0.96295	0.236
Mof_C 	C 	0.632	0.0659	0.02112	0.238
Mof_C 	C 	0.2634	0.3106	0.66436	0.099
Mof_H 	H 	0.3186	0.3838	0.6597	0.034
Mof_C 	C 	0.1318	0.1876	0.69656	0.124
Mof_H 	H 	0.0776	0.1532	0.718	0.018
Mof_C 	C 	0.108	0.9903	0.62821	-0.005
Mof_H 	H 	0.029	0.957	0.6402	0.08
Mof_H 	H 	0.1915	0.9281	0.6428	0.088
Mof_C 	C 	0.0531	0.9956	0.56186	-0.094
Mof_C 	C 	0.9142	0.0447	0.52933	0.239
Mof_C 	C 	0.1387	0.9509	0.53102	0.242
Mof_C 	C 	0.0373	0.6017	0.67509	0.292
Mof_C 	C 	0.9557	0.6613	0.61586	-0.021
Mof_C 	C 	0.8209	0.7299	0.60318	-0.024
Mof_C 	C 	0.7371	0.763	0.5455	-0.017
Mof_H 	H 	0.6458	0.8064	0.5367	0.096
Mof_C 	C 	0.7879	0.732	0.50079	-0.018
Mof_H 	H 	0.7307	0.7539	0.4622	0.082
Mof_C 	C 	0.9239	0.6687	0.51398	-0.014
Mof_H 	H 	0.9597	0.6503	0.4844	0.098
Mof_C 	C 	0.0067	0.6326	0.5707	-0.008
Mof_H 	H 	0.0976	0.5887	0.5791	0.11
Mof_C 	C 	0.7654	0.7799	0.64942	0.312
Mof_F 	F 	0.645	0.0657	0.92781	-0.396
Mof_F 	F 	0.7661	0.1285	0.0414	-0.375
Mof_F 	F 	0.8243	0.0881	0.55698	-0.379
Mof_F 	F 	0.2763	0.9026	0.55987	-0.385
Mof_N 	N 	0.2941	0.6002	0.81825	-0.22
Mof_N 	N 	0.4409	0.6998	0.90042	-0.054
Mof_N 	N 	0.3531	0.7921	0.86296	-0.076
Mof_N 	N 	0.1975	0.3069	0.70484	-0.22
Mof_N 	N 	0.241	0.2008	0.63274	-0.071
Mof_N 	N 	0.1546	0.1244	0.65319	-0.079
Mof_O 	O 	0.9654	0.559	0.70448	-0.303
Mof_O 	O 	0.1791	0.5872	0.69234	-0.339
Mof_O 	O 	0.8614	0.8503	0.68946	-0.368
Mof_O 	O 	0.6358	0.7611	0.64429	-0.234
Mof_Cu	Cu	0.79739	0.95791	0.74146	0.915
Mof_C 	C 	0.5988	0.0863	0.62809	0.125
Mof_H 	H 	0.5571	0.0033	0.6129	0.055
Mof_C 	C 	0.733	0.2314	0.68541	0.125
Mof_H 	H 	0.8026	0.2748	0.7174	0.008
Mof_C 	C 	0.6343	0.4372	0.6245	-0.007
Mof_H 	H 	0.7329	0.4775	0.6397	0.085
Mof_H 	H 	0.575	0.4787	0.6444	0.09
Mof_C 	C 	0.5645	0.4662	0.56063	-0.083
Mof_C 	C 	0.43	0.5331	0.53705	0.234
Mof_C 	C 	0.368	0.5659	0.47888	0.239
Mof_C 	C 	0.7366	0.8106	0.83564	0.099
Mof_H 	H 	0.6814	0.8838	0.8403	0.033
Mof_C 	C 	0.8682	0.6876	0.80344	0.124
Mof_H 	H 	0.9224	0.6532	0.782	0.017
Mof_C 	C 	0.892	0.4903	0.87179	-0.004
Mof_H 	H 	0.971	0.457	0.8598	0.08
Mof_H 	H 	0.8085	0.4281	0.8572	0.088
Mof_C 	C 	0.9469	0.4956	0.93814	-0.095
Mof_C 	C 	0.0858	0.5447	0.97067	0.239
Mof_C 	C 	0.8613	0.4509	0.96898	0.242
Mof_C 	C 	0.9627	0.1017	0.82491	0.292
Mof_C 	C 	0.0443	0.1613	0.88414	-0.02
Mof_C 	C 	0.1791	0.2299	0.89682	-0.024
Mof_C 	C 	0.2629	0.263	0.9545	-0.016
Mof_H 	H 	0.3542	0.3064	0.9633	0.096
Mof_C 	C 	0.2121	0.232	0.99921	-0.019
Mof_H 	H 	0.2693	0.2539	0.0378	0.081
Mof_C 	C 	0.0761	0.1687	0.98602	-0.01
Mof_H 	H 	0.0403	0.1503	0.0156	0.096
Mof_C 	C 	0.9933	0.1326	0.9293	-0.01
Mof_H 	H 	0.9024	0.0887	0.9209	0.111
Mof_C 	C 	0.2346	0.2799	0.85058	0.312
Mof_F 	F 	0.355	0.5657	0.57219	-0.396
Mof_F 	F 	0.2339	0.6285	0.4586	-0.375
Mof_F 	F 	0.1757	0.5881	0.94302	-0.38
Mof_F 	F 	0.7237	0.4026	0.94013	-0.385
Mof_N 	N 	0.7059	0.1002	0.68175	-0.219
Mof_N 	N 	0.5591	0.1998	0.59958	-0.054
Mof_N 	N 	0.6469	0.2921	0.63704	-0.075
Mof_N 	N 	0.8025	0.8069	0.79516	-0.22
Mof_N 	N 	0.759	0.7008	0.86726	-0.071
Mof_N 	N 	0.8454	0.6244	0.84681	-0.08
Mof_O 	O 	0.0346	0.059	0.79552	-0.302
Mof_O 	O 	0.8209	0.0872	0.80766	-0.338
Mof_O 	O 	0.1386	0.3503	0.81054	-0.368
Mof_O 	O 	0.3642	0.2611	0.85571	-0.233
Mof_Cu	Cu	0.79739	0.54209	0.24146	0.916
Mof_C 	C 	0.5988	0.4137	0.12809	0.125
Mof_H 	H 	0.5571	0.4967	0.1129	0.055
Mof_C 	C 	0.733	0.2686	0.18541	0.125
Mof_H 	H 	0.8026	0.2252	0.2174	0.008
Mof_C 	C 	0.6343	0.0628	0.1245	-0.006
Mof_H 	H 	0.7329	0.0225	0.1397	0.084
Mof_H 	H 	0.575	0.0213	0.1444	0.089
Mof_C 	C 	0.5645	0.0338	0.06063	-0.085
Mof_C 	C 	0.43	0.9669	0.03705	0.236
Mof_C 	C 	0.368	0.9341	0.97888	0.238
Mof_C 	C 	0.7366	0.6894	0.33564	0.099
Mof_H 	H 	0.6814	0.6162	0.3403	0.034
Mof_C 	C 	0.8682	0.8124	0.30344	0.124
Mof_H 	H 	0.9224	0.8468	0.282	0.018
Mof_C 	C 	0.892	0.0097	0.37179	-0.005
Mof_H 	H 	0.971	0.043	0.3598	0.08
Mof_H 	H 	0.8085	0.0719	0.3572	0.088
Mof_C 	C 	0.9469	0.0044	0.43814	-0.094
Mof_C 	C 	0.0858	0.9553	0.47067	0.239
Mof_C 	C 	0.8613	0.0491	0.46898	0.242
Mof_C 	C 	0.9627	0.3983	0.32491	0.292
Mof_C 	C 	0.0443	0.3387	0.38414	-0.021
Mof_C 	C 	0.1791	0.2701	0.39682	-0.024
Mof_C 	C 	0.2629	0.237	0.4545	-0.017
Mof_H 	H 	0.3542	0.1936	0.4633	0.096
Mof_C 	C 	0.2121	0.268	0.49921	-0.018
Mof_H 	H 	0.2693	0.2461	0.5378	0.082
Mof_C 	C 	0.0761	0.3313	0.48602	-0.014
Mof_H 	H 	0.0403	0.3497	0.5156	0.098
Mof_C 	C 	0.9933	0.3674	0.4293	-0.008
Mof_H 	H 	0.9024	0.4113	0.4209	0.11
Mof_C 	C 	0.2346	0.2201	0.35058	0.312
Mof_F 	F 	0.355	0.9343	0.07219	-0.396
Mof_F 	F 	0.2339	0.8715	0.9586	-0.375
Mof_F 	F 	0.1757	0.9119	0.44302	-0.379
Mof_F 	F 	0.7237	0.0974	0.44013	-0.385
Mof_N 	N 	0.7059	0.3998	0.18175	-0.22
Mof_N 	N 	0.5591	0.3002	0.09958	-0.054
Mof_N 	N 	0.6469	0.2079	0.13704	-0.076
Mof_N 	N 	0.8025	0.6931	0.29516	-0.22
Mof_N 	N 	0.759	0.7992	0.36726	-0.071
Mof_N 	N 	0.8454	0.8756	0.34681	-0.079
Mof_O 	O 	0.0346	0.441	0.29552	-0.303
Mof_O 	O 	0.8209	0.4128	0.30766	-0.339
Mof_O 	O 	0.1386	0.1497	0.31054	-0.368
Mof_O 	O 	0.3642	0.2389	0.35571	-0.234
Mof_Cu	Cu	0.20261	0.04209	0.25854	0.915
Mof_C 	C 	0.4012	0.9137	0.37191	0.125
Mof_H 	H 	0.4429	0.9967	0.3871	0.055
Mof_C 	C 	0.267	0.7686	0.31459	0.125
Mof_H 	H 	0.1974	0.7252	0.2826	0.008
Mof_C 	C 	0.3657	0.5628	0.3755	-0.007
Mof_H 	H 	0.2671	0.5225	0.3603	0.085
Mof_H 	H 	0.425	0.5213	0.3556	0.09
Mof_C 	C 	0.4355	0.5338	0.43937	-0.083
Mof_C 	C 	0.57	0.4669	0.46295	0.234
Mof_C 	C 	0.632	0.4341	0.52112	0.239
Mof_C 	C 	0.2634	0.1894	0.16436	0.099
Mof_H 	H 	0.3186	0.1162	0.1597	0.033
Mof_C 	C 	0.1318	0.3124	0.19656	0.124
Mof_H 	H 	0.0776	0.3468	0.218	0.017
Mof_C 	C 	0.108	0.5097	0.12821	-0.004
Mof_H 	H 	0.029	0.543	0.1402	0.08
Mof_H 	H 	0.1915	0.5719	0.1428	0.088
Mof_C 	C 	0.0531	0.5044	0.06186	-0.095
Mof_C 	C 	0.9142	0.4553	0.02933	0.239
Mof_C 	C 	0.1387	0.5491	0.03102	0.242
Mof_C 	C 	0.0373	0.8983	0.17509	0.292
Mof_C 	C 	0.9557	0.8387	0.11586	-0.02
Mof_C 	C 	0.8209	0.7701	0.10318	-0.024
Mof_C 	C 	0.7371	0.737	0.0455	-0.016
Mof_H 	H 	0.6458	0.6936	0.0367	0.096
Mof_C 	C 	0.7879	0.768	0.00079	-0.019
Mof_H 	H 	0.7307	0.7461	0.9622	0.081
Mof_C 	C 	0.9239	0.8313	0.01398	-0.01
Mof_H 	H 	0.9597	0.8497	0.9844	0.096
Mof_C 	C 	0.0067	0.8674	0.0707	-0.01
Mof_H 	H 	0.0976	0.9113	0.0791	0.111
Mof_C 	C 	0.7654	0.7201	0.14942	0.312
Mof_F 	F 	0.645	0.4343	0.42781	-0.396
Mof_F 	F 	0.7661	0.3715	0.5414	-0.375
Mof_F 	F 	0.8243	0.4119	0.05698	-0.38
Mof_F 	F 	0.2763	0.5974	0.05987	-0.385
Mof_N 	N 	0.2941	0.8998	0.31825	-0.219
Mof_N 	N 	0.4409	0.8002	0.40042	-0.054
Mof_N 	N 	0.3531	0.7079	0.36296	-0.075
Mof_N 	N 	0.1975	0.1931	0.20484	-0.22
Mof_N 	N 	0.241	0.2992	0.13274	-0.071
Mof_N 	N 	0.1546	0.3756	0.15319	-0.08
Mof_O 	O 	0.9654	0.941	0.20448	-0.302
Mof_O 	O 	0.1791	0.9128	0.19234	-0.338
Mof_O 	O 	0.8614	0.6497	0.18946	-0.368
Mof_O 	O 	0.6358	0.7389	0.14429	-0.233
_end
