data_functionalizedCrystal
_audit_creation_method	'EQeq! by Chris Wilmer'
_symmetry_space_group_name_H-M	'P1'
_symmetry_Int_Tables_number	1
_symmetry_cell_setting	triclinic
loop_
_symmetry_equiv_pos_as_xyz
  x,y,z
_cell_length_a	27.7471
_cell_length_b	27.7471
_cell_length_c	3.6323
_cell_angle_alpha	90
_cell_angle_beta	90
_cell_angle_gamma	90
loop_
_atom_site_label
_atom_site_type_symbol
_atom_site_fract_x
_atom_site_fract_y
_atom_site_fract_z
_atom_site_charge
Mof_Zn	Zn	0.28404	0.21392	0.8573	1.207
Mof_N 	N 	0.2593	0.1454	0.789	-0.277
Mof_C 	C 	0.2799	0.1085	0.946	0.107
Mof_H 	H 	0.3099	0.1104	0.0586	0.011
Mof_N 	N 	0.2537	0.0672	0.931	-0.167
Mof_C 	C 	0.2153	0.129	0.6567	0.053
Mof_O 	O 	0.2745	0.8588	0.604	-0.507
Mof_C 	C 	0.179	0.1528	0.469	-0.136
Mof_H 	H 	0.182	0.1853	0.4118	0.055
Mof_O 	O 	0.3404	0.8619	0.277	-0.262
Mof_C 	C 	0.1382	0.1274	0.3691	0.06
Mof_C 	C 	0.1008	0.1489	0.178	-0.101
Mof_H 	H 	0.1034	0.1813	0.1179	0.078
Mof_C 	C 	0.0598	0.1241	0.074	-0.013
Mof_H 	H 	0.0352	0.1394	0.9448	0.027
Mof_C 	C 	0.0565	0.0758	0.168	-0.036
Mof_H 	H 	0.0293	0.0582	0.104	0.036
Mof_C 	C 	0.0937	0.0537	0.357	-0.081
Mof_H 	H 	0.0911	0.0212	0.4159	0.055
Mof_C 	C 	0.135	0.0788	0.4618	0.042
Mof_C 	C 	0.1711	0.0552	0.649	-0.132
Mof_H 	H 	0.1681	0.0227	0.7073	0.074
Mof_C 	C 	0.2118	0.0805	0.748	0.083
Mof_C 	C 	0.2449	0.9454	0.31	0.143
Mof_H 	H 	0.2211	0.9246	0.3944	-0.006
Mof_C 	C 	0.2929	0.931	0.313	-0.201
Mof_C 	C 	0.3285	0.9621	0.186	0.158
Mof_H 	H 	0.3606	0.9525	0.1882	0.007
Mof_C 	C 	0.3161	0.0076	0.057	-0.235
Mof_H 	H 	0.3399	0.0285	0.9724	0.133
Mof_C 	C 	0.2681	0.022	0.054	0.208
Mof_C 	C 	0.2325	0.9909	0.18	-0.226
Mof_H 	H 	0.2004	0.0005	0.1786	0.111
Mof_C 	C 	0.303	0.8804	0.449	0.537
Mof_O 	O 	0.2853	0.2469	0.368	-0.736
Mof_H 	H 	0.3083	0.2347	0.244	0.149
Mof_O 	O 	0.3432	0.873	0.632	-0.217
Mof_Zn	Zn	0.71596	0.78608	0.8573	1.206
Mof_N 	N 	0.7407	0.8546	0.789	-0.278
Mof_C 	C 	0.7201	0.8915	0.946	0.106
Mof_H 	H 	0.6901	0.8896	0.0586	0.01
Mof_N 	N 	0.7463	0.9328	0.931	-0.168
Mof_C 	C 	0.7847	0.871	0.6567	0.052
Mof_O 	O 	0.7255	0.1412	0.604	-0.508
Mof_C 	C 	0.821	0.8472	0.469	-0.137
Mof_H 	H 	0.818	0.8147	0.4118	0.055
Mof_O 	O 	0.6596	0.1381	0.277	-0.262
Mof_C 	C 	0.8618	0.8726	0.3691	0.06
Mof_C 	C 	0.8992	0.8511	0.178	-0.101
Mof_H 	H 	0.8966	0.8187	0.1179	0.078
Mof_C 	C 	0.9402	0.8759	0.074	-0.013
Mof_H 	H 	0.9648	0.8606	0.9448	0.027
Mof_C 	C 	0.9435	0.9242	0.168	-0.036
Mof_H 	H 	0.9707	0.9418	0.104	0.036
Mof_C 	C 	0.9063	0.9463	0.357	-0.081
Mof_H 	H 	0.9089	0.9788	0.4159	0.055
Mof_C 	C 	0.865	0.9212	0.4618	0.042
Mof_C 	C 	0.8289	0.9448	0.649	-0.132
Mof_H 	H 	0.8319	0.9773	0.7073	0.074
Mof_C 	C 	0.7882	0.9195	0.748	0.083
Mof_C 	C 	0.7551	0.0546	0.31	0.143
Mof_H 	H 	0.7789	0.0754	0.3944	-0.006
Mof_C 	C 	0.7071	0.069	0.313	-0.201
Mof_C 	C 	0.6715	0.0379	0.186	0.158
Mof_H 	H 	0.6394	0.0475	0.1882	0.007
Mof_C 	C 	0.6839	0.9924	0.057	-0.235
Mof_H 	H 	0.6601	0.9715	0.9724	0.133
Mof_C 	C 	0.7319	0.978	0.054	0.208
Mof_C 	C 	0.7675	0.0091	0.18	-0.226
Mof_H 	H 	0.7996	0.9995	0.1786	0.111
Mof_C 	C 	0.697	0.1196	0.449	0.537
Mof_O 	O 	0.7147	0.7531	0.368	-0.736
Mof_H 	H 	0.6917	0.7653	0.244	0.149
Mof_O 	O 	0.6568	0.127	0.632	-0.217
Mof_Zn	Zn	0.71392	0.21596	0.6427	1.203
Mof_N 	N 	0.6454	0.2407	0.711	-0.276
Mof_C 	C 	0.6085	0.2201	0.554	0.095
Mof_H 	H 	0.6104	0.1901	0.4414	0.019
Mof_N 	N 	0.5672	0.2463	0.569	-0.167
Mof_C 	C 	0.629	0.2847	0.8433	0.042
Mof_O 	O 	0.3588	0.2255	0.896	-0.492
Mof_C 	C 	0.6528	0.321	0.031	-0.124
Mof_H 	H 	0.6853	0.318	0.0882	0.053
Mof_O 	O 	0.3619	0.1596	0.223	-0.263
Mof_C 	C 	0.6274	0.3618	0.1309	0.054
Mof_C 	C 	0.6489	0.3992	0.322	-0.096
Mof_H 	H 	0.6813	0.3966	0.3821	0.078
Mof_C 	C 	0.6241	0.4402	0.426	-0.014
Mof_H 	H 	0.6394	0.4648	0.5552	0.027
Mof_C 	C 	0.5758	0.4435	0.332	-0.034
Mof_H 	H 	0.5582	0.4707	0.396	0.035
Mof_C 	C 	0.5537	0.4063	0.143	-0.084
Mof_H 	H 	0.5212	0.4089	0.0841	0.056
Mof_C 	C 	0.5788	0.365	0.0382	0.049
Mof_C 	C 	0.5552	0.3289	0.851	-0.14
Mof_H 	H 	0.5227	0.3319	0.7927	0.077
Mof_C 	C 	0.5805	0.2882	0.752	0.089
Mof_C 	C 	0.4454	0.2551	0.19	0.135
Mof_H 	H 	0.4246	0.2789	0.1056	-0.007
Mof_C 	C 	0.431	0.2071	0.187	-0.193
Mof_C 	C 	0.4621	0.1715	0.314	0.149
Mof_H 	H 	0.4525	0.1394	0.3118	0.01
Mof_C 	C 	0.5076	0.1839	0.443	-0.226
Mof_H 	H 	0.5285	0.1601	0.5276	0.129
Mof_C 	C 	0.522	0.2319	0.446	0.206
Mof_C 	C 	0.4909	0.2675	0.32	-0.222
Mof_H 	H 	0.5005	0.2996	0.3214	0.109
Mof_C 	C 	0.3804	0.197	0.051	0.512
Mof_O 	O 	0.7469	0.2147	0.132	-0.731
Mof_H 	H 	0.7347	0.1917	0.256	0.152
Mof_O 	O 	0.373	0.1568	0.868	-0.205
Mof_Zn	Zn	0.28608	0.78404	0.6427	1.203
Mof_N 	N 	0.3546	0.7593	0.711	-0.276
Mof_C 	C 	0.3915	0.7799	0.554	0.095
Mof_H 	H 	0.3896	0.8099	0.4414	0.019
Mof_N 	N 	0.4328	0.7537	0.569	-0.167
Mof_C 	C 	0.371	0.7153	0.8433	0.042
Mof_O 	O 	0.6412	0.7745	0.896	-0.492
Mof_C 	C 	0.3472	0.679	0.031	-0.124
Mof_H 	H 	0.3147	0.682	0.0882	0.053
Mof_O 	O 	0.6381	0.8404	0.223	-0.263
Mof_C 	C 	0.3726	0.6382	0.1309	0.054
Mof_C 	C 	0.3511	0.6008	0.322	-0.096
Mof_H 	H 	0.3187	0.6034	0.3821	0.078
Mof_C 	C 	0.3759	0.5598	0.426	-0.014
Mof_H 	H 	0.3606	0.5352	0.5552	0.027
Mof_C 	C 	0.4242	0.5565	0.332	-0.034
Mof_H 	H 	0.4418	0.5293	0.396	0.035
Mof_C 	C 	0.4463	0.5937	0.143	-0.084
Mof_H 	H 	0.4788	0.5911	0.0841	0.056
Mof_C 	C 	0.4212	0.635	0.0382	0.049
Mof_C 	C 	0.4448	0.6711	0.851	-0.14
Mof_H 	H 	0.4773	0.6681	0.7927	0.077
Mof_C 	C 	0.4195	0.7118	0.752	0.089
Mof_C 	C 	0.5546	0.7449	0.19	0.135
Mof_H 	H 	0.5754	0.7211	0.1056	-0.007
Mof_C 	C 	0.569	0.7929	0.187	-0.193
Mof_C 	C 	0.5379	0.8285	0.314	0.149
Mof_H 	H 	0.5475	0.8606	0.3118	0.01
Mof_C 	C 	0.4924	0.8161	0.443	-0.226
Mof_H 	H 	0.4715	0.8399	0.5276	0.129
Mof_C 	C 	0.478	0.7681	0.446	0.206
Mof_C 	C 	0.5091	0.7325	0.32	-0.222
Mof_H 	H 	0.4995	0.7004	0.3214	0.109
Mof_C 	C 	0.6196	0.803	0.051	0.512
Mof_O 	O 	0.2531	0.7853	0.132	-0.731
Mof_H 	H 	0.2653	0.8083	0.256	0.152
Mof_O 	O 	0.627	0.8432	0.868	-0.205
Mof_Zn	Zn	0.78404	0.71392	0.3573	1.203
Mof_N 	N 	0.7593	0.6454	0.289	-0.276
Mof_C 	C 	0.7799	0.6085	0.446	0.095
Mof_H 	H 	0.8099	0.6104	0.5586	0.019
Mof_N 	N 	0.7537	0.5672	0.431	-0.167
Mof_C 	C 	0.7153	0.629	0.1567	0.042
Mof_O 	O 	0.7745	0.3588	0.104	-0.492
Mof_C 	C 	0.679	0.6528	0.969	-0.124
Mof_H 	H 	0.682	0.6853	0.9118	0.053
Mof_O 	O 	0.8404	0.3619	0.777	-0.263
Mof_C 	C 	0.6382	0.6274	0.8691	0.054
Mof_C 	C 	0.6008	0.6489	0.678	-0.096
Mof_H 	H 	0.6034	0.6813	0.6179	0.078
Mof_C 	C 	0.5598	0.6241	0.574	-0.014
Mof_H 	H 	0.5352	0.6394	0.4448	0.027
Mof_C 	C 	0.5565	0.5758	0.668	-0.034
Mof_H 	H 	0.5293	0.5582	0.604	0.035
Mof_C 	C 	0.5937	0.5537	0.857	-0.084
Mof_H 	H 	0.5911	0.5212	0.9159	0.056
Mof_C 	C 	0.635	0.5788	0.9618	0.049
Mof_C 	C 	0.6711	0.5552	0.149	-0.14
Mof_H 	H 	0.6681	0.5227	0.2073	0.077
Mof_C 	C 	0.7118	0.5805	0.248	0.089
Mof_C 	C 	0.7449	0.4454	0.81	0.135
Mof_H 	H 	0.7211	0.4246	0.8944	-0.007
Mof_C 	C 	0.7929	0.431	0.813	-0.193
Mof_C 	C 	0.8285	0.4621	0.686	0.149
Mof_H 	H 	0.8606	0.4525	0.6882	0.01
Mof_C 	C 	0.8161	0.5076	0.557	-0.226
Mof_H 	H 	0.8399	0.5285	0.4724	0.129
Mof_C 	C 	0.7681	0.522	0.554	0.206
Mof_C 	C 	0.7325	0.4909	0.68	-0.222
Mof_H 	H 	0.7004	0.5005	0.6786	0.109
Mof_C 	C 	0.803	0.3804	0.949	0.512
Mof_O 	O 	0.7853	0.7469	0.868	-0.731
Mof_H 	H 	0.8083	0.7347	0.744	0.152
Mof_O 	O 	0.8432	0.373	0.132	-0.205
Mof_Zn	Zn	0.21596	0.28608	0.3573	1.203
Mof_N 	N 	0.2407	0.3546	0.289	-0.276
Mof_C 	C 	0.2201	0.3915	0.446	0.095
Mof_H 	H 	0.1901	0.3896	0.5586	0.019
Mof_N 	N 	0.2463	0.4328	0.431	-0.167
Mof_C 	C 	0.2847	0.371	0.1567	0.042
Mof_O 	O 	0.2255	0.6412	0.104	-0.492
Mof_C 	C 	0.321	0.3472	0.969	-0.124
Mof_H 	H 	0.318	0.3147	0.9118	0.053
Mof_O 	O 	0.1596	0.6381	0.777	-0.263
Mof_C 	C 	0.3618	0.3726	0.8691	0.054
Mof_C 	C 	0.3992	0.3511	0.678	-0.096
Mof_H 	H 	0.3966	0.3187	0.6179	0.078
Mof_C 	C 	0.4402	0.3759	0.574	-0.014
Mof_H 	H 	0.4648	0.3606	0.4448	0.027
Mof_C 	C 	0.4435	0.4242	0.668	-0.034
Mof_H 	H 	0.4707	0.4418	0.604	0.035
Mof_C 	C 	0.4063	0.4463	0.857	-0.084
Mof_H 	H 	0.4089	0.4788	0.9159	0.056
Mof_C 	C 	0.365	0.4212	0.9618	0.049
Mof_C 	C 	0.3289	0.4448	0.149	-0.14
Mof_H 	H 	0.3319	0.4773	0.2073	0.077
Mof_C 	C 	0.2882	0.4195	0.248	0.089
Mof_C 	C 	0.2551	0.5546	0.81	0.135
Mof_H 	H 	0.2789	0.5754	0.8944	-0.007
Mof_C 	C 	0.2071	0.569	0.813	-0.193
Mof_C 	C 	0.1715	0.5379	0.686	0.149
Mof_H 	H 	0.1394	0.5475	0.6882	0.01
Mof_C 	C 	0.1839	0.4924	0.557	-0.226
Mof_H 	H 	0.1601	0.4715	0.4724	0.129
Mof_C 	C 	0.2319	0.478	0.554	0.206
Mof_C 	C 	0.2675	0.5091	0.68	-0.222
Mof_H 	H 	0.2996	0.4995	0.6786	0.109
Mof_C 	C 	0.197	0.6196	0.949	0.512
Mof_O 	O 	0.2147	0.2531	0.868	-0.731
Mof_H 	H 	0.1917	0.2653	0.744	0.152
Mof_O 	O 	0.1568	0.627	0.132	-0.205
Mof_Zn	Zn	0.21392	0.71596	0.1427	1.206
Mof_N 	N 	0.1454	0.7407	0.211	-0.278
Mof_C 	C 	0.1085	0.7201	0.054	0.106
Mof_H 	H 	0.1104	0.6901	0.9414	0.01
Mof_N 	N 	0.0672	0.7463	0.069	-0.168
Mof_C 	C 	0.129	0.7847	0.3433	0.052
Mof_O 	O 	0.8588	0.7255	0.396	-0.508
Mof_C 	C 	0.1528	0.821	0.531	-0.137
Mof_H 	H 	0.1853	0.818	0.5882	0.055
Mof_O 	O 	0.8619	0.6596	0.723	-0.262
Mof_C 	C 	0.1274	0.8618	0.6309	0.06
Mof_C 	C 	0.1489	0.8992	0.822	-0.101
Mof_H 	H 	0.1813	0.8966	0.8821	0.078
Mof_C 	C 	0.1241	0.9402	0.926	-0.013
Mof_H 	H 	0.1394	0.9648	0.0552	0.027
Mof_C 	C 	0.0758	0.9435	0.832	-0.036
Mof_H 	H 	0.0582	0.9707	0.896	0.036
Mof_C 	C 	0.0537	0.9063	0.643	-0.081
Mof_H 	H 	0.0212	0.9089	0.5841	0.055
Mof_C 	C 	0.0788	0.865	0.5382	0.042
Mof_C 	C 	0.0552	0.8289	0.351	-0.132
Mof_H 	H 	0.0227	0.8319	0.2927	0.074
Mof_C 	C 	0.0805	0.7882	0.252	0.083
Mof_C 	C 	0.9454	0.7551	0.69	0.143
Mof_H 	H 	0.9246	0.7789	0.6056	-0.006
Mof_C 	C 	0.931	0.7071	0.687	-0.201
Mof_C 	C 	0.9621	0.6715	0.814	0.158
Mof_H 	H 	0.9525	0.6394	0.8118	0.007
Mof_C 	C 	0.0076	0.6839	0.943	-0.235
Mof_H 	H 	0.0285	0.6601	0.0276	0.133
Mof_C 	C 	0.022	0.7319	0.946	0.208
Mof_C 	C 	0.9909	0.7675	0.82	-0.226
Mof_H 	H 	0.0005	0.7996	0.8214	0.111
Mof_C 	C 	0.8804	0.697	0.551	0.537
Mof_O 	O 	0.2469	0.7147	0.632	-0.736
Mof_H 	H 	0.2347	0.6917	0.756	0.149
Mof_O 	O 	0.873	0.6568	0.368	-0.217
Mof_Zn	Zn	0.78608	0.28404	0.1427	1.206
Mof_N 	N 	0.8546	0.2593	0.211	-0.278
Mof_C 	C 	0.8915	0.2799	0.054	0.106
Mof_H 	H 	0.8896	0.3099	0.9414	0.01
Mof_N 	N 	0.9328	0.2537	0.069	-0.168
Mof_C 	C 	0.871	0.2153	0.3433	0.052
Mof_O 	O 	0.1412	0.2745	0.396	-0.508
Mof_C 	C 	0.8472	0.179	0.531	-0.137
Mof_H 	H 	0.8147	0.182	0.5882	0.055
Mof_O 	O 	0.1381	0.3404	0.723	-0.262
Mof_C 	C 	0.8726	0.1382	0.6309	0.06
Mof_C 	C 	0.8511	0.1008	0.822	-0.101
Mof_H 	H 	0.8187	0.1034	0.8821	0.078
Mof_C 	C 	0.8759	0.0598	0.926	-0.013
Mof_H 	H 	0.8606	0.0352	0.0552	0.027
Mof_C 	C 	0.9242	0.0565	0.832	-0.036
Mof_H 	H 	0.9418	0.0293	0.896	0.036
Mof_C 	C 	0.9463	0.0937	0.643	-0.081
Mof_H 	H 	0.9788	0.0911	0.5841	0.055
Mof_C 	C 	0.9212	0.135	0.5382	0.042
Mof_C 	C 	0.9448	0.1711	0.351	-0.132
Mof_H 	H 	0.9773	0.1681	0.2927	0.074
Mof_C 	C 	0.9195	0.2118	0.252	0.083
Mof_C 	C 	0.0546	0.2449	0.69	0.143
Mof_H 	H 	0.0754	0.2211	0.6056	-0.006
Mof_C 	C 	0.069	0.2929	0.687	-0.201
Mof_C 	C 	0.0379	0.3285	0.814	0.158
Mof_H 	H 	0.0475	0.3606	0.8118	0.007
Mof_C 	C 	0.9924	0.3161	0.943	-0.235
Mof_H 	H 	0.9715	0.3399	0.0276	0.133
Mof_C 	C 	0.978	0.2681	0.946	0.208
Mof_C 	C 	0.0091	0.2325	0.82	-0.226
Mof_H 	H 	0.9995	0.2004	0.8214	0.111
Mof_C 	C 	0.1196	0.303	0.551	0.537
Mof_O 	O 	0.7531	0.2853	0.632	-0.736
Mof_H 	H 	0.7653	0.3083	0.756	0.149
Mof_O 	O 	0.127	0.3432	0.368	-0.217
_end
