# CIF file generated by openbabel 3.1.0, see https://openbabel.org
data_I
_chemical_name_common 'GIQYUB_clean'
_cell_length_a 9.5899
_cell_length_b 9.5899
_cell_length_c 15.524
_cell_angle_alpha 92.9192
_cell_angle_beta 92.9192
_cell_angle_gamma 98.9866
_space_group_name_H-M_alt 'P 1'
_space_group_name_Hall 'P 1'
loop_
    _symmetry_equiv_pos_as_xyz
    x,y,z
loop_
    _atom_site_label
    _atom_site_type_symbol
    _atom_site_fract_x
    _atom_site_fract_y
    _atom_site_fract_z
    _atom_site_occupancy
    Tb1      Tb       0.01103    0.98897    0.75000    1.000
    Tb2      Tb       0.98897    0.01103    0.25000    1.000
    P1       P        0.35450    0.04476    0.64540    1.000
    P2       P        0.65136    0.97710    0.65365    1.000
    P3       P        0.95524    0.64550    0.85460    1.000
    P4       P        0.02290    0.34864    0.84635    1.000
    P5       P        0.64550    0.95524    0.35460    1.000
    P6       P        0.34864    0.02290    0.34635    1.000
    P7       P        0.04476    0.35450    0.14540    1.000
    P8       P        0.97710    0.65136    0.15365    1.000
    H1       H        0.42160    0.83080    0.73270    1.000
    H2       H        0.47830    0.15250    0.81910    1.000
    H3       H        0.63950    0.13050    0.81260    1.000
    H4       H        0.57140    0.22820    0.74700    1.000
    H5       H        0.16920    0.57840    0.76730    1.000
    H6       H        0.84750    0.52170    0.68090    1.000
    H7       H        0.86950    0.36050    0.68740    1.000
    H8       H        0.77180    0.42860    0.75300    1.000
    H9       H        0.57840    0.16920    0.26730    1.000
    H10      H        0.52170    0.84750    0.18090    1.000
    H11      H        0.36050    0.86950    0.18740    1.000
    H12      H        0.42860    0.77180    0.25300    1.000
    H13      H        0.83080    0.42160    0.23270    1.000
    H14      H        0.15250    0.47830    0.31910    1.000
    H15      H        0.13050    0.63950    0.31260    1.000
    H16      H        0.22820    0.57140    0.24700    1.000
    Ru1      Ru       0.54526    0.12112    0.50205    1.000
    Ru2      Ru       0.87888    0.45474    0.99795    1.000
    Ru3      Ru       0.45474    0.87888    0.49795    1.000
    Ru4      Ru       0.12112    0.54526    0.00205    1.000
    C1       C        0.50600    0.01480    0.71700    1.000
    C2       C        0.55300    0.14280    0.77950    1.000
    C3       C        0.98520    0.49400    0.78300    1.000
    C4       C        0.85720    0.44700    0.72050    1.000
    C5       C        0.49400    0.98520    0.28300    1.000
    C6       C        0.44700    0.85720    0.22050    1.000
    C7       C        0.01480    0.50600    0.21700    1.000
    C8       C        0.14280    0.55300    0.27950    1.000
    O1       O        0.40870    0.16770    0.58974    1.000
    O2       O        0.31090    0.90750    0.58600    1.000
    O3       O        0.23610    0.07490    0.69820    1.000
    O4       O        0.69130    0.10550    0.59890    1.000
    O5       O        0.59450    0.84410    0.59330    1.000
    O6       O        0.77310    0.95510    0.71258    1.000
    O7       O        0.45180    0.90120    0.76756    1.000
    O8       O        0.83230    0.59130    0.91026    1.000
    O9       O        0.09250    0.68910    0.91400    1.000
    O10      O        0.92510    0.76390    0.80180    1.000
    O11      O        0.89450    0.30870    0.90110    1.000
    O12      O        0.15590    0.40550    0.90670    1.000
    O13      O        0.04490    0.22690    0.78742    1.000
    O14      O        0.09880    0.54820    0.73244    1.000
    O15      O        0.59130    0.83230    0.41026    1.000
    O16      O        0.68910    0.09250    0.41400    1.000
    O17      O        0.76390    0.92510    0.30180    1.000
    O18      O        0.30870    0.89450    0.40110    1.000
    O19      O        0.40550    0.15590    0.40670    1.000
    O20      O        0.22690    0.04490    0.28742    1.000
    O21      O        0.54820    0.09880    0.23244    1.000
    O22      O        0.16770    0.40870    0.08974    1.000
    O23      O        0.90750    0.31090    0.08600    1.000
    O24      O        0.07490    0.23610    0.19820    1.000
    O25      O        0.10550    0.69130    0.09890    1.000
    O26      O        0.84410    0.59450    0.09330    1.000
    O27      O        0.95510    0.77310    0.21258    1.000
    O28      O        0.90120    0.45180    0.26756    1.000
