data_functionalizedCrystal
_audit_creation_method	'EQeq! by Chris Wilmer'
_symmetry_space_group_name_H-M	'P1'
_symmetry_Int_Tables_number	1
_symmetry_cell_setting	triclinic
loop_
_symmetry_equiv_pos_as_xyz
  x,y,z
_cell_length_a	12.3841
_cell_length_b	12.3841
_cell_length_c	14.3613
_cell_angle_alpha	64.4582
_cell_angle_beta	64.4582
_cell_angle_gamma	89.9995
loop_
_atom_site_label
_atom_site_type_symbol
_atom_site_fract_x
_atom_site_fract_y
_atom_site_fract_z
_atom_site_charge
Mof_Zn	Zn	0.5	0.5	-0	1.177
Mof_Zn	Zn	-0	0	-0	1.145
Mof_H 	H 	0.8562	0.7421	0.2096	0.012
Mof_H 	H 	0.8326	0.9545	0.4078	0.085
Mof_H 	H 	0.3562	0.5483	0.2096	-0.005
Mof_H 	H 	0.2579	0.0658	0.7904	-0
Mof_H 	H 	0.7404	0.5455	0.5922	0.055
Mof_H 	H 	0.9342	0.0483	0.2096	-0.045
Mof_H 	H 	0.0486	0.3192	-0	0.084
Mof_H 	H 	0.8623	0.7404	0.5922	0.063
Mof_H 	H 	0.1808	0.4514	-0	0.002
Mof_H 	H 	0.5486	0.1808	-0	0.002
Mof_H 	H 	0.9514	0.6808	-0	0.006
Mof_H 	H 	0.1377	0.2596	0.4078	0.043
Mof_H 	H 	0.6808	0.0486	-0	0.086
Mof_H 	H 	0.8192	0.5486	-0	0.087
Mof_H 	H 	0.0455	0.2404	0.5922	0.023
Mof_H 	H 	0.1674	0.0455	0.5922	0.02
Mof_H 	H 	0.2404	0.3623	0.5922	0.05
Mof_H 	H 	0.9517	0.1438	0.7904	0.068
Mof_H 	H 	0.4342	0.2421	0.2096	-0.008
Mof_H 	H 	0.7579	0.6438	0.7904	0.021
Mof_H 	H 	0.6438	0.4517	0.7904	0.019
Mof_H 	H 	0.3326	0.1377	0.4078	0.046
Mof_H 	H 	0.0483	0.8562	0.2096	-0.051
Mof_H 	H 	0.7421	0.9342	0.2096	0.015
Mof_H 	H 	0.6674	0.8623	0.5922	0.061
Mof_H 	H 	0.4545	0.3326	0.4078	0.055
Mof_H 	H 	0.3623	0.1674	0.5922	0.049
Mof_H 	H 	0.4517	0.5658	0.7904	0.018
Mof_H 	H 	0.2421	0.3562	0.2096	-0.009
Mof_H 	H 	0.5455	0.6674	0.5922	0.053
Mof_H 	H 	0.4514	0.8192	-0	0.087
Mof_H 	H 	0.3192	0.9514	-0	0.004
Mof_H 	H 	0.5658	0.7579	0.7904	0.02
Mof_H 	H 	0.7596	0.6377	0.4078	0.056
Mof_H 	H 	0.1438	0.2579	0.7904	0.005
Mof_H 	H 	0.6377	0.8326	0.4078	0.06
Mof_H 	H 	0.0658	0.9517	0.7904	0.066
Mof_H 	H 	0.5483	0.4342	0.2096	-0.004
Mof_H 	H 	0.9545	0.7596	0.4078	0.084
Mof_H 	H 	0.2596	0.4545	0.4078	0.053
Mof_C 	C 	0.7857	0.896	0.251	0.033
Mof_C 	C 	0.396	0.2857	0.251	0.042
Mof_C 	C 	0.5278	0.1069	-0	0.044
Mof_C 	C 	0.0926	0.2066	0.6308	-0.036
Mof_C 	C 	0.7143	0.647	0.749	0.039
Mof_C 	C 	0.9722	0.6069	-0	0.092
Mof_C 	C 	0.1626	0.0926	0.6308	-0.034
Mof_C 	C 	0.0815	0.5815	-0	-0.079
Mof_C 	C 	0.2857	0.353	0.251	0.042
Mof_C 	C 	0.2819	0.2819	0.4362	0.084
Mof_C 	C 	0.3374	0.2234	0.3692	-0.093
Mof_C 	C 	0.8374	0.9074	0.3692	-0.124
Mof_C 	C 	0.7273	0.3656	-0	0.147
Mof_C 	C 	0.2143	0.104	0.749	0.05
Mof_C 	C 	0.9074	0.7934	0.3692	-0.129
Mof_C 	C 	0.2273	0.1344	-0	0.091
Mof_C 	C 	0.353	0.4633	0.251	0.044
Mof_C 	C 	0.6069	0.0278	-0	-0.244
Mof_C 	C 	0.7181	0.7181	0.5638	0.038
Mof_C 	C 	0.7934	0.7234	0.3692	-0.086
Mof_C 	C 	0.5367	0.604	0.749	0.036
Mof_C 	C 	0.4633	0.396	0.251	0.045
Mof_C 	C 	0.2066	0.2766	0.6308	-0.075
Mof_C 	C 	0.5926	0.6626	0.6308	-0.073
Mof_C 	C 	0.6626	0.7766	0.6308	-0.073
Mof_C 	C 	0.9185	0.4185	-0	0.208
Mof_C 	C 	0.604	0.7143	0.749	0.038
Mof_C 	C 	0.896	0.9633	0.251	0.124
Mof_C 	C 	0.3931	0.9722	-0	0.094
Mof_C 	C 	0.9633	0.853	0.251	0.13
Mof_C 	C 	0.2727	0.6344	-0	0.11
Mof_C 	C 	0.6344	0.7273	-0	0.151
Mof_C 	C 	0.104	0.0367	0.749	-0.053
Mof_C 	C 	0.7727	0.8656	-0	0.164
Mof_C 	C 	0.2234	0.2934	0.3692	-0.092
Mof_C 	C 	0.6646	0.8354	-0	-0.207
Mof_C 	C 	0.1069	0.4722	-0	0.043
Mof_C 	C 	0.4185	0.0815	-0	-0.083
Mof_C 	C 	0.647	0.5367	0.749	0.037
Mof_C 	C 	0.7066	0.5926	0.6308	-0.073
Mof_C 	C 	0.8354	0.3354	-0	-0.209
Mof_C 	C 	0.2181	0.2181	0.5638	0.017
Mof_C 	C 	0.1344	0.7727	-0	0.102
Mof_C 	C 	0.3354	0.1646	-0	-0.11
Mof_C 	C 	0.1646	0.6646	-0	-0.108
Mof_C 	C 	0.2934	0.4074	0.3692	-0.092
Mof_C 	C 	0.4722	0.8931	-0	-0.197
Mof_C 	C 	0.7234	0.8374	0.3692	-0.088
Mof_C 	C 	0.0367	0.147	0.749	-0.049
Mof_C 	C 	0.8931	0.5278	-0	-0.195
Mof_C 	C 	0.7819	0.7819	0.4362	0.1
Mof_C 	C 	0.5815	0.9185	-0	0.208
Mof_C 	C 	0.4074	0.3374	0.3692	-0.092
Mof_C 	C 	0.7766	0.7066	0.6308	-0.073
Mof_C 	C 	0.147	0.2143	0.749	0.046
Mof_C 	C 	0.8656	0.2273	-0	0.155
Mof_C 	C 	0.2766	0.1626	0.6308	-0.079
Mof_C 	C 	0.853	0.7857	0.251	0.031
Mof_C 	C 	0.0278	0.3931	-0	-0.246
Mof_C 	C 	0.3656	0.2727	-0	0.105
Mof_N 	N 	0.8591	0.8971	-0	-0.267
Mof_N 	N 	0.4056	0.4056	0.1888	-0.26
Mof_N 	N 	0.3971	0.3591	-0	-0.279
Mof_N 	N 	0.1409	0.1029	-0	-0.298
Mof_N 	N 	0.6409	0.3971	-0	-0.291
Mof_N 	N 	0.5944	0.5944	0.8112	-0.239
Mof_N 	N 	0.1029	0.8591	-0	-0.272
Mof_N 	N 	0.6029	0.6409	-0	-0.292
Mof_N 	N 	0.0944	0.0944	0.8112	-0.228
Mof_N 	N 	0.9056	0.9056	0.1888	-0.261
Mof_N 	N 	0.3591	0.6029	-0	-0.28
Mof_N 	N 	0.8971	0.1409	-0	-0.289
_end
