# CIF file generated by openbabel 3.1.0, see https://openbabel.org
data_I
_chemical_name_common 'OKIXIQ01_charged'
_cell_length_a 15.8725
_cell_length_b 15.8725
_cell_length_c 21.673
_cell_angle_alpha 90
_cell_angle_beta 90
_cell_angle_gamma 90
_space_group_name_H-M_alt 'P 1'
_space_group_name_Hall 'P 1'
loop_
    _symmetry_equiv_pos_as_xyz
    x,y,z
loop_
    _atom_site_label
    _atom_site_type_symbol
    _atom_site_fract_x
    _atom_site_fract_y
    _atom_site_fract_z
    _atom_site_occupancy
    Cd1      Cd       0.55908    0.55908    0.50000    1.000
    Cd2      Cd       0.44092    0.44092    0.00000    1.000
    Cd3      Cd       0.94092    0.05908    0.25000    1.000
    Cd4      Cd       0.05908    0.94092    0.75000    1.000
    H1       H        0.00480    0.24110    0.17640    1.000
    H2       H        0.09820    0.35210    0.18820    1.000
    H3       H        0.15650    0.26160    0.35690    1.000
    H4       H        0.06160    0.15510    0.34090    1.000
    H5       H        0.16140    0.46550    0.21410    1.000
    H6       H        0.26610    0.56670    0.22440    1.000
    H7       H        0.37820    0.54700    0.29100    1.000
    H8       H        0.27600    0.32410    0.34480    1.000
    H9       H        0.49690    0.30160    0.54130    1.000
    H10      H        0.58910    0.20360    0.58570    1.000
    H11      H        0.70480    0.15350    0.53060    1.000
    H12      H        0.64080    0.30400    0.38770    1.000
    H13      H        0.76430    0.29080    0.35550    1.000
    H14      H        0.86110    0.23100    0.29120    1.000
    H15      H        0.88760    0.03670    0.39960    1.000
    H16      H        0.78570    0.08750    0.46640    1.000
    H17      H        0.40930    0.23760    0.39980    1.000
    H18      H        0.47280    0.24730    0.35010    1.000
    H19      H        0.99520    0.75890    0.67640    1.000
    H20      H        0.90180    0.64790    0.68820    1.000
    H21      H        0.84350    0.73840    0.85690    1.000
    H22      H        0.93840    0.84490    0.84090    1.000
    H23      H        0.83860    0.53450    0.71410    1.000
    H24      H        0.73390    0.43330    0.72440    1.000
    H25      H        0.62180    0.45300    0.79100    1.000
    H26      H        0.72400    0.67590    0.84480    1.000
    H27      H        0.50310    0.69840    0.04130    1.000
    H28      H        0.41090    0.79640    0.08570    1.000
    H29      H        0.29520    0.84650    0.03060    1.000
    H30      H        0.35920    0.69600    0.88770    1.000
    H31      H        0.23570    0.70920    0.85550    1.000
    H32      H        0.13890    0.76900    0.79120    1.000
    H33      H        0.11240    0.96330    0.89960    1.000
    H34      H        0.21430    0.91250    0.96640    1.000
    H35      H        0.59070    0.76240    0.89980    1.000
    H36      H        0.52720    0.75270    0.85010    1.000
    H37      H        0.25890    0.50480    0.92640    1.000
    H38      H        0.14790    0.59820    0.93820    1.000
    H39      H        0.23840    0.65650    0.10690    1.000
    H40      H        0.34490    0.56160    0.09090    1.000
    H41      H        0.03450    0.66140    0.96410    1.000
    H42      H        0.93330    0.76610    0.97440    1.000
    H43      H        0.95300    0.87820    0.04100    1.000
    H44      H        0.17590    0.77600    0.09480    1.000
    H45      H        0.19840    0.99690    0.29130    1.000
    H46      H        0.29640    0.08910    0.33570    1.000
    H47      H        0.34650    0.20480    0.28060    1.000
    H48      H        0.19600    0.14080    0.13770    1.000
    H49      H        0.20920    0.26430    0.10550    1.000
    H50      H        0.26900    0.36110    0.04120    1.000
    H51      H        0.46330    0.38760    0.14960    1.000
    H52      H        0.41250    0.28570    0.21640    1.000
    H53      H        0.26240    0.90930    0.14980    1.000
    H54      H        0.25270    0.97280    0.10010    1.000
    H55      H        0.74110    0.49520    0.42640    1.000
    H56      H        0.85210    0.40180    0.43820    1.000
    H57      H        0.76160    0.34350    0.60690    1.000
    H58      H        0.65510    0.43840    0.59090    1.000
    H59      H        0.96550    0.33860    0.46410    1.000
    H60      H        0.06670    0.23390    0.47440    1.000
    H61      H        0.04700    0.12180    0.54100    1.000
    H62      H        0.82410    0.22400    0.59480    1.000
    H63      H        0.80160    0.00310    0.79130    1.000
    H64      H        0.70360    0.91090    0.83570    1.000
    H65      H        0.65350    0.79520    0.78060    1.000
    H66      H        0.80400    0.85920    0.63770    1.000
    H67      H        0.79080    0.73570    0.60550    1.000
    H68      H        0.73100    0.63890    0.54120    1.000
    H69      H        0.53670    0.61240    0.64960    1.000
    H70      H        0.58750    0.71430    0.71640    1.000
    H71      H        0.73760    0.09070    0.64980    1.000
    H72      H        0.74730    0.02720    0.60010    1.000
    H73      H        0.49520    0.74110    0.57360    1.000
    H74      H        0.40180    0.85210    0.56180    1.000
    H75      H        0.34350    0.76160    0.39310    1.000
    H76      H        0.43840    0.65510    0.40910    1.000
    H77      H        0.33860    0.96550    0.53590    1.000
    H78      H        0.23390    0.06670    0.52560    1.000
    H79      H        0.12180    0.04700    0.45900    1.000
    H80      H        0.22400    0.82410    0.40520    1.000
    H81      H        0.00310    0.80160    0.20870    1.000
    H82      H        0.91090    0.70360    0.16430    1.000
    H83      H        0.79520    0.65350    0.21940    1.000
    H84      H        0.85920    0.80400    0.36230    1.000
    H85      H        0.73570    0.79080    0.39450    1.000
    H86      H        0.63890    0.73100    0.45880    1.000
    H87      H        0.61240    0.53670    0.35040    1.000
    H88      H        0.71430    0.58750    0.28360    1.000
    H89      H        0.09070    0.73760    0.35020    1.000
    H90      H        0.02720    0.74730    0.39990    1.000
    H91      H        0.50480    0.25890    0.07360    1.000
    H92      H        0.59820    0.14790    0.06180    1.000
    H93      H        0.65650    0.23840    0.89310    1.000
    H94      H        0.56160    0.34490    0.90910    1.000
    H95      H        0.66140    0.03450    0.03590    1.000
    H96      H        0.76610    0.93330    0.02560    1.000
    H97      H        0.87820    0.95300    0.95900    1.000
    H98      H        0.77600    0.17590    0.90520    1.000
    H99      H        0.99690    0.19840    0.70870    1.000
    H100     H        0.08910    0.29640    0.66430    1.000
    H101     H        0.20480    0.34650    0.71940    1.000
    H102     H        0.14080    0.19600    0.86230    1.000
    H103     H        0.26430    0.20920    0.89450    1.000
    H104     H        0.36110    0.26900    0.95880    1.000
    H105     H        0.38760    0.46330    0.85040    1.000
    H106     H        0.28570    0.41250    0.78360    1.000
    H107     H        0.90930    0.26240    0.85020    1.000
    H108     H        0.97280    0.25270    0.89990    1.000
    H109     H        0.24110    0.00480    0.82360    1.000
    H110     H        0.35210    0.09820    0.81180    1.000
    H111     H        0.26160    0.15650    0.64310    1.000
    H112     H        0.15510    0.06160    0.65910    1.000
    H113     H        0.46550    0.16140    0.78590    1.000
    H114     H        0.56670    0.26610    0.77560    1.000
    H115     H        0.54700    0.37820    0.70900    1.000
    H116     H        0.32410    0.27600    0.65520    1.000
    H117     H        0.30160    0.49690    0.45870    1.000
    H118     H        0.20360    0.58910    0.41430    1.000
    H119     H        0.15350    0.70480    0.46940    1.000
    H120     H        0.30400    0.64080    0.61230    1.000
    H121     H        0.29080    0.76430    0.64450    1.000
    H122     H        0.23100    0.86110    0.70880    1.000
    H123     H        0.03670    0.88760    0.60040    1.000
    H124     H        0.08750    0.78570    0.53360    1.000
    H125     H        0.23760    0.40930    0.60020    1.000
    H126     H        0.24730    0.47280    0.64990    1.000
    H127     H        0.75890    0.99520    0.32360    1.000
    H128     H        0.64790    0.90180    0.31180    1.000
    H129     H        0.73840    0.84350    0.14310    1.000
    H130     H        0.84490    0.93840    0.15910    1.000
    H131     H        0.53450    0.83860    0.28590    1.000
    H132     H        0.43330    0.73390    0.27560    1.000
    H133     H        0.45300    0.62180    0.20900    1.000
    H134     H        0.67590    0.72400    0.15520    1.000
    H135     H        0.69840    0.50310    0.95870    1.000
    H136     H        0.79640    0.41090    0.91430    1.000
    H137     H        0.84650    0.29520    0.96940    1.000
    H138     H        0.69600    0.35920    0.11230    1.000
    H139     H        0.70920    0.23570    0.14450    1.000
    H140     H        0.76900    0.13890    0.20880    1.000
    H141     H        0.96330    0.11240    0.10040    1.000
    H142     H        0.91250    0.21430    0.03360    1.000
    H143     H        0.76240    0.59070    0.10020    1.000
    H144     H        0.75270    0.52720    0.14990    1.000
    C1       C        0.03630    0.24530    0.21360    1.000
    C2       C        0.09290    0.31150    0.22020    1.000
    C3       C        0.14140    0.31880    0.27250    1.000
    C4       C        0.12680    0.25850    0.31890    1.000
    C5       C        0.06960    0.19550    0.30910    1.000
    C6       C        0.20820    0.38470    0.27870    1.000
    C7       C        0.20600    0.45710    0.24270    1.000
    C8       C        0.26890    0.51680    0.24850    1.000
    C9       C        0.33510    0.50570    0.28810    1.000
    C10      C        0.33860    0.43300    0.32420    1.000
    C11      C        0.27430    0.37310    0.31960    1.000
    C12      C        0.40840    0.42500    0.36830    1.000
    C13      C        0.50500    0.37400    0.42970    1.000
    C14      C        0.56090    0.31210    0.45970    1.000
    C15      C        0.54460    0.28220    0.51900    1.000
    C16      C        0.59920    0.22360    0.54510    1.000
    C17      C        0.66820    0.19390    0.51250    1.000
    C18      C        0.68400    0.22340    0.45300    1.000
    C19      C        0.62990    0.28290    0.42790    1.000
    C20      C        0.75650    0.19150    0.41540    1.000
    C21      C        0.78550    0.23610    0.36420    1.000
    C22      C        0.84440    0.20060    0.32690    1.000
    C23      C        0.85940    0.08760    0.38920    1.000
    C24      C        0.79840    0.11740    0.42960    1.000
    C25      C        0.96370    0.75470    0.71360    1.000
    C26      C        0.90710    0.68850    0.72020    1.000
    C27      C        0.85860    0.68120    0.77250    1.000
    C28      C        0.87320    0.74150    0.81890    1.000
    C29      C        0.93040    0.80450    0.80910    1.000
    C30      C        0.79180    0.61530    0.77870    1.000
    C31      C        0.79400    0.54290    0.74270    1.000
    C32      C        0.73110    0.48320    0.74850    1.000
    C33      C        0.66490    0.49430    0.78810    1.000
    C34      C        0.66140    0.56700    0.82420    1.000
    C35      C        0.72570    0.62690    0.81960    1.000
    C36      C        0.59160    0.57500    0.86830    1.000
    C37      C        0.49500    0.62600    0.92970    1.000
    C38      C        0.43910    0.68790    0.95970    1.000
    C39      C        0.45540    0.71780    0.01900    1.000
    C40      C        0.40080    0.77640    0.04510    1.000
    C41      C        0.33180    0.80610    0.01250    1.000
    C42      C        0.31600    0.77660    0.95300    1.000
    C43      C        0.37010    0.71710    0.92790    1.000
    C44      C        0.24350    0.80850    0.91540    1.000
    C45      C        0.21450    0.76390    0.86420    1.000
    C46      C        0.15560    0.79940    0.82690    1.000
    C47      C        0.14060    0.91240    0.88920    1.000
    C48      C        0.20160    0.88260    0.92960    1.000
    C49      C        0.25470    0.53630    0.96360    1.000
    C50      C        0.18850    0.59290    0.97020    1.000
    C51      C        0.18120    0.64140    0.02250    1.000
    C52      C        0.24150    0.62680    0.06890    1.000
    C53      C        0.30450    0.56960    0.05910    1.000
    C54      C        0.11530    0.70820    0.02870    1.000
    C55      C        0.04290    0.70600    0.99270    1.000
    C56      C        0.98320    0.76890    0.99850    1.000
    C57      C        0.99430    0.83510    0.03810    1.000
    C58      C        0.06700    0.83860    0.07420    1.000
    C59      C        0.12690    0.77430    0.06960    1.000
    C60      C        0.07500    0.90840    0.11830    1.000
    C61      C        0.12600    0.00500    0.17970    1.000
    C62      C        0.18790    0.06090    0.20970    1.000
    C63      C        0.21780    0.04460    0.26900    1.000
    C64      C        0.27640    0.09920    0.29510    1.000
    C65      C        0.30610    0.16820    0.26250    1.000
    C66      C        0.27660    0.18400    0.20300    1.000
    C67      C        0.21710    0.12990    0.17790    1.000
    C68      C        0.30850    0.25650    0.16540    1.000
    C69      C        0.26390    0.28550    0.11420    1.000
    C70      C        0.29940    0.34440    0.07690    1.000
    C71      C        0.41240    0.35940    0.13920    1.000
    C72      C        0.38260    0.29840    0.17960    1.000
    C73      C        0.74530    0.46370    0.46360    1.000
    C74      C        0.81150    0.40710    0.47020    1.000
    C75      C        0.81880    0.35860    0.52250    1.000
    C76      C        0.75850    0.37320    0.56890    1.000
    C77      C        0.69550    0.43040    0.55910    1.000
    C78      C        0.88470    0.29180    0.52870    1.000
    C79      C        0.95710    0.29400    0.49270    1.000
    C80      C        0.01680    0.23110    0.49850    1.000
    C81      C        0.00570    0.16490    0.53810    1.000
    C82      C        0.93300    0.16140    0.57420    1.000
    C83      C        0.87310    0.22570    0.56960    1.000
    C84      C        0.92500    0.09160    0.61830    1.000
    C85      C        0.87400    0.99500    0.67970    1.000
    C86      C        0.81210    0.93910    0.70970    1.000
    C87      C        0.78220    0.95540    0.76900    1.000
    C88      C        0.72360    0.90080    0.79510    1.000
    C89      C        0.69390    0.83180    0.76250    1.000
    C90      C        0.72340    0.81600    0.70300    1.000
    C91      C        0.78290    0.87010    0.67790    1.000
    C92      C        0.69150    0.74350    0.66540    1.000
    C93      C        0.73610    0.71450    0.61420    1.000
    C94      C        0.70060    0.65560    0.57690    1.000
    C95      C        0.58760    0.64060    0.63920    1.000
    C96      C        0.61740    0.70160    0.67960    1.000
    C97      C        0.46370    0.74530    0.53640    1.000
    C98      C        0.40710    0.81150    0.52980    1.000
    C99      C        0.35860    0.81880    0.47750    1.000
    C100     C        0.37320    0.75850    0.43110    1.000
    C101     C        0.43040    0.69550    0.44090    1.000
    C102     C        0.29180    0.88470    0.47130    1.000
    C103     C        0.29400    0.95710    0.50730    1.000
    C104     C        0.23110    0.01680    0.50150    1.000
    C105     C        0.16490    0.00570    0.46190    1.000
    C106     C        0.16140    0.93300    0.42580    1.000
    C107     C        0.22570    0.87310    0.43040    1.000
    C108     C        0.09160    0.92500    0.38170    1.000
    C109     C        0.99500    0.87400    0.32030    1.000
    C110     C        0.93910    0.81210    0.29030    1.000
    C111     C        0.95540    0.78220    0.23100    1.000
    C112     C        0.90080    0.72360    0.20490    1.000
    C113     C        0.83180    0.69390    0.23750    1.000
    C114     C        0.81600    0.72340    0.29700    1.000
    C115     C        0.87010    0.78290    0.32210    1.000
    C116     C        0.74350    0.69150    0.33460    1.000
    C117     C        0.71450    0.73610    0.38580    1.000
    C118     C        0.65560    0.70060    0.42310    1.000
    C119     C        0.64060    0.58760    0.36080    1.000
    C120     C        0.70160    0.61740    0.32040    1.000
    C121     C        0.53630    0.25470    0.03640    1.000
    C122     C        0.59290    0.18850    0.02980    1.000
    C123     C        0.64140    0.18120    0.97750    1.000
    C124     C        0.62680    0.24150    0.93110    1.000
    C125     C        0.56960    0.30450    0.94090    1.000
    C126     C        0.70820    0.11530    0.97130    1.000
    C127     C        0.70600    0.04290    0.00730    1.000
    C128     C        0.76890    0.98320    0.00150    1.000
    C129     C        0.83510    0.99430    0.96190    1.000
    C130     C        0.83860    0.06700    0.92580    1.000
    C131     C        0.77430    0.12690    0.93040    1.000
    C132     C        0.90840    0.07500    0.88170    1.000
    C133     C        0.00500    0.12600    0.82030    1.000
    C134     C        0.06090    0.18790    0.79030    1.000
    C135     C        0.04460    0.21780    0.73100    1.000
    C136     C        0.09920    0.27640    0.70490    1.000
    C137     C        0.16820    0.30610    0.73750    1.000
    C138     C        0.18400    0.27660    0.79700    1.000
    C139     C        0.12990    0.21710    0.82210    1.000
    C140     C        0.25650    0.30850    0.83460    1.000
    C141     C        0.28550    0.26390    0.88580    1.000
    C142     C        0.34440    0.29940    0.92310    1.000
    C143     C        0.35940    0.41240    0.86080    1.000
    C144     C        0.29840    0.38260    0.82040    1.000
    C145     C        0.24530    0.03630    0.78640    1.000
    C146     C        0.31150    0.09290    0.77980    1.000
    C147     C        0.31880    0.14140    0.72750    1.000
    C148     C        0.25850    0.12680    0.68110    1.000
    C149     C        0.19550    0.06960    0.69090    1.000
    C150     C        0.38470    0.20820    0.72130    1.000
    C151     C        0.45710    0.20600    0.75730    1.000
    C152     C        0.51680    0.26890    0.75150    1.000
    C153     C        0.50570    0.33510    0.71190    1.000
    C154     C        0.43300    0.33860    0.67580    1.000
    C155     C        0.37310    0.27430    0.68040    1.000
    C156     C        0.42500    0.40840    0.63170    1.000
    C157     C        0.37400    0.50500    0.57030    1.000
    C158     C        0.31210    0.56090    0.54030    1.000
    C159     C        0.28220    0.54460    0.48100    1.000
    C160     C        0.22360    0.59920    0.45490    1.000
    C161     C        0.19390    0.66820    0.48750    1.000
    C162     C        0.22340    0.68400    0.54700    1.000
    C163     C        0.28290    0.62990    0.57210    1.000
    C164     C        0.19150    0.75650    0.58460    1.000
    C165     C        0.23610    0.78550    0.63580    1.000
    C166     C        0.20060    0.84440    0.67310    1.000
    C167     C        0.08760    0.85940    0.61080    1.000
    C168     C        0.11740    0.79840    0.57040    1.000
    C169     C        0.75470    0.96370    0.28640    1.000
    C170     C        0.68850    0.90710    0.27980    1.000
    C171     C        0.68120    0.85860    0.22750    1.000
    C172     C        0.74150    0.87320    0.18110    1.000
    C173     C        0.80450    0.93040    0.19090    1.000
    C174     C        0.61530    0.79180    0.22130    1.000
    C175     C        0.54290    0.79400    0.25730    1.000
    C176     C        0.48320    0.73110    0.25150    1.000
    C177     C        0.49430    0.66490    0.21190    1.000
    C178     C        0.56700    0.66140    0.17580    1.000
    C179     C        0.62690    0.72570    0.18040    1.000
    C180     C        0.57500    0.59160    0.13170    1.000
    C181     C        0.62600    0.49500    0.07030    1.000
    C182     C        0.68790    0.43910    0.04030    1.000
    C183     C        0.71780    0.45540    0.98100    1.000
    C184     C        0.77640    0.40080    0.95490    1.000
    C185     C        0.80610    0.33180    0.98750    1.000
    C186     C        0.77660    0.31600    0.04700    1.000
    C187     C        0.71710    0.37010    0.07210    1.000
    C188     C        0.80850    0.24350    0.08460    1.000
    C189     C        0.76390    0.21450    0.13580    1.000
    C190     C        0.79940    0.15560    0.17310    1.000
    C191     C        0.91240    0.14060    0.11080    1.000
    C192     C        0.88260    0.20160    0.07040    1.000
    N1       N        0.02430    0.18750    0.25740    1.000
    N2       N        0.44520    0.48800    0.39500    1.000
    N3       N        0.50630    0.45610    0.43340    1.000
    N4       N        0.44460    0.35130    0.38900    1.000
    N5       N        0.42600    0.27010    0.36750    1.000
    N6       N        0.88060    0.12560    0.33720    1.000
    N7       N        0.97570    0.81250    0.75740    1.000
    N8       N        0.55480    0.51200    0.89500    1.000
    N9       N        0.49370    0.54390    0.93340    1.000
    N10      N        0.55540    0.64870    0.88900    1.000
    N11      N        0.57400    0.72990    0.86750    1.000
    N12      N        0.11940    0.87440    0.83720    1.000
    N13      N        0.31250    0.52430    0.00740    1.000
    N14      N        0.01200    0.94520    0.14500    1.000
    N15      N        0.04390    0.00630    0.18340    1.000
    N16      N        0.14870    0.94460    0.13900    1.000
    N17      N        0.22990    0.92600    0.11750    1.000
    N18      N        0.37440    0.38060    0.08720    1.000
    N19      N        0.68750    0.47570    0.50740    1.000
    N20      N        0.98800    0.05480    0.64500    1.000
    N21      N        0.95610    0.99370    0.68340    1.000
    N22      N        0.85130    0.05540    0.63900    1.000
    N23      N        0.77010    0.07400    0.61750    1.000
    N24      N        0.62560    0.61940    0.58720    1.000
    N25      N        0.47570    0.68750    0.49260    1.000
    N26      N        0.05480    0.98800    0.35500    1.000
    N27      N        0.99370    0.95610    0.31660    1.000
    N28      N        0.05540    0.85130    0.36100    1.000
    N29      N        0.07400    0.77010    0.38250    1.000
    N30      N        0.61940    0.62560    0.41280    1.000
    N31      N        0.52430    0.31250    0.99260    1.000
    N32      N        0.94520    0.01200    0.85500    1.000
    N33      N        0.00630    0.04390    0.81660    1.000
    N34      N        0.94460    0.14870    0.86100    1.000
    N35      N        0.92600    0.22990    0.88250    1.000
    N36      N        0.38060    0.37440    0.91280    1.000
    N37      N        0.18750    0.02430    0.74260    1.000
    N38      N        0.48800    0.44520    0.60500    1.000
    N39      N        0.45610    0.50630    0.56660    1.000
    N40      N        0.35130    0.44460    0.61100    1.000
    N41      N        0.27010    0.42600    0.63250    1.000
    N42      N        0.12560    0.88060    0.66280    1.000
    N43      N        0.81250    0.97570    0.24260    1.000
    N44      N        0.51200    0.55480    0.10500    1.000
    N45      N        0.54390    0.49370    0.06660    1.000
    N46      N        0.64870    0.55540    0.11100    1.000
    N47      N        0.72990    0.57400    0.13250    1.000
    N48      N        0.87440    0.11940    0.16280    1.000
    Cl1      Cl       0.12184    0.12184    0.00000    1.000
    O1       O        0.11100    0.17730    0.04540    1.000
    O2       O        0.13550    0.05880    0.03450    1.000
    O3       O        0.17730    0.11100    0.95460    1.000
    O4       O        0.05880    0.13550    0.96550    1.000
    Cl2      Cl       0.87816    0.87816    0.50000    1.000
    O5       O        0.88900    0.82270    0.54540    1.000
    O6       O        0.86450    0.94120    0.53450    1.000
    O7       O        0.82270    0.88900    0.45460    1.000
    O8       O        0.94120    0.86450    0.46550    1.000
    Cl3      Cl       0.37816    0.62184    0.75000    1.000
    O9       O        0.32270    0.61100    0.79540    1.000
    O10      O        0.44120    0.63550    0.78450    1.000
    O11      O        0.38900    0.67730    0.70460    1.000
    O12      O        0.36450    0.55880    0.71550    1.000
    Cl4      Cl       0.62184    0.37816    0.25000    1.000
    O13      O        0.67730    0.38900    0.29540    1.000
    O14      O        0.55880    0.36450    0.28450    1.000
    O15      O        0.61100    0.32270    0.20460    1.000
    O16      O        0.63550    0.44120    0.21550    1.000
