# CIF file generated by openbabel 3.1.0, see https://openbabel.org
data_I
_chemical_name_common 'image0'
_cell_length_a 13.7352
_cell_length_b 17.888
_cell_length_c 11.0251
_cell_angle_alpha 90
_cell_angle_beta 100.46
_cell_angle_gamma 90
_space_group_name_H-M_alt 'P 1'
_space_group_name_Hall 'P 1'
loop_
    _symmetry_equiv_pos_as_xyz
    x,y,z
loop_
    _atom_site_label
    _atom_site_type_symbol
    _atom_site_fract_x
    _atom_site_fract_y
    _atom_site_fract_z
    _atom_site_occupancy
    Cu1      Cu       0.49891    0.49882    0.47005    1.000
    O1       O        0.61200    0.43428    0.55080    1.000
    O2       O        0.66810    0.42480    0.37270    1.000
    C1       C        0.67350    0.41220    0.48420    1.000
    C2       C        0.76075    0.36768    0.55420    1.000
    C3       C        0.82260    0.32950    0.48877    1.000
    H1       H        0.81230    0.33290    0.40320    1.000
    C4       C        0.89980    0.28622    0.55120    1.000
    H2       H        0.94120    0.26070    0.50740    1.000
    C5       C        0.91517    0.28113    0.67900    1.000
    C6       C        0.85330    0.31932    0.74450    1.000
    H3       H        0.86360    0.31590    0.83000    1.000
    C7       C        0.77611    0.36260    0.68210    1.000
    H4       H        0.73470    0.38810    0.72590    1.000
    N1       N        0.40780    0.40958    0.49810    1.000
    H5       H        0.02590    0.20000    0.69210    1.000
    C8       C        0.32300    0.40240    0.41730    1.000
    H6       H        0.30510    0.44030    0.35990    1.000
    C9       C        0.25990    0.34110    0.41460    1.000
    H7       H        0.20250    0.33870    0.35530    1.000
    C10      C        0.28220    0.28323    0.50030    1.000
    C11      C        0.37050    0.29170    0.58550    1.000
    H8       H        0.38950    0.25530    0.64550    1.000
    C12      C        0.43000    0.35430    0.58070    1.000
    H9       H        0.48850    0.35800    0.63810    1.000
    Cu2      Cu       0.99891    0.99882    0.47005    1.000
    O3       O        0.11200    0.93428    0.55080    1.000
    O4       O        0.16810    0.92480    0.37270    1.000
    C13      C        0.17350    0.91220    0.48420    1.000
    C14      C        0.26075    0.86768    0.55420    1.000
    C15      C        0.32260    0.82950    0.48877    1.000
    H10      H        0.31230    0.83290    0.40320    1.000
    C16      C        0.39980    0.78622    0.55120    1.000
    H11      H        0.44120    0.76070    0.50740    1.000
    C17      C        0.41517    0.78113    0.67900    1.000
    C18      C        0.35330    0.81932    0.74450    1.000
    H12      H        0.36360    0.81590    0.83000    1.000
    C19      C        0.27611    0.86260    0.68210    1.000
    H13      H        0.23470    0.88810    0.72590    1.000
    N2       N        0.90780    0.90958    0.49810    1.000
    H14      H        0.52590    0.70000    0.69210    1.000
    C20      C        0.82300    0.90240    0.41730    1.000
    H15      H        0.80510    0.94030    0.35990    1.000
    C21      C        0.75990    0.84110    0.41460    1.000
    H16      H        0.70250    0.83870    0.35530    1.000
    C22      C        0.78220    0.78323    0.50030    1.000
    C23      C        0.87050    0.79170    0.58550    1.000
    H17      H        0.88950    0.75530    0.64550    1.000
    C24      C        0.93000    0.85430    0.58070    1.000
    H18      H        0.98850    0.85800    0.63810    1.000
    Cu3      Cu       0.50109    0.49882    0.02995    1.000
    O5       O        0.38800    0.43428    0.94920    1.000
    O6       O        0.33190    0.42480    0.12730    1.000
    C25      C        0.32650    0.41220    0.01580    1.000
    C26      C        0.23925    0.36768    0.94580    1.000
    C27      C        0.17740    0.32950    0.01123    1.000
    H19      H        0.18770    0.33290    0.09680    1.000
    C28      C        0.10020    0.28622    0.94880    1.000
    H20      H        0.05880    0.26070    0.99260    1.000
    C29      C        0.08483    0.28113    0.82100    1.000
    C30      C        0.14670    0.31932    0.75550    1.000
    H21      H        0.13640    0.31590    0.67000    1.000
    C31      C        0.22389    0.36260    0.81790    1.000
    H22      H        0.26530    0.38810    0.77410    1.000
    N3       N        0.59220    0.40958    0.00190    1.000
    H23      H        0.97410    0.20000    0.80790    1.000
    C32      C        0.67700    0.40240    0.08270    1.000
    H24      H        0.69490    0.44030    0.14010    1.000
    C33      C        0.74010    0.34110    0.08540    1.000
    H25      H        0.79750    0.33870    0.14470    1.000
    C34      C        0.71780    0.28323    0.99970    1.000
    C35      C        0.62950    0.29170    0.91450    1.000
    H26      H        0.61050    0.25530    0.85450    1.000
    C36      C        0.57000    0.35430    0.91930    1.000
    H27      H        0.51150    0.35800    0.86190    1.000
    Cu4      Cu       0.00109    0.99882    0.02995    1.000
    O7       O        0.88800    0.93428    0.94920    1.000
    O8       O        0.83190    0.92480    0.12730    1.000
    C37      C        0.82650    0.91220    0.01580    1.000
    C38      C        0.73925    0.86768    0.94580    1.000
    C39      C        0.67740    0.82950    0.01123    1.000
    H28      H        0.68770    0.83290    0.09680    1.000
    C40      C        0.60020    0.78622    0.94880    1.000
    H29      H        0.55880    0.76070    0.99260    1.000
    C41      C        0.58483    0.78113    0.82100    1.000
    C42      C        0.64670    0.81932    0.75550    1.000
    H30      H        0.63640    0.81590    0.67000    1.000
    C43      C        0.72389    0.86260    0.81790    1.000
    H31      H        0.76530    0.88810    0.77410    1.000
    N4       N        0.09220    0.90958    0.00190    1.000
    H32      H        0.47410    0.70000    0.80790    1.000
    C44      C        0.17700    0.90240    0.08270    1.000
    H33      H        0.19490    0.94030    0.14010    1.000
    C45      C        0.24010    0.84110    0.08540    1.000
    H34      H        0.29750    0.83870    0.14470    1.000
    C46      C        0.21780    0.78323    0.99970    1.000
    C47      C        0.12950    0.79170    0.91450    1.000
    H35      H        0.11050    0.75530    0.85450    1.000
    C48      C        0.07000    0.85430    0.91930    1.000
    H36      H        0.01150    0.85800    0.86190    1.000
    Cu5      Cu       0.50109    0.50118    0.52995    1.000
    O9       O        0.38800    0.56572    0.44920    1.000
    O10      O        0.33190    0.57520    0.62730    1.000
    C49      C        0.32650    0.58780    0.51580    1.000
    C50      C        0.23925    0.63232    0.44580    1.000
    C51      C        0.17740    0.67050    0.51123    1.000
    H37      H        0.18770    0.66710    0.59680    1.000
    C52      C        0.10020    0.71378    0.44880    1.000
    H38      H        0.05880    0.73930    0.49260    1.000
    C53      C        0.08483    0.71887    0.32100    1.000
    C54      C        0.14670    0.68068    0.25550    1.000
    H39      H        0.13640    0.68410    0.17000    1.000
    C55      C        0.22389    0.63740    0.31790    1.000
    H40      H        0.26530    0.61190    0.27410    1.000
    N5       N        0.59220    0.59042    0.50190    1.000
    H41      H        0.97410    0.80000    0.30790    1.000
    C56      C        0.67700    0.59760    0.58270    1.000
    H42      H        0.69490    0.55970    0.64010    1.000
    C57      C        0.74010    0.65890    0.58540    1.000
    H43      H        0.79750    0.66130    0.64470    1.000
    C58      C        0.71780    0.71677    0.49970    1.000
    C59      C        0.62950    0.70830    0.41450    1.000
    H44      H        0.61050    0.74470    0.35450    1.000
    C60      C        0.57000    0.64570    0.41930    1.000
    H45      H        0.51150    0.64200    0.36190    1.000
    Cu6      Cu       0.00109    0.00118    0.52995    1.000
    O11      O        0.88800    0.06572    0.44920    1.000
    O12      O        0.83190    0.07520    0.62730    1.000
    C61      C        0.82650    0.08780    0.51580    1.000
    C62      C        0.73925    0.13232    0.44580    1.000
    C63      C        0.67740    0.17050    0.51123    1.000
    H46      H        0.68770    0.16710    0.59680    1.000
    C64      C        0.60020    0.21378    0.44880    1.000
    H47      H        0.55880    0.23930    0.49260    1.000
    C65      C        0.58483    0.21887    0.32100    1.000
    C66      C        0.64670    0.18068    0.25550    1.000
    H48      H        0.63640    0.18410    0.17000    1.000
    C67      C        0.72389    0.13740    0.31790    1.000
    H49      H        0.76530    0.11190    0.27410    1.000
    N6       N        0.09220    0.09042    0.50190    1.000
    H50      H        0.47410    0.30000    0.30790    1.000
    C68      C        0.17700    0.09760    0.58270    1.000
    H51      H        0.19490    0.05970    0.64010    1.000
    C69      C        0.24010    0.15890    0.58540    1.000
    H52      H        0.29750    0.16130    0.64470    1.000
    C70      C        0.21780    0.21677    0.49970    1.000
    C71      C        0.12950    0.20830    0.41450    1.000
    H53      H        0.11050    0.24470    0.35450    1.000
    C72      C        0.07000    0.14570    0.41930    1.000
    H54      H        0.01150    0.14200    0.36190    1.000
    Cu7      Cu       0.49891    0.50118    0.97005    1.000
    O13      O        0.61200    0.56572    0.05080    1.000
    O14      O        0.66810    0.57520    0.87270    1.000
    C73      C        0.67350    0.58780    0.98420    1.000
    C74      C        0.76075    0.63232    0.05420    1.000
    C75      C        0.82260    0.67050    0.98877    1.000
    H55      H        0.81230    0.66710    0.90320    1.000
    C76      C        0.89980    0.71378    0.05120    1.000
    H56      H        0.94120    0.73930    0.00740    1.000
    C77      C        0.91517    0.71887    0.17900    1.000
    C78      C        0.85330    0.68068    0.24450    1.000
    H57      H        0.86360    0.68410    0.33000    1.000
    C79      C        0.77611    0.63740    0.18210    1.000
    H58      H        0.73470    0.61190    0.22590    1.000
    N7       N        0.40780    0.59042    0.99810    1.000
    H59      H        0.02590    0.80000    0.19210    1.000
    C80      C        0.32300    0.59760    0.91730    1.000
    H60      H        0.30510    0.55970    0.85990    1.000
    C81      C        0.25990    0.65890    0.91460    1.000
    H61      H        0.20250    0.66130    0.85530    1.000
    C82      C        0.28220    0.71677    0.00030    1.000
    C83      C        0.37050    0.70830    0.08550    1.000
    H62      H        0.38950    0.74470    0.14550    1.000
    C84      C        0.43000    0.64570    0.08070    1.000
    H63      H        0.48850    0.64200    0.13810    1.000
    Cu8      Cu       0.99891    0.00118    0.97005    1.000
    O15      O        0.11200    0.06572    0.05080    1.000
    O16      O        0.16810    0.07520    0.87270    1.000
    C85      C        0.17350    0.08780    0.98420    1.000
    C86      C        0.26075    0.13232    0.05420    1.000
    C87      C        0.32260    0.17050    0.98877    1.000
    H64      H        0.31230    0.16710    0.90320    1.000
    C88      C        0.39980    0.21378    0.05120    1.000
    H65      H        0.44120    0.23930    0.00740    1.000
    C89      C        0.41517    0.21887    0.17900    1.000
    C90      C        0.35330    0.18068    0.24450    1.000
    H66      H        0.36360    0.18410    0.33000    1.000
    C91      C        0.27611    0.13740    0.18210    1.000
    H67      H        0.23470    0.11190    0.22590    1.000
    N8       N        0.90780    0.09042    0.99810    1.000
    H68      H        0.52590    0.30000    0.19210    1.000
    C92      C        0.82300    0.09760    0.91730    1.000
    H69      H        0.80510    0.05970    0.85990    1.000
    C93      C        0.75990    0.15890    0.91460    1.000
    H70      H        0.70250    0.16130    0.85530    1.000
    C94      C        0.78220    0.21677    0.00030    1.000
    C95      C        0.87050    0.20830    0.08550    1.000
    H71      H        0.88950    0.24470    0.14550    1.000
    C96      C        0.93000    0.14570    0.08070    1.000
    H72      H        0.98850    0.14200    0.13810    1.000
    C97      C        0.00000    0.23190    0.75000    1.000
    C98      C        0.50000    0.73190    0.75000    1.000
    C99      C        0.00000    0.76810    0.25000    1.000
    C100     C        0.50000    0.26810    0.25000    1.000
