# CIF file generated by openbabel 3.1.0, see https://openbabel.org
data_I
_chemical_name_common 'BAKGIF_clean5b'
_cell_length_a 7.5423
_cell_length_b 12.5387
_cell_length_c 13.6887
_cell_angle_alpha 90
_cell_angle_beta 105.991
_cell_angle_gamma 90
_space_group_name_H-M_alt 'P 1'
_space_group_name_Hall 'P 1'
loop_
    _symmetry_equiv_pos_as_xyz
    x,y,z
loop_
    _atom_site_label
    _atom_site_type_symbol
    _atom_site_fract_x
    _atom_site_fract_y
    _atom_site_fract_z
    _atom_site_occupancy
    Ni1      Ni       0.50000    0.50000    0.50000    1.000
    Ni2      Ni       0.00000    0.50000    0.50000    1.000
    H1       H        0.54290    0.73500    0.60660    1.000
    H2       H        0.57000    0.91200    0.63800    1.000
    H3       H        0.45710    0.73500    0.39340    1.000
    H4       H        0.78150    0.58070    0.09120    1.000
    H5       H        0.43000    0.91200    0.36200    1.000
    H6       H        0.06370    0.26500    0.60660    1.000
    H7       H        0.06800    0.08800    0.63800    1.000
    H8       H        0.93630    0.26500    0.39340    1.000
    H9       H        0.30970    0.41930    0.09120    1.000
    H10      H        0.93200    0.08800    0.36200    1.000
    H11      H        0.45710    0.26500    0.39340    1.000
    H12      H        0.43000    0.08800    0.36200    1.000
    H13      H        0.54290    0.26500    0.60660    1.000
    H14      H        0.21850    0.41930    0.90880    1.000
    H15      H        0.57000    0.08800    0.63800    1.000
    H16      H        0.93630    0.73500    0.39340    1.000
    H17      H        0.93200    0.91200    0.36200    1.000
    H18      H        0.06370    0.73500    0.60660    1.000
    H19      H        0.69030    0.58070    0.90880    1.000
    H20      H        0.06800    0.91200    0.63800    1.000
    C1       C        0.66013    0.94510    0.63746    1.000
    C2       C        0.66820    0.54120    0.05360    1.000
    C3       C        0.33987    0.94510    0.36254    1.000
    C4       C        0.97733    0.05490    0.63746    1.000
    C5       C        0.38540    0.45880    0.05360    1.000
    C6       C        0.02267    0.05490    0.36254    1.000
    C7       C        0.33987    0.05490    0.36254    1.000
    C8       C        0.33180    0.45880    0.94640    1.000
    C9       C        0.66013    0.05490    0.63746    1.000
    C10      C        0.02267    0.94510    0.36254    1.000
    C11      C        0.61460    0.54120    0.94640    1.000
    C12      C        0.97733    0.94510    0.63746    1.000
    C13      C        0.39128    0.50000    0.78256    1.000
    C14      C        0.44730    0.50000    0.89460    1.000
    C15      C        0.60872    0.50000    0.21744    1.000
    C16      C        0.55270    0.50000    0.10540    1.000
    C17      C        0.80771    0.77330    0.61542    1.000
    C18      C        0.81704    0.88790    0.63408    1.000
    C19      C        0.19229    0.77330    0.38458    1.000
    C20      C        0.18296    0.88790    0.36592    1.000
    C21      C        0.80771    0.22670    0.61542    1.000
    C22      C        0.81704    0.11210    0.63408    1.000
    C23      C        0.19229    0.22670    0.38458    1.000
    C24      C        0.18296    0.11210    0.36592    1.000
    N1       N        0.69608    0.61946    0.56796    1.000
    N2       N        0.65246    0.71453    0.59872    1.000
    N3       N        0.30392    0.61946    0.43204    1.000
    N4       N        0.34754    0.71453    0.40128    1.000
    N5       N        0.87188    0.38054    0.56796    1.000
    N6       N        0.94626    0.28547    0.59872    1.000
    N7       N        0.12812    0.38054    0.43204    1.000
    N8       N        0.05374    0.28547    0.40128    1.000
    N9       N        0.30392    0.38054    0.43204    1.000
    N10      N        0.34754    0.28547    0.40128    1.000
    N11      N        0.69608    0.38054    0.56796    1.000
    N12      N        0.65246    0.28547    0.59872    1.000
    N13      N        0.12812    0.61946    0.43204    1.000
    N14      N        0.05374    0.71453    0.40128    1.000
    N15      N        0.87188    0.61946    0.56796    1.000
    N16      N        0.94626    0.71453    0.59872    1.000
    N17      N        0.40294    0.50000    0.62948    1.000
    N18      N        0.50984    0.50000    0.72508    1.000
    N19      N        0.59706    0.50000    0.37052    1.000
    N20      N        0.49016    0.50000    0.27492    1.000
    N21      N        0.22654    0.50000    0.62948    1.000
    N22      N        0.21524    0.50000    0.72508    1.000
    N23      N        0.77346    0.50000    0.37052    1.000
    N24      N        0.78476    0.50000    0.27492    1.000
