data_functionalizedCrystal
_audit_creation_method	'EQeq! by Chris Wilmer'
_symmetry_space_group_name_H-M	'P1'
_symmetry_Int_Tables_number	1
_symmetry_cell_setting	triclinic
loop_
_symmetry_equiv_pos_as_xyz
  x,y,z
_cell_length_a	15.368
_cell_length_b	11.4122
_cell_length_c	22.2812
_cell_angle_alpha	90
_cell_angle_beta	101.847
_cell_angle_gamma	90
loop_
_atom_site_label
_atom_site_type_symbol
_atom_site_fract_x
_atom_site_fract_y
_atom_site_fract_z
_atom_site_charge
Mof_Mn	Mn	0.52496	0.47393	0.42878	1.005
Mof_Mn	Mn	0.64519	0.01612	0.37964	1.021
Mof_P 	P 	0.61933	0.73892	0.42569	0.621
Mof_O 	O 	0.55494	0.6423	0.40534	-0.352
Mof_O 	O 	0.60022	0.8442	0.3861	-0.341
Mof_O 	O 	0.7148	0.694	0.42374	-0.434
Mof_H 	H 	0.7496	0.715	0.4549	0.307
Mof_O 	O 	0.62763	0.7688	0.49542	-0.502
Mof_H 	H 	0.578	0.78	0.5025	0.322
Mof_O 	O 	0.5632	0.017	0.29283	-0.332
Mof_O 	O 	0.4544	0.1729	0.29027	-0.453
Mof_H 	H 	0.4394	0.234	0.2716	0.284
Mof_O 	O 	0.41162	0.5079	0.47448	-0.412
Mof_O 	O 	0.26312	0.5083	0.45713	-0.32
Mof_O 	O 	0.40658	0.473	0.35526	-0.283
Mof_O 	O 	0.25869	0.4836	0.33606	-0.276
Mof_O 	O 	0.50442	0.2827	0.44857	-0.314
Mof_O 	O 	0.5551	0.1054	0.42975	-0.297
Mof_O 	O 	0.61523	0.3826	0.38458	-0.292
Mof_O 	O 	0.67577	0.2091	0.37401	-0.279
Mof_C 	C 	0.3349	0.5015	0.44062	0.289
Mof_C 	C 	0.3327	0.484	0.37087	0.234
Mof_C 	C 	0.5534	0.2139	0.42603	0.254
Mof_C 	C 	0.6204	0.273	0.39181	0.233
Mof_Mn	Mn	0.02496	0.97393	0.42878	0.973
Mof_Mn	Mn	0.14519	0.51612	0.37964	1.015
Mof_P 	P 	0.11933	0.23892	0.42569	0.619
Mof_O 	O 	0.05494	0.1423	0.40534	-0.358
Mof_O 	O 	0.10022	0.3442	0.3861	-0.346
Mof_O 	O 	0.2148	0.194	0.42374	-0.435
Mof_H 	H 	0.2496	0.215	0.4549	0.307
Mof_O 	O 	0.12763	0.2688	0.49542	-0.5
Mof_H 	H 	0.078	0.28	0.5025	0.311
Mof_O 	O 	0.0632	0.517	0.29283	-0.333
Mof_O 	O 	0.9544	0.6729	0.29027	-0.418
Mof_H 	H 	0.9394	0.734	0.2716	0.282
Mof_O 	O 	0.91162	0.0079	0.47448	-0.401
Mof_O 	O 	0.76312	0.0083	0.45713	-0.32
Mof_O 	O 	0.90658	0.973	0.35526	-0.264
Mof_O 	O 	0.75869	0.9836	0.33606	-0.272
Mof_O 	O 	0.00442	0.7827	0.44857	-0.331
Mof_O 	O 	0.0551	0.6054	0.42975	-0.307
Mof_O 	O 	0.11523	0.8826	0.38458	-0.293
Mof_O 	O 	0.17577	0.7091	0.37401	-0.28
Mof_C 	C 	0.8349	0.0015	0.44062	0.291
Mof_C 	C 	0.8327	0.984	0.37087	0.234
Mof_C 	C 	0.0534	0.7139	0.42603	0.253
Mof_C 	C 	0.1204	0.773	0.39181	0.229
Mof_Mn	Mn	0.47504	0.47393	0.07122	1.006
Mof_Mn	Mn	0.35481	0.01612	0.12036	1.021
Mof_P 	P 	0.38067	0.73892	0.07431	0.622
Mof_O 	O 	0.44506	0.6423	0.09466	-0.351
Mof_O 	O 	0.39978	0.8442	0.1139	-0.341
Mof_O 	O 	0.2852	0.694	0.07626	-0.437
Mof_H 	H 	0.2504	0.715	0.0451	0.306
Mof_O 	O 	0.37237	0.7688	0.00458	-0.503
Mof_H 	H 	0.422	0.78	0.9975	0.323
Mof_O 	O 	0.4368	0.017	0.20717	-0.332
Mof_O 	O 	0.5456	0.1729	0.20973	-0.452
Mof_H 	H 	0.5606	0.234	0.2284	0.284
Mof_O 	O 	0.58838	0.5079	0.02552	-0.412
Mof_O 	O 	0.73688	0.5083	0.04287	-0.319
Mof_O 	O 	0.59342	0.473	0.14474	-0.282
Mof_O 	O 	0.74131	0.4836	0.16394	-0.273
Mof_O 	O 	0.49558	0.2827	0.05143	-0.314
Mof_O 	O 	0.4449	0.1054	0.07025	-0.296
Mof_O 	O 	0.38477	0.3826	0.11542	-0.294
Mof_O 	O 	0.32423	0.2091	0.12599	-0.282
Mof_C 	C 	0.6651	0.5015	0.05938	0.289
Mof_C 	C 	0.6673	0.484	0.12913	0.234
Mof_C 	C 	0.4466	0.2139	0.07397	0.253
Mof_C 	C 	0.3796	0.273	0.10819	0.234
Mof_Mn	Mn	0.97504	0.97393	0.07122	1.038
Mof_Mn	Mn	0.85481	0.51612	0.12036	1.024
Mof_P 	P 	0.88067	0.23892	0.07431	0.625
Mof_O 	O 	0.94506	0.1423	0.09466	-0.344
Mof_O 	O 	0.89978	0.3442	0.1139	-0.335
Mof_O 	O 	0.7852	0.194	0.07626	-0.434
Mof_H 	H 	0.7504	0.215	0.0451	0.307
Mof_O 	O 	0.87237	0.2688	0.00458	-0.504
Mof_H 	H 	0.922	0.28	0.9975	0.335
Mof_O 	O 	0.9368	0.517	0.20717	-0.305
Mof_O 	O 	0.0456	0.6729	0.20973	-0.457
Mof_H 	H 	0.0606	0.734	0.2284	0.278
Mof_O 	O 	0.08838	0.0079	0.02552	-0.422
Mof_O 	O 	0.23688	0.0083	0.04287	-0.319
Mof_O 	O 	0.09342	0.973	0.14474	-0.301
Mof_O 	O 	0.24131	0.9836	0.16394	-0.277
Mof_O 	O 	0.99558	0.7827	0.05143	-0.298
Mof_O 	O 	0.9449	0.6054	0.07025	-0.286
Mof_O 	O 	0.88477	0.8826	0.11542	-0.292
Mof_O 	O 	0.82423	0.7091	0.12599	-0.28
Mof_C 	C 	0.1651	0.0015	0.05938	0.287
Mof_C 	C 	0.1673	0.984	0.12913	0.234
Mof_C 	C 	0.9466	0.7139	0.07397	0.253
Mof_C 	C 	0.8796	0.773	0.10819	0.238
Mof_Mn	Mn	0.47504	0.52607	0.57122	1.006
Mof_Mn	Mn	0.35481	0.98388	0.62036	1.021
Mof_P 	P 	0.38067	0.26108	0.57431	0.622
Mof_O 	O 	0.44506	0.3577	0.59466	-0.351
Mof_O 	O 	0.39978	0.1558	0.6139	-0.341
Mof_O 	O 	0.2852	0.306	0.57626	-0.437
Mof_H 	H 	0.2504	0.285	0.5451	0.306
Mof_O 	O 	0.37237	0.2312	0.50458	-0.502
Mof_H 	H 	0.422	0.22	0.4975	0.323
Mof_O 	O 	0.4368	0.983	0.70717	-0.332
Mof_O 	O 	0.5456	0.8271	0.70973	-0.452
Mof_H 	H 	0.5606	0.766	0.7284	0.284
Mof_O 	O 	0.58838	0.4921	0.52552	-0.412
Mof_O 	O 	0.73688	0.4917	0.54287	-0.319
Mof_O 	O 	0.59342	0.527	0.64474	-0.282
Mof_O 	O 	0.74131	0.5164	0.66394	-0.273
Mof_O 	O 	0.49558	0.7173	0.55143	-0.314
Mof_O 	O 	0.4449	0.8946	0.57025	-0.297
Mof_O 	O 	0.38477	0.6174	0.61542	-0.294
Mof_O 	O 	0.32423	0.7909	0.62599	-0.282
Mof_C 	C 	0.6651	0.4985	0.55938	0.289
Mof_C 	C 	0.6673	0.516	0.62913	0.234
Mof_C 	C 	0.4466	0.7861	0.57397	0.253
Mof_C 	C 	0.3796	0.727	0.60819	0.234
Mof_Mn	Mn	0.97504	0.02607	0.57122	1.04
Mof_Mn	Mn	0.85481	0.48388	0.62036	1.024
Mof_P 	P 	0.88067	0.76108	0.57431	0.625
Mof_O 	O 	0.94506	0.8577	0.59466	-0.344
Mof_O 	O 	0.89978	0.6558	0.6139	-0.334
Mof_O 	O 	0.7852	0.806	0.57626	-0.434
Mof_H 	H 	0.7504	0.785	0.5451	0.307
Mof_O 	O 	0.87237	0.7312	0.50458	-0.503
Mof_H 	H 	0.922	0.72	0.4975	0.335
Mof_O 	O 	0.9368	0.483	0.70717	-0.304
Mof_O 	O 	0.0456	0.3271	0.70973	-0.458
Mof_H 	H 	0.0606	0.266	0.7284	0.278
Mof_O 	O 	0.08838	0.9921	0.52552	-0.423
Mof_O 	O 	0.23688	0.9917	0.54287	-0.32
Mof_O 	O 	0.09342	0.027	0.64474	-0.302
Mof_O 	O 	0.24131	0.0164	0.66394	-0.277
Mof_O 	O 	0.99558	0.2173	0.55143	-0.298
Mof_O 	O 	0.9449	0.3946	0.57025	-0.286
Mof_O 	O 	0.88477	0.1174	0.61542	-0.292
Mof_O 	O 	0.82423	0.2909	0.62599	-0.279
Mof_C 	C 	0.1651	0.9985	0.55938	0.287
Mof_C 	C 	0.1673	0.016	0.62913	0.234
Mof_C 	C 	0.9466	0.2861	0.57397	0.253
Mof_C 	C 	0.8796	0.227	0.60819	0.238
Mof_Mn	Mn	0.52496	0.52607	0.92878	1.006
Mof_Mn	Mn	0.64519	0.98388	0.87964	1.023
Mof_P 	P 	0.61933	0.26108	0.92569	0.622
Mof_O 	O 	0.55494	0.3577	0.90534	-0.351
Mof_O 	O 	0.60022	0.1558	0.8861	-0.34
Mof_O 	O 	0.7148	0.306	0.92374	-0.433
Mof_H 	H 	0.7496	0.285	0.9549	0.308
Mof_O 	O 	0.62763	0.2312	0.99542	-0.502
Mof_H 	H 	0.578	0.22	0.0025	0.323
Mof_O 	O 	0.5632	0.983	0.79283	-0.332
Mof_O 	O 	0.4544	0.8271	0.79027	-0.453
Mof_H 	H 	0.4394	0.766	0.7716	0.284
Mof_O 	O 	0.41162	0.4921	0.97448	-0.412
Mof_O 	O 	0.26312	0.4917	0.95713	-0.321
Mof_O 	O 	0.40658	0.527	0.85526	-0.283
Mof_O 	O 	0.25869	0.5164	0.83606	-0.276
Mof_O 	O 	0.50442	0.7173	0.94857	-0.314
Mof_O 	O 	0.5551	0.8946	0.92975	-0.297
Mof_O 	O 	0.61523	0.6174	0.88458	-0.292
Mof_O 	O 	0.67577	0.7909	0.87401	-0.278
Mof_C 	C 	0.3349	0.4985	0.94062	0.289
Mof_C 	C 	0.3327	0.516	0.87087	0.234
Mof_C 	C 	0.5534	0.7861	0.92603	0.254
Mof_C 	C 	0.6204	0.727	0.89181	0.233
Mof_Mn	Mn	0.02496	0.02607	0.92878	0.972
Mof_Mn	Mn	0.14519	0.48388	0.87964	1.015
Mof_P 	P 	0.11933	0.76108	0.92569	0.619
Mof_O 	O 	0.05494	0.8577	0.90534	-0.358
Mof_O 	O 	0.10022	0.6558	0.8861	-0.346
Mof_O 	O 	0.2148	0.806	0.92374	-0.435
Mof_H 	H 	0.2496	0.785	0.9549	0.307
Mof_O 	O 	0.12763	0.7312	0.99542	-0.5
Mof_H 	H 	0.078	0.72	0.0025	0.311
Mof_O 	O 	0.0632	0.483	0.79283	-0.333
Mof_O 	O 	0.9544	0.3271	0.79027	-0.418
Mof_H 	H 	0.9394	0.266	0.7716	0.282
Mof_O 	O 	0.91162	0.9921	0.97448	-0.4
Mof_O 	O 	0.76312	0.9917	0.95713	-0.32
Mof_O 	O 	0.90658	0.027	0.85526	-0.263
Mof_O 	O 	0.75869	0.0164	0.83606	-0.272
Mof_O 	O 	0.00442	0.2173	0.94857	-0.331
Mof_O 	O 	0.0551	0.3946	0.92975	-0.307
Mof_O 	O 	0.11523	0.1174	0.88458	-0.293
Mof_O 	O 	0.17577	0.2909	0.87401	-0.28
Mof_C 	C 	0.8349	0.9985	0.94062	0.291
Mof_C 	C 	0.8327	0.016	0.87087	0.233
Mof_C 	C 	0.0534	0.2861	0.92603	0.253
Mof_C 	C 	0.1204	0.227	0.89181	0.229
Mof_P 	P 	0.5	0.09041	0.25	0.628
Mof_P 	P 	1.63801e-33	0.59041	0.25	0.579
Mof_P 	P 	0.5	0.90959	0.75	0.628
Mof_P 	P 	2.97259e-17	0.40959	0.75	0.578
_end
