data_functionalizedCrystal
_audit_creation_method	'EQeq! by Chris Wilmer'
_symmetry_space_group_name_H-M	'P1'
_symmetry_Int_Tables_number	1
_symmetry_cell_setting	triclinic
loop_
_symmetry_equiv_pos_as_xyz
  x,y,z
_cell_length_a	15.639
_cell_length_b	21.426
_cell_length_c	15.9981
_cell_angle_alpha	90
_cell_angle_beta	94.5887
_cell_angle_gamma	90
loop_
_atom_site_label
_atom_site_type_symbol
_atom_site_fract_x
_atom_site_fract_y
_atom_site_fract_z
_atom_site_charge
Mof_Zn	Zn	0.8071	0.76332	0.94616	1.217
Mof_Zn	Zn	0.32564	0.25657	0.43224	1.215
Mof_O 	O 	0.72282	0.71338	0.87196	-0.462
Mof_O 	O 	0.63603	0.69417	0.97352	-0.466
Mof_O 	O 	0.38087	0.32679	0.50054	-0.465
Mof_O 	O 	0.26803	0.34162	0.57603	-0.465
Mof_O 	O 	0.24294	0.19222	0.38202	-0.466
Mof_O 	O 	0.16137	0.18214	0.49029	-0.461
Mof_O 	O 	0.86871	0.81049	0.0422	-0.466
Mof_O 	O 	0.75877	0.82513	0.12102	-0.45
Mof_N 	N 	0.89871	0.77527	0.8652	-0.261
Mof_N 	N 	0.58213	0.74895	0.15004	-0.258
Mof_C 	C 	0.9726	0.80366	0.88832	0.094
Mof_H 	H 	0.981	0.8197	0.9437	-0.002
Mof_C 	C 	0.03746	0.81092	0.83565	-0.163
Mof_H 	H 	0.0893	0.8315	0.8543	0.092
Mof_C 	C 	0.0252	0.78759	0.75503	0.126
Mof_C 	C 	0.94791	0.75929	0.73036	-0.166
Mof_H 	H 	0.9371	0.7439	0.6748	0.099
Mof_C 	C 	0.88666	0.75361	0.78728	0.095
Mof_H 	H 	0.834	0.7335	0.7702	0.003
Mof_C 	C 	0.09119	0.78875	0.69789	-0.072
Mof_C 	C 	0.14207	0.78514	0.64656	0.024
Mof_C 	C 	0.20058	0.77962	0.58075	-0.033
Mof_C 	C 	0.23224	0.71287	0.569	0.016
Mof_C 	C 	0.2138	0.66175	0.6169	-0.069
Mof_H 	H 	0.1747	0.6654	0.6591	0.053
Mof_C 	C 	0.2528	0.605	0.6028	-0.029
Mof_H 	H 	0.2413	0.5699	0.6364	0.037
Mof_C 	C 	0.3086	0.5991	0.54	-0.034
Mof_H 	H 	0.3353	0.5601	0.5309	0.044
Mof_C 	C 	0.3255	0.65034	0.4903	-0.064
Mof_H 	H 	0.3625	0.6462	0.4464	0.055
Mof_C 	C 	0.28789	0.70719	0.5053	0.014
Mof_C 	C 	0.30429	0.76906	0.46101	-0.033
Mof_C 	C 	0.21546	0.79546	0.4313	0.016
Mof_C 	C 	0.16039	0.80074	0.49495	0.018
Mof_C 	C 	0.07887	0.82435	0.4791	-0.067
Mof_H 	H 	0.0409	0.8266	0.5225	0.06
Mof_C 	C 	0.053	0.84496	0.3986	-0.027
Mof_H 	H 	0.9976	0.8627	0.387	0.043
Mof_C 	C 	0.1076	0.8397	0.3355	-0.028
Mof_H 	H 	0.0892	0.8533	0.2805	0.042
Mof_C 	C 	0.1895	0.81477	0.3513	-0.063
Mof_H 	H 	0.2268	0.8112	0.3075	0.055
Mof_C 	C 	0.28331	0.81843	0.59652	0.014
Mof_C 	C 	0.3052	0.85541	0.6655	-0.06
Mof_H 	H 	0.2672	0.8597	0.7085	0.054
Mof_C 	C 	0.383	0.88607	0.6711	-0.031
Mof_H 	H 	0.3983	0.9122	0.7179	0.044
Mof_C 	C 	0.4386	0.87914	0.6093	-0.021
Mof_H 	H 	0.4923	0.9001	0.6141	0.039
Mof_C 	C 	0.4168	0.84158	0.5396	-0.07
Mof_H 	H 	0.4556	0.8363	0.4975	0.062
Mof_C 	C 	0.33864	0.81242	0.53285	0.021
Mof_C 	C 	0.36135	0.76342	0.3937	0.023
Mof_C 	C 	0.40623	0.75932	0.3371	-0.069
Mof_C 	C 	0.46401	0.75493	0.27143	0.123
Mof_C 	C 	0.53841	0.72021	0.28428	-0.163
Mof_H 	H 	0.5502	0.6974	0.3348	0.096
Mof_C 	C 	0.5955	0.71908	0.22265	0.099
Mof_H 	H 	0.6469	0.6957	0.2327	-0.001
Mof_C 	C 	0.50836	0.78147	0.13749	0.088
Mof_H 	H 	0.4973	0.8028	0.0857	0.002
Mof_C 	C 	0.44775	0.78556	0.19605	-0.158
Mof_H 	H 	0.3965	0.8088	0.1845	0.092
Mof_C 	C 	0.66146	0.68536	0.90192	0.39
Mof_C 	C 	0.61507	0.63752	0.84668	-0.118
Mof_C 	C 	0.63563	0.6289	0.76463	0.039
Mof_H 	H 	0.6805	0.6527	0.7438	0.037
Mof_C 	C 	0.59137	0.58593	0.71285	-0.103
Mof_H 	H 	0.6065	0.5805	0.657	0.069
Mof_C 	C 	0.52501	0.55055	0.74168	0.039
Mof_C 	C 	0.50583	0.55901	0.82458	-0.104
Mof_H 	H 	0.4613	0.535	0.8458	0.064
Mof_C 	C 	0.55003	0.60147	0.87632	0.043
Mof_H 	H 	0.536	0.6061	0.9327	0.026
Mof_C 	C 	0.47574	0.50444	0.68797	0.039
Mof_C 	C 	0.51168	0.47446	0.62176	-0.107
Mof_H 	H 	0.5674	0.486	0.6077	0.065
Mof_C 	C 	0.46723	0.42824	0.57641	0.039
Mof_H 	H 	0.4927	0.4084	0.5315	0.028
Mof_C 	C 	0.38541	0.41046	0.59586	-0.127
Mof_C 	C 	0.34792	0.4421	0.65887	0.042
Mof_H 	H 	0.2913	0.4317	0.6713	0.027
Mof_C 	C 	0.39185	0.48874	0.70401	-0.108
Mof_H 	H 	0.3647	0.5104	0.7464	0.065
Mof_C 	C 	0.34071	0.35569	0.55361	0.388
Mof_C 	C 	0.18368	0.16713	0.41947	0.389
Mof_C 	C 	0.13534	0.11526	0.37442	-0.122
Mof_C 	C 	0.07437	0.08177	0.41342	0.043
Mof_H 	H 	0.0651	0.0903	0.4703	0.026
Mof_C 	C 	0.02658	0.03587	0.3703	-0.104
Mof_H 	H 	0.9857	0.0127	0.3983	0.064
Mof_C 	C 	0.03778	0.02334	0.2865	0.038
Mof_C 	C 	0.09994	0.05671	0.24768	-0.102
Mof_H 	H 	0.109	0.0485	0.1907	0.065
Mof_C 	C 	0.14868	0.10173	0.29129	0.043
Mof_H 	H 	0.1916	0.1236	0.2643	0.031
Mof_C 	C 	0.98481	0.97587	0.2389	0.046
Mof_C 	C 	0.9013	0.963	0.2574	-0.11
Mof_H 	H 	0.8774	0.9855	0.3011	0.068
Mof_C 	C 	0.8522	0.9183	0.2136	0.047
Mof_H 	H 	0.7953	0.9103	0.2277	0.028
Mof_C 	C 	0.88501	0.88511	0.14966	-0.127
Mof_C 	C 	0.96843	0.89755	0.13018	0.046
Mof_H 	H 	0.9921	0.8751	0.0863	0.028
Mof_C 	C 	0.01715	0.94224	0.17423	-0.114
Mof_H 	H 	0.074	0.9501	0.16	0.065
Mof_C 	C 	0.83268	0.83679	0.10066	0.387
Mof_Zn	Zn	0.1929	0.26332	0.55384	1.216
Mof_Zn	Zn	0.67436	0.75657	0.06776	1.214
Mof_O 	O 	0.27718	0.21338	0.62804	-0.462
Mof_O 	O 	0.36397	0.19417	0.52648	-0.466
Mof_O 	O 	0.61913	0.82679	0.99946	-0.465
Mof_O 	O 	0.73197	0.84162	0.92397	-0.465
Mof_O 	O 	0.75706	0.69222	0.11798	-0.466
Mof_O 	O 	0.83863	0.68214	0.00971	-0.461
Mof_O 	O 	0.13129	0.31049	0.4578	-0.466
Mof_O 	O 	0.24123	0.32513	0.37898	-0.449
Mof_N 	N 	0.10129	0.27527	0.6348	-0.261
Mof_N 	N 	0.41787	0.24895	0.34996	-0.258
Mof_C 	C 	0.0274	0.30366	0.61168	0.097
Mof_H 	H 	0.019	0.3197	0.5563	-0.002
Mof_C 	C 	0.96254	0.31092	0.66435	-0.165
Mof_H 	H 	0.9107	0.3315	0.6457	0.092
Mof_C 	C 	0.9748	0.28759	0.74497	0.124
Mof_C 	C 	0.05209	0.25929	0.76964	-0.163
Mof_H 	H 	0.0629	0.2439	0.8252	0.099
Mof_C 	C 	0.11334	0.25361	0.71272	0.095
Mof_H 	H 	0.166	0.2335	0.7298	0.003
Mof_C 	C 	0.90881	0.28875	0.80211	-0.073
Mof_C 	C 	0.85793	0.28514	0.85344	0.024
Mof_C 	C 	0.79942	0.27962	0.91925	-0.036
Mof_C 	C 	0.76776	0.21287	0.931	0.019
Mof_C 	C 	0.7862	0.16175	0.8831	-0.073
Mof_H 	H 	0.8253	0.1654	0.8409	0.054
Mof_C 	C 	0.7472	0.105	0.8972	-0.025
Mof_H 	H 	0.7587	0.0699	0.8636	0.035
Mof_C 	C 	0.6914	0.0991	0.96	-0.04
Mof_H 	H 	0.6647	0.0601	0.9691	0.045
Mof_C 	C 	0.6745	0.15034	0.0097	-0.057
Mof_H 	H 	0.6375	0.1462	0.0536	0.053
Mof_C 	C 	0.71211	0.20719	0.9947	0.009
Mof_C 	C 	0.69571	0.26906	0.03899	-0.029
Mof_C 	C 	0.78454	0.29546	0.0687	0.014
Mof_C 	C 	0.83961	0.30074	0.00505	0.021
Mof_C 	C 	0.92113	0.32435	0.0209	-0.066
Mof_H 	H 	0.9591	0.3266	0.9775	0.059
Mof_C 	C 	0.947	0.34496	0.1014	-0.021
Mof_H 	H 	0.0024	0.3627	0.113	0.04
Mof_C 	C 	0.8924	0.3397	0.1645	-0.031
Mof_H 	H 	0.9108	0.3533	0.2195	0.044
Mof_C 	C 	0.8105	0.31477	0.1487	-0.061
Mof_H 	H 	0.7732	0.3112	0.1925	0.054
Mof_C 	C 	0.71669	0.31843	0.90348	0.016
Mof_C 	C 	0.6948	0.35541	0.8345	-0.061
Mof_H 	H 	0.7328	0.3597	0.7915	0.055
Mof_C 	C 	0.617	0.38607	0.8289	-0.031
Mof_H 	H 	0.6017	0.4122	0.7821	0.044
Mof_C 	C 	0.5614	0.37914	0.8907	-0.022
Mof_H 	H 	0.5077	0.4001	0.8859	0.039
Mof_C 	C 	0.5832	0.34158	0.9604	-0.07
Mof_H 	H 	0.5444	0.3363	0.0025	0.062
Mof_C 	C 	0.66136	0.31242	0.96715	0.018
Mof_C 	C 	0.63865	0.26342	0.1063	0.022
Mof_C 	C 	0.59377	0.25932	0.1629	-0.068
Mof_C 	C 	0.53599	0.25493	0.22857	0.123
Mof_C 	C 	0.46159	0.22021	0.21572	-0.163
Mof_H 	H 	0.4498	0.1974	0.1652	0.096
Mof_C 	C 	0.4045	0.21908	0.27735	0.099
Mof_H 	H 	0.3531	0.1957	0.2673	-0.001
Mof_C 	C 	0.49164	0.28147	0.36251	0.088
Mof_H 	H 	0.5027	0.3028	0.4143	0.002
Mof_C 	C 	0.55225	0.28556	0.30395	-0.158
Mof_H 	H 	0.6035	0.3088	0.3155	0.092
Mof_C 	C 	0.33854	0.18536	0.59808	0.39
Mof_C 	C 	0.38493	0.13752	0.65332	-0.118
Mof_C 	C 	0.36437	0.1289	0.73537	0.04
Mof_H 	H 	0.3195	0.1527	0.7562	0.037
Mof_C 	C 	0.40863	0.08593	0.78715	-0.103
Mof_H 	H 	0.3935	0.0805	0.843	0.07
Mof_C 	C 	0.47499	0.05055	0.75832	0.04
Mof_C 	C 	0.49417	0.05901	0.67542	-0.105
Mof_H 	H 	0.5387	0.035	0.6542	0.064
Mof_C 	C 	0.44997	0.10147	0.62368	0.044
Mof_H 	H 	0.464	0.1061	0.5673	0.026
Mof_C 	C 	0.52426	0.00444	0.81203	0.037
Mof_C 	C 	0.48832	0.97446	0.87824	-0.106
Mof_H 	H 	0.4326	0.986	0.8923	0.064
Mof_C 	C 	0.53277	0.92824	0.92359	0.038
Mof_H 	H 	0.5073	0.9084	0.9685	0.028
Mof_C 	C 	0.61459	0.91046	0.90414	-0.126
Mof_C 	C 	0.65208	0.9421	0.84113	0.041
Mof_H 	H 	0.7087	0.9317	0.8287	0.027
Mof_C 	C 	0.60815	0.98874	0.79599	-0.106
Mof_H 	H 	0.6353	0.0104	0.7536	0.064
Mof_C 	C 	0.65929	0.85569	0.94639	0.387
Mof_C 	C 	0.81632	0.66713	0.08053	0.389
Mof_C 	C 	0.86466	0.61526	0.12558	-0.121
Mof_C 	C 	0.92563	0.58177	0.08658	0.042
Mof_H 	H 	0.9349	0.5903	0.0297	0.027
Mof_C 	C 	0.97342	0.53587	0.1297	-0.102
Mof_H 	H 	0.0143	0.5127	0.1017	0.062
Mof_C 	C 	0.96222	0.52334	0.2135	0.042
Mof_C 	C 	0.90006	0.55671	0.25232	-0.104
Mof_H 	H 	0.891	0.5485	0.3093	0.066
Mof_C 	C 	0.85132	0.60173	0.20871	0.044
Mof_H 	H 	0.8084	0.6236	0.2357	0.031
Mof_C 	C 	0.01519	0.47587	0.2611	0.036
Mof_C 	C 	0.0987	0.463	0.2426	-0.104
Mof_H 	H 	0.1226	0.4855	0.1989	0.066
Mof_C 	C 	0.1478	0.4183	0.2864	0.042
Mof_H 	H 	0.2047	0.4103	0.2723	0.03
Mof_C 	C 	0.11499	0.38511	0.35034	-0.122
Mof_C 	C 	0.03157	0.39755	0.36982	0.036
Mof_H 	H 	0.0079	0.3751	0.4137	0.031
Mof_C 	C 	0.98285	0.44224	0.32577	-0.101
Mof_H 	H 	0.926	0.4501	0.34	0.061
Mof_C 	C 	0.16732	0.33679	0.39934	0.385
Mof_Zn	Zn	0.1929	0.23668	0.05384	1.216
Mof_Zn	Zn	0.67436	0.74343	0.56776	1.214
Mof_O 	O 	0.27718	0.28662	0.12804	-0.462
Mof_O 	O 	0.36397	0.30583	0.02648	-0.466
Mof_O 	O 	0.61913	0.67321	0.49946	-0.465
Mof_O 	O 	0.73197	0.65838	0.42397	-0.465
Mof_O 	O 	0.75706	0.80778	0.61798	-0.466
Mof_O 	O 	0.83863	0.81786	0.50971	-0.461
Mof_O 	O 	0.13129	0.18951	0.9578	-0.466
Mof_O 	O 	0.24123	0.17487	0.87898	-0.45
Mof_N 	N 	0.10129	0.22473	0.1348	-0.261
Mof_N 	N 	0.41787	0.25105	0.84996	-0.258
Mof_C 	C 	0.0274	0.19634	0.11168	0.094
Mof_H 	H 	0.019	0.1803	0.0563	-0.002
Mof_C 	C 	0.96254	0.18908	0.16435	-0.163
Mof_H 	H 	0.9107	0.1685	0.1457	0.092
Mof_C 	C 	0.9748	0.21241	0.24497	0.126
Mof_C 	C 	0.05209	0.24071	0.26964	-0.166
Mof_H 	H 	0.0629	0.2561	0.3252	0.099
Mof_C 	C 	0.11334	0.24639	0.21272	0.095
Mof_H 	H 	0.166	0.2665	0.2298	0.003
Mof_C 	C 	0.90881	0.21125	0.30211	-0.072
Mof_C 	C 	0.85793	0.21486	0.35344	0.024
Mof_C 	C 	0.79942	0.22038	0.41925	-0.033
Mof_C 	C 	0.76776	0.28713	0.431	0.016
Mof_C 	C 	0.7862	0.33825	0.3831	-0.069
Mof_H 	H 	0.8253	0.3346	0.3409	0.053
Mof_C 	C 	0.7472	0.395	0.3972	-0.029
Mof_H 	H 	0.7587	0.4301	0.3636	0.037
Mof_C 	C 	0.6914	0.4009	0.46	-0.034
Mof_H 	H 	0.6647	0.4399	0.4691	0.044
Mof_C 	C 	0.6745	0.34966	0.5097	-0.064
Mof_H 	H 	0.6375	0.3538	0.5536	0.055
Mof_C 	C 	0.71211	0.29281	0.4947	0.014
Mof_C 	C 	0.69571	0.23094	0.53899	-0.033
Mof_C 	C 	0.78454	0.20454	0.5687	0.016
Mof_C 	C 	0.83961	0.19926	0.50505	0.018
Mof_C 	C 	0.92113	0.17565	0.5209	-0.067
Mof_H 	H 	0.9591	0.1734	0.4775	0.06
Mof_C 	C 	0.947	0.15504	0.6014	-0.027
Mof_H 	H 	0.0024	0.1373	0.613	0.043
Mof_C 	C 	0.8924	0.1603	0.6645	-0.028
Mof_H 	H 	0.9108	0.1467	0.7195	0.042
Mof_C 	C 	0.8105	0.18523	0.6487	-0.063
Mof_H 	H 	0.7732	0.1888	0.6925	0.055
Mof_C 	C 	0.71669	0.18157	0.40348	0.014
Mof_C 	C 	0.6948	0.14459	0.3345	-0.06
Mof_H 	H 	0.7328	0.1403	0.2915	0.054
Mof_C 	C 	0.617	0.11393	0.3289	-0.031
Mof_H 	H 	0.6017	0.0878	0.2821	0.044
Mof_C 	C 	0.5614	0.12086	0.3907	-0.021
Mof_H 	H 	0.5077	0.0999	0.3859	0.039
Mof_C 	C 	0.5832	0.15842	0.4604	-0.07
Mof_H 	H 	0.5444	0.1637	0.5025	0.062
Mof_C 	C 	0.66136	0.18758	0.46715	0.021
Mof_C 	C 	0.63865	0.23658	0.6063	0.023
Mof_C 	C 	0.59377	0.24068	0.6629	-0.069
Mof_C 	C 	0.53599	0.24507	0.72857	0.123
Mof_C 	C 	0.46159	0.27979	0.71572	-0.163
Mof_H 	H 	0.4498	0.3026	0.6652	0.096
Mof_C 	C 	0.4045	0.28092	0.77735	0.099
Mof_H 	H 	0.3531	0.3043	0.7673	-0.001
Mof_C 	C 	0.49164	0.21853	0.86251	0.088
Mof_H 	H 	0.5027	0.1972	0.9143	0.002
Mof_C 	C 	0.55225	0.21444	0.80395	-0.158
Mof_H 	H 	0.6035	0.1912	0.8155	0.092
Mof_C 	C 	0.33854	0.31464	0.09808	0.39
Mof_C 	C 	0.38493	0.36248	0.15332	-0.118
Mof_C 	C 	0.36437	0.3711	0.23537	0.039
Mof_H 	H 	0.3195	0.3473	0.2562	0.037
Mof_C 	C 	0.40863	0.41407	0.28715	-0.103
Mof_H 	H 	0.3935	0.4195	0.343	0.069
Mof_C 	C 	0.47499	0.44945	0.25832	0.039
Mof_C 	C 	0.49417	0.44099	0.17542	-0.104
Mof_H 	H 	0.5387	0.465	0.1542	0.064
Mof_C 	C 	0.44997	0.39853	0.12368	0.043
Mof_H 	H 	0.464	0.3939	0.0673	0.026
Mof_C 	C 	0.52426	0.49556	0.31203	0.039
Mof_C 	C 	0.48832	0.52554	0.37824	-0.107
Mof_H 	H 	0.4326	0.514	0.3923	0.065
Mof_C 	C 	0.53277	0.57176	0.42359	0.039
Mof_H 	H 	0.5073	0.5916	0.4685	0.028
Mof_C 	C 	0.61459	0.58954	0.40414	-0.127
Mof_C 	C 	0.65208	0.5579	0.34113	0.042
Mof_H 	H 	0.7087	0.5683	0.3287	0.027
Mof_C 	C 	0.60815	0.51126	0.29599	-0.108
Mof_H 	H 	0.6353	0.4896	0.2536	0.065
Mof_C 	C 	0.65929	0.64431	0.44639	0.388
Mof_C 	C 	0.81632	0.83287	0.58053	0.389
Mof_C 	C 	0.86466	0.88474	0.62558	-0.122
Mof_C 	C 	0.92563	0.91823	0.58658	0.043
Mof_H 	H 	0.9349	0.9097	0.5297	0.026
Mof_C 	C 	0.97342	0.96413	0.6297	-0.104
Mof_H 	H 	0.0143	0.9873	0.6017	0.064
Mof_C 	C 	0.96222	0.97666	0.7135	0.038
Mof_C 	C 	0.90006	0.94329	0.75232	-0.102
Mof_H 	H 	0.891	0.9515	0.8093	0.065
Mof_C 	C 	0.85132	0.89827	0.70871	0.043
Mof_H 	H 	0.8084	0.8764	0.7357	0.031
Mof_C 	C 	0.01519	0.02413	0.7611	0.046
Mof_C 	C 	0.0987	0.037	0.7426	-0.11
Mof_H 	H 	0.1226	0.0145	0.6989	0.068
Mof_C 	C 	0.1478	0.0817	0.7864	0.047
Mof_H 	H 	0.2047	0.0897	0.7723	0.028
Mof_C 	C 	0.11499	0.11489	0.85034	-0.127
Mof_C 	C 	0.03157	0.10245	0.86982	0.046
Mof_H 	H 	0.0079	0.1249	0.9137	0.028
Mof_C 	C 	0.98285	0.05776	0.82577	-0.114
Mof_H 	H 	0.926	0.0499	0.84	0.065
Mof_C 	C 	0.16732	0.16321	0.89934	0.387
Mof_Zn	Zn	0.8071	0.73668	0.44616	1.216
Mof_Zn	Zn	0.32564	0.24343	0.93224	1.214
Mof_O 	O 	0.72282	0.78662	0.37196	-0.462
Mof_O 	O 	0.63603	0.80583	0.47352	-0.466
Mof_O 	O 	0.38087	0.17321	0.00054	-0.465
Mof_O 	O 	0.26803	0.15838	0.07603	-0.465
Mof_O 	O 	0.24294	0.30778	0.88202	-0.466
Mof_O 	O 	0.16137	0.31786	0.99029	-0.461
Mof_O 	O 	0.86871	0.68951	0.5422	-0.466
Mof_O 	O 	0.75877	0.67487	0.62102	-0.449
Mof_N 	N 	0.89871	0.72473	0.3652	-0.261
Mof_N 	N 	0.58213	0.75105	0.65004	-0.258
Mof_C 	C 	0.9726	0.69634	0.38832	0.097
Mof_H 	H 	0.981	0.6803	0.4437	-0.002
Mof_C 	C 	0.03746	0.68908	0.33565	-0.165
Mof_H 	H 	0.0893	0.6685	0.3543	0.092
Mof_C 	C 	0.0252	0.71241	0.25503	0.124
Mof_C 	C 	0.94791	0.74071	0.23036	-0.163
Mof_H 	H 	0.9371	0.7561	0.1748	0.099
Mof_C 	C 	0.88666	0.74639	0.28728	0.095
Mof_H 	H 	0.834	0.7665	0.2702	0.003
Mof_C 	C 	0.09119	0.71125	0.19789	-0.073
Mof_C 	C 	0.14207	0.71486	0.14656	0.024
Mof_C 	C 	0.20058	0.72038	0.08075	-0.036
Mof_C 	C 	0.23224	0.78713	0.069	0.019
Mof_C 	C 	0.2138	0.83825	0.1169	-0.073
Mof_H 	H 	0.1747	0.8346	0.1591	0.054
Mof_C 	C 	0.2528	0.895	0.1028	-0.025
Mof_H 	H 	0.2413	0.9301	0.1364	0.035
Mof_C 	C 	0.3086	0.9009	0.04	-0.04
Mof_H 	H 	0.3353	0.9399	0.0309	0.045
Mof_C 	C 	0.3255	0.84966	0.9903	-0.057
Mof_H 	H 	0.3625	0.8538	0.9464	0.053
Mof_C 	C 	0.28789	0.79281	0.0053	0.009
Mof_C 	C 	0.30429	0.73094	0.96101	-0.029
Mof_C 	C 	0.21546	0.70454	0.9313	0.014
Mof_C 	C 	0.16039	0.69926	0.99495	0.021
Mof_C 	C 	0.07887	0.67565	0.9791	-0.066
Mof_H 	H 	0.0409	0.6734	0.0225	0.059
Mof_C 	C 	0.053	0.65504	0.8986	-0.021
Mof_H 	H 	0.9976	0.6373	0.887	0.04
Mof_C 	C 	0.1076	0.6603	0.8355	-0.031
Mof_H 	H 	0.0892	0.6467	0.7805	0.044
Mof_C 	C 	0.1895	0.68523	0.8513	-0.061
Mof_H 	H 	0.2268	0.6888	0.8075	0.054
Mof_C 	C 	0.28331	0.68157	0.09652	0.016
Mof_C 	C 	0.3052	0.64459	0.1655	-0.061
Mof_H 	H 	0.2672	0.6403	0.2085	0.055
Mof_C 	C 	0.383	0.61393	0.1711	-0.031
Mof_H 	H 	0.3983	0.5878	0.2179	0.044
Mof_C 	C 	0.4386	0.62086	0.1093	-0.022
Mof_H 	H 	0.4923	0.5999	0.1141	0.039
Mof_C 	C 	0.4168	0.65842	0.0396	-0.07
Mof_H 	H 	0.4556	0.6637	0.9975	0.062
Mof_C 	C 	0.33864	0.68758	0.03285	0.018
Mof_C 	C 	0.36135	0.73658	0.8937	0.022
Mof_C 	C 	0.40623	0.74068	0.8371	-0.068
Mof_C 	C 	0.46401	0.74507	0.77143	0.123
Mof_C 	C 	0.53841	0.77979	0.78428	-0.163
Mof_H 	H 	0.5502	0.8026	0.8348	0.096
Mof_C 	C 	0.5955	0.78092	0.72265	0.099
Mof_H 	H 	0.6469	0.8043	0.7327	-0.001
Mof_C 	C 	0.50836	0.71853	0.63749	0.088
Mof_H 	H 	0.4973	0.6972	0.5857	0.002
Mof_C 	C 	0.44775	0.71444	0.69605	-0.158
Mof_H 	H 	0.3965	0.6912	0.6845	0.092
Mof_C 	C 	0.66146	0.81464	0.40192	0.39
Mof_C 	C 	0.61507	0.86248	0.34668	-0.118
Mof_C 	C 	0.63563	0.8711	0.26463	0.04
Mof_H 	H 	0.6805	0.8473	0.2438	0.037
Mof_C 	C 	0.59137	0.91407	0.21285	-0.103
Mof_H 	H 	0.6065	0.9195	0.157	0.07
Mof_C 	C 	0.52501	0.94945	0.24168	0.04
Mof_C 	C 	0.50583	0.94099	0.32458	-0.105
Mof_H 	H 	0.4613	0.965	0.3458	0.064
Mof_C 	C 	0.55003	0.89853	0.37632	0.044
Mof_H 	H 	0.536	0.8939	0.4327	0.026
Mof_C 	C 	0.47574	0.99556	0.18797	0.037
Mof_C 	C 	0.51168	0.02554	0.12176	-0.106
Mof_H 	H 	0.5674	0.014	0.1077	0.064
Mof_C 	C 	0.46723	0.07176	0.07641	0.038
Mof_H 	H 	0.4927	0.0916	0.0315	0.028
Mof_C 	C 	0.38541	0.08954	0.09586	-0.126
Mof_C 	C 	0.34792	0.0579	0.15887	0.041
Mof_H 	H 	0.2913	0.0683	0.1713	0.027
Mof_C 	C 	0.39185	0.01126	0.20401	-0.106
Mof_H 	H 	0.3647	0.9896	0.2464	0.064
Mof_C 	C 	0.34071	0.14431	0.05361	0.387
Mof_C 	C 	0.18368	0.33287	0.91947	0.389
Mof_C 	C 	0.13534	0.38474	0.87442	-0.121
Mof_C 	C 	0.07437	0.41823	0.91342	0.042
Mof_H 	H 	0.0651	0.4097	0.9703	0.027
Mof_C 	C 	0.02658	0.46413	0.8703	-0.102
Mof_H 	H 	0.9857	0.4873	0.8983	0.062
Mof_C 	C 	0.03778	0.47666	0.7865	0.042
Mof_C 	C 	0.09994	0.44329	0.74768	-0.104
Mof_H 	H 	0.109	0.4515	0.6907	0.066
Mof_C 	C 	0.14868	0.39827	0.79129	0.044
Mof_H 	H 	0.1916	0.3764	0.7643	0.031
Mof_C 	C 	0.98481	0.52413	0.7389	0.036
Mof_C 	C 	0.9013	0.537	0.7574	-0.104
Mof_H 	H 	0.8774	0.5145	0.8011	0.066
Mof_C 	C 	0.8522	0.5817	0.7136	0.042
Mof_H 	H 	0.7953	0.5897	0.7277	0.03
Mof_C 	C 	0.88501	0.61489	0.64966	-0.122
Mof_C 	C 	0.96843	0.60245	0.63018	0.036
Mof_H 	H 	0.9921	0.6249	0.5863	0.031
Mof_C 	C 	0.01715	0.55776	0.67423	-0.101
Mof_H 	H 	0.074	0.5499	0.66	0.061
Mof_C 	C 	0.83268	0.66321	0.60066	0.385
_end
