data_functionalizedCrystal
_audit_creation_method	'EQeq! by Chris Wilmer'
_symmetry_space_group_name_H-M	'P1'
_symmetry_Int_Tables_number	1
_symmetry_cell_setting	triclinic
loop_
_symmetry_equiv_pos_as_xyz
  x,y,z
_cell_length_a	7.5698
_cell_length_b	8.605
_cell_length_c	9.84
_cell_angle_alpha	87.1
_cell_angle_beta	89.92
_cell_angle_gamma	85.22
loop_
_atom_site_label
_atom_site_type_symbol
_atom_site_fract_x
_atom_site_fract_y
_atom_site_fract_z
_atom_site_charge
Mof_Tb	Tb	0.43498	0.1153	0.16673	1.885
Mof_O 	O 	0.1349	0.2389	0.1334	-0.445
Mof_N 	N 	0.4331	0.4565	0.6274	-0.106
Mof_C 	C 	0.1248	0.5122	0.1105	-0.218
Mof_H 	H 	0.1014	0.5188	0.2091	0.09
Mof_H 	H 	0.2539	0.5169	0.0968	0.113
Mof_O 	O 	0.7165	0.2386	0.1194	-0.446
Mof_N 	N 	0.9694	0.35	0.9625	-0.115
Mof_C 	C 	0.0744	0.3574	0.0671	0.316
Mof_O 	O 	0.6899	0.0288	0.0078	-0.594
Mof_C 	C 	0.9099	0.2008	0.9283	-0.208
Mof_H 	H 	0.0111	0.1201	0.9333	0.084
Mof_H 	H 	0.8634	0.2085	0.8339	0.067
Mof_O 	O 	0.5703	0.6449	0.7245	-0.472
Mof_C 	C 	0.7643	0.1533	0.0266	0.416
Mof_O 	O 	0.5005	0.1615	0.7724	-0.538
Mof_C 	C 	0.5349	0.5745	0.6231	0.281
Mof_O 	O 	0.4107	0.2788	0.962	-0.486
Mof_C 	C 	0.3905	0.3725	0.5097	-0.191
Mof_H 	H 	0.2598	0.3787	0.5007	0.063
Mof_H 	H 	0.4318	0.2611	0.5276	0.046
Mof_C 	C 	0.3397	0.4152	0.7556	-0.303
Mof_H 	H 	0.2162	0.3959	0.7332	0.111
Mof_H 	H 	0.335	0.5055	0.8143	0.149
Mof_C 	C 	0.4256	0.2728	0.835	0.502
Mof_Tb	Tb	0.56502	0.8847	0.83327	1.884
Mof_O 	O 	0.8651	0.7611	0.8666	-0.446
Mof_N 	N 	0.5669	0.5435	0.3726	-0.106
Mof_C 	C 	0.8752	0.4878	0.8895	-0.218
Mof_H 	H 	0.8986	0.4812	0.7909	0.09
Mof_H 	H 	0.7461	0.4831	0.9032	0.113
Mof_O 	O 	0.2835	0.7614	0.8806	-0.446
Mof_N 	N 	0.0306	0.65	0.0375	-0.115
Mof_C 	C 	0.9256	0.6426	0.9329	0.316
Mof_O 	O 	0.3101	0.9712	0.9922	-0.594
Mof_C 	C 	0.0901	0.7992	0.0717	-0.208
Mof_H 	H 	0.9889	0.8799	0.0667	0.084
Mof_H 	H 	0.1366	0.7915	0.1661	0.067
Mof_O 	O 	0.4297	0.3551	0.2755	-0.472
Mof_C 	C 	0.2357	0.8467	0.9734	0.416
Mof_O 	O 	0.4995	0.8385	0.2276	-0.538
Mof_C 	C 	0.4651	0.4255	0.3769	0.281
Mof_O 	O 	0.5893	0.7212	0.038	-0.486
Mof_C 	C 	0.6095	0.6275	0.4903	-0.191
Mof_H 	H 	0.7402	0.6213	0.4993	0.063
Mof_H 	H 	0.5682	0.7389	0.4724	0.046
Mof_C 	C 	0.6603	0.5848	0.2444	-0.303
Mof_H 	H 	0.7838	0.6041	0.2668	0.111
Mof_H 	H 	0.665	0.4945	0.1857	0.149
Mof_C 	C 	0.5744	0.7272	0.165	0.502
_end
