data_functionalizedCrystal
_audit_creation_method	'EQeq! by Chris Wilmer'
_symmetry_space_group_name_H-M	'P1'
_symmetry_Int_Tables_number	1
_symmetry_cell_setting	triclinic
loop_
_symmetry_equiv_pos_as_xyz
  x,y,z
_cell_length_a	29.479
_cell_length_b	16.6876
_cell_length_c	15.7664
_cell_angle_alpha	90
_cell_angle_beta	113.53
_cell_angle_gamma	90
loop_
_atom_site_label
_atom_site_type_symbol
_atom_site_fract_x
_atom_site_fract_y
_atom_site_fract_z
_atom_site_charge
Mof_Cd	Cd	0.24817	0.2811	0.87496	0.47
Mof_N 	N 	0.3317	0.2827	0.9468	-0.159
Mof_N 	N 	0.6625	0.2186	0.3018	-0.179
Mof_C 	C 	0.3587	0.2245	0.9245	0.093
Mof_H 	H 	0.3414	0.1847	0.883	0.013
Mof_C 	C 	0.6372	0.2838	0.295	0.139
Mof_H 	H 	0.6529	0.3293	0.3275	-0.005
Mof_C 	C 	0.5638	0.2194	0.1952	0.209
Mof_C 	C 	0.5853	0.2864	0.2382	-0.236
Mof_H 	H 	0.5672	0.3333	0.2316	0.115
Mof_C 	C 	0.6383	0.1533	0.2744	0.165
Mof_H 	H 	0.6547	0.1044	0.2904	-0.015
Mof_C 	C 	0.359	0.3435	0.9941	0.126
Mof_H 	H 	0.3426	0.3889	0.001	0
Mof_C 	C 	0.5876	0.1552	0.2205	-0.273
Mof_H 	H 	0.5708	0.1069	0.2025	0.122
Mof_C 	C 	0.4107	0.2221	0.9609	-0.188
Mof_H 	H 	0.4282	0.1835	0.944	0.1
Mof_C 	C 	0.4099	0.3446	0.0339	-0.221
Mof_H 	H 	0.4269	0.3891	0.0669	0.108
Mof_C 	C 	0.4912	0.28	0.0686	-0.088
Mof_H 	H 	0.5122	0.3107	0.0505	0.062
Mof_C 	C 	0.4333	0.2821	0.0241	0.152
Mof_C 	C 	0.1667	0.4154	0.2714	0.095
Mof_C 	C 	0.2459	0.3585	0.723	0.256
Mof_C 	C 	0.2424	0.4017	0.6371	0.011
Mof_C 	C 	0.2446	0.4839	0.6378	-0.057
Mof_H 	H 	0.248	0.512	0.691	0.073
Mof_C 	C 	0.2365	0.3598	0.5583	-0.149
Mof_H 	H 	0.2345	0.3042	0.5578	0.119
Mof_C 	C 	0.2336	0.4006	0.4793	0.189
Mof_C 	C 	0.2464	0.6144	0.5638	0.315
Mof_C 	C 	0.2182	0.3898	0.3166	-0.09
Mof_H 	H 	0.2254	0.3522	0.2767	0.097
Mof_H 	H 	0.2396	0.4359	0.3252	0.076
Mof_C 	C 	0.2358	0.4841	0.4782	-0.141
Mof_H 	H 	0.2333	0.5114	0.4251	0.102
Mof_C 	C 	0.1255	0.4333	0.2347	-0.149
Mof_H 	H 	0.0924	0.4476	0.2053	0.085
Mof_C 	C 	0.5062	0.2228	0.141	-0.124
Mof_H 	H 	0.4843	0.1911	0.1557	0.075
Mof_O 	O 	0.2461	0.2828	0.7227	-0.25
Mof_O 	O 	0.2496	0.6482	0.6355	-0.293
Mof_O 	O 	0.2487	0.3991	0.7929	-0.265
Mof_O 	O 	0.247	0.6524	0.4971	-0.3
Mof_C 	C 	0.2417	0.5254	0.5589	-0.015
Mof_O 	O 	0.2289	0.3525	0.4049	-0.192
Mof_Cd	Cd	0.74817	0.7811	0.87496	0.471
Mof_N 	N 	0.8317	0.7827	0.9468	-0.158
Mof_N 	N 	0.1625	0.7186	0.3018	-0.178
Mof_C 	C 	0.8587	0.7245	0.9245	0.094
Mof_H 	H 	0.8414	0.6847	0.883	0.014
Mof_C 	C 	0.1372	0.7838	0.295	0.14
Mof_H 	H 	0.1529	0.8293	0.3275	-0.004
Mof_C 	C 	0.0638	0.7194	0.1952	0.21
Mof_C 	C 	0.0853	0.7864	0.2382	-0.235
Mof_H 	H 	0.0672	0.8333	0.2316	0.116
Mof_C 	C 	0.1383	0.6533	0.2744	0.166
Mof_H 	H 	0.1547	0.6044	0.2904	-0.014
Mof_C 	C 	0.859	0.8435	0.9941	0.128
Mof_H 	H 	0.8426	0.8889	0.001	-0
Mof_C 	C 	0.0876	0.6552	0.2205	-0.272
Mof_H 	H 	0.0708	0.6069	0.2025	0.123
Mof_C 	C 	0.9107	0.7221	0.9609	-0.187
Mof_H 	H 	0.9282	0.6835	0.944	0.101
Mof_C 	C 	0.9099	0.8446	0.0339	-0.221
Mof_H 	H 	0.9269	0.8891	0.0669	0.109
Mof_C 	C 	0.9912	0.78	0.0686	-0.086
Mof_H 	H 	0.0122	0.8107	0.0505	0.063
Mof_C 	C 	0.9333	0.7821	0.0241	0.153
Mof_C 	C 	0.6667	0.9154	0.2714	0.096
Mof_C 	C 	0.7459	0.8585	0.723	0.258
Mof_C 	C 	0.7424	0.9017	0.6371	0.012
Mof_C 	C 	0.7446	0.9839	0.6378	-0.057
Mof_H 	H 	0.748	0.012	0.691	0.072
Mof_C 	C 	0.7365	0.8598	0.5583	-0.149
Mof_H 	H 	0.7345	0.8042	0.5578	0.119
Mof_C 	C 	0.7336	0.9006	0.4793	0.189
Mof_C 	C 	0.7464	0.1144	0.5638	0.315
Mof_C 	C 	0.7182	0.8898	0.3166	-0.091
Mof_H 	H 	0.7254	0.8522	0.2767	0.097
Mof_H 	H 	0.7396	0.9359	0.3252	0.076
Mof_C 	C 	0.7358	0.9841	0.4782	-0.141
Mof_H 	H 	0.7333	0.0114	0.4251	0.102
Mof_C 	C 	0.6255	0.9333	0.2347	-0.149
Mof_H 	H 	0.5924	0.9476	0.2053	0.085
Mof_C 	C 	0.0062	0.7228	0.141	-0.125
Mof_H 	H 	0.9843	0.6911	0.1557	0.075
Mof_O 	O 	0.7461	0.7828	0.7227	-0.25
Mof_O 	O 	0.7496	0.1482	0.6355	-0.293
Mof_O 	O 	0.7487	0.8991	0.7929	-0.265
Mof_O 	O 	0.747	0.1524	0.4971	-0.3
Mof_C 	C 	0.7417	0.0254	0.5589	-0.015
Mof_O 	O 	0.7289	0.8525	0.4049	-0.192
Mof_Cd	Cd	0.75183	0.2811	0.62504	0.471
Mof_N 	N 	0.6683	0.2827	0.5532	-0.158
Mof_N 	N 	0.3375	0.2186	0.1982	-0.178
Mof_C 	C 	0.6413	0.2245	0.5755	0.094
Mof_H 	H 	0.6586	0.1847	0.617	0.014
Mof_C 	C 	0.3628	0.2838	0.205	0.14
Mof_H 	H 	0.3471	0.3293	0.1725	-0.004
Mof_C 	C 	0.4362	0.2194	0.3048	0.21
Mof_C 	C 	0.4147	0.2864	0.2618	-0.235
Mof_H 	H 	0.4328	0.3333	0.2684	0.116
Mof_C 	C 	0.3617	0.1533	0.2256	0.166
Mof_H 	H 	0.3453	0.1044	0.2096	-0.014
Mof_C 	C 	0.641	0.3435	0.5059	0.127
Mof_H 	H 	0.6574	0.3889	0.499	0.001
Mof_C 	C 	0.4124	0.1552	0.2795	-0.272
Mof_H 	H 	0.4292	0.1069	0.2975	0.123
Mof_C 	C 	0.5893	0.2221	0.5391	-0.187
Mof_H 	H 	0.5718	0.1835	0.556	0.101
Mof_C 	C 	0.5901	0.3446	0.4661	-0.22
Mof_H 	H 	0.5731	0.3891	0.4331	0.109
Mof_C 	C 	0.5088	0.28	0.4314	-0.087
Mof_H 	H 	0.4878	0.3107	0.4495	0.063
Mof_C 	C 	0.5667	0.2821	0.4759	0.153
Mof_C 	C 	0.8333	0.4154	0.2286	0.096
Mof_C 	C 	0.7541	0.3585	0.777	0.257
Mof_C 	C 	0.7576	0.4017	0.8629	0.012
Mof_C 	C 	0.7554	0.4839	0.8622	-0.057
Mof_H 	H 	0.752	0.512	0.809	0.073
Mof_C 	C 	0.7635	0.3598	0.9417	-0.15
Mof_H 	H 	0.7655	0.3042	0.9422	0.119
Mof_C 	C 	0.7664	0.4006	0.0207	0.19
Mof_C 	C 	0.7536	0.6144	0.9362	0.315
Mof_C 	C 	0.7818	0.3898	0.1834	-0.09
Mof_H 	H 	0.7746	0.3522	0.2233	0.097
Mof_H 	H 	0.7604	0.4359	0.1748	0.076
Mof_C 	C 	0.7642	0.4841	0.0218	-0.141
Mof_H 	H 	0.7667	0.5114	0.0749	0.102
Mof_C 	C 	0.8745	0.4333	0.2653	-0.149
Mof_H 	H 	0.9076	0.4476	0.2947	0.085
Mof_C 	C 	0.4938	0.2228	0.359	-0.124
Mof_H 	H 	0.5157	0.1911	0.3443	0.075
Mof_O 	O 	0.7539	0.2828	0.7773	-0.25
Mof_O 	O 	0.7504	0.6482	0.8645	-0.293
Mof_O 	O 	0.7513	0.3991	0.7071	-0.265
Mof_O 	O 	0.753	0.6524	0.0029	-0.3
Mof_C 	C 	0.7583	0.5254	0.9411	-0.015
Mof_O 	O 	0.7711	0.3525	0.0951	-0.192
Mof_Cd	Cd	0.25183	0.7811	0.62504	0.471
Mof_N 	N 	0.1683	0.7827	0.5532	-0.158
Mof_N 	N 	0.8375	0.7186	0.1982	-0.178
Mof_C 	C 	0.1413	0.7245	0.5755	0.094
Mof_H 	H 	0.1586	0.6847	0.617	0.014
Mof_C 	C 	0.8628	0.7838	0.205	0.139
Mof_H 	H 	0.8471	0.8293	0.1725	-0.004
Mof_C 	C 	0.9362	0.7194	0.3048	0.21
Mof_C 	C 	0.9147	0.7864	0.2618	-0.235
Mof_H 	H 	0.9328	0.8333	0.2684	0.116
Mof_C 	C 	0.8617	0.6533	0.2256	0.166
Mof_H 	H 	0.8453	0.6044	0.2096	-0.014
Mof_C 	C 	0.141	0.8435	0.5059	0.127
Mof_H 	H 	0.1574	0.8889	0.499	0.001
Mof_C 	C 	0.9124	0.6552	0.2795	-0.272
Mof_H 	H 	0.9292	0.6069	0.2975	0.123
Mof_C 	C 	0.0893	0.7221	0.5391	-0.187
Mof_H 	H 	0.0718	0.6835	0.556	0.101
Mof_C 	C 	0.0901	0.8446	0.4661	-0.22
Mof_H 	H 	0.0731	0.8891	0.4331	0.109
Mof_C 	C 	0.0088	0.78	0.4314	-0.087
Mof_H 	H 	0.9878	0.8107	0.4495	0.063
Mof_C 	C 	0.0667	0.7821	0.4759	0.153
Mof_C 	C 	0.3333	0.9154	0.2286	0.096
Mof_C 	C 	0.2541	0.8585	0.777	0.258
Mof_C 	C 	0.2576	0.9017	0.8629	0.011
Mof_C 	C 	0.2554	0.9839	0.8622	-0.056
Mof_H 	H 	0.252	0.012	0.809	0.072
Mof_C 	C 	0.2635	0.8598	0.9417	-0.148
Mof_H 	H 	0.2655	0.8042	0.9422	0.119
Mof_C 	C 	0.2664	0.9006	0.0207	0.189
Mof_C 	C 	0.2536	0.1144	0.9362	0.315
Mof_C 	C 	0.2818	0.8898	0.1834	-0.09
Mof_H 	H 	0.2746	0.8522	0.2233	0.097
Mof_H 	H 	0.2604	0.9359	0.1748	0.076
Mof_C 	C 	0.2642	0.9841	0.0218	-0.141
Mof_H 	H 	0.2667	0.0114	0.0749	0.102
Mof_C 	C 	0.3745	0.9333	0.2653	-0.149
Mof_H 	H 	0.4076	0.9476	0.2947	0.085
Mof_C 	C 	0.9938	0.7228	0.359	-0.124
Mof_H 	H 	0.0157	0.6911	0.3443	0.075
Mof_O 	O 	0.2539	0.7828	0.7773	-0.25
Mof_O 	O 	0.2504	0.1482	0.8645	-0.293
Mof_O 	O 	0.2513	0.8991	0.7071	-0.265
Mof_O 	O 	0.253	0.1524	0.0029	-0.3
Mof_C 	C 	0.2583	0.0254	0.9411	-0.016
Mof_O 	O 	0.2711	0.8525	0.0951	-0.192
Mof_Cd	Cd	0.75183	0.7189	0.12504	0.471
Mof_N 	N 	0.6683	0.7173	0.0532	-0.158
Mof_N 	N 	0.3375	0.7814	0.6982	-0.178
Mof_C 	C 	0.6413	0.7755	0.0755	0.094
Mof_H 	H 	0.6586	0.8153	0.117	0.014
Mof_C 	C 	0.3628	0.7162	0.705	0.14
Mof_H 	H 	0.3471	0.6707	0.6725	-0.004
Mof_C 	C 	0.4362	0.7806	0.8048	0.21
Mof_C 	C 	0.4147	0.7136	0.7618	-0.235
Mof_H 	H 	0.4328	0.6667	0.7684	0.116
Mof_C 	C 	0.3617	0.8467	0.7256	0.166
Mof_H 	H 	0.3453	0.8956	0.7096	-0.014
Mof_C 	C 	0.641	0.6565	0.0059	0.127
Mof_H 	H 	0.6574	0.6111	0.999	0.001
Mof_C 	C 	0.4124	0.8448	0.7795	-0.272
Mof_H 	H 	0.4292	0.8931	0.7975	0.123
Mof_C 	C 	0.5893	0.7779	0.0391	-0.187
Mof_H 	H 	0.5718	0.8165	0.056	0.101
Mof_C 	C 	0.5901	0.6554	0.9661	-0.22
Mof_H 	H 	0.5731	0.6109	0.9331	0.109
Mof_C 	C 	0.5088	0.72	0.9314	-0.087
Mof_H 	H 	0.4878	0.6893	0.9495	0.063
Mof_C 	C 	0.5667	0.7179	0.9759	0.153
Mof_C 	C 	0.8333	0.5846	0.7286	0.096
Mof_C 	C 	0.7541	0.6415	0.277	0.257
Mof_C 	C 	0.7576	0.5983	0.3629	0.012
Mof_C 	C 	0.7554	0.5161	0.3622	-0.057
Mof_H 	H 	0.752	0.488	0.309	0.073
Mof_C 	C 	0.7635	0.6402	0.4417	-0.149
Mof_H 	H 	0.7655	0.6958	0.4422	0.119
Mof_C 	C 	0.7664	0.5994	0.5207	0.189
Mof_C 	C 	0.7536	0.3856	0.4362	0.315
Mof_C 	C 	0.7818	0.6102	0.6834	-0.09
Mof_H 	H 	0.7746	0.6478	0.7233	0.097
Mof_H 	H 	0.7604	0.5641	0.6748	0.076
Mof_C 	C 	0.7642	0.5159	0.5218	-0.141
Mof_H 	H 	0.7667	0.4886	0.5749	0.102
Mof_C 	C 	0.8745	0.5667	0.7653	-0.149
Mof_H 	H 	0.9076	0.5524	0.7947	0.085
Mof_C 	C 	0.4938	0.7772	0.859	-0.124
Mof_H 	H 	0.5157	0.8089	0.8443	0.075
Mof_O 	O 	0.7539	0.7172	0.2773	-0.25
Mof_O 	O 	0.7504	0.3518	0.3645	-0.293
Mof_O 	O 	0.7513	0.6009	0.2071	-0.265
Mof_O 	O 	0.753	0.3476	0.5029	-0.3
Mof_C 	C 	0.7583	0.4746	0.4411	-0.015
Mof_O 	O 	0.7711	0.6475	0.5951	-0.192
Mof_Cd	Cd	0.25183	0.2189	0.12504	0.471
Mof_N 	N 	0.1683	0.2173	0.0532	-0.158
Mof_N 	N 	0.8375	0.2814	0.6982	-0.178
Mof_C 	C 	0.1413	0.2755	0.0755	0.094
Mof_H 	H 	0.1586	0.3153	0.117	0.014
Mof_C 	C 	0.8628	0.2162	0.705	0.14
Mof_H 	H 	0.8471	0.1707	0.6725	-0.004
Mof_C 	C 	0.9362	0.2806	0.8048	0.21
Mof_C 	C 	0.9147	0.2136	0.7618	-0.235
Mof_H 	H 	0.9328	0.1667	0.7684	0.116
Mof_C 	C 	0.8617	0.3467	0.7256	0.166
Mof_H 	H 	0.8453	0.3956	0.7096	-0.014
Mof_C 	C 	0.141	0.1565	0.0059	0.128
Mof_H 	H 	0.1574	0.1111	0.999	-0
Mof_C 	C 	0.9124	0.3448	0.7795	-0.272
Mof_H 	H 	0.9292	0.3931	0.7975	0.123
Mof_C 	C 	0.0893	0.2779	0.0391	-0.187
Mof_H 	H 	0.0718	0.3165	0.056	0.101
Mof_C 	C 	0.0901	0.1554	0.9661	-0.221
Mof_H 	H 	0.0731	0.1109	0.9331	0.109
Mof_C 	C 	0.0088	0.22	0.9314	-0.086
Mof_H 	H 	0.9878	0.1893	0.9495	0.063
Mof_C 	C 	0.0667	0.2179	0.9759	0.153
Mof_C 	C 	0.3333	0.0846	0.7286	0.096
Mof_C 	C 	0.2541	0.1415	0.277	0.258
Mof_C 	C 	0.2576	0.0983	0.3629	0.012
Mof_C 	C 	0.2554	0.0161	0.3622	-0.057
Mof_H 	H 	0.252	0.988	0.309	0.072
Mof_C 	C 	0.2635	0.1402	0.4417	-0.149
Mof_H 	H 	0.2655	0.1958	0.4422	0.119
Mof_C 	C 	0.2664	0.0994	0.5207	0.189
Mof_C 	C 	0.2536	0.8856	0.4362	0.315
Mof_C 	C 	0.2818	0.1102	0.6834	-0.091
Mof_H 	H 	0.2746	0.1478	0.7233	0.097
Mof_H 	H 	0.2604	0.0641	0.6748	0.076
Mof_C 	C 	0.2642	0.0159	0.5218	-0.141
Mof_H 	H 	0.2667	0.9886	0.5749	0.102
Mof_C 	C 	0.3745	0.0667	0.7653	-0.149
Mof_H 	H 	0.4076	0.0524	0.7947	0.085
Mof_C 	C 	0.9938	0.2772	0.859	-0.125
Mof_H 	H 	0.0157	0.3089	0.8443	0.075
Mof_O 	O 	0.2539	0.2172	0.2773	-0.25
Mof_O 	O 	0.2504	0.8518	0.3645	-0.293
Mof_O 	O 	0.2513	0.1009	0.2071	-0.265
Mof_O 	O 	0.253	0.8476	0.5029	-0.3
Mof_C 	C 	0.2583	0.9746	0.4411	-0.015
Mof_O 	O 	0.2711	0.1475	0.5951	-0.192
Mof_Cd	Cd	0.24817	0.7189	0.37496	0.471
Mof_N 	N 	0.3317	0.7173	0.4468	-0.158
Mof_N 	N 	0.6625	0.7814	0.8018	-0.178
Mof_C 	C 	0.3587	0.7755	0.4245	0.094
Mof_H 	H 	0.3414	0.8153	0.383	0.014
Mof_C 	C 	0.6372	0.7162	0.795	0.14
Mof_H 	H 	0.6529	0.6707	0.8275	-0.004
Mof_C 	C 	0.5638	0.7806	0.6952	0.21
Mof_C 	C 	0.5853	0.7136	0.7382	-0.235
Mof_H 	H 	0.5672	0.6667	0.7316	0.116
Mof_C 	C 	0.6383	0.8467	0.7744	0.166
Mof_H 	H 	0.6547	0.8956	0.7904	-0.014
Mof_C 	C 	0.359	0.6565	0.4941	0.127
Mof_H 	H 	0.3426	0.6111	0.501	0.001
Mof_C 	C 	0.5876	0.8448	0.7205	-0.272
Mof_H 	H 	0.5708	0.8931	0.7025	0.123
Mof_C 	C 	0.4107	0.7779	0.4609	-0.187
Mof_H 	H 	0.4282	0.8165	0.444	0.101
Mof_C 	C 	0.4099	0.6554	0.5339	-0.22
Mof_H 	H 	0.4269	0.6109	0.5669	0.109
Mof_C 	C 	0.4912	0.72	0.5686	-0.087
Mof_H 	H 	0.5122	0.6893	0.5505	0.063
Mof_C 	C 	0.4333	0.7179	0.5241	0.153
Mof_C 	C 	0.1667	0.5846	0.7714	0.096
Mof_C 	C 	0.2459	0.6415	0.223	0.257
Mof_C 	C 	0.2424	0.5983	0.1371	0.012
Mof_C 	C 	0.2446	0.5161	0.1378	-0.057
Mof_H 	H 	0.248	0.488	0.191	0.073
Mof_C 	C 	0.2365	0.6402	0.0583	-0.15
Mof_H 	H 	0.2345	0.6958	0.0578	0.119
Mof_C 	C 	0.2336	0.5994	0.9793	0.19
Mof_C 	C 	0.2464	0.3856	0.0638	0.315
Mof_C 	C 	0.2182	0.6102	0.8166	-0.09
Mof_H 	H 	0.2254	0.6478	0.7767	0.097
Mof_H 	H 	0.2396	0.5641	0.8252	0.076
Mof_C 	C 	0.2358	0.5159	0.9782	-0.141
Mof_H 	H 	0.2333	0.4886	0.9251	0.102
Mof_C 	C 	0.1255	0.5667	0.7347	-0.149
Mof_H 	H 	0.0924	0.5524	0.7053	0.085
Mof_C 	C 	0.5062	0.7772	0.641	-0.124
Mof_H 	H 	0.4843	0.8089	0.6557	0.075
Mof_O 	O 	0.2461	0.7172	0.2227	-0.25
Mof_O 	O 	0.2496	0.3518	0.1355	-0.293
Mof_O 	O 	0.2487	0.6009	0.2929	-0.265
Mof_O 	O 	0.247	0.3476	0.9971	-0.3
Mof_C 	C 	0.2417	0.4746	0.0589	-0.015
Mof_O 	O 	0.2289	0.6475	0.9049	-0.192
Mof_Cd	Cd	0.74817	0.2189	0.37496	0.471
Mof_N 	N 	0.8317	0.2173	0.4468	-0.158
Mof_N 	N 	0.1625	0.2814	0.8018	-0.178
Mof_C 	C 	0.8587	0.2755	0.4245	0.094
Mof_H 	H 	0.8414	0.3153	0.383	0.014
Mof_C 	C 	0.1372	0.2162	0.795	0.139
Mof_H 	H 	0.1529	0.1707	0.8275	-0.004
Mof_C 	C 	0.0638	0.2806	0.6952	0.21
Mof_C 	C 	0.0853	0.2136	0.7382	-0.235
Mof_H 	H 	0.0672	0.1667	0.7316	0.116
Mof_C 	C 	0.1383	0.3467	0.7744	0.166
Mof_H 	H 	0.1547	0.3956	0.7904	-0.014
Mof_C 	C 	0.859	0.1565	0.4941	0.127
Mof_H 	H 	0.8426	0.1111	0.501	0.001
Mof_C 	C 	0.0876	0.3448	0.7205	-0.272
Mof_H 	H 	0.0708	0.3931	0.7025	0.123
Mof_C 	C 	0.9107	0.2779	0.4609	-0.187
Mof_H 	H 	0.9282	0.3165	0.444	0.101
Mof_C 	C 	0.9099	0.1554	0.5339	-0.22
Mof_H 	H 	0.9269	0.1109	0.5669	0.109
Mof_C 	C 	0.9912	0.22	0.5686	-0.087
Mof_H 	H 	0.0122	0.1893	0.5505	0.063
Mof_C 	C 	0.9333	0.2179	0.5241	0.153
Mof_C 	C 	0.6667	0.0846	0.7714	0.096
Mof_C 	C 	0.7459	0.1415	0.223	0.258
Mof_C 	C 	0.7424	0.0983	0.1371	0.011
Mof_C 	C 	0.7446	0.0161	0.1378	-0.056
Mof_H 	H 	0.748	0.988	0.191	0.072
Mof_C 	C 	0.7365	0.1402	0.0583	-0.148
Mof_H 	H 	0.7345	0.1958	0.0578	0.119
Mof_C 	C 	0.7336	0.0994	0.9793	0.189
Mof_C 	C 	0.7464	0.8856	0.0638	0.315
Mof_C 	C 	0.7182	0.1102	0.8166	-0.09
Mof_H 	H 	0.7254	0.1478	0.7767	0.097
Mof_H 	H 	0.7396	0.0641	0.8252	0.076
Mof_C 	C 	0.7358	0.0159	0.9782	-0.141
Mof_H 	H 	0.7333	0.9886	0.9251	0.102
Mof_C 	C 	0.6255	0.0667	0.7347	-0.149
Mof_H 	H 	0.5924	0.0524	0.7053	0.085
Mof_C 	C 	0.0062	0.2772	0.641	-0.124
Mof_H 	H 	0.9843	0.3089	0.6557	0.075
Mof_O 	O 	0.7461	0.2172	0.2227	-0.25
Mof_O 	O 	0.7496	0.8518	0.1355	-0.293
Mof_O 	O 	0.7487	0.1009	0.2929	-0.265
Mof_O 	O 	0.747	0.8476	0.9971	-0.3
Mof_C 	C 	0.7417	0.9746	0.0589	-0.016
Mof_O 	O 	0.7289	0.1475	0.9049	-0.192
_end
