data_functionalizedCrystal
_audit_creation_method	'EQeq! by Chris Wilmer'
_symmetry_space_group_name_H-M	'P1'
_symmetry_Int_Tables_number	1
_symmetry_cell_setting	triclinic
loop_
_symmetry_equiv_pos_as_xyz
  x,y,z
_cell_length_a	15.3805
_cell_length_b	8.4335
_cell_length_c	13.8969
_cell_angle_alpha	90
_cell_angle_beta	107.583
_cell_angle_gamma	90
loop_
_atom_site_label
_atom_site_type_symbol
_atom_site_fract_x
_atom_site_fract_y
_atom_site_fract_z
_atom_site_charge
Mof_C 	C 	0.68696	0.43878	0.43054	-0.159
Mof_N 	N 	0.64609	0.54778	0.39134	-0.275
Mof_C 	C 	0.66491	0.12016	0.39849	-0.165
Mof_N 	N 	0.61384	0.04506	0.33794	-0.317
Mof_N 	N 	0.88911	0.24558	0.3788	-0.202
Mof_C 	C 	0.83635	0.24825	0.42231	-0.12
Mof_C 	C 	0.18696	0.93878	0.43054	-0.192
Mof_N 	N 	0.14609	0.04778	0.39134	-0.258
Mof_C 	C 	0.16491	0.62016	0.39849	-0.192
Mof_N 	N 	0.11384	0.54506	0.33794	-0.292
Mof_N 	N 	0.38911	0.74558	0.3788	-0.335
Mof_C 	C 	0.33635	0.74825	0.42231	-0.166
Mof_C 	C 	0.31304	0.43878	0.06946	-0.181
Mof_N 	N 	0.35391	0.54778	0.10866	-0.289
Mof_C 	C 	0.33509	0.12016	0.10151	-0.176
Mof_N 	N 	0.38616	0.04506	0.16206	-0.325
Mof_N 	N 	0.11089	0.24558	0.1212	-0.307
Mof_C 	C 	0.16365	0.24825	0.07769	-0.188
Mof_C 	C 	0.81304	0.93878	0.06946	-0.144
Mof_N 	N 	0.85391	0.04778	0.10866	-0.186
Mof_C 	C 	0.83509	0.62016	0.10151	-0.127
Mof_N 	N 	0.88616	0.54506	0.16206	-0.197
Mof_N 	N 	0.61089	0.74558	0.1212	-0.339
Mof_C 	C 	0.66365	0.74825	0.07769	-0.16
Mof_C 	C 	0.31304	0.56122	0.56946	-0.174
Mof_N 	N 	0.35391	0.45222	0.60866	-0.284
Mof_C 	C 	0.33509	0.87984	0.60151	-0.173
Mof_N 	N 	0.38616	0.95494	0.66206	-0.322
Mof_N 	N 	0.11089	0.75442	0.6212	-0.304
Mof_C 	C 	0.16365	0.75175	0.57769	-0.182
Mof_C 	C 	0.81304	0.06122	0.56946	-0.138
Mof_N 	N 	0.85391	0.95222	0.60866	-0.18
Mof_C 	C 	0.83509	0.37984	0.60151	-0.124
Mof_N 	N 	0.88616	0.45494	0.66206	-0.195
Mof_N 	N 	0.61089	0.25442	0.6212	-0.335
Mof_C 	C 	0.66365	0.25175	0.57769	-0.154
Mof_C 	C 	0.68696	0.56122	0.93054	-0.107
Mof_N 	N 	0.64609	0.45222	0.89134	-0.28
Mof_C 	C 	0.66491	0.87984	0.89849	-0.115
Mof_N 	N 	0.61384	0.95494	0.83794	-0.326
Mof_N 	N 	0.88911	0.75442	0.8788	-0.211
Mof_C 	C 	0.83635	0.75175	0.92231	-0.068
Mof_C 	C 	0.18696	0.06122	0.93054	-0.15
Mof_N 	N 	0.14609	0.95222	0.89134	-0.258
Mof_C 	C 	0.16491	0.37984	0.89849	-0.145
Mof_N 	N 	0.11384	0.45494	0.83794	-0.301
Mof_N 	N 	0.38911	0.25442	0.8788	-0.343
Mof_C 	C 	0.33635	0.25175	0.92231	-0.118
Mof_K 	K 	0.5	0.78005	0.25	2.328
Mof_K 	K 	8.26996e-18	0.28005	0.25	1.573
Mof_K 	K 	0.5	0.21995	0.75	2.395
Mof_K 	K 	3.30834e-33	0.71995	0.75	1.647
Mof_Fe	Fe	0.75	0.25	0.5	0.637
Mof_Fe	Fe	0.25	0.25	-0	0.536
Mof_Fe	Fe	0.25	0.75	0.5	0.629
Mof_Fe	Fe	0.75	0.75	-0	0.534
_end
