data_functionalizedCrystal
_audit_creation_method	'EQeq! by Chris Wilmer'
_symmetry_space_group_name_H-M	'P1'
_symmetry_Int_Tables_number	1
_symmetry_cell_setting	triclinic
loop_
_symmetry_equiv_pos_as_xyz
  x,y,z
_cell_length_a	7.1564
_cell_length_b	18.2265
_cell_length_c	8.1397
_cell_angle_alpha	90
_cell_angle_beta	95.038
_cell_angle_gamma	90
loop_
_atom_site_label
_atom_site_type_symbol
_atom_site_fract_x
_atom_site_fract_y
_atom_site_fract_z
_atom_site_charge
Mof_V 	V 	0.2525	0.26127	0.9998	1.804
Mof_P 	P 	0.97394	0.34764	0.7312	0.513
Mof_P 	P 	0.51945	0.15107	0.22678	0.502
Mof_O 	O 	0.978	0.42648	0.672	-0.501
Mof_O 	O 	0.1654	0.3272	0.8182	-0.491
Mof_O 	O 	0.8128	0.33749	0.8424	-0.471
Mof_O 	O 	0.3407	0.1943	0.1825	-0.445
Mof_O 	O 	0.6899	0.1865	0.162	-0.445
Mof_O 	O 	0.557	0.0773	0.145	-0.329
Mof_O 	O 	0.5279	0.0724	0.8124	-0.152
Mof_C 	C 	0.9285	0.2858	0.5634	-0.202
Mof_H 	H 	0.9207	0.2355	0.6083	0.098
Mof_H 	H 	0.8042	0.2978	0.5066	0.089
Mof_C 	C 	0.555	0.1682	0.455	-0.255
Mof_H 	H 	0.6497	0.132	0.4979	0.005
Mof_H 	H 	0.6163	0.2168	0.4669	0.088
Mof_C 	C 	0.5684	0.1307	0.4351	0.091
Mof_H 	H 	0.625	0.0811	0.4386	0.009
Mof_H 	H 	0.6699	0.1648	0.4756	0.095
Mof_V 	V 	0.7475	0.26127	0.0002	1.852
Mof_P 	P 	0.02606	0.34764	0.2688	0.491
Mof_P 	P 	0.48055	0.15107	0.77322	0.499
Mof_O 	O 	0.022	0.42648	0.328	-0.502
Mof_O 	O 	0.8346	0.3272	0.1818	-0.437
Mof_O 	O 	0.1872	0.33749	0.1576	-0.424
Mof_O 	O 	0.6593	0.1943	0.8175	-0.481
Mof_O 	O 	0.3101	0.1865	0.838	-0.477
Mof_O 	O 	0.443	0.0773	0.855	-0.368
Mof_O 	O 	0.4721	0.0724	0.1876	-0.162
Mof_C 	C 	0.0715	0.2858	0.4366	-0.243
Mof_H 	H 	0.0793	0.2355	0.3917	0.105
Mof_H 	H 	0.1958	0.2978	0.4934	0.096
Mof_C 	C 	0.445	0.1682	0.545	-0.254
Mof_H 	H 	0.3503	0.132	0.5021	0.004
Mof_H 	H 	0.3837	0.2168	0.5331	0.087
Mof_C 	C 	0.4316	0.1307	0.5649	0.095
Mof_H 	H 	0.375	0.0811	0.5614	0.007
Mof_H 	H 	0.3301	0.1648	0.5244	0.093
Mof_V 	V 	0.7475	0.73873	0.0002	1.853
Mof_P 	P 	0.02606	0.65236	0.2688	0.491
Mof_P 	P 	0.48055	0.84893	0.77322	0.495
Mof_O 	O 	0.022	0.57352	0.328	-0.502
Mof_O 	O 	0.8346	0.6728	0.1818	-0.437
Mof_O 	O 	0.1872	0.66251	0.1576	-0.423
Mof_O 	O 	0.6593	0.8057	0.8175	-0.475
Mof_O 	O 	0.3101	0.8135	0.838	-0.47
Mof_O 	O 	0.443	0.9227	0.855	-0.353
Mof_O 	O 	0.4721	0.9276	0.1876	-0.122
Mof_C 	C 	0.0715	0.7142	0.4366	-0.245
Mof_H 	H 	0.0793	0.7645	0.3917	0.109
Mof_H 	H 	0.1958	0.7022	0.4934	0.097
Mof_C 	C 	0.445	0.8318	0.545	-0.264
Mof_H 	H 	0.3503	0.868	0.5021	-0
Mof_H 	H 	0.3837	0.7832	0.5331	0.089
Mof_C 	C 	0.4316	0.8693	0.5649	0.106
Mof_H 	H 	0.375	0.9189	0.5614	0.035
Mof_H 	H 	0.3301	0.8352	0.5244	0.102
Mof_V 	V 	0.2525	0.73873	0.9998	1.802
Mof_P 	P 	0.97394	0.65236	0.7312	0.512
Mof_P 	P 	0.51945	0.84893	0.22678	0.497
Mof_O 	O 	0.978	0.57352	0.672	-0.501
Mof_O 	O 	0.1654	0.6728	0.8182	-0.492
Mof_O 	O 	0.8128	0.66251	0.8424	-0.472
Mof_O 	O 	0.3407	0.8057	0.1825	-0.436
Mof_O 	O 	0.6899	0.8135	0.162	-0.436
Mof_O 	O 	0.557	0.9227	0.145	-0.308
Mof_O 	O 	0.5279	0.9276	0.8124	-0.113
Mof_C 	C 	0.9285	0.7142	0.5634	-0.203
Mof_H 	H 	0.9207	0.7645	0.6083	0.103
Mof_H 	H 	0.8042	0.7022	0.5066	0.09
Mof_C 	C 	0.555	0.8318	0.455	-0.265
Mof_H 	H 	0.6497	0.868	0.4979	0.001
Mof_H 	H 	0.6163	0.7832	0.4669	0.091
Mof_C 	C 	0.5684	0.8693	0.4351	0.104
Mof_H 	H 	0.625	0.9189	0.4386	0.038
Mof_H 	H 	0.6699	0.8352	0.4756	0.104
Mof_V 	V 	2.31954e-33	0.5	0.5	1.723
Mof_V 	V 	0.5	0	-0	1.847
Mof_F 	F 	-5.96713e-33	0.21781	-0	-0.728
Mof_F 	F 	-0	0.78219	-0	-0.719
Mof_F 	F 	0.5	0.30502	-0	-0.744
Mof_F 	F 	0.5	0.69498	-0	-0.743
Mof_O 	O 	0.2423	0	0.9555	-0.383
Mof_O 	O 	0.8	-5.96713e-33	0.917	-0.137
Mof_O 	O 	0.7577	-1.86473e-34	0.0445	-0.269
Mof_O 	O 	0.2	0	0.083	-0.033
_end
