data_functionalizedCrystal
_audit_creation_method	'EQeq! by Chris Wilmer'
_symmetry_space_group_name_H-M	'P1'
_symmetry_Int_Tables_number	1
_symmetry_cell_setting	triclinic
loop_
_symmetry_equiv_pos_as_xyz
  x,y,z
_cell_length_a	10.711
_cell_length_b	13.7963
_cell_length_c	18.7511
_cell_angle_alpha	90
_cell_angle_beta	98.158
_cell_angle_gamma	90
loop_
_atom_site_label
_atom_site_type_symbol
_atom_site_fract_x
_atom_site_fract_y
_atom_site_fract_z
_atom_site_charge
Mof_Ni	Ni	0.398	0.2677	0.52411	1.148
Mof_C 	C 	0.4095	0.1353	0.33316	-0.052
Mof_C 	C 	0.4163	0.1461	0.25982	0.032
Mof_H 	H 	0.3854	0.2037	0.2358	0.068
Mof_C 	C 	0.4676	0.0736	0.22147	-0.114
Mof_C 	C 	0.5185	0.9909	0.25747	0.07
Mof_H 	H 	0.5541	0.9412	0.2317	0.067
Mof_C 	C 	0.517	0.9815	0.33119	-0.041
Mof_C 	C 	0.4576	0.053	0.36822	-0.016
Mof_H 	H 	0.4508	0.0442	0.4178	0.074
Mof_C 	C 	0.3558	0.2173	0.37298	0.309
Mof_C 	C 	0.4706	0.0853	0.14124	0.382
Mof_C 	C 	0.5837	0.8999	0.37268	0.318
Mof_O 	O 	0.31788	0.19516	0.4324	-0.317
Mof_O 	O 	0.3545	0.30043	0.34731	-0.213
Mof_O 	O 	0.4701	0.17183	0.11897	-0.403
Mof_O 	O 	0.47321	0.00972	0.10483	-0.407
Mof_O 	O 	0.681	0.86617	0.34414	-0.198
Mof_O 	O 	0.55058	0.86767	0.42758	-0.335
Mof_C 	C 	0.2209	0.7669	0.97319	-0.078
Mof_C 	C 	0.1055	0.8119	0.97071	0.036
Mof_H 	H 	0.1022	0.8796	0.9794	0.084
Mof_C 	C 	0.9923	0.7591	0.95544	-0.051
Mof_C 	C 	0.9977	0.6597	0.94158	0.02
Mof_H 	H 	0.9221	0.6237	0.9296	0.084
Mof_C 	C 	0.1137	0.614	0.94532	-0.043
Mof_C 	C 	0.2245	0.6669	0.96119	0.03
Mof_H 	H 	0.3036	0.6349	0.9639	0.071
Mof_C 	C 	0.3447	0.8182	0.99093	0.405
Mof_C 	C 	0.8691	0.8071	0.96075	0.321
Mof_C 	C 	0.1209	0.5064	0.93342	0.288
Mof_O 	O 	0.43681	0.76484	0.01428	-0.434
Mof_O 	O 	0.34687	0.90802	0.98147	-0.352
Mof_O 	O 	0.8681	0.89016	0.98774	-0.19
Mof_O 	O 	0.76999	0.75869	0.93853	-0.329
Mof_O 	O 	0.0382	0.45939	0.90137	-0.199
Mof_O 	O 	0.2316	0.47105	0.96491	-0.173
Mof_O 	O 	0.64169	0.89703	0.03023	-0.339
Mof_Ni	Ni	0.602	0.7677	0.97589	1.161
Mof_C 	C 	0.5905	0.6353	0.16684	-0.06
Mof_C 	C 	0.5837	0.6461	0.24018	0.027
Mof_H 	H 	0.6146	0.7037	0.2642	0.071
Mof_C 	C 	0.5324	0.5736	0.27853	-0.075
Mof_C 	C 	0.4815	0.4909	0.24253	0.032
Mof_H 	H 	0.4459	0.4412	0.2683	0.072
Mof_C 	C 	0.483	0.4815	0.16881	-0.073
Mof_C 	C 	0.5424	0.553	0.13178	0.027
Mof_H 	H 	0.5492	0.5442	0.0822	0.063
Mof_C 	C 	0.6442	0.7173	0.12702	0.314
Mof_C 	C 	0.5294	0.5853	0.35876	0.372
Mof_C 	C 	0.4163	0.3999	0.12732	0.324
Mof_O 	O 	0.68212	0.69516	0.0676	-0.329
Mof_O 	O 	0.6455	0.80043	0.15269	-0.21
Mof_O 	O 	0.5299	0.67183	0.38103	-0.395
Mof_O 	O 	0.52679	0.50972	0.39517	-0.382
Mof_O 	O 	0.319	0.36617	0.15586	-0.206
Mof_O 	O 	0.44942	0.36767	0.07242	-0.353
Mof_C 	C 	0.7791	0.2669	0.52681	-0.07
Mof_C 	C 	0.8945	0.3119	0.52929	0.02
Mof_H 	H 	0.8978	0.3796	0.5206	0.075
Mof_C 	C 	0.0077	0.2591	0.54456	-0.05
Mof_C 	C 	0.0023	0.1597	0.55842	0.012
Mof_H 	H 	0.0779	0.1237	0.5704	0.078
Mof_C 	C 	0.8863	0.114	0.55468	-0.035
Mof_C 	C 	0.7755	0.1669	0.53881	0.01
Mof_H 	H 	0.6964	0.1349	0.5361	0.064
Mof_C 	C 	0.6553	0.3182	0.50907	0.361
Mof_C 	C 	0.1309	0.3071	0.53925	0.319
Mof_C 	C 	0.8791	0.0064	0.56658	0.208
Mof_O 	O 	0.56319	0.26484	0.48572	-0.395
Mof_O 	O 	0.65313	0.40802	0.51853	-0.369
Mof_O 	O 	0.1319	0.39016	0.51226	-0.215
Mof_O 	O 	0.23001	0.25869	0.56147	-0.337
Mof_O 	O 	0.9618	0.95939	0.59863	-0.162
Mof_O 	O 	0.7684	0.97105	0.53509	-0.147
Mof_O 	O 	0.35831	0.39703	0.46977	-0.336
Mof_Ni	Ni	0.602	0.7323	0.47589	1.147
Mof_C 	C 	0.5905	0.8647	0.66684	-0.061
Mof_C 	C 	0.5837	0.8539	0.74018	0.02
Mof_H 	H 	0.6146	0.7963	0.7642	0.074
Mof_C 	C 	0.5324	0.9264	0.77853	-0.038
Mof_C 	C 	0.4815	0.0091	0.74253	-0.002
Mof_H 	H 	0.4459	0.0588	0.7683	0.078
Mof_C 	C 	0.483	0.0185	0.66881	-0.093
Mof_C 	C 	0.5424	0.947	0.63178	0.061
Mof_H 	H 	0.5492	0.9558	0.5822	0.066
Mof_C 	C 	0.6442	0.7827	0.62702	0.315
Mof_C 	C 	0.5294	0.9147	0.85876	0.36
Mof_C 	C 	0.4163	0.1001	0.62732	0.326
Mof_O 	O 	0.68212	0.80484	0.5676	-0.317
Mof_O 	O 	0.6455	0.69957	0.65269	-0.213
Mof_O 	O 	0.5299	0.82817	0.88103	-0.387
Mof_O 	O 	0.52679	0.99028	0.89517	-0.35
Mof_O 	O 	0.319	0.13383	0.65586	-0.206
Mof_O 	O 	0.44942	0.13233	0.57242	-0.347
Mof_C 	C 	0.7791	0.2331	0.02681	-0.073
Mof_C 	C 	0.8945	0.1881	0.02929	0.023
Mof_H 	H 	0.8978	0.1204	0.0206	0.061
Mof_C 	C 	0.0077	0.2409	0.04456	-0.064
Mof_C 	C 	0.0023	0.3403	0.05842	0.024
Mof_H 	H 	0.0779	0.3763	0.0704	0.072
Mof_C 	C 	0.8863	0.386	0.05468	-0.06
Mof_C 	C 	0.7755	0.3331	0.03881	0.018
Mof_H 	H 	0.6964	0.3651	0.0361	0.059
Mof_C 	C 	0.6553	0.1818	0.00907	0.315
Mof_C 	C 	0.1309	0.1929	0.03925	0.322
Mof_C 	C 	0.8791	0.4936	0.06658	0.288
Mof_O 	O 	0.56319	0.23516	0.98572	-0.346
Mof_O 	O 	0.65313	0.09198	0.01853	-0.378
Mof_O 	O 	0.1319	0.10984	0.01226	-0.243
Mof_O 	O 	0.23001	0.24131	0.06147	-0.347
Mof_O 	O 	0.9618	0.54061	0.09863	-0.217
Mof_O 	O 	0.7684	0.52895	0.03509	-0.2
Mof_O 	O 	0.35831	0.10297	0.96977	-0.317
Mof_Ni	Ni	0.398	0.2323	0.02411	1.131
Mof_C 	C 	0.4095	0.3647	0.83316	-0.052
Mof_C 	C 	0.4163	0.3539	0.75982	0.023
Mof_H 	H 	0.3854	0.2963	0.7358	0.072
Mof_C 	C 	0.4676	0.4264	0.72147	-0.071
Mof_C 	C 	0.5185	0.5091	0.75747	0.028
Mof_H 	H 	0.5541	0.5588	0.7317	0.074
Mof_C 	C 	0.517	0.5185	0.83119	-0.062
Mof_C 	C 	0.4576	0.447	0.86822	0.02
Mof_H 	H 	0.4508	0.4558	0.9178	0.077
Mof_C 	C 	0.3558	0.2827	0.87298	0.309
Mof_C 	C 	0.4706	0.4147	0.64124	0.37
Mof_C 	C 	0.5837	0.6001	0.87268	0.32
Mof_O 	O 	0.31788	0.30484	0.9324	-0.302
Mof_O 	O 	0.3545	0.19957	0.84731	-0.213
Mof_O 	O 	0.4701	0.32817	0.61897	-0.395
Mof_O 	O 	0.47321	0.49028	0.60483	-0.381
Mof_O 	O 	0.681	0.63383	0.84414	-0.2
Mof_O 	O 	0.55058	0.63233	0.92758	-0.329
Mof_C 	C 	0.2209	0.7331	0.47319	-0.084
Mof_C 	C 	0.1055	0.6881	0.47071	0.04
Mof_H 	H 	0.1022	0.6204	0.4794	0.07
Mof_C 	C 	0.9923	0.7409	0.45544	-0.067
Mof_C 	C 	0.9977	0.8403	0.44158	0.039
Mof_H 	H 	0.9221	0.8763	0.4296	0.077
Mof_C 	C 	0.1137	0.886	0.44532	-0.074
Mof_C 	C 	0.2245	0.8331	0.46119	0.041
Mof_H 	H 	0.3036	0.8651	0.4639	0.065
Mof_C 	C 	0.3447	0.6818	0.49093	0.367
Mof_C 	C 	0.8691	0.6929	0.46075	0.325
Mof_C 	C 	0.1209	0.9936	0.43342	0.363
Mof_O 	O 	0.43681	0.73516	0.51428	-0.394
Mof_O 	O 	0.34687	0.59198	0.48147	-0.37
Mof_O 	O 	0.8681	0.60984	0.48774	-0.217
Mof_O 	O 	0.76999	0.74131	0.43853	-0.338
Mof_O 	O 	0.0382	0.04061	0.40137	-0.252
Mof_O 	O 	0.2316	0.02895	0.46491	-0.224
Mof_O 	O 	0.64169	0.60297	0.53023	-0.336
Mof_Ni	Ni	0.5	0	-0	1.108
Mof_Ni	Ni	0.5	0.5	0.5	1.138
_end
