data_functionalizedCrystal
_audit_creation_method	'EQeq! by Chris Wilmer'
_symmetry_space_group_name_H-M	'P1'
_symmetry_Int_Tables_number	1
_symmetry_cell_setting	triclinic
loop_
_symmetry_equiv_pos_as_xyz
  x,y,z
_cell_length_a	9.9593
_cell_length_b	19.8227
_cell_length_c	19.8227
_cell_angle_alpha	90
_cell_angle_beta	90
_cell_angle_gamma	90
loop_
_atom_site_label
_atom_site_type_symbol
_atom_site_fract_x
_atom_site_fract_y
_atom_site_fract_z
_atom_site_charge
Mof_Ca	Ca	1.66324e-32	0	0.5	1.672
Mof_Ca	Ca	1.29011e-32	0.5	-0	1.673
Mof_Cd	Cd	-7.99421e-33	0.07081	0.65752	0.418
Mof_Cd	Cd	9.00636e-33	0.92919	0.34248	0.48
Mof_Cd	Cd	-1.0842e-33	0.34248	0.07081	0.417
Mof_Cd	Cd	-5.96682e-33	0.65752	0.92919	0.48
Mof_H 	H 	0.1285	0.6909	0.4731	0.093
Mof_H 	H 	0.1217	0.7647	0.5013	0.088
Mof_H 	H 	0.2045	0.7095	0.5398	-0.072
Mof_H 	H 	0.0787	0.6183	0.6009	0.043
Mof_H 	H 	0.7008	0.8895	0.5343	-1.428
Mof_H 	H 	0.4213	0.7661	0.595	3.969
Mof_H 	H 	0.3854	0.8628	0.7009	4.198
Mof_H 	H 	0.3836	0.9291	0.6579	4.331
Mof_H 	H 	0.3029	0.8657	0.6336	4.37
Mof_H 	H 	0.1285	0.3091	0.5269	0.128
Mof_H 	H 	0.1217	0.2353	0.4987	0.127
Mof_H 	H 	0.2045	0.2905	0.4602	-0.023
Mof_H 	H 	0.0787	0.3817	0.3991	0.08
Mof_H 	H 	0.7008	0.1105	0.4657	-1.319
Mof_H 	H 	0.4213	0.2339	0.405	3.642
Mof_H 	H 	0.3854	0.1372	0.2991	3.833
Mof_H 	H 	0.3836	0.0709	0.3421	3.944
Mof_H 	H 	0.3029	0.1343	0.3664	3.999
Mof_H 	H 	0.1285	0.5269	0.6909	0.097
Mof_H 	H 	0.1217	0.4987	0.7647	0.093
Mof_H 	H 	0.2045	0.4602	0.7095	-0.064
Mof_H 	H 	0.0787	0.3991	0.6183	0.048
Mof_H 	H 	0.7008	0.4657	0.8895	-1.406
Mof_H 	H 	0.4213	0.405	0.7661	3.907
Mof_H 	H 	0.3854	0.2991	0.8628	4.129
Mof_H 	H 	0.3836	0.3421	0.9291	4.264
Mof_H 	H 	0.3029	0.3664	0.8657	4.302
Mof_H 	H 	0.1285	0.4731	0.3091	0.123
Mof_H 	H 	0.1217	0.5013	0.2353	0.122
Mof_H 	H 	0.2045	0.5398	0.2905	-0.03
Mof_H 	H 	0.0787	0.6009	0.3817	0.075
Mof_H 	H 	0.7008	0.5343	0.1105	-1.34
Mof_H 	H 	0.4213	0.595	0.2339	3.703
Mof_H 	H 	0.3854	0.7009	0.1372	3.902
Mof_H 	H 	0.3836	0.6579	0.0709	4.012
Mof_H 	H 	0.3029	0.6336	0.1343	4.067
Mof_H 	H 	0.8715	0.3091	0.5269	0.116
Mof_H 	H 	0.8783	0.2353	0.4987	0.112
Mof_H 	H 	0.7955	0.2905	0.4602	-0.01
Mof_H 	H 	0.9213	0.3817	0.3991	0.004
Mof_H 	H 	0.2992	0.1105	0.4657	-1.305
Mof_H 	H 	0.5787	0.2339	0.405	3.636
Mof_H 	H 	0.6146	0.1372	0.2991	3.81
Mof_H 	H 	0.6164	0.0709	0.3421	3.925
Mof_H 	H 	0.6971	0.1343	0.3664	3.969
Mof_H 	H 	0.8715	0.6909	0.4731	0.081
Mof_H 	H 	0.8783	0.7647	0.5013	0.072
Mof_H 	H 	0.7955	0.7095	0.5398	-0.058
Mof_H 	H 	0.9213	0.6183	0.6009	-0.034
Mof_H 	H 	0.2992	0.8895	0.5343	-1.413
Mof_H 	H 	0.5787	0.7661	0.595	3.962
Mof_H 	H 	0.6146	0.8628	0.7009	4.173
Mof_H 	H 	0.6164	0.9291	0.6579	4.31
Mof_H 	H 	0.6971	0.8657	0.6336	4.338
Mof_H 	H 	0.8715	0.4731	0.3091	0.112
Mof_H 	H 	0.8783	0.5013	0.2353	0.107
Mof_H 	H 	0.7955	0.5398	0.2905	-0.017
Mof_H 	H 	0.9213	0.6009	0.3817	-0.002
Mof_H 	H 	0.2992	0.5343	0.1105	-1.326
Mof_H 	H 	0.5787	0.595	0.2339	3.697
Mof_H 	H 	0.6146	0.7009	0.1372	3.879
Mof_H 	H 	0.6164	0.6579	0.0709	3.992
Mof_H 	H 	0.6971	0.6336	0.1343	4.036
Mof_H 	H 	0.8715	0.5269	0.6909	0.086
Mof_H 	H 	0.8783	0.4987	0.7647	0.077
Mof_H 	H 	0.7955	0.4602	0.7095	-0.051
Mof_H 	H 	0.9213	0.3991	0.6183	-0.029
Mof_H 	H 	0.2992	0.4657	0.8895	-1.391
Mof_H 	H 	0.5787	0.405	0.7661	3.901
Mof_H 	H 	0.6146	0.2991	0.8628	4.105
Mof_H 	H 	0.6164	0.3421	0.9291	4.243
Mof_H 	H 	0.6971	0.3664	0.8657	4.271
Mof_H 	H 	1.86787e-32	0.8526	0.7742	-0.047
Mof_H 	H 	1.80279e-32	0.6697	0.687	0.008
Mof_H 	H 	1.7169e-32	0.8334	0.5719	-0.002
Mof_H 	H 	2.9794e-32	0.5998	0.5349	0.075
Mof_H 	H 	1.68508e-33	0.1474	0.2258	-0.069
Mof_H 	H 	8.78636e-33	0.3303	0.313	-0.006
Mof_H 	H 	9.64532e-33	0.1666	0.4281	-0.017
Mof_H 	H 	-2.97964e-33	0.4002	0.4651	0.11
Mof_H 	H 	1.92638e-32	0.2258	0.8526	-0.056
Mof_H 	H 	1.78988e-32	0.313	0.6697	0.004
Mof_H 	H 	-6.68167e-33	0.4281	0.8334	-0.005
Mof_H 	H 	3.02783e-32	0.4651	0.5998	0.08
Mof_H 	H 	-1.18011e-32	0.7742	0.1474	-0.059
Mof_H 	H 	1.5366e-32	0.687	0.3303	-0.002
Mof_H 	H 	1.24329e-33	0.5719	0.1666	-0.015
Mof_H 	H 	2.23382e-32	0.5349	0.4002	0.105
Mof_H 	H 	0.5	0.9339	0.3648	-0.786
Mof_H 	H 	0.5	0.7655	0.6635	3.889
Mof_H 	H 	0.5	0.0661	0.6352	-0.775
Mof_H 	H 	0.5	0.2345	0.3365	3.568
Mof_H 	H 	0.5	0.6352	0.9339	-0.78
Mof_H 	H 	0.5	0.3365	0.7655	3.828
Mof_H 	H 	0.5	0.3648	0.0661	-0.781
Mof_H 	H 	0.5	0.6635	0.2345	3.629
Mof_C 	C 	0.7511	0.9248	0.4102	1.07
Mof_C 	C 	0.1255	0.7178	0.5133	-0.414
Mof_C 	C 	0.6206	0.9139	0.4442	-2.14
Mof_C 	C 	0.6194	0.8951	0.512	3.46
Mof_C 	C 	0.3831	0.8807	0.6559	-14.648
Mof_C 	C 	0.7511	0.0752	0.5898	1.008
Mof_C 	C 	0.1255	0.2822	0.4867	-0.528
Mof_C 	C 	0.6206	0.0861	0.5558	-2.015
Mof_C 	C 	0.6194	0.1049	0.488	3.18
Mof_C 	C 	0.3831	0.1193	0.3441	-13.419
Mof_C 	C 	0.7511	0.5898	0.9248	1.058
Mof_C 	C 	0.1255	0.4867	0.7178	-0.431
Mof_C 	C 	0.6206	0.5558	0.9139	-2.113
Mof_C 	C 	0.6194	0.488	0.8951	3.407
Mof_C 	C 	0.3831	0.3441	0.8807	-14.423
Mof_C 	C 	0.7511	0.4102	0.0752	1.02
Mof_C 	C 	0.1255	0.5133	0.2822	-0.511
Mof_C 	C 	0.6206	0.4442	0.0861	-2.042
Mof_C 	C 	0.6194	0.512	0.1049	3.232
Mof_C 	C 	0.3831	0.6559	0.1193	-13.645
Mof_C 	C 	0.2489	0.0752	0.5898	0.994
Mof_C 	C 	0.8745	0.2822	0.4867	-0.621
Mof_C 	C 	0.3794	0.0861	0.5558	-2.002
Mof_C 	C 	0.3806	0.1049	0.488	3.173
Mof_C 	C 	0.6169	0.1193	0.3441	-13.38
Mof_C 	C 	0.2489	0.9248	0.4102	1.055
Mof_C 	C 	0.8745	0.7178	0.5133	-0.508
Mof_C 	C 	0.3794	0.9139	0.4442	-2.126
Mof_C 	C 	0.3806	0.8951	0.512	3.453
Mof_C 	C 	0.6169	0.8807	0.6559	-14.606
Mof_C 	C 	0.2489	0.4102	0.0752	1.005
Mof_C 	C 	0.8745	0.5133	0.2822	-0.604
Mof_C 	C 	0.3794	0.4442	0.0861	-2.029
Mof_C 	C 	0.3806	0.512	0.1049	3.225
Mof_C 	C 	0.6169	0.6559	0.1193	-13.605
Mof_C 	C 	0.2489	0.5898	0.9248	1.043
Mof_C 	C 	0.8745	0.4867	0.7178	-0.524
Mof_C 	C 	0.3794	0.5558	0.9139	-2.099
Mof_C 	C 	0.3806	0.488	0.8951	3.401
Mof_C 	C 	0.6169	0.3441	0.8807	-14.381
Mof_C 	C 	3.07469e-32	0.929	0.6626	0.282
Mof_C 	C 	1.89429e-32	0.7225	0.8096	0.289
Mof_C 	C 	1.79078e-32	0.8541	0.6709	-0.343
Mof_C 	C 	1.83929e-32	0.8254	0.7359	-0.029
Mof_C 	C 	5.53284e-33	0.7558	0.7414	-0.225
Mof_C 	C 	3.08992e-32	0.7165	0.683	-0.042
Mof_C 	C 	-2.1176e-32	0.7445	0.6199	-0.19
Mof_C 	C 	3.03872e-32	0.8136	0.6144	-0.114
Mof_C 	C 	1.70399e-32	0.6991	0.5546	0.265
Mof_C 	C 	1.71884e-32	0.6277	0.5745	-0.272
Mof_C 	C 	-3.93263e-33	0.071	0.3374	0.313
Mof_C 	C 	7.87144e-33	0.2775	0.1904	0.306
Mof_C 	C 	-3.99457e-33	0.1459	0.3291	-0.364
Mof_C 	C 	-1.09302e-32	0.1746	0.2641	0.007
Mof_C 	C 	8.38039e-33	0.2442	0.2586	-0.248
Mof_C 	C 	1.52668e-32	0.2835	0.317	0.001
Mof_C 	C 	-1.00645e-32	0.2555	0.3801	-0.231
Mof_C 	C 	-3.57292e-33	0.1864	0.3856	-0.061
Mof_C 	C 	-3.12665e-33	0.3009	0.4454	0.358
Mof_C 	C 	1.60765e-32	0.3723	0.4255	-0.39
Mof_C 	C 	3.2735e-32	0.3374	0.929	0.287
Mof_C 	C 	1.82929e-32	0.1904	0.7225	0.296
Mof_C 	C 	1.9275e-32	0.3291	0.8541	-0.348
Mof_C 	C 	6.15971e-33	0.2641	0.8254	-0.02
Mof_C 	C 	5.64031e-33	0.2586	0.7558	-0.234
Mof_C 	C 	5.34702e-33	0.317	0.7165	-0.032
Mof_C 	C 	-2.02462e-32	0.3801	0.7445	-0.198
Mof_C 	C 	6.07165e-33	0.3856	0.8136	-0.104
Mof_C 	C 	1.81182e-32	0.4454	0.6991	0.28
Mof_C 	C 	4.68433e-33	0.4255	0.6277	-0.29
Mof_C 	C 	1.02057e-32	0.6626	0.071	0.308
Mof_C 	C 	1.4972e-32	0.8096	0.2775	0.299
Mof_C 	C 	1.07646e-32	0.6709	0.1459	-0.359
Mof_C 	C 	7.75353e-33	0.7359	0.1746	-0.002
Mof_C 	C 	2.76245e-32	0.7414	0.2442	-0.238
Mof_C 	C 	2.14673e-32	0.683	0.2835	-0.009
Mof_C 	C 	1.90672e-33	0.6199	0.2555	-0.223
Mof_C 	C 	1.75174e-32	0.6144	0.1864	-0.072
Mof_C 	C 	8.69606e-33	0.5546	0.3009	0.343
Mof_C 	C 	2.85805e-32	0.5745	0.3723	-0.372
Mof_C 	C 	0.5	0.9224	0.4103	1.888
Mof_C 	C 	0.5	0.8845	0.5477	-5.661
Mof_C 	C 	0.5	0.8574	0.6187	12.31
Mof_C 	C 	0.5	0.782	0.618	-13.625
Mof_C 	C 	0.5	0.0776	0.5897	1.745
Mof_C 	C 	0.5	0.1155	0.4523	-5.213
Mof_C 	C 	0.5	0.1426	0.3813	11.281
Mof_C 	C 	0.5	0.218	0.382	-12.51
Mof_C 	C 	0.5	0.5897	0.9224	1.86
Mof_C 	C 	0.5	0.4523	0.8845	-5.576
Mof_C 	C 	0.5	0.3813	0.8574	12.12
Mof_C 	C 	0.5	0.382	0.782	-13.417
Mof_C 	C 	0.5	0.4103	0.0776	1.773
Mof_C 	C 	0.5	0.5477	0.1155	-5.298
Mof_C 	C 	0.5	0.6187	0.1426	11.471
Mof_C 	C 	0.5	0.618	0.218	-12.717
Mof_O 	O 	0.856	0.9263	0.4463	-0.716
Mof_O 	O 	0.7581	0.9301	0.3474	-0.69
Mof_O 	O 	0.856	0.0737	0.5537	-0.724
Mof_O 	O 	0.7581	0.0699	0.6526	-0.715
Mof_O 	O 	0.856	0.5537	0.9263	-0.714
Mof_O 	O 	0.7581	0.6526	0.9301	-0.69
Mof_O 	O 	0.856	0.4463	0.0737	-0.726
Mof_O 	O 	0.7581	0.3474	0.0699	-0.715
Mof_O 	O 	0.144	0.0737	0.5537	-0.655
Mof_O 	O 	0.2419	0.0699	0.6526	-0.673
Mof_O 	O 	0.144	0.9263	0.4463	-0.645
Mof_O 	O 	0.2419	0.9301	0.3474	-0.647
Mof_O 	O 	0.144	0.4463	0.0737	-0.658
Mof_O 	O 	0.2419	0.3474	0.0699	-0.674
Mof_O 	O 	0.144	0.5537	0.9263	-0.643
Mof_O 	O 	0.2419	0.6526	0.9301	-0.646
Mof_O 	O 	4.50821e-33	0.9519	0.6041	-0.501
Mof_O 	O 	5.32165e-33	0.9671	0.7131	-0.38
Mof_O 	O 	6.06419e-33	0.6602	0.8126	-0.318
Mof_O 	O 	6.42762e-33	0.7581	0.8613	-0.361
Mof_O 	O 	2.95448e-33	0.0481	0.3959	-0.55
Mof_O 	O 	8.59159e-33	0.0329	0.2869	-0.44
Mof_O 	O 	1.42996e-32	0.3398	0.1874	-0.318
Mof_O 	O 	4.26035e-33	0.2419	0.1387	-0.389
Mof_O 	O 	-5.79734e-33	0.3959	0.9519	-0.501
Mof_O 	O 	3.30193e-32	0.2869	0.9671	-0.386
Mof_O 	O 	4.92687e-33	0.1874	0.6602	-0.318
Mof_O 	O 	5.65747e-33	0.1387	0.7581	-0.383
Mof_O 	O 	-6.09158e-33	0.6041	0.0481	-0.549
Mof_O 	O 	2.45523e-34	0.7131	0.0329	-0.435
Mof_O 	O 	2.8338e-32	0.8126	0.3398	-0.319
Mof_O 	O 	8.25576e-33	0.8613	0.2419	-0.367
_end
