data_functionalizedCrystal
_audit_creation_method	'EQeq! by Chris Wilmer'
_symmetry_space_group_name_H-M	'P1'
_symmetry_Int_Tables_number	1
_symmetry_cell_setting	triclinic
loop_
_symmetry_equiv_pos_as_xyz
  x,y,z
_cell_length_a	15.698
_cell_length_b	17.3214
_cell_length_c	17.9367
_cell_angle_alpha	77.8335
_cell_angle_beta	64.0495
_cell_angle_gamma	63.0547
loop_
_atom_site_label
_atom_site_type_symbol
_atom_site_fract_x
_atom_site_fract_y
_atom_site_fract_z
_atom_site_charge
Mof_La	La	0.42293	0.5499	0.82858	2.362
Mof_La	La	0.47352	0.82441	0.98661	2.482
Mof_La	La	0.80141	0.9501	0.67142	2.356
Mof_La	La	0.28454	0.67559	0.51339	2.487
Mof_La	La	0.57707	0.4501	0.17142	2.362
Mof_La	La	0.52648	0.17559	0.01339	2.482
Mof_La	La	0.19859	0.0499	0.32858	2.356
Mof_La	La	0.71546	0.32441	0.48661	2.487
Mof_H 	H 	0.7985	0.5096	0.5708	0.016
Mof_H 	H 	0.8051	0.633	0.5904	0.065
Mof_H 	H 	0.6902	0.7066	0.7186	0.011
Mof_H 	H 	0.4752	0.7827	0.6471	0.033
Mof_H 	H 	0.4913	0.8989	0.5559	0.044
Mof_H 	H 	0.4131	0.9379	0.4611	0.001
Mof_H 	H 	0.2549	0.566	0.784	0.309
Mof_H 	H 	0.3242	0.4817	0.7655	0.319
Mof_H 	H 	0.1943	0.7121	0.8949	0.33
Mof_H 	H 	0.2702	0.7254	0.829	0.353
Mof_H 	H 	0.5342	0.4027	0.8803	0.18
Mof_H 	H 	0.383	0.5186	0.0132	0.316
Mof_H 	H 	0.286	0.555	0.0186	0.303
Mof_H 	H 	0.3857	0.9232	0.8412	0.377
Mof_H 	H 	0.3234	0.9013	0.9113	0.372
Mof_H 	H 	0.2832	0.7632	0.0254	0.359
Mof_H 	H 	0.3573	0.7322	0.0548	0.291
Mof_H 	H 	0.4339	0.9054	0.1302	0.328
Mof_H 	H 	0.5126	0.8328	0.1412	0.3
Mof_H 	H 	0.3857	0.0165	0.0249	0.342
Mof_H 	H 	0.4089	0.0214	0.9412	0.352
Mof_H 	H 	0.6164	0.4242	0.8282	0.221
Mof_H 	H 	0.8789	0.9904	0.9292	0.01
Mof_H 	H 	0.0285	0.867	0.9096	0.073
Mof_H 	H 	0.1154	0.7934	0.7814	0.007
Mof_H 	H 	0.905	0.7173	0.8529	0.032
Mof_H 	H 	0.9461	0.6011	0.9441	0.045
Mof_H 	H 	0.8121	0.5621	0.0389	0
Mof_H 	H 	0.6049	0.934	0.716	0.31
Mof_H 	H 	0.5714	0.0183	0.7345	0.323
Mof_H 	H 	0.8013	0.7879	0.6051	0.33
Mof_H 	H 	0.8246	0.7746	0.671	0.353
Mof_H 	H 	0.8172	0.0973	0.6197	0.18
Mof_H 	H 	0.9148	0.9814	0.4868	0.314
Mof_H 	H 	0.8596	0.945	0.4814	0.301
Mof_H 	H 	0.1501	0.5768	0.6588	0.377
Mof_H 	H 	0.136	0.5987	0.5887	0.372
Mof_H 	H 	0.0718	0.7368	0.4746	0.358
Mof_H 	H 	0.1443	0.7678	0.4452	0.291
Mof_H 	H 	0.4695	0.5946	0.3698	0.328
Mof_H 	H 	0.4866	0.6672	0.3588	0.301
Mof_H 	H 	0.4271	0.4835	0.4751	0.342
Mof_H 	H 	0.3715	0.4786	0.5588	0.348
Mof_H 	H 	0.8688	0.0758	0.6718	0.222
Mof_H 	H 	0.2015	0.4904	0.4292	0.016
Mof_H 	H 	0.1949	0.367	0.4096	0.065
Mof_H 	H 	0.3098	0.2934	0.2814	0.011
Mof_H 	H 	0.5248	0.2173	0.3529	0.033
Mof_H 	H 	0.5087	0.1011	0.4441	0.044
Mof_H 	H 	0.5869	0.0621	0.5389	0.001
Mof_H 	H 	0.7451	0.434	0.216	0.309
Mof_H 	H 	0.6758	0.5183	0.2345	0.319
Mof_H 	H 	0.8057	0.2879	0.1051	0.33
Mof_H 	H 	0.7298	0.2746	0.171	0.353
Mof_H 	H 	0.4658	0.5973	0.1197	0.18
Mof_H 	H 	0.617	0.4814	0.9868	0.316
Mof_H 	H 	0.714	0.445	0.9814	0.303
Mof_H 	H 	0.6143	0.0768	0.1588	0.377
Mof_H 	H 	0.6766	0.0987	0.0887	0.372
Mof_H 	H 	0.7168	0.2368	0.9746	0.359
Mof_H 	H 	0.6427	0.2678	0.9452	0.291
Mof_H 	H 	0.5661	0.0946	0.8698	0.328
Mof_H 	H 	0.4874	0.1672	0.8588	0.3
Mof_H 	H 	0.6143	0.9835	0.9751	0.342
Mof_H 	H 	0.5911	0.9786	0.0588	0.352
Mof_H 	H 	0.3836	0.5758	0.1718	0.221
Mof_H 	H 	0.1211	0.0096	0.0708	0.01
Mof_H 	H 	0.9715	0.133	0.0904	0.073
Mof_H 	H 	0.8846	0.2066	0.2186	0.007
Mof_H 	H 	0.095	0.2827	0.1471	0.032
Mof_H 	H 	0.0539	0.3989	0.0559	0.045
Mof_H 	H 	0.1879	0.4379	0.9611	0
Mof_H 	H 	0.3951	0.066	0.284	0.31
Mof_H 	H 	0.4286	0.9817	0.2655	0.323
Mof_H 	H 	0.1987	0.2121	0.3949	0.33
Mof_H 	H 	0.1754	0.2254	0.329	0.353
Mof_H 	H 	0.1828	0.9027	0.3803	0.18
Mof_H 	H 	0.0852	0.0186	0.5132	0.314
Mof_H 	H 	0.1404	0.055	0.5186	0.301
Mof_H 	H 	0.8499	0.4232	0.3412	0.377
Mof_H 	H 	0.864	0.4013	0.4113	0.372
Mof_H 	H 	0.9282	0.2632	0.5254	0.358
Mof_H 	H 	0.8557	0.2322	0.5548	0.291
Mof_H 	H 	0.5305	0.4054	0.6302	0.328
Mof_H 	H 	0.5134	0.3328	0.6412	0.301
Mof_H 	H 	0.5729	0.5165	0.5249	0.342
Mof_H 	H 	0.6285	0.5214	0.4412	0.348
Mof_H 	H 	0.1312	0.9242	0.3282	0.222
Mof_C 	C 	0.6424	0.4546	0.6544	0.407
Mof_C 	C 	0.6666	0.5214	0.6704	-0.102
Mof_C 	C 	0.7481	0.5437	0.6167	0.031
Mof_C 	C 	0.7555	0.6143	0.6301	-0.1
Mof_C 	C 	0.6854	0.6594	0.7066	0.028
Mof_C 	C 	0.6114	0.631	0.7616	-0.082
Mof_C 	C 	0.5333	0.6735	0.8457	0.434
Mof_C 	C 	0.3947	0.6733	0.6455	0.403
Mof_C 	C 	0.4065	0.7491	0.5925	-0.074
Mof_C 	C 	0.4511	0.7976	0.6048	0.009
Mof_C 	C 	0.4581	0.8676	0.5526	-0.093
Mof_C 	C 	0.4134	0.8894	0.4952	0.018
Mof_C 	C 	0.3688	0.8383	0.4883	-0.106
Mof_C 	C 	0.3151	0.8615	0.4303	0.448
Mof_C 	C 	0.7514	0.0454	0.8456	0.413
Mof_C 	C 	0.8584	0.9786	0.8296	-0.111
Mof_C 	C 	0.9085	0.9563	0.8833	0.043
Mof_C 	C 	0.9999	0.8857	0.8699	-0.118
Mof_C 	C 	0.0514	0.8406	0.7934	0.04
Mof_C 	C 	0.004	0.869	0.7384	-0.085
Mof_C 	C 	0.0525	0.8265	0.6543	0.438
Mof_C 	C 	0.7135	0.8267	0.8545	0.403
Mof_C 	C 	0.7481	0.7509	0.9075	-0.075
Mof_C 	C 	0.8535	0.7024	0.8952	0.01
Mof_C 	C 	0.8783	0.6324	0.9474	-0.095
Mof_C 	C 	0.798	0.6106	0.0048	0.02
Mof_C 	C 	0.6954	0.6617	0.0117	-0.105
Mof_C 	C 	0.6069	0.6385	0.0697	0.448
Mof_C 	C 	0.3576	0.5454	0.3456	0.407
Mof_C 	C 	0.3334	0.4786	0.3296	-0.102
Mof_C 	C 	0.2519	0.4563	0.3833	0.031
Mof_C 	C 	0.2445	0.3857	0.3699	-0.1
Mof_C 	C 	0.3146	0.3406	0.2934	0.028
Mof_C 	C 	0.3886	0.369	0.2384	-0.082
Mof_C 	C 	0.4667	0.3265	0.1543	0.434
Mof_C 	C 	0.6053	0.3267	0.3545	0.403
Mof_C 	C 	0.5935	0.2509	0.4075	-0.074
Mof_C 	C 	0.5489	0.2024	0.3952	0.009
Mof_C 	C 	0.5419	0.1324	0.4474	-0.093
Mof_C 	C 	0.5866	0.1106	0.5048	0.018
Mof_C 	C 	0.6312	0.1617	0.5117	-0.106
Mof_C 	C 	0.6849	0.1385	0.5697	0.448
Mof_C 	C 	0.2486	0.9546	0.1544	0.413
Mof_C 	C 	0.1416	0.0214	0.1704	-0.111
Mof_C 	C 	0.0915	0.0437	0.1167	0.043
Mof_C 	C 	0.0001	0.1143	0.1301	-0.118
Mof_C 	C 	0.9486	0.1594	0.2066	0.04
Mof_C 	C 	0.996	0.131	0.2616	-0.085
Mof_C 	C 	0.9475	0.1735	0.3457	0.438
Mof_C 	C 	0.2865	0.1733	0.1455	0.403
Mof_C 	C 	0.2519	0.2491	0.0925	-0.075
Mof_C 	C 	0.1465	0.2976	0.1048	0.01
Mof_C 	C 	0.1217	0.3676	0.0526	-0.095
Mof_C 	C 	0.202	0.3894	0.9952	0.02
Mof_C 	C 	0.3046	0.3383	0.9883	-0.105
Mof_C 	C 	0.3931	0.3615	0.9303	0.448
Mof_N 	N 	0.5989	0.5665	0.7423	-0.194
Mof_N 	N 	0.3661	0.7702	0.5352	-0.192
Mof_N 	N 	0.9077	0.9335	0.7577	-0.193
Mof_N 	N 	0.6715	0.7298	0.9648	-0.192
Mof_N 	N 	0.4011	0.4335	0.2577	-0.194
Mof_N 	N 	0.6339	0.2298	0.4648	-0.192
Mof_N 	N 	0.0923	0.0665	0.2423	-0.193
Mof_N 	N 	0.3285	0.2702	0.0352	-0.192
Mof_O 	O 	0.4184	0.6546	0.7072	-0.479
Mof_O 	O 	0.3098	0.9288	0.389	-0.573
Mof_O 	O 	0.5514	0.7226	0.8712	-0.495
Mof_O 	O 	0.7045	0.4094	0.5916	-0.522
Mof_O 	O 	0.5545	0.4531	0.7041	-0.533
Mof_O 	O 	0.458	0.6514	0.8828	-0.447
Mof_O 	O 	0.3572	0.6328	0.6258	-0.459
Mof_O 	O 	0.2746	0.8129	0.4305	-0.567
Mof_O 	O 	0.3191	0.5333	0.7613	-0.831
Mof_O 	O 	0.2599	0.6957	0.8739	-0.821
Mof_O 	O 	0.573	0.43	0.8784	-0.624
Mof_O 	O 	0.3436	0.5596	0.9922	-0.779
Mof_O 	O 	0.3865	0.8953	0.8861	-0.892
Mof_O 	O 	0.3431	0.7608	0.014	-0.799
Mof_O 	O 	0.4973	0.8716	0.1056	-0.821
Mof_O 	O 	0.4266	0.9894	0.9796	-0.842
Mof_O 	O 	0.7802	0.8454	0.7928	-0.479
Mof_O 	O 	0.6276	0.5712	0.111	-0.575
Mof_O 	O 	0.1452	0.7774	0.6288	-0.496
Mof_O 	O 	0.7055	0.0906	0.9084	-0.52
Mof_O 	O 	0.7117	0.0469	0.7959	-0.532
Mof_O 	O 	0.9922	0.8486	0.6172	-0.45
Mof_O 	O 	0.6158	0.8672	0.8742	-0.459
Mof_O 	O 	0.518	0.6871	0.0695	-0.566
Mof_O 	O 	0.6137	0.9667	0.7387	-0.835
Mof_O 	O 	0.8295	0.8043	0.6261	-0.82
Mof_O 	O 	0.8814	0.07	0.6216	-0.623
Mof_O 	O 	0.8954	0.9404	0.5078	-0.778
Mof_O 	O 	0.1679	0.6047	0.6139	-0.892
Mof_O 	O 	0.1179	0.7392	0.486	-0.801
Mof_O 	O 	0.4745	0.6284	0.3944	-0.823
Mof_O 	O 	0.3956	0.5106	0.5204	-0.838
Mof_O 	O 	0.5816	0.3454	0.2928	-0.479
Mof_O 	O 	0.6902	0.0712	0.611	-0.573
Mof_O 	O 	0.4486	0.2774	0.1288	-0.495
Mof_O 	O 	0.2955	0.5906	0.4084	-0.522
Mof_O 	O 	0.4455	0.5469	0.2959	-0.533
Mof_O 	O 	0.542	0.3486	0.1172	-0.447
Mof_O 	O 	0.6428	0.3672	0.3742	-0.459
Mof_O 	O 	0.7254	0.1871	0.5695	-0.567
Mof_O 	O 	0.6809	0.4667	0.2387	-0.831
Mof_O 	O 	0.7401	0.3043	0.1261	-0.821
Mof_O 	O 	0.427	0.57	0.1216	-0.624
Mof_O 	O 	0.6564	0.4404	0.0078	-0.779
Mof_O 	O 	0.6135	0.1047	0.1139	-0.892
Mof_O 	O 	0.6569	0.2392	0.986	-0.799
Mof_O 	O 	0.5027	0.1284	0.8944	-0.821
Mof_O 	O 	0.5734	0.0106	0.0204	-0.842
Mof_O 	O 	0.2198	0.1546	0.2072	-0.479
Mof_O 	O 	0.3724	0.4288	0.889	-0.575
Mof_O 	O 	0.8548	0.2226	0.3712	-0.496
Mof_O 	O 	0.2945	0.9094	0.0916	-0.52
Mof_O 	O 	0.2883	0.9531	0.2041	-0.532
Mof_O 	O 	0.0078	0.1514	0.3828	-0.45
Mof_O 	O 	0.3842	0.1328	0.1258	-0.459
Mof_O 	O 	0.482	0.3129	0.9305	-0.566
Mof_O 	O 	0.3863	0.0333	0.2613	-0.835
Mof_O 	O 	0.1705	0.1957	0.3739	-0.82
Mof_O 	O 	0.1186	0.93	0.3784	-0.623
Mof_O 	O 	0.1046	0.0596	0.4922	-0.778
Mof_O 	O 	0.8321	0.3953	0.3861	-0.892
Mof_O 	O 	0.8821	0.2608	0.514	-0.801
Mof_O 	O 	0.5255	0.3716	0.6056	-0.823
Mof_O 	O 	0.6044	0.4894	0.4796	-0.838
Mof_F 	F 	0.0436	0.366	0.3358	-0.416
Mof_F 	F 	0.7454	0.134	0.1642	-0.415
Mof_F 	F 	0.9564	0.634	0.6642	-0.416
Mof_F 	F 	0.2546	0.866	0.8358	-0.415
_end
