data_functionalizedCrystal
_audit_creation_method	'EQeq! by Chris Wilmer'
_symmetry_space_group_name_H-M	'P1'
_symmetry_Int_Tables_number	1
_symmetry_cell_setting	triclinic
loop_
_symmetry_equiv_pos_as_xyz
  x,y,z
_cell_length_a	7.08
_cell_length_b	17.3265
_cell_length_c	20.7867
_cell_angle_alpha	90
_cell_angle_beta	99.2752
_cell_angle_gamma	90
loop_
_atom_site_label
_atom_site_type_symbol
_atom_site_fract_x
_atom_site_fract_y
_atom_site_fract_z
_atom_site_charge
Mof_Na	Na	0.2222	0.76205	0.3878	2.458
Mof_Na	Na	0.2778	0.26205	0.1122	2.467
Mof_Na	Na	0.7778	0.23795	0.6122	2.457
Mof_Na	Na	0.7222	0.73795	0.8878	2.466
Mof_Bi	Bi	0.69453	0.76993	0.36538	0.682
Mof_Bi	Bi	0.80547	0.26993	0.13462	0.679
Mof_Bi	Bi	0.30547	0.23007	0.63462	0.682
Mof_Bi	Bi	0.19453	0.73007	0.86538	0.679
Mof_H 	H 	0.1304	0.9109	0.3008	-0.041
Mof_H 	H 	0.5731	0.047	0.2744	0.043
Mof_H 	H 	0.3614	0.1362	0.2205	-0.038
Mof_H 	H 	0.9182	0.001	0.2469	0.045
Mof_H 	H 	0.1647	0.7256	0.6309	0.052
Mof_H 	H 	0.7147	0.7156	0.7181	0.036
Mof_H 	H 	0.8103	0.7134	0.6167	0.013
Mof_H 	H 	0.2608	0.7289	0.5302	-0.142
Mof_H 	H 	0.3696	0.4109	0.1992	-0.041
Mof_H 	H 	0.9269	0.547	0.2256	0.045
Mof_H 	H 	0.1386	0.6362	0.2795	-0.039
Mof_H 	H 	0.5818	0.501	0.2531	0.047
Mof_H 	H 	0.3353	0.2256	0.8691	0.056
Mof_H 	H 	0.7853	0.2156	0.7819	0.039
Mof_H 	H 	0.6897	0.2134	0.8833	0.009
Mof_H 	H 	0.2392	0.2289	0.9698	-0.146
Mof_H 	H 	0.8696	0.0891	0.6992	-0.041
Mof_H 	H 	0.4269	0.953	0.7256	0.043
Mof_H 	H 	0.6386	0.8638	0.7795	-0.038
Mof_H 	H 	0.0818	0.999	0.7531	0.045
Mof_H 	H 	0.8353	0.2744	0.3691	0.052
Mof_H 	H 	0.2853	0.2844	0.2819	0.036
Mof_H 	H 	0.1897	0.2866	0.3833	0.013
Mof_H 	H 	0.7392	0.2711	0.4698	-0.142
Mof_H 	H 	0.6304	0.5891	0.8008	-0.041
Mof_H 	H 	0.0731	0.453	0.7744	0.045
Mof_H 	H 	0.8614	0.3638	0.7205	-0.039
Mof_H 	H 	0.4182	0.499	0.7469	0.047
Mof_H 	H 	0.6647	0.7744	0.1309	0.056
Mof_H 	H 	0.2147	0.7844	0.2181	0.039
Mof_H 	H 	0.3103	0.7866	0.1167	0.009
Mof_H 	H 	0.7608	0.7711	0.0302	-0.146
Mof_C 	C 	0.5098	0.9108	0.3252	0.415
Mof_C 	C 	0.3733	0.9705	0.2934	-0.143
Mof_C 	C 	0.1762	0.9562	0.2848	0.023
Mof_C 	C 	0.4421	0.0378	0.269	-0.035
Mof_C 	C 	0.3157	0.091	0.2366	0.018
Mof_C 	C 	0.0494	0.0098	0.2524	-0.038
Mof_C 	C 	0.1198	0.0768	0.2282	-0.136
Mof_C 	C 	0.9815	0.1344	0.1926	0.411
Mof_C 	C 	0.3661	0.7226	0.7506	0.464
Mof_C 	C 	0.4294	0.7215	0.6848	-0.098
Mof_C 	C 	0.2945	0.7246	0.6281	-0.092
Mof_C 	C 	0.6238	0.7178	0.6804	-0.035
Mof_C 	C 	0.681	0.7174	0.6197	0.026
Mof_C 	C 	0.3518	0.726	0.5678	0.086
Mof_C 	C 	0.5459	0.723	0.563	-0.203
Mof_C 	C 	0.6102	0.7275	0.4975	0.41
Mof_C 	C 	0.9902	0.4108	0.1748	0.415
Mof_C 	C 	0.1267	0.4705	0.2066	-0.143
Mof_C 	C 	0.3238	0.4562	0.2152	0.026
Mof_C 	C 	0.0579	0.5378	0.231	-0.038
Mof_C 	C 	0.1843	0.591	0.2634	0.019
Mof_C 	C 	0.4506	0.5098	0.2476	-0.042
Mof_C 	C 	0.3802	0.5768	0.2718	-0.137
Mof_C 	C 	0.5185	0.6344	0.3074	0.413
Mof_C 	C 	0.1339	0.2226	0.7494	0.46
Mof_C 	C 	0.0706	0.2215	0.8152	-0.087
Mof_C 	C 	0.2055	0.2246	0.8719	-0.102
Mof_C 	C 	0.8762	0.2178	0.8196	-0.047
Mof_C 	C 	0.819	0.2174	0.8803	0.035
Mof_C 	C 	0.1482	0.226	0.9322	0.098
Mof_C 	C 	0.9541	0.223	0.937	-0.214
Mof_C 	C 	0.8898	0.2275	0.0025	0.413
Mof_C 	C 	0.4902	0.0892	0.6748	0.415
Mof_C 	C 	0.6267	0.0295	0.7066	-0.143
Mof_C 	C 	0.8238	0.0438	0.7152	0.023
Mof_C 	C 	0.5579	0.9622	0.731	-0.035
Mof_C 	C 	0.6843	0.909	0.7634	0.018
Mof_C 	C 	0.9506	0.9902	0.7476	-0.038
Mof_C 	C 	0.8802	0.9232	0.7718	-0.136
Mof_C 	C 	0.0185	0.8656	0.8074	0.411
Mof_C 	C 	0.6339	0.2774	0.2494	0.464
Mof_C 	C 	0.5706	0.2785	0.3152	-0.098
Mof_C 	C 	0.7055	0.2754	0.3719	-0.092
Mof_C 	C 	0.3762	0.2822	0.3196	-0.035
Mof_C 	C 	0.319	0.2826	0.3803	0.026
Mof_C 	C 	0.6482	0.274	0.4322	0.086
Mof_C 	C 	0.4541	0.277	0.437	-0.203
Mof_C 	C 	0.3898	0.2725	0.5025	0.41
Mof_C 	C 	0.0098	0.5892	0.8252	0.415
Mof_C 	C 	0.8733	0.5295	0.7934	-0.143
Mof_C 	C 	0.6762	0.5438	0.7848	0.026
Mof_C 	C 	0.9421	0.4622	0.769	-0.038
Mof_C 	C 	0.8157	0.409	0.7366	0.019
Mof_C 	C 	0.5494	0.4902	0.7524	-0.042
Mof_C 	C 	0.6198	0.4232	0.7282	-0.137
Mof_C 	C 	0.4815	0.3656	0.6926	0.413
Mof_C 	C 	0.8661	0.7774	0.2506	0.46
Mof_C 	C 	0.9294	0.7785	0.1848	-0.087
Mof_C 	C 	0.7945	0.7754	0.1281	-0.102
Mof_C 	C 	0.1238	0.7822	0.1804	-0.047
Mof_C 	C 	0.181	0.7826	0.1197	0.035
Mof_C 	C 	0.8518	0.774	0.0678	0.098
Mof_C 	C 	0.0459	0.777	0.063	-0.214
Mof_C 	C 	0.1102	0.7725	0.9975	0.413
Mof_O 	O 	0.43571	0.84573	0.33781	-0.605
Mof_O 	O 	0.68456	0.9217	0.33826	-0.377
Mof_O 	O 	0.80552	0.12571	0.18612	-0.365
Mof_O 	O 	0.05696	0.19392	0.16886	-0.625
Mof_O 	O 	0.18806	0.71903	0.75286	-0.353
Mof_O 	O 	0.48989	0.72736	0.80099	-0.744
Mof_O 	O 	0.51858	0.77384	0.45638	-0.696
Mof_O 	O 	0.75008	0.6897	0.48628	-0.416
Mof_O 	O 	0.06429	0.34573	0.16219	-0.605
Mof_O 	O 	0.81544	0.4217	0.16174	-0.378
Mof_O 	O 	0.69448	0.62571	0.31388	-0.365
Mof_O 	O 	0.44304	0.69392	0.33114	-0.627
Mof_O 	O 	0.31194	0.21903	0.74714	-0.352
Mof_O 	O 	0.01011	0.22736	0.69901	-0.74
Mof_O 	O 	0.98142	0.27384	0.04362	-0.699
Mof_O 	O 	0.74992	0.1897	0.01372	-0.418
Mof_O 	O 	0.56429	0.15427	0.66219	-0.605
Mof_O 	O 	0.31544	0.0783	0.66174	-0.377
Mof_O 	O 	0.19448	0.87429	0.81388	-0.365
Mof_O 	O 	0.94304	0.80608	0.83114	-0.625
Mof_O 	O 	0.81194	0.28097	0.24714	-0.353
Mof_O 	O 	0.51011	0.27264	0.19901	-0.744
Mof_O 	O 	0.48142	0.22616	0.54362	-0.696
Mof_O 	O 	0.24992	0.3103	0.51372	-0.416
Mof_O 	O 	0.93571	0.65427	0.83781	-0.605
Mof_O 	O 	0.18456	0.5783	0.83826	-0.378
Mof_O 	O 	0.30552	0.37429	0.68612	-0.365
Mof_O 	O 	0.55696	0.30608	0.66886	-0.627
Mof_O 	O 	0.68806	0.78097	0.25286	-0.352
Mof_O 	O 	0.98989	0.77264	0.30099	-0.74
Mof_O 	O 	0.01858	0.72616	0.95638	-0.699
Mof_O 	O 	0.25008	0.8103	0.98628	-0.418
_end
