data_functionalizedCrystal
_audit_creation_method	'EQeq! by Chris Wilmer'
_symmetry_space_group_name_H-M	'P1'
_symmetry_Int_Tables_number	1
_symmetry_cell_setting	triclinic
loop_
_symmetry_equiv_pos_as_xyz
  x,y,z
_cell_length_a	13.987
_cell_length_b	16.153
_cell_length_c	17.299
_cell_angle_alpha	70.01
_cell_angle_beta	79.69
_cell_angle_gamma	66.1
loop_
_atom_site_label
_atom_site_type_symbol
_atom_site_fract_x
_atom_site_fract_y
_atom_site_fract_z
_atom_site_charge
Mof_Ni	Ni	0.71199	0.67213	0.63699	1.059
Mof_C 	C 	0.8822	0.7394	0.6484	0.08
Mof_H 	H 	0.8694	0.7236	0.7052	-0.001
Mof_C 	C 	0.873	0.7591	0.5245	0.011
Mof_H 	H 	0.855	0.76	0.4749	0.014
Mof_C 	C 	0.9419	0.7978	0.532	-0.011
Mof_H 	H 	0.9775	0.8288	0.4892	0.027
Mof_C 	C 	0.0054	0.8137	0.6488	-0.14
Mof_H 	H 	0.0295	0.8605	0.6079	0.069
Mof_H 	H 	0.0659	0.7603	0.6747	0.07
Mof_C 	C 	0.9312	0.8571	0.7134	0.095
Mof_C 	C 	0.8607	0.9503	0.6903	-0.127
Mof_H 	H 	0.862	0.9879	0.636	0.07
Mof_C 	C 	0.7886	0.9875	0.7473	0.011
Mof_H 	H 	0.7404	0.0495	0.7305	0.03
Mof_C 	C 	0.787	0.9332	0.8303	-0.048
Mof_C 	C 	0.8577	0.8412	0.8509	0.016
Mof_H 	H 	0.8555	0.8031	0.9049	0.036
Mof_C 	C 	0.9321	0.802	0.7959	-0.126
Mof_H 	H 	0.9813	0.7406	0.8133	0.073
Mof_N 	N 	0.678	0.0685	0.8717	-0.159
Mof_N 	N 	0.5984	0.0542	0.0037	-0.153
Mof_N 	N 	0.698	0.9172	0.9639	-0.15
Mof_C 	C 	0.5775	0.209	0.9103	-0.065
Mof_C 	C 	0.5939	0.2636	0.8312	0.031
Mof_H 	H 	0.6339	0.235	0.7916	0.027
Mof_C 	C 	0.5493	0.3622	0.8124	-0.152
Mof_H 	H 	0.5591	0.3992	0.7593	0.088
Mof_C 	C 	0.491	0.4064	0.8703	0.132
Mof_C 	C 	0.4785	0.3508	0.9464	-0.17
Mof_H 	H 	0.4396	0.3791	0.9865	0.086
Mof_C 	C 	0.5211	0.2545	0.9667	0.043
Mof_H 	H 	0.5115	0.2188	0.0204	0.024
Mof_C 	C 	0.4403	0.5122	0.8492	-0.168
Mof_H 	H 	0.3654	0.5305	0.8477	0.077
Mof_H 	H 	0.4524	0.5318	0.8925	0.079
Mof_C 	C 	0.6163	0.9022	0.1002	-0.041
Mof_C 	C 	0.5529	0.9425	0.1569	0.013
Mof_H 	H 	0.5226	0.0082	0.1439	0.04
Mof_C 	C 	0.5325	0.8867	0.2346	-0.122
Mof_H 	H 	0.4882	0.9162	0.2723	0.074
Mof_C 	C 	0.644	0.7492	0.1976	-0.119
Mof_H 	H 	0.6767	0.6835	0.2109	0.07
Mof_C 	C 	0.6632	0.8049	0.1207	0.012
Mof_H 	H 	0.7081	0.7766	0.0825	0.034
Mof_C 	C 	0.7962	0.4616	0.6522	0.089
Mof_H 	H 	0.7301	0.4683	0.6415	-0.01
Mof_C 	C 	0.9229	0.4917	0.6707	0.009
Mof_H 	H 	0.9619	0.5244	0.6754	0.017
Mof_C 	C 	0.9611	0.399	0.6749	-0.011
Mof_H 	H 	0.0298	0.3564	0.6841	0.036
Mof_C 	C 	0.8871	0.2898	0.6585	-0.15
Mof_H 	H 	0.9461	0.2684	0.6215	0.075
Mof_H 	H 	0.8244	0.2995	0.6345	0.074
Mof_C 	C 	0.9001	0.2127	0.7389	0.112
Mof_C 	C 	0.8566	0.2325	0.8118	-0.132
Mof_H 	H 	0.8249	0.2952	0.8126	0.087
Mof_C 	C 	0.8602	0.1591	0.884	0.025
Mof_H 	H 	0.8275	0.1735	0.9321	0.035
Mof_C 	C 	0.9107	0.0661	0.8859	-0.046
Mof_C 	C 	0.9571	0.0451	0.8138	0.022
Mof_H 	H 	0.9915	0.9824	0.8137	0.034
Mof_C 	C 	0.9514	0.1193	0.7414	-0.135
Mof_H 	H 	0.9836	0.105	0.6932	0.074
Mof_N 	N 	0.8543	0.0102	0.0276	-0.148
Mof_N 	N 	0.8998	0.8469	0.0949	-0.154
Mof_N 	N 	0.9657	0.8995	0.9609	-0.154
Mof_C 	C 	0.0094	0.7318	0.0281	-0.043
Mof_C 	C 	0.974	0.6596	0.0836	0.004
Mof_H 	H 	0.9171	0.6765	0.1199	0.033
Mof_C 	C 	0.0212	0.5674	0.0846	-0.127
Mof_H 	H 	0.9937	0.5229	0.1187	0.069
Mof_C 	C 	0.1464	0.6057	0.98	-0.136
Mof_H 	H 	0.2041	0.5875	0.9448	0.07
Mof_C 	C 	0.097	0.7016	0.9767	0.007
Mof_H 	H 	0.1229	0.7458	0.9397	0.033
Mof_C 	C 	0.7987	0.9572	0.1699	-0.06
Mof_C 	C 	0.761	0.0442	0.1752	0.03
Mof_H 	H 	0.767	0.0938	0.1298	0.03
Mof_C 	C 	0.7909	0.8843	0.2382	0.035
Mof_H 	H 	0.8171	0.8226	0.2351	0.029
Mof_C 	C 	0.2182	0.401	0.1825	0.086
Mof_H 	H 	0.1728	0.4585	0.1906	-0.002
Mof_C 	C 	0.3311	0.2627	0.2028	0.011
Mof_H 	H 	0.3812	0.2038	0.2272	0.023
Mof_C 	C 	0.2968	0.2929	0.1245	-0.012
Mof_H 	H 	0.3191	0.2582	0.0871	0.04
Mof_C 	C 	0.1631	0.437	0.0372	-0.157
Mof_H 	H 	0.1103	0.4122	0.038	0.08
Mof_H 	H 	0.2085	0.4315	0.9882	0.075
Mof_C 	C 	0.1115	0.539	0.034	0.106
Mof_C 	C 	0.6186	0.7221	0.4691	0.085
Mof_H 	H 	0.5558	0.7656	0.4834	-0.01
Mof_C 	C 	0.7726	0.6264	0.4699	0.01
Mof_H 	H 	0.8409	0.588	0.4853	0.017
Mof_C 	C 	0.7327	0.6367	0.3996	-0.013
Mof_H 	H 	0.7675	0.6073	0.3593	0.033
Mof_C 	C 	0.5572	0.726	0.3398	-0.143
Mof_H 	H 	0.4885	0.7582	0.362	0.071
Mof_H 	H 	0.5565	0.6694	0.3323	0.073
Mof_C 	C 	0.5756	0.7902	0.2567	0.1
Mof_C 	C 	0.5626	0.5891	0.7567	0.081
Mof_H 	H 	0.599	0.584	0.7992	-0.003
Mof_C 	C 	0.518	0.6157	0.6411	0.026
Mof_H 	H 	0.5159	0.6334	0.5841	0.009
Mof_C 	C 	0.4494	0.5807	0.695	-0.028
Mof_H 	H 	0.3938	0.5709	0.6819	0.036
Mof_C 	C 	0.5005	0.1555	0.3861	0.076
Mof_H 	H 	0.5359	0.1945	0.3828	-0.005
Mof_C 	C 	0.3771	0.1076	0.3918	0.012
Mof_H 	H 	0.311	0.1061	0.3934	0.017
Mof_C 	C 	0.4678	0.0311	0.3989	-0.017
Mof_H 	H 	0.4752	0.9693	0.4051	0.038
Mof_C 	C 	0.6579	0.0103	0.3984	-0.15
Mof_H 	H 	0.6913	0.0455	0.4119	0.073
Mof_H 	H 	0.6709	0.9506	0.442	0.075
Mof_C 	C 	0.7068	0.9901	0.3182	0.121
Mof_C 	C 	0.7114	0.0629	0.2495	-0.143
Mof_H 	H 	0.6817	0.1251	0.2517	0.081
Mof_C 	C 	0.7442	0.9025	0.3115	-0.155
Mof_H 	H 	0.7388	0.8527	0.3568	0.085
Mof_N 	N 	0.8363	0.7202	0.599	-0.233
Mof_N 	N 	0.9471	0.7826	0.61	-0.107
Mof_N 	N 	0.8177	0.53	0.6583	-0.232
Mof_N 	N 	0.8796	0.3804	0.6629	-0.104
Mof_N 	N 	0.2804	0.3326	0.2384	-0.227
Mof_N 	N 	0.2261	0.3802	0.1121	-0.104
Mof_N 	N 	0.7006	0.6791	0.5144	-0.233
Mof_N 	N 	0.6341	0.6973	0.3999	-0.105
Mof_N 	N 	0.3956	0.1868	0.382	-0.229
Mof_N 	N 	0.5477	0.0632	0.3951	-0.099
Mof_N 	N 	0.5879	0.6215	0.6794	-0.234
Mof_N 	N 	0.4785	0.5633	0.7701	-0.1
Mof_C 	C 	0.7141	0.9774	0.8911	0.142
Mof_C 	C 	0.619	0.1051	0.9294	0.147
Mof_C 	C 	0.6373	0.9623	0.0182	0.136
Mof_C 	C 	0.9122	0.986	0.9615	0.145
Mof_C 	C 	0.8546	0.9353	0.0936	0.142
Mof_C 	C 	0.9571	0.8309	0.0277	0.132
Mof_Ni	Ni	0.28801	0.32787	0.36301	1.058
Mof_C 	C 	0.1178	0.2606	0.3516	0.079
Mof_H 	H 	0.1306	0.2764	0.2948	-0.001
Mof_C 	C 	0.127	0.2409	0.4755	0.011
Mof_H 	H 	0.145	0.24	0.5251	0.014
Mof_C 	C 	0.0581	0.2022	0.468	-0.011
Mof_H 	H 	0.0225	0.1712	0.5108	0.027
Mof_C 	C 	0.9946	0.1863	0.3512	-0.14
Mof_H 	H 	0.9705	0.1395	0.3921	0.069
Mof_H 	H 	0.9341	0.2397	0.3253	0.07
Mof_C 	C 	0.0688	0.1429	0.2866	0.095
Mof_C 	C 	0.1393	0.0497	0.3097	-0.127
Mof_H 	H 	0.138	0.0121	0.364	0.07
Mof_C 	C 	0.2114	0.0125	0.2527	0.011
Mof_H 	H 	0.2596	0.9505	0.2695	0.03
Mof_C 	C 	0.213	0.0668	0.1697	-0.048
Mof_C 	C 	0.1423	0.1588	0.1491	0.016
Mof_H 	H 	0.1445	0.1969	0.0951	0.036
Mof_C 	C 	0.0679	0.198	0.2041	-0.126
Mof_H 	H 	0.0187	0.2594	0.1867	0.073
Mof_N 	N 	0.322	0.9315	0.1283	-0.159
Mof_N 	N 	0.4016	0.9458	0.9963	-0.153
Mof_N 	N 	0.302	0.0828	0.0361	-0.15
Mof_C 	C 	0.4225	0.791	0.0897	-0.065
Mof_C 	C 	0.4061	0.7364	0.1688	0.031
Mof_H 	H 	0.3661	0.765	0.2084	0.027
Mof_C 	C 	0.4507	0.6378	0.1876	-0.152
Mof_H 	H 	0.4409	0.6008	0.2407	0.088
Mof_C 	C 	0.509	0.5936	0.1297	0.132
Mof_C 	C 	0.5215	0.6492	0.0536	-0.17
Mof_H 	H 	0.5604	0.6209	0.0135	0.086
Mof_C 	C 	0.4789	0.7455	0.0333	0.043
Mof_H 	H 	0.4885	0.7812	0.9796	0.024
Mof_C 	C 	0.5597	0.4878	0.1508	-0.168
Mof_H 	H 	0.6346	0.4695	0.1523	0.077
Mof_H 	H 	0.5476	0.4682	0.1075	0.079
Mof_C 	C 	0.3837	0.0978	0.8998	-0.041
Mof_C 	C 	0.4471	0.0575	0.8431	0.013
Mof_H 	H 	0.4774	0.9918	0.8561	0.04
Mof_C 	C 	0.4675	0.1133	0.7654	-0.122
Mof_H 	H 	0.5118	0.0838	0.7277	0.074
Mof_C 	C 	0.356	0.2508	0.8024	-0.119
Mof_H 	H 	0.3233	0.3165	0.7891	0.07
Mof_C 	C 	0.3368	0.1951	0.8793	0.012
Mof_H 	H 	0.2919	0.2234	0.9175	0.034
Mof_C 	C 	0.2038	0.5384	0.3478	0.089
Mof_H 	H 	0.2699	0.5317	0.3585	-0.01
Mof_C 	C 	0.0771	0.5083	0.3293	0.009
Mof_H 	H 	0.0381	0.4756	0.3246	0.017
Mof_C 	C 	0.0389	0.601	0.3251	-0.011
Mof_H 	H 	0.9702	0.6436	0.3159	0.036
Mof_C 	C 	0.1129	0.7102	0.3415	-0.15
Mof_H 	H 	0.0539	0.7316	0.3785	0.075
Mof_H 	H 	0.1756	0.7005	0.3655	0.074
Mof_C 	C 	0.0999	0.7873	0.2611	0.112
Mof_C 	C 	0.1434	0.7675	0.1882	-0.132
Mof_H 	H 	0.1751	0.7048	0.1874	0.087
Mof_C 	C 	0.1398	0.8409	0.116	0.025
Mof_H 	H 	0.1725	0.8265	0.0679	0.035
Mof_C 	C 	0.0893	0.9339	0.1141	-0.046
Mof_C 	C 	0.0429	0.9549	0.1862	0.022
Mof_H 	H 	0.0085	0.0176	0.1863	0.034
Mof_C 	C 	0.0486	0.8807	0.2586	-0.135
Mof_H 	H 	0.0164	0.895	0.3068	0.074
Mof_N 	N 	0.1457	0.9898	0.9724	-0.148
Mof_N 	N 	0.1002	0.1531	0.9051	-0.154
Mof_N 	N 	0.0343	0.1005	0.0391	-0.154
Mof_C 	C 	0.9906	0.2682	0.9719	-0.043
Mof_C 	C 	0.026	0.3404	0.9164	0.004
Mof_H 	H 	0.0829	0.3235	0.8801	0.033
Mof_C 	C 	0.9788	0.4326	0.9154	-0.127
Mof_H 	H 	0.0063	0.4771	0.8813	0.069
Mof_C 	C 	0.8536	0.3943	0.02	-0.136
Mof_H 	H 	0.7959	0.4125	0.0552	0.07
Mof_C 	C 	0.903	0.2984	0.0233	0.007
Mof_H 	H 	0.8771	0.2542	0.0603	0.033
Mof_C 	C 	0.2013	0.0428	0.8301	-0.06
Mof_C 	C 	0.239	0.9558	0.8248	0.03
Mof_H 	H 	0.233	0.9062	0.8702	0.03
Mof_C 	C 	0.2091	0.1157	0.7618	0.035
Mof_H 	H 	0.1829	0.1774	0.7649	0.029
Mof_C 	C 	0.7818	0.599	0.8175	0.086
Mof_H 	H 	0.8272	0.5415	0.8094	-0.002
Mof_C 	C 	0.6689	0.7373	0.7972	0.011
Mof_H 	H 	0.6188	0.7962	0.7728	0.023
Mof_C 	C 	0.7032	0.7071	0.8755	-0.012
Mof_H 	H 	0.6809	0.7418	0.9129	0.04
Mof_C 	C 	0.8369	0.563	0.9628	-0.157
Mof_H 	H 	0.8897	0.5878	0.962	0.08
Mof_H 	H 	0.7915	0.5685	0.0118	0.075
Mof_C 	C 	0.8885	0.461	0.966	0.106
Mof_C 	C 	0.3814	0.2779	0.5309	0.085
Mof_H 	H 	0.4442	0.2344	0.5166	-0.01
Mof_C 	C 	0.2274	0.3736	0.5301	0.01
Mof_H 	H 	0.1591	0.412	0.5147	0.017
Mof_C 	C 	0.2673	0.3633	0.6004	-0.013
Mof_H 	H 	0.2325	0.3927	0.6407	0.033
Mof_C 	C 	0.4428	0.274	0.6602	-0.143
Mof_H 	H 	0.5115	0.2418	0.638	0.071
Mof_H 	H 	0.4435	0.3306	0.6677	0.073
Mof_C 	C 	0.4244	0.2098	0.7433	0.1
Mof_C 	C 	0.4374	0.4109	0.2433	0.081
Mof_H 	H 	0.401	0.416	0.2008	-0.003
Mof_C 	C 	0.482	0.3843	0.3589	0.026
Mof_H 	H 	0.4841	0.3666	0.4159	0.009
Mof_C 	C 	0.5506	0.4193	0.305	-0.028
Mof_H 	H 	0.6062	0.4291	0.3181	0.036
Mof_C 	C 	0.4995	0.8445	0.6139	0.076
Mof_H 	H 	0.4641	0.8055	0.6172	-0.005
Mof_C 	C 	0.6229	0.8924	0.6082	0.012
Mof_H 	H 	0.689	0.8939	0.6066	0.017
Mof_C 	C 	0.5322	0.9689	0.6011	-0.017
Mof_H 	H 	0.5248	0.0307	0.5949	0.038
Mof_C 	C 	0.3421	0.9897	0.6016	-0.15
Mof_H 	H 	0.3087	0.9545	0.5881	0.073
Mof_H 	H 	0.3291	0.0494	0.558	0.075
Mof_C 	C 	0.2932	0.0099	0.6818	0.121
Mof_C 	C 	0.2886	0.9371	0.7505	-0.143
Mof_H 	H 	0.3183	0.8749	0.7483	0.081
Mof_C 	C 	0.2558	0.0975	0.6885	-0.155
Mof_H 	H 	0.2612	0.1473	0.6432	0.085
Mof_N 	N 	0.1637	0.2798	0.401	-0.233
Mof_N 	N 	0.0529	0.2174	0.39	-0.107
Mof_N 	N 	0.1823	0.47	0.3417	-0.232
Mof_N 	N 	0.1204	0.6196	0.3371	-0.104
Mof_N 	N 	0.7196	0.6674	0.7616	-0.227
Mof_N 	N 	0.7739	0.6198	0.8879	-0.104
Mof_N 	N 	0.2994	0.3209	0.4856	-0.233
Mof_N 	N 	0.3659	0.3027	0.6001	-0.105
Mof_N 	N 	0.6044	0.8132	0.618	-0.229
Mof_N 	N 	0.4523	0.9368	0.6049	-0.099
Mof_N 	N 	0.4121	0.3785	0.3206	-0.234
Mof_N 	N 	0.5215	0.4367	0.2299	-0.1
Mof_C 	C 	0.2859	0.0226	0.1089	0.142
Mof_C 	C 	0.381	0.8949	0.0706	0.147
Mof_C 	C 	0.3627	0.0377	0.9818	0.136
Mof_C 	C 	0.0878	0.014	0.0385	0.145
Mof_C 	C 	0.1454	0.0647	0.9064	0.142
Mof_C 	C 	0.0429	0.1691	0.9723	0.132
_end
