# CIF file generated by openbabel 3.1.0, see https://openbabel.org
data_I
_chemical_name_common 'GUPJEG_clean'
_cell_length_a 9.247
_cell_length_b 9.4464
_cell_length_c 9.4464
_cell_angle_alpha 101.457
_cell_angle_beta 112.61
_cell_angle_gamma 112.61
_space_group_name_H-M_alt 'P 1'
_space_group_name_Hall 'P 1'
loop_
    _symmetry_equiv_pos_as_xyz
    x,y,z
loop_
    _atom_site_label
    _atom_site_type_symbol
    _atom_site_fract_x
    _atom_site_fract_y
    _atom_site_fract_z
    _atom_site_occupancy
    Mn1      Mn       0.75000    0.03461    0.96539    1.000
    Mn2      Mn       0.25000    0.96539    0.03461    1.000
    H1       H        0.67690    0.26350    0.50910    1.000
    H2       H        0.78630    0.85790    0.64570    1.000
    H3       H        0.74730    0.86780    0.39100    1.000
    H4       H        0.82310    0.49090    0.73650    1.000
    H5       H        0.71370    0.35430    0.14210    1.000
    H6       H        0.75270    0.60900    0.13220    1.000
    H7       H        0.32310    0.73650    0.49090    1.000
    H8       H        0.21370    0.14210    0.35430    1.000
    H9       H        0.25270    0.13220    0.60900    1.000
    H10      H        0.17690    0.50910    0.26350    1.000
    H11      H        0.28630    0.64570    0.85790    1.000
    H12      H        0.24730    0.39100    0.86780    1.000
    C1       C        0.66850    0.07801    0.25499    1.000
    C2       C        0.70540    0.06600    0.42140    1.000
    C3       C        0.70420    0.18184    0.53656    1.000
    C4       C        0.76760    0.94350    0.61890    1.000
    C5       C        0.74320    0.17711    0.69249    1.000
    C6       C        0.74110    0.94640    0.46520    1.000
    C7       C        0.83150    0.74501    0.92199    1.000
    C8       C        0.79460    0.57860    0.93400    1.000
    C9       C        0.79580    0.46344    0.81816    1.000
    C10      C        0.73240    0.38110    0.05650    1.000
    C11      C        0.75680    0.30751    0.82289    1.000
    C12      C        0.75890    0.53480    0.05360    1.000
    C13      C        0.33150    0.92199    0.74501    1.000
    C14      C        0.29460    0.93400    0.57860    1.000
    C15      C        0.29580    0.81816    0.46344    1.000
    C16      C        0.23240    0.05650    0.38110    1.000
    C17      C        0.25680    0.82289    0.30751    1.000
    C18      C        0.25890    0.05360    0.53480    1.000
    C19      C        0.16850    0.25499    0.07801    1.000
    C20      C        0.20540    0.42140    0.06600    1.000
    C21      C        0.20420    0.53656    0.18184    1.000
    C22      C        0.26760    0.61890    0.94350    1.000
    C23      C        0.24320    0.69249    0.17711    1.000
    C24      C        0.24110    0.46520    0.94640    1.000
    N1       N        0.76820    0.05569    0.73231    1.000
    N2       N        0.73180    0.26769    0.94431    1.000
    N3       N        0.23180    0.94431    0.26769    1.000
    N4       N        0.26820    0.73231    0.05569    1.000
    O1       O        0.77320    0.06511    0.20549    1.000
    O2       O        0.54600    0.10783    0.18337    1.000
    O3       O        0.72680    0.79451    0.93489    1.000
    O4       O        0.95400    0.81663    0.89217    1.000
    O5       O        0.22680    0.93489    0.79451    1.000
    O6       O        0.45400    0.89217    0.81663    1.000
    O7       O        0.27320    0.20549    0.06511    1.000
    O8       O        0.04600    0.18337    0.10783    1.000
