data_functionalizedCrystal
_audit_creation_method	'EQeq! by Chris Wilmer'
_symmetry_space_group_name_H-M	'P1'
_symmetry_Int_Tables_number	1
_symmetry_cell_setting	triclinic
loop_
_symmetry_equiv_pos_as_xyz
  x,y,z
_cell_length_a	10.5573
_cell_length_b	14.4794
_cell_length_c	23.316
_cell_angle_alpha	107.316
_cell_angle_beta	90
_cell_angle_gamma	90
loop_
_atom_site_label
_atom_site_type_symbol
_atom_site_fract_x
_atom_site_fract_y
_atom_site_fract_z
_atom_site_charge
Mof_Tb	Tb	0.04805	0.42591	0.76997	2.396
Mof_Tb	Tb	0.04805	0.07409	0.73003	2.382
Mof_Tb	Tb	0.95195	0.57409	0.23003	2.397
Mof_Tb	Tb	0.95195	0.92591	0.26997	2.383
Mof_P 	P 	0.83973	0.59847	0.87798	0.243
Mof_P 	P 	0.83973	0.90153	0.62202	0.243
Mof_P 	P 	0.16027	0.40153	0.12202	0.243
Mof_P 	P 	0.16027	0.09847	0.37798	0.243
Mof_H 	H 	0.7032	0.75	0.8462	0.049
Mof_H 	H 	0.7156	0.4627	0.7849	0.063
Mof_H 	H 	0.8607	0.7822	0.9678	0.08
Mof_H 	H 	0.882	0.8333	0.0702	0.007
Mof_H 	H 	0.8505	0.5081	0.9705	0.082
Mof_H 	H 	0.5105	0.4217	0.7573	0.061
Mof_H 	H 	0.3878	0.6205	0.9059	0.049
Mof_H 	H 	0.595	0.6628	0.9331	0.05
Mof_H 	H 	0.067	0.6794	0.8518	0.045
Mof_H 	H 	0.1249	0.8099	0.8224	0.055
Mof_H 	H 	0.7608	0.8812	0.8151	0.053
Mof_H 	H 	0.8761	0.5603	0.0735	-0.004
Mof_H 	H 	0.7032	0.75	0.6538	0.047
Mof_H 	H 	0.7156	0.0373	0.7151	0.061
Mof_H 	H 	0.8607	0.7178	0.5322	0.085
Mof_H 	H 	0.882	0.6667	0.4298	0.003
Mof_H 	H 	0.8505	0.9919	0.5295	0.085
Mof_H 	H 	0.5105	0.0783	0.7427	0.064
Mof_H 	H 	0.3878	0.8795	0.5941	0.053
Mof_H 	H 	0.595	0.8372	0.5669	0.048
Mof_H 	H 	0.067	0.8206	0.6482	0.043
Mof_H 	H 	0.1249	0.6901	0.6776	0.057
Mof_H 	H 	0.7608	0.6188	0.6849	0.055
Mof_H 	H 	0.8761	0.9397	0.4265	-0.01
Mof_H 	H 	0.2968	0.25	0.1538	0.049
Mof_H 	H 	0.2844	0.5373	0.2151	0.063
Mof_H 	H 	0.1393	0.2178	0.0322	0.08
Mof_H 	H 	0.118	0.1667	0.9298	0.007
Mof_H 	H 	0.1495	0.4919	0.0295	0.082
Mof_H 	H 	0.4895	0.5783	0.2427	0.061
Mof_H 	H 	0.6122	0.3795	0.0941	0.049
Mof_H 	H 	0.405	0.3372	0.0669	0.05
Mof_H 	H 	0.933	0.3206	0.1482	0.045
Mof_H 	H 	0.8751	0.1901	0.1776	0.055
Mof_H 	H 	0.2392	0.1188	0.1849	0.053
Mof_H 	H 	0.1239	0.4397	0.9265	-0.004
Mof_H 	H 	0.2968	0.25	0.3462	0.047
Mof_H 	H 	0.2844	0.9627	0.2849	0.061
Mof_H 	H 	0.1393	0.2822	0.4678	0.085
Mof_H 	H 	0.118	0.3333	0.5702	0.003
Mof_H 	H 	0.1495	0.0081	0.4705	0.085
Mof_H 	H 	0.4895	0.9217	0.2573	0.064
Mof_H 	H 	0.6122	0.1205	0.4059	0.053
Mof_H 	H 	0.405	0.1628	0.4331	0.048
Mof_H 	H 	0.933	0.1794	0.3518	0.043
Mof_H 	H 	0.8751	0.3099	0.3224	0.057
Mof_H 	H 	0.2392	0.3812	0.3151	0.055
Mof_H 	H 	0.1239	0.0603	0.5735	-0.01
Mof_H 	H 	0.7321	0.25	0.75	-0.237
Mof_H 	H 	0.2679	0.75	0.25	-0.237
Mof_C 	C 	0.8784	0.7001	0.8521	-0.041
Mof_C 	C 	0.7884	0.7615	0.841	-0.049
Mof_C 	C 	0.678	0.5679	0.8616	-0.033
Mof_C 	C 	0.6499	0.4951	0.8093	-0.039
Mof_C 	C 	0.8555	0.6397	0.9582	0.027
Mof_C 	C 	0.864	0.7369	0.9888	-0.135
Mof_C 	C 	0.8772	0.7674	0.0502	0.107
Mof_C 	C 	0.8585	0.5739	0.9903	-0.129
Mof_C 	C 	0.5271	0.4702	0.7929	-0.014
Mof_C 	C 	0.4261	0.5167	0.8291	-0.059
Mof_C 	C 	0.4534	0.5886	0.8813	-0.01
Mof_C 	C 	0.5781	0.6142	0.8977	-0.054
Mof_C 	C 	0.2934	0.4867	0.8091	0.319
Mof_C 	C 	0.0048	0.7199	0.8444	-0.041
Mof_C 	C 	0.0396	0.7972	0.8263	-0.015
Mof_C 	C 	0.9488	0.8569	0.8137	-0.058
Mof_C 	C 	0.8226	0.8401	0.8221	-0.016
Mof_C 	C 	0.9847	0.9395	0.7899	0.313
Mof_C 	C 	0.8732	0.6052	0.0522	0.107
Mof_C 	C 	0.8835	0.7025	0.0825	-0.229
Mof_C 	C 	0.9004	0.7381	0.1495	0.597
Mof_C 	C 	0.8784	0.7999	0.6479	-0.047
Mof_C 	C 	0.7884	0.7385	0.659	-0.045
Mof_C 	C 	0.678	0.9321	0.6384	-0.04
Mof_C 	C 	0.6499	0.0049	0.6907	-0.029
Mof_C 	C 	0.8555	0.8603	0.5418	0.035
Mof_C 	C 	0.864	0.7631	0.5112	-0.153
Mof_C 	C 	0.8772	0.7326	0.4498	0.124
Mof_C 	C 	0.8585	0.9261	0.5097	-0.144
Mof_C 	C 	0.5271	0.0298	0.7071	-0.026
Mof_C 	C 	0.4261	0.9833	0.6709	-0.047
Mof_C 	C 	0.4534	0.9114	0.6187	-0.02
Mof_C 	C 	0.5781	0.8858	0.6023	-0.047
Mof_C 	C 	0.2934	0.0133	0.6909	0.306
Mof_C 	C 	0.0048	0.7801	0.6556	-0.033
Mof_C 	C 	0.0396	0.7028	0.6737	-0.022
Mof_C 	C 	0.9488	0.6431	0.6863	-0.055
Mof_C 	C 	0.8226	0.6599	0.6779	-0.019
Mof_C 	C 	0.9847	0.5605	0.7101	0.319
Mof_C 	C 	0.8732	0.8948	0.4478	0.122
Mof_C 	C 	0.8835	0.7975	0.4175	-0.24
Mof_C 	C 	0.9004	0.7619	0.3505	0.601
Mof_C 	C 	0.1216	0.2999	0.1479	-0.041
Mof_C 	C 	0.2116	0.2385	0.159	-0.049
Mof_C 	C 	0.322	0.4321	0.1384	-0.033
Mof_C 	C 	0.3501	0.5049	0.1907	-0.039
Mof_C 	C 	0.1445	0.3603	0.0418	0.027
Mof_C 	C 	0.136	0.2631	0.0112	-0.135
Mof_C 	C 	0.1228	0.2326	0.9498	0.107
Mof_C 	C 	0.1415	0.4261	0.0097	-0.129
Mof_C 	C 	0.4729	0.5298	0.2071	-0.014
Mof_C 	C 	0.5739	0.4833	0.1709	-0.059
Mof_C 	C 	0.5466	0.4114	0.1187	-0.01
Mof_C 	C 	0.4219	0.3858	0.1023	-0.054
Mof_C 	C 	0.7066	0.5133	0.1909	0.319
Mof_C 	C 	0.9952	0.2801	0.1556	-0.041
Mof_C 	C 	0.9604	0.2028	0.1737	-0.015
Mof_C 	C 	0.0512	0.1431	0.1863	-0.058
Mof_C 	C 	0.1774	0.1599	0.1779	-0.016
Mof_C 	C 	0.0153	0.0605	0.2101	0.313
Mof_C 	C 	0.1268	0.3948	0.9478	0.107
Mof_C 	C 	0.1165	0.2975	0.9175	-0.229
Mof_C 	C 	0.0996	0.2619	0.8505	0.597
Mof_C 	C 	0.1216	0.2001	0.3521	-0.047
Mof_C 	C 	0.2116	0.2615	0.341	-0.045
Mof_C 	C 	0.322	0.0679	0.3616	-0.04
Mof_C 	C 	0.3501	0.9951	0.3093	-0.029
Mof_C 	C 	0.1445	0.1397	0.4582	0.035
Mof_C 	C 	0.136	0.2369	0.4888	-0.153
Mof_C 	C 	0.1228	0.2674	0.5502	0.124
Mof_C 	C 	0.1415	0.0739	0.4903	-0.144
Mof_C 	C 	0.4729	0.9702	0.2929	-0.026
Mof_C 	C 	0.5739	0.0167	0.3291	-0.047
Mof_C 	C 	0.5466	0.0886	0.3813	-0.02
Mof_C 	C 	0.4219	0.1142	0.3977	-0.047
Mof_C 	C 	0.7066	0.9867	0.3091	0.306
Mof_C 	C 	0.9952	0.2199	0.3444	-0.033
Mof_C 	C 	0.9604	0.2972	0.3263	-0.022
Mof_C 	C 	0.0512	0.3569	0.3137	-0.055
Mof_C 	C 	0.1774	0.3401	0.3221	-0.019
Mof_C 	C 	0.0153	0.4395	0.2899	0.319
Mof_C 	C 	0.1268	0.1052	0.5522	0.122
Mof_C 	C 	0.1165	0.2025	0.5825	-0.24
Mof_C 	C 	0.0996	0.2381	0.6495	0.601
Mof_C 	C 	0.8202	0.25	0.75	0.848
Mof_C 	C 	0.1798	0.75	0.25	0.848
Mof_O 	O 	0.9248	0.5139	0.85051	-0.46
Mof_O 	O 	0.2027	0.53	0.84134	-0.427
Mof_O 	O 	0.2753	0.4194	0.76172	-0.441
Mof_O 	O 	0.0993	0.9496	0.77801	-0.428
Mof_O 	O 	0.9017	0.9937	0.77938	-0.443
Mof_O 	O 	0.901	0.6779	0.17739	-0.634
Mof_O 	O 	0.9108	0.827	0.17287	-0.575
Mof_O 	O 	0.8672	0.3267	0.75183	-0.666
Mof_O 	O 	0.9248	0.9861	0.64949	-0.463
Mof_O 	O 	0.2027	0.97	0.65866	-0.418
Mof_O 	O 	0.2753	0.0806	0.73828	-0.438
Mof_O 	O 	0.0993	0.5504	0.72199	-0.436
Mof_O 	O 	0.9017	0.5063	0.72062	-0.444
Mof_O 	O 	0.901	0.8221	0.32261	-0.634
Mof_O 	O 	0.9108	0.673	0.32713	-0.575
Mof_O 	O 	0.8672	0.1733	0.74817	-0.663
Mof_O 	O 	0.0752	0.4861	0.14949	-0.46
Mof_O 	O 	0.7973	0.47	0.15866	-0.427
Mof_O 	O 	0.7247	0.5806	0.23828	-0.441
Mof_O 	O 	0.9007	0.0504	0.22199	-0.428
Mof_O 	O 	0.0983	0.0063	0.22062	-0.443
Mof_O 	O 	0.099	0.3221	0.82261	-0.634
Mof_O 	O 	0.0892	0.173	0.82713	-0.575
Mof_O 	O 	0.1328	0.6733	0.24817	-0.666
Mof_O 	O 	0.0752	0.0139	0.35051	-0.463
Mof_O 	O 	0.7973	0.03	0.34134	-0.418
Mof_O 	O 	0.7247	0.9194	0.26172	-0.438
Mof_O 	O 	0.9007	0.4496	0.27801	-0.436
Mof_O 	O 	0.0983	0.4937	0.27938	-0.444
Mof_O 	O 	0.099	0.1779	0.67739	-0.634
Mof_O 	O 	0.0892	0.327	0.67287	-0.575
Mof_O 	O 	0.1328	0.8267	0.25183	-0.663
_end
