# CIF file generated by openbabel 3.1.0, see https://openbabel.org
data_I
_chemical_name_common 'image0'
_cell_length_a 8.403
_cell_length_b 10.985
_cell_length_c 24.235
_cell_angle_alpha 90
_cell_angle_beta 90
_cell_angle_gamma 90
_space_group_name_H-M_alt 'P 1'
_space_group_name_Hall 'P 1'
loop_
    _symmetry_equiv_pos_as_xyz
    x,y,z
loop_
    _atom_site_label
    _atom_site_type_symbol
    _atom_site_fract_x
    _atom_site_fract_y
    _atom_site_fract_z
    _atom_site_occupancy
    Ni1      Ni       0.60223    0.11499    0.48555    1.000
    O1       O        0.64270    0.94970    0.44746    1.000
    O2       O        0.86000    0.83930    0.46401    1.000
    O3       O        0.84190    0.15616    0.49065    1.000
    O4       O        0.08200    0.22645    0.46911    1.000
    O5       O        0.16550    0.26570    0.27101    1.000
    O6       O        0.15450    0.10030    0.22315    1.000
    N1       N        0.12460    0.15870    0.26470    1.000
    N2       N        0.58330    0.20050    0.40856    1.000
    N3       N        0.86770    0.97880    0.05987    1.000
    C1       C        0.87670    0.98920    0.39519    1.000
    C2       C        0.95910    0.09770    0.40429    1.000
    C3       C        0.04050    0.15180    0.36098    1.000
    H1       H        0.09580    0.22400    0.36670    1.000
    C4       C        0.03950    0.09930    0.31013    1.000
    C5       C        0.95770    0.99120    0.29966    1.000
    H2       H        0.95820    0.95620    0.26470    1.000
    C6       C        0.87620    0.93790    0.34269    1.000
    H3       H        0.81980    0.86640    0.33650    1.000
    C7       C        0.78720    0.92130    0.44011    1.000
    C8       C        0.95900    0.16290    0.45898    1.000
    C9       C        0.51570    0.14080    0.36683    1.000
    H4       H        0.47060    0.06500    0.37380    1.000
    C10      C        0.50950    0.18590    0.31406    1.000
    H5       H        0.45990    0.14080    0.28650    1.000
    C11      C        0.57590    0.29680    0.30150    1.000
    C12      C        0.64840    0.35820    0.34440    1.000
    H6       H        0.69740    0.43290    0.33820    1.000
    C13      C        0.64770    0.30770    0.39693    1.000
    H7       H        0.69490    0.35130    0.42550    1.000
    C14      C        0.56800    0.35260    0.24415    1.000
    H8       H        0.64560    0.41780    0.24200    1.000
    H9       H        0.46360    0.38850    0.23920    1.000
    C15      C        0.59860    0.26410    0.19649    1.000
    H10      H        0.51700    0.20170    0.19660    1.000
    H11      H        0.59100    0.30790    0.16180    1.000
    C16      C        0.76160    0.20390    0.20036    1.000
    H12      H        0.84200    0.26680    0.20360    1.000
    H13      H        0.76550    0.15520    0.23370    1.000
    C17      C        0.76320    0.94530    0.09815    1.000
    H14      H        0.71110    0.87130    0.09370    1.000
    C18      C        0.72780    0.01420    0.14400    1.000
    H15      H        0.65380    0.98610    0.16950    1.000
    C19      C        0.80170    0.12430    0.15209    1.000
    C20      C        0.91060    0.15840    0.11321    1.000
    H16      H        0.96520    0.23150    0.11710    1.000
    C21      C        0.93960    0.08510    0.06837    1.000
    H17      H        0.01380    0.11130    0.04250    1.000
    Ni2      Ni       0.89777    0.88501    0.98555    1.000
    O7       O        0.85730    0.05030    0.94746    1.000
    O8       O        0.64000    0.16070    0.96401    1.000
    O9       O        0.65810    0.84384    0.99065    1.000
    O10      O        0.41800    0.77355    0.96911    1.000
    O11      O        0.33450    0.73430    0.77101    1.000
    O12      O        0.34550    0.89970    0.72315    1.000
    N4       N        0.37540    0.84130    0.76470    1.000
    N5       N        0.91670    0.79950    0.90856    1.000
    N6       N        0.63230    0.02120    0.55987    1.000
    C22      C        0.62330    0.01080    0.89519    1.000
    C23      C        0.54090    0.90230    0.90429    1.000
    C24      C        0.45950    0.84820    0.86098    1.000
    H18      H        0.40420    0.77600    0.86670    1.000
    C25      C        0.46050    0.90070    0.81013    1.000
    C26      C        0.54230    0.00880    0.79966    1.000
    H19      H        0.54180    0.04380    0.76470    1.000
    C27      C        0.62380    0.06210    0.84269    1.000
    H20      H        0.68020    0.13360    0.83650    1.000
    C28      C        0.71280    0.07870    0.94011    1.000
    C29      C        0.54100    0.83710    0.95898    1.000
    C30      C        0.98430    0.85920    0.86683    1.000
    H21      H        0.02940    0.93500    0.87380    1.000
    C31      C        0.99050    0.81410    0.81406    1.000
    H22      H        0.04010    0.85920    0.78650    1.000
    C32      C        0.92410    0.70320    0.80150    1.000
    C33      C        0.85160    0.64180    0.84440    1.000
    H23      H        0.80260    0.56710    0.83820    1.000
    C34      C        0.85230    0.69230    0.89693    1.000
    H24      H        0.80510    0.64870    0.92550    1.000
    C35      C        0.93200    0.64740    0.74415    1.000
    H25      H        0.85440    0.58220    0.74200    1.000
    H26      H        0.03640    0.61150    0.73920    1.000
    C36      C        0.90140    0.73590    0.69649    1.000
    H27      H        0.98300    0.79830    0.69660    1.000
    H28      H        0.90900    0.69210    0.66180    1.000
    C37      C        0.73840    0.79610    0.70036    1.000
    H29      H        0.65800    0.73320    0.70360    1.000
    H30      H        0.73450    0.84480    0.73370    1.000
    C38      C        0.73680    0.05470    0.59815    1.000
    H31      H        0.78890    0.12870    0.59370    1.000
    C39      C        0.77220    0.98580    0.64400    1.000
    H32      H        0.84620    0.01390    0.66950    1.000
    C40      C        0.69830    0.87570    0.65209    1.000
    C41      C        0.58940    0.84160    0.61321    1.000
    H33      H        0.53480    0.76850    0.61710    1.000
    C42      C        0.56040    0.91490    0.56837    1.000
    H34      H        0.48620    0.88870    0.54250    1.000
    Ni3      Ni       0.39777    0.61499    0.01445    1.000
    O13      O        0.35730    0.44970    0.05254    1.000
    O14      O        0.14000    0.33930    0.03599    1.000
    O15      O        0.15810    0.65616    0.00935    1.000
    O16      O        0.91800    0.72645    0.03089    1.000
    O17      O        0.83450    0.76570    0.22899    1.000
    O18      O        0.84550    0.60030    0.27685    1.000
    N7       N        0.87540    0.65870    0.23530    1.000
    N8       N        0.41670    0.70050    0.09144    1.000
    N9       N        0.13230    0.47880    0.44013    1.000
    C43      C        0.12330    0.48920    0.10481    1.000
    C44      C        0.04090    0.59770    0.09571    1.000
    C45      C        0.95950    0.65180    0.13902    1.000
    H35      H        0.90420    0.72400    0.13330    1.000
    C46      C        0.96050    0.59930    0.18987    1.000
    C47      C        0.04230    0.49120    0.20034    1.000
    H36      H        0.04180    0.45620    0.23530    1.000
    C48      C        0.12380    0.43790    0.15731    1.000
    H37      H        0.18020    0.36640    0.16350    1.000
    C49      C        0.21280    0.42130    0.05989    1.000
    C50      C        0.04100    0.66290    0.04102    1.000
    C51      C        0.48430    0.64080    0.13317    1.000
    H38      H        0.52940    0.56500    0.12620    1.000
    C52      C        0.49050    0.68590    0.18594    1.000
    H39      H        0.54010    0.64080    0.21350    1.000
    C53      C        0.42410    0.79680    0.19850    1.000
    C54      C        0.35160    0.85820    0.15560    1.000
    H40      H        0.30260    0.93290    0.16180    1.000
    C55      C        0.35230    0.80770    0.10307    1.000
    H41      H        0.30510    0.85130    0.07450    1.000
    C56      C        0.43200    0.85260    0.25585    1.000
    H42      H        0.35440    0.91780    0.25800    1.000
    H43      H        0.53640    0.88850    0.26080    1.000
    C57      C        0.40140    0.76410    0.30351    1.000
    H44      H        0.48300    0.70170    0.30340    1.000
    H45      H        0.40900    0.80790    0.33820    1.000
    C58      C        0.23840    0.70390    0.29964    1.000
    H46      H        0.15800    0.76680    0.29640    1.000
    H47      H        0.23450    0.65520    0.26630    1.000
    C59      C        0.23680    0.44530    0.40185    1.000
    H48      H        0.28890    0.37130    0.40630    1.000
    C60      C        0.27220    0.51420    0.35600    1.000
    H49      H        0.34620    0.48610    0.33050    1.000
    C61      C        0.19830    0.62430    0.34791    1.000
    C62      C        0.08940    0.65840    0.38679    1.000
    H50      H        0.03480    0.73150    0.38290    1.000
    C63      C        0.06040    0.58510    0.43163    1.000
    H51      H        0.98620    0.61130    0.45750    1.000
    Ni4      Ni       0.10223    0.38501    0.51445    1.000
    O19      O        0.14270    0.55030    0.55254    1.000
    O20      O        0.36000    0.66070    0.53599    1.000
    O21      O        0.34190    0.34384    0.50935    1.000
    O22      O        0.58200    0.27355    0.53089    1.000
    O23      O        0.66550    0.23430    0.72899    1.000
    O24      O        0.65450    0.39970    0.77685    1.000
    N10      N        0.62460    0.34130    0.73530    1.000
    N11      N        0.08330    0.29950    0.59144    1.000
    N12      N        0.36770    0.52120    0.94013    1.000
    C64      C        0.37670    0.51080    0.60481    1.000
    C65      C        0.45910    0.40230    0.59571    1.000
    C66      C        0.54050    0.34820    0.63902    1.000
    H52      H        0.59580    0.27600    0.63330    1.000
    C67      C        0.53950    0.40070    0.68987    1.000
    C68      C        0.45770    0.50880    0.70034    1.000
    H53      H        0.45820    0.54380    0.73530    1.000
    C69      C        0.37620    0.56210    0.65731    1.000
    H54      H        0.31980    0.63360    0.66350    1.000
    C70      C        0.28720    0.57870    0.55989    1.000
    C71      C        0.45900    0.33710    0.54102    1.000
    C72      C        0.01570    0.35920    0.63317    1.000
    H55      H        0.97060    0.43500    0.62620    1.000
    C73      C        0.00950    0.31410    0.68594    1.000
    H56      H        0.95990    0.35920    0.71350    1.000
    C74      C        0.07590    0.20320    0.69850    1.000
    C75      C        0.14840    0.14180    0.65560    1.000
    H57      H        0.19740    0.06710    0.66180    1.000
    C76      C        0.14770    0.19230    0.60307    1.000
    H58      H        0.19490    0.14870    0.57450    1.000
    C77      C        0.06800    0.14740    0.75585    1.000
    H59      H        0.14560    0.08220    0.75800    1.000
    H60      H        0.96360    0.11150    0.76080    1.000
    C78      C        0.09860    0.23590    0.80351    1.000
    H61      H        0.01700    0.29830    0.80340    1.000
    H62      H        0.09100    0.19210    0.83820    1.000
    C79      C        0.26160    0.29610    0.79964    1.000
    H63      H        0.34200    0.23320    0.79640    1.000
    H64      H        0.26550    0.34480    0.76630    1.000
    C80      C        0.26320    0.55470    0.90185    1.000
    H65      H        0.21110    0.62870    0.90630    1.000
    C81      C        0.22780    0.48580    0.85600    1.000
    H66      H        0.15380    0.51390    0.83050    1.000
    C82      C        0.30170    0.37570    0.84791    1.000
    C83      C        0.41060    0.34160    0.88679    1.000
    H67      H        0.46520    0.26850    0.88290    1.000
    C84      C        0.43960    0.41490    0.93163    1.000
    H68      H        0.51380    0.38870    0.95750    1.000
