data_functionalizedCrystal
_audit_creation_method	'EQeq! by Chris Wilmer'
_symmetry_space_group_name_H-M	'P1'
_symmetry_Int_Tables_number	1
_symmetry_cell_setting	triclinic
loop_
_symmetry_equiv_pos_as_xyz
  x,y,z
_cell_length_a	16.0604
_cell_length_b	16.0604
_cell_length_c	44.117
_cell_angle_alpha	90
_cell_angle_beta	90
_cell_angle_gamma	90
loop_
_atom_site_label
_atom_site_type_symbol
_atom_site_fract_x
_atom_site_fract_y
_atom_site_fract_z
_atom_site_charge
Mof_Cu	Cu	0.45842	0.92949	0.71035	0.907
Mof_O 	O 	0.3897	0.9856	0.68041	-0.417
Mof_O 	O 	0.4666	0.1017	0.6774	-0.409
Mof_C 	C 	0.0341	0.4302	0.48094	0.074
Mof_N 	N 	0.1979	0.1724	0.57431	-0.104
Mof_C 	C 	0.931	0.467	0.43915	0.064
Mof_C 	C 	0.3497	0.0901	0.64508	-0.154
Mof_C 	C 	0.1003	0.3067	0.51919	-0.006
Mof_N 	N 	0.6724	0.3011	0.34772	-0.104
Mof_C 	C 	0.1329	0.243	0.53971	0.059
Mof_C 	C 	0.8056	0.4019	0.40033	-0.009
Mof_C 	C 	0.8444	0.4835	0.4446	-0.091
Mof_H 	H 	0.82875	0.5161	0.46106	0.068
Mof_C 	C 	0.0805	0.4507	0.50565	-0.103
Mof_H 	H 	0.08805	0.50663	0.51034	0.073
Mof_C 	C 	0.406	0.0566	0.66987	0.379
Mof_C 	C 	0.7836	0.4509	0.42546	-0.022
Mof_H 	H 	0.72772	0.46183	0.42935	0.05
Mof_N 	N 	0.1061	0.1611	0.53915	-0.075
Mof_C 	C 	0.1919	0.2511	0.56186	-0.014
Mof_H 	H 	0.2212	0.2987	0.56731	0.04
Mof_N 	N 	0.1451	0.1178	0.56039	-0.046
Mof_C 	C 	0.9483	0.4193	0.41391	-0.101
Mof_H 	H 	0.00369	0.40749	0.40952	0.077
Mof_C 	C 	0.3758	0.1568	0.62855	0.095
Mof_H 	H 	0.42573	0.18352	0.63291	0.018
Mof_C 	C 	0.8884	0.3885	0.39507	-0.015
Mof_H 	H 	0.90435	0.35767	0.3782	0.045
Mof_C 	C 	0.7469	0.3158	0.35708	-0.005
Mof_H 	H 	0.79586	0.29528	0.34869	0.034
Mof_C 	C 	0.0524	0.2863	0.49454	-0.017
Mof_H 	H 	0.04148	0.23066	0.49025	0.06
Mof_C 	C 	0.1171	0.3906	0.52416	-0.02
Mof_H 	H 	0.15259	0.40646	0.53977	0.041
Mof_C 	C 	0.0203	0.348	0.47603	-0.095
Mof_H 	H 	0.98792	0.33245	0.4595	0.073
Mof_C 	C 	0.25	0.1445	0.59887	0.181
Mof_C 	C 	0.2749	0.0488	0.63856	0.112
Mof_H 	H 	0.25921	0.00195	0.64953	0.005
Mof_C 	C 	0.2261	0.0782	0.61613	-0.21
Mof_H 	H 	0.17508	0.05285	0.61235	0.12
Mof_C 	C 	0.3237	0.1842	0.60422	-0.193
Mof_H 	H 	0.33989	0.22883	0.59213	0.105
Mof_C 	C 	0.7409	0.3656	0.38081	0.062
Mof_C 	C 	0.6437	0.246	0.32294	0.185
Mof_N 	N 	0.6618	0.3763	0.3858	-0.083
Mof_N 	N 	0.6182	0.3396	0.3646	-0.044
Mof_C 	C 	0.6945	0.1918	0.31105	-0.216
Mof_H 	H 	0.74814	0.18526	0.31864	0.112
Mof_C 	C 	0.6664	0.1434	0.2864	0.11
Mof_H 	H 	0.70266	0.10595	0.2772	0.012
Mof_C 	C 	0.5621	0.2584	0.31252	-0.196
Mof_H 	H 	0.52686	0.29702	0.32158	0.117
Mof_C 	C 	0.5363	0.2102	0.28796	0.109
Mof_H 	H 	0.48369	0.21908	0.27978	0.013
Mof_C 	C 	0.5857	0.1507	0.27571	-0.157
Mof_C 	C 	0.5539	0.0941	0.25114	0.378
Mof_O 	O 	0.48	0.1056	0.24306	-0.413
Mof_O 	O 	0.6052	0.0421	0.24041	-0.406
Mof_Cu	Cu	0.54158	0.07051	0.71035	0.906
Mof_O 	O 	0.6103	0.0144	0.68041	-0.414
Mof_O 	O 	0.5334	0.8983	0.6774	-0.409
Mof_C 	C 	0.9659	0.5698	0.48094	0.075
Mof_N 	N 	0.8021	0.8276	0.57431	-0.103
Mof_C 	C 	0.069	0.533	0.43915	0.061
Mof_C 	C 	0.6503	0.9099	0.64508	-0.152
Mof_C 	C 	0.8997	0.6933	0.51919	-0.01
Mof_N 	N 	0.3276	0.6989	0.34772	-0.104
Mof_C 	C 	0.8671	0.757	0.53971	0.06
Mof_C 	C 	0.1944	0.5981	0.40033	-0.006
Mof_C 	C 	0.1556	0.5165	0.4446	-0.088
Mof_H 	H 	0.17125	0.4839	0.46106	0.068
Mof_C 	C 	0.9195	0.5493	0.50565	-0.106
Mof_H 	H 	0.91195	0.49337	0.51034	0.073
Mof_C 	C 	0.594	0.9434	0.66987	0.374
Mof_C 	C 	0.2164	0.5491	0.42546	-0.025
Mof_H 	H 	0.27228	0.53817	0.42935	0.051
Mof_N 	N 	0.8939	0.8389	0.53915	-0.076
Mof_C 	C 	0.8081	0.7489	0.56186	-0.015
Mof_H 	H 	0.7788	0.7013	0.56731	0.04
Mof_N 	N 	0.8549	0.8822	0.56039	-0.047
Mof_C 	C 	0.0517	0.5807	0.41391	-0.09
Mof_H 	H 	0.99631	0.59251	0.40952	0.071
Mof_C 	C 	0.6242	0.8432	0.62855	0.094
Mof_H 	H 	0.57427	0.81648	0.63291	0.019
Mof_C 	C 	0.1116	0.6115	0.39507	-0.022
Mof_H 	H 	0.09565	0.64233	0.3782	0.048
Mof_C 	C 	0.2531	0.6842	0.35708	-0.004
Mof_H 	H 	0.20414	0.70472	0.34869	0.034
Mof_C 	C 	0.9476	0.7137	0.49454	-0.011
Mof_H 	H 	0.95852	0.76934	0.49025	0.057
Mof_C 	C 	0.8829	0.6094	0.52416	-0.017
Mof_H 	H 	0.84741	0.59354	0.53977	0.04
Mof_C 	C 	0.9797	0.652	0.47603	-0.106
Mof_H 	H 	0.01208	0.66755	0.4595	0.079
Mof_C 	C 	0.75	0.8555	0.59887	0.18
Mof_C 	C 	0.7251	0.9512	0.63856	0.11
Mof_H 	H 	0.74079	0.99805	0.64953	0.004
Mof_C 	C 	0.7739	0.9218	0.61613	-0.209
Mof_H 	H 	0.82492	0.94715	0.61235	0.118
Mof_C 	C 	0.6763	0.8158	0.60422	-0.192
Mof_H 	H 	0.66011	0.77117	0.59213	0.105
Mof_C 	C 	0.2591	0.6344	0.38081	0.061
Mof_C 	C 	0.3563	0.754	0.32294	0.185
Mof_N 	N 	0.3382	0.6237	0.3858	-0.082
Mof_N 	N 	0.3818	0.6604	0.3646	-0.044
Mof_C 	C 	0.3055	0.8082	0.31105	-0.217
Mof_H 	H 	0.25186	0.81474	0.31864	0.112
Mof_C 	C 	0.3336	0.8566	0.2864	0.11
Mof_H 	H 	0.29734	0.89405	0.2772	0.012
Mof_C 	C 	0.4379	0.7416	0.31252	-0.197
Mof_H 	H 	0.47314	0.70298	0.32158	0.117
Mof_C 	C 	0.4637	0.7898	0.28796	0.11
Mof_H 	H 	0.51631	0.78092	0.27978	0.013
Mof_C 	C 	0.4143	0.8493	0.27571	-0.158
Mof_C 	C 	0.4461	0.9059	0.25114	0.378
Mof_O 	O 	0.52	0.8944	0.24306	-0.414
Mof_O 	O 	0.3948	0.9579	0.24041	-0.407
Mof_Cu	Cu	0.57051	0.95842	0.21035	0.905
Mof_O 	O 	0.5144	0.8897	0.18041	-0.417
Mof_O 	O 	0.3983	0.9666	0.1774	-0.41
Mof_C 	C 	0.0698	0.5341	0.98094	0.072
Mof_N 	N 	0.3276	0.6979	0.07431	-0.104
Mof_C 	C 	0.033	0.431	0.93915	0.062
Mof_C 	C 	0.4099	0.8497	0.14508	-0.153
Mof_C 	C 	0.1933	0.6003	0.01919	-0.006
Mof_N 	N 	0.1989	0.1724	0.84772	-0.104
Mof_C 	C 	0.257	0.6329	0.03971	0.059
Mof_C 	C 	0.0981	0.3056	0.90033	-0.006
Mof_C 	C 	0.0165	0.3444	0.9446	-0.086
Mof_H 	H 	0.9839	0.32875	0.96106	0.066
Mof_C 	C 	0.0493	0.5805	0.00565	-0.099
Mof_H 	H 	0.99337	0.58805	0.01034	0.07
Mof_C 	C 	0.4434	0.906	0.16987	0.377
Mof_C 	C 	0.0491	0.2836	0.92546	-0.025
Mof_H 	H 	0.03817	0.22772	0.92935	0.051
Mof_N 	N 	0.3389	0.6061	0.03915	-0.075
Mof_C 	C 	0.2489	0.6919	0.06186	-0.014
Mof_H 	H 	0.2013	0.7212	0.06731	0.04
Mof_N 	N 	0.3822	0.6451	0.06039	-0.047
Mof_C 	C 	0.0807	0.4483	0.91391	-0.095
Mof_H 	H 	0.09251	0.50369	0.90952	0.074
Mof_C 	C 	0.3432	0.8758	0.12855	0.095
Mof_H 	H 	0.31648	0.92573	0.13291	0.018
Mof_C 	C 	0.1115	0.3884	0.89507	-0.019
Mof_H 	H 	0.14233	0.40435	0.8782	0.047
Mof_C 	C 	0.1842	0.2469	0.85708	-0.004
Mof_H 	H 	0.20472	0.29586	0.84869	0.034
Mof_C 	C 	0.2137	0.5524	0.99454	-0.017
Mof_H 	H 	0.26934	0.54148	0.99025	0.06
Mof_C 	C 	0.1094	0.6171	0.02416	-0.022
Mof_H 	H 	0.09354	0.65259	0.03977	0.042
Mof_C 	C 	0.152	0.5203	0.97603	-0.098
Mof_H 	H 	0.16755	0.48792	0.9595	0.075
Mof_C 	C 	0.3555	0.75	0.09887	0.18
Mof_C 	C 	0.4512	0.7749	0.13856	0.112
Mof_H 	H 	0.49805	0.75921	0.14953	0.005
Mof_C 	C 	0.4218	0.7261	0.11613	-0.21
Mof_H 	H 	0.44715	0.67508	0.11235	0.119
Mof_C 	C 	0.3158	0.8237	0.10422	-0.192
Mof_H 	H 	0.27117	0.83989	0.09213	0.105
Mof_C 	C 	0.1344	0.2409	0.88081	0.061
Mof_C 	C 	0.254	0.1437	0.82294	0.187
Mof_N 	N 	0.1237	0.1618	0.8858	-0.082
Mof_N 	N 	0.1604	0.1182	0.8646	-0.043
Mof_C 	C 	0.3082	0.1945	0.81105	-0.219
Mof_H 	H 	0.31474	0.24814	0.81864	0.113
Mof_C 	C 	0.3566	0.1664	0.7864	0.112
Mof_H 	H 	0.39405	0.20266	0.7772	0.011
Mof_C 	C 	0.2416	0.0621	0.81252	-0.2
Mof_H 	H 	0.20298	0.02686	0.82158	0.119
Mof_C 	C 	0.2898	0.0363	0.78796	0.115
Mof_H 	H 	0.28092	0.98369	0.77978	0.01
Mof_C 	C 	0.3493	0.0857	0.77571	-0.161
Mof_C 	C 	0.4059	0.0539	0.75114	0.381
Mof_O 	O 	0.3944	0.98	0.74306	-0.415
Mof_O 	O 	0.4579	0.1052	0.74041	-0.407
Mof_Cu	Cu	0.42949	0.04158	0.21035	0.907
Mof_O 	O 	0.4856	0.1103	0.18041	-0.416
Mof_O 	O 	0.6017	0.0334	0.1774	-0.409
Mof_C 	C 	0.9302	0.4659	0.98094	0.075
Mof_N 	N 	0.6724	0.3021	0.07431	-0.103
Mof_C 	C 	0.967	0.569	0.93915	0.064
Mof_C 	C 	0.5901	0.1503	0.14508	-0.153
Mof_C 	C 	0.8067	0.3997	0.01919	-0.009
Mof_N 	N 	0.8011	0.8276	0.84772	-0.103
Mof_C 	C 	0.743	0.3671	0.03971	0.06
Mof_C 	C 	0.9019	0.6944	0.90033	-0.01
Mof_C 	C 	0.9835	0.6556	0.9446	-0.096
Mof_H 	H 	0.0161	0.67125	0.96106	0.071
Mof_C 	C 	0.9507	0.4195	0.00565	-0.109
Mof_H 	H 	0.00663	0.41195	0.01034	0.076
Mof_C 	C 	0.5566	0.094	0.16987	0.376
Mof_C 	C 	0.9509	0.7164	0.92546	-0.02
Mof_H 	H 	0.96183	0.77228	0.92935	0.048
Mof_N 	N 	0.6611	0.3939	0.03915	-0.075
Mof_C 	C 	0.7511	0.3081	0.06186	-0.015
Mof_H 	H 	0.7987	0.2788	0.06731	0.04
Mof_N 	N 	0.6178	0.3549	0.06039	-0.047
Mof_C 	C 	0.9193	0.5517	0.91391	-0.098
Mof_H 	H 	0.90749	0.49631	0.90952	0.074
Mof_C 	C 	0.6568	0.1242	0.12855	0.094
Mof_H 	H 	0.68352	0.07427	0.13291	0.019
Mof_C 	C 	0.8885	0.6116	0.89507	-0.017
Mof_H 	H 	0.85767	0.59565	0.8782	0.046
Mof_C 	C 	0.8158	0.7531	0.85708	-0.006
Mof_H 	H 	0.79528	0.70414	0.84869	0.035
Mof_C 	C 	0.7863	0.4476	0.99454	-0.013
Mof_H 	H 	0.73066	0.45852	0.99025	0.059
Mof_C 	C 	0.8906	0.3829	0.02416	-0.016
Mof_H 	H 	0.90646	0.34741	0.03977	0.039
Mof_C 	C 	0.848	0.4797	0.97603	-0.101
Mof_H 	H 	0.83245	0.51208	0.9595	0.076
Mof_C 	C 	0.6445	0.25	0.09887	0.18
Mof_C 	C 	0.5488	0.2251	0.13856	0.111
Mof_H 	H 	0.50195	0.24079	0.14953	0.005
Mof_C 	C 	0.5782	0.2739	0.11613	-0.21
Mof_H 	H 	0.55285	0.32492	0.11235	0.119
Mof_C 	C 	0.6842	0.1763	0.10422	-0.192
Mof_H 	H 	0.72883	0.16011	0.09213	0.105
Mof_C 	C 	0.8656	0.7591	0.88081	0.062
Mof_C 	C 	0.746	0.8563	0.82294	0.182
Mof_N 	N 	0.8763	0.8382	0.8858	-0.083
Mof_N 	N 	0.8396	0.8818	0.8646	-0.044
Mof_C 	C 	0.6918	0.8055	0.81105	-0.213
Mof_H 	H 	0.68526	0.75186	0.81864	0.111
Mof_C 	C 	0.6434	0.8336	0.7864	0.106
Mof_H 	H 	0.60595	0.79734	0.7772	0.013
Mof_C 	C 	0.7584	0.9379	0.81252	-0.191
Mof_H 	H 	0.79702	0.97314	0.82158	0.114
Mof_C 	C 	0.7102	0.9637	0.78796	0.101
Mof_H 	H 	0.71908	0.01631	0.77978	0.017
Mof_C 	C 	0.6507	0.9143	0.77571	-0.153
Mof_C 	C 	0.5941	0.9461	0.75114	0.374
Mof_O 	O 	0.6056	0.02	0.74306	-0.411
Mof_O 	O 	0.5421	0.8948	0.74041	-0.406
Mof_C 	C 	2.24867e-32	0.5	0.46021	-0.089
Mof_C 	C 	9.88957e-33	0.5	0.96021	-0.089
Mof_Cu	Cu	0.04158	0.42949	0.78965	0.907
Mof_O 	O 	0.1103	0.4856	0.81959	-0.416
Mof_O 	O 	0.0334	0.6017	0.8226	-0.409
Mof_C 	C 	0.4659	0.9302	0.01906	0.075
Mof_N 	N 	0.3021	0.6724	0.92569	-0.103
Mof_C 	C 	0.569	0.967	0.06085	0.064
Mof_C 	C 	0.1503	0.5901	0.85492	-0.153
Mof_C 	C 	0.3997	0.8067	0.98081	-0.009
Mof_N 	N 	0.8276	0.8011	0.15228	-0.103
Mof_C 	C 	0.3671	0.743	0.96029	0.06
Mof_C 	C 	0.6944	0.9019	0.09967	-0.01
Mof_C 	C 	0.6556	0.9835	0.0554	-0.096
Mof_H 	H 	0.67125	0.0161	0.03894	0.071
Mof_C 	C 	0.4195	0.9507	0.99435	-0.109
Mof_H 	H 	0.41195	0.00663	0.98966	0.076
Mof_C 	C 	0.094	0.5566	0.83013	0.376
Mof_C 	C 	0.7164	0.9509	0.07454	-0.02
Mof_H 	H 	0.77228	0.96183	0.07065	0.048
Mof_N 	N 	0.3939	0.6611	0.96085	-0.075
Mof_C 	C 	0.3081	0.7511	0.93814	-0.015
Mof_H 	H 	0.2788	0.7987	0.93269	0.04
Mof_N 	N 	0.3549	0.6178	0.93961	-0.047
Mof_C 	C 	0.5517	0.9193	0.08609	-0.098
Mof_H 	H 	0.49631	0.90749	0.09048	0.074
Mof_C 	C 	0.1242	0.6568	0.87145	0.094
Mof_H 	H 	0.07427	0.68352	0.86709	0.019
Mof_C 	C 	0.6116	0.8885	0.10493	-0.017
Mof_H 	H 	0.59565	0.85767	0.1218	0.046
Mof_C 	C 	0.7531	0.8158	0.14292	-0.006
Mof_H 	H 	0.70414	0.79528	0.15131	0.035
Mof_C 	C 	0.4476	0.7863	0.00546	-0.013
Mof_H 	H 	0.45852	0.73066	0.00975	0.059
Mof_C 	C 	0.3829	0.8906	0.97584	-0.016
Mof_H 	H 	0.34741	0.90646	0.96023	0.039
Mof_C 	C 	0.4797	0.848	0.02397	-0.101
Mof_H 	H 	0.51208	0.83245	0.0405	0.076
Mof_C 	C 	0.25	0.6445	0.90113	0.18
Mof_C 	C 	0.2251	0.5488	0.86144	0.111
Mof_H 	H 	0.24079	0.50195	0.85047	0.005
Mof_C 	C 	0.2739	0.5782	0.88387	-0.21
Mof_H 	H 	0.32492	0.55285	0.88765	0.119
Mof_C 	C 	0.1763	0.6842	0.89578	-0.192
Mof_H 	H 	0.16011	0.72883	0.90787	0.105
Mof_C 	C 	0.7591	0.8656	0.11919	0.062
Mof_C 	C 	0.8563	0.746	0.17706	0.182
Mof_N 	N 	0.8382	0.8763	0.1142	-0.083
Mof_N 	N 	0.8818	0.8396	0.1354	-0.044
Mof_C 	C 	0.8055	0.6918	0.18895	-0.213
Mof_H 	H 	0.75186	0.68526	0.18136	0.111
Mof_C 	C 	0.8336	0.6434	0.2136	0.106
Mof_H 	H 	0.79734	0.60595	0.2228	0.013
Mof_C 	C 	0.9379	0.7584	0.18748	-0.191
Mof_H 	H 	0.97314	0.79702	0.17842	0.114
Mof_C 	C 	0.9637	0.7102	0.21204	0.101
Mof_H 	H 	0.01631	0.71908	0.22022	0.017
Mof_C 	C 	0.9143	0.6507	0.22429	-0.153
Mof_C 	C 	0.9461	0.5941	0.24886	0.374
Mof_O 	O 	0.02	0.6056	0.25694	-0.411
Mof_O 	O 	0.8948	0.5421	0.25959	-0.406
Mof_Cu	Cu	0.95842	0.57051	0.78965	0.905
Mof_O 	O 	0.8897	0.5144	0.81959	-0.417
Mof_O 	O 	0.9666	0.3983	0.8226	-0.41
Mof_C 	C 	0.5341	0.0698	0.01906	0.072
Mof_N 	N 	0.6979	0.3276	0.92569	-0.104
Mof_C 	C 	0.431	0.033	0.06085	0.062
Mof_C 	C 	0.8497	0.4099	0.85492	-0.153
Mof_C 	C 	0.6003	0.1933	0.98081	-0.006
Mof_N 	N 	0.1724	0.1989	0.15228	-0.104
Mof_C 	C 	0.6329	0.257	0.96029	0.059
Mof_C 	C 	0.3056	0.0981	0.09967	-0.006
Mof_C 	C 	0.3444	0.0165	0.0554	-0.086
Mof_H 	H 	0.32875	0.9839	0.03894	0.066
Mof_C 	C 	0.5805	0.0493	0.99435	-0.099
Mof_H 	H 	0.58805	0.99337	0.98966	0.07
Mof_C 	C 	0.906	0.4434	0.83013	0.377
Mof_C 	C 	0.2836	0.0491	0.07454	-0.025
Mof_H 	H 	0.22772	0.03817	0.07065	0.051
Mof_N 	N 	0.6061	0.3389	0.96085	-0.075
Mof_C 	C 	0.6919	0.2489	0.93814	-0.014
Mof_H 	H 	0.7212	0.2013	0.93269	0.04
Mof_N 	N 	0.6451	0.3822	0.93961	-0.047
Mof_C 	C 	0.4483	0.0807	0.08609	-0.095
Mof_H 	H 	0.50369	0.09251	0.09048	0.074
Mof_C 	C 	0.8758	0.3432	0.87145	0.095
Mof_H 	H 	0.92573	0.31648	0.86709	0.018
Mof_C 	C 	0.3884	0.1115	0.10493	-0.019
Mof_H 	H 	0.40435	0.14233	0.1218	0.047
Mof_C 	C 	0.2469	0.1842	0.14292	-0.004
Mof_H 	H 	0.29586	0.20472	0.15131	0.034
Mof_C 	C 	0.5524	0.2137	0.00546	-0.017
Mof_H 	H 	0.54148	0.26934	0.00975	0.06
Mof_C 	C 	0.6171	0.1094	0.97584	-0.022
Mof_H 	H 	0.65259	0.09354	0.96023	0.042
Mof_C 	C 	0.5203	0.152	0.02397	-0.098
Mof_H 	H 	0.48792	0.16755	0.0405	0.075
Mof_C 	C 	0.75	0.3555	0.90113	0.18
Mof_C 	C 	0.7749	0.4512	0.86144	0.112
Mof_H 	H 	0.75921	0.49805	0.85047	0.005
Mof_C 	C 	0.7261	0.4218	0.88387	-0.21
Mof_H 	H 	0.67508	0.44715	0.88765	0.119
Mof_C 	C 	0.8237	0.3158	0.89578	-0.192
Mof_H 	H 	0.83989	0.27117	0.90787	0.105
Mof_C 	C 	0.2409	0.1344	0.11919	0.061
Mof_C 	C 	0.1437	0.254	0.17706	0.187
Mof_N 	N 	0.1618	0.1237	0.1142	-0.082
Mof_N 	N 	0.1182	0.1604	0.1354	-0.043
Mof_C 	C 	0.1945	0.3082	0.18895	-0.219
Mof_H 	H 	0.24814	0.31474	0.18136	0.113
Mof_C 	C 	0.1664	0.3566	0.2136	0.112
Mof_H 	H 	0.20266	0.39405	0.2228	0.011
Mof_C 	C 	0.0621	0.2416	0.18748	-0.2
Mof_H 	H 	0.02686	0.20298	0.17842	0.119
Mof_C 	C 	0.0363	0.2898	0.21204	0.115
Mof_H 	H 	0.98369	0.28092	0.22022	0.01
Mof_C 	C 	0.0857	0.3493	0.22429	-0.161
Mof_C 	C 	0.0539	0.4059	0.24886	0.381
Mof_O 	O 	0.98	0.3944	0.25694	-0.415
Mof_O 	O 	0.1052	0.4579	0.25959	-0.407
Mof_Cu	Cu	0.92949	0.45842	0.28965	0.906
Mof_O 	O 	0.9856	0.3897	0.31959	-0.418
Mof_O 	O 	0.1017	0.4666	0.3226	-0.41
Mof_C 	C 	0.4302	0.0341	0.51906	0.073
Mof_N 	N 	0.1724	0.1979	0.42569	-0.104
Mof_C 	C 	0.467	0.931	0.56085	0.064
Mof_C 	C 	0.0901	0.3497	0.35492	-0.154
Mof_C 	C 	0.3067	0.1003	0.48081	-0.006
Mof_N 	N 	0.3011	0.6724	0.65228	-0.104
Mof_C 	C 	0.243	0.1329	0.46029	0.059
Mof_C 	C 	0.4019	0.8056	0.59967	-0.009
Mof_C 	C 	0.4835	0.8444	0.5554	-0.091
Mof_H 	H 	0.5161	0.82875	0.53894	0.068
Mof_C 	C 	0.4507	0.0805	0.49435	-0.103
Mof_H 	H 	0.50663	0.08805	0.48966	0.073
Mof_C 	C 	0.0566	0.406	0.33013	0.379
Mof_C 	C 	0.4509	0.7836	0.57454	-0.022
Mof_H 	H 	0.46183	0.72772	0.57065	0.05
Mof_N 	N 	0.1611	0.1061	0.46085	-0.075
Mof_C 	C 	0.2511	0.1919	0.43814	-0.014
Mof_H 	H 	0.2987	0.2212	0.43269	0.04
Mof_N 	N 	0.1178	0.1451	0.43961	-0.046
Mof_C 	C 	0.4193	0.9483	0.58609	-0.101
Mof_H 	H 	0.40749	0.00369	0.59048	0.077
Mof_C 	C 	0.1568	0.3758	0.37145	0.095
Mof_H 	H 	0.18352	0.42573	0.36709	0.018
Mof_C 	C 	0.3885	0.8884	0.60493	-0.015
Mof_H 	H 	0.35767	0.90435	0.6218	0.045
Mof_C 	C 	0.3158	0.7469	0.64292	-0.005
Mof_H 	H 	0.29528	0.79586	0.65131	0.034
Mof_C 	C 	0.2863	0.0524	0.50546	-0.017
Mof_H 	H 	0.23066	0.04148	0.50975	0.06
Mof_C 	C 	0.3906	0.1171	0.47584	-0.02
Mof_H 	H 	0.40646	0.15259	0.46023	0.041
Mof_C 	C 	0.348	0.0203	0.52397	-0.095
Mof_H 	H 	0.33245	0.98792	0.5405	0.073
Mof_C 	C 	0.1445	0.25	0.40113	0.181
Mof_C 	C 	0.0488	0.2749	0.36144	0.112
Mof_H 	H 	0.00195	0.25921	0.35047	0.005
Mof_C 	C 	0.0782	0.2261	0.38387	-0.21
Mof_H 	H 	0.05285	0.17508	0.38765	0.12
Mof_C 	C 	0.1842	0.3237	0.39578	-0.193
Mof_H 	H 	0.22883	0.33989	0.40787	0.105
Mof_C 	C 	0.3656	0.7409	0.61919	0.062
Mof_C 	C 	0.246	0.6437	0.67706	0.185
Mof_N 	N 	0.3763	0.6618	0.6142	-0.083
Mof_N 	N 	0.3396	0.6182	0.6354	-0.044
Mof_C 	C 	0.1918	0.6945	0.68895	-0.216
Mof_H 	H 	0.18526	0.74814	0.68136	0.112
Mof_C 	C 	0.1434	0.6664	0.7136	0.11
Mof_H 	H 	0.10595	0.70266	0.7228	0.012
Mof_C 	C 	0.2584	0.5621	0.68748	-0.196
Mof_H 	H 	0.29702	0.52686	0.67842	0.117
Mof_C 	C 	0.2102	0.5363	0.71204	0.109
Mof_H 	H 	0.21908	0.48369	0.72022	0.013
Mof_C 	C 	0.1507	0.5857	0.72429	-0.157
Mof_C 	C 	0.0941	0.5539	0.74886	0.378
Mof_O 	O 	0.1056	0.48	0.75694	-0.413
Mof_O 	O 	0.0421	0.6052	0.75959	-0.406
Mof_Cu	Cu	0.07051	0.54158	0.28965	0.906
Mof_O 	O 	0.0144	0.6103	0.31959	-0.414
Mof_O 	O 	0.8983	0.5334	0.3226	-0.409
Mof_C 	C 	0.5698	0.9659	0.51906	0.075
Mof_N 	N 	0.8276	0.8021	0.42569	-0.103
Mof_C 	C 	0.533	0.069	0.56085	0.061
Mof_C 	C 	0.9099	0.6503	0.35492	-0.152
Mof_C 	C 	0.6933	0.8997	0.48081	-0.01
Mof_N 	N 	0.6989	0.3276	0.65228	-0.104
Mof_C 	C 	0.757	0.8671	0.46029	0.06
Mof_C 	C 	0.5981	0.1944	0.59967	-0.006
Mof_C 	C 	0.5165	0.1556	0.5554	-0.088
Mof_H 	H 	0.4839	0.17125	0.53894	0.068
Mof_C 	C 	0.5493	0.9195	0.49435	-0.106
Mof_H 	H 	0.49337	0.91195	0.48966	0.073
Mof_C 	C 	0.9434	0.594	0.33013	0.374
Mof_C 	C 	0.5491	0.2164	0.57454	-0.025
Mof_H 	H 	0.53817	0.27228	0.57065	0.051
Mof_N 	N 	0.8389	0.8939	0.46085	-0.076
Mof_C 	C 	0.7489	0.8081	0.43814	-0.015
Mof_H 	H 	0.7013	0.7788	0.43269	0.04
Mof_N 	N 	0.8822	0.8549	0.43961	-0.047
Mof_C 	C 	0.5807	0.0517	0.58609	-0.09
Mof_H 	H 	0.59251	0.99631	0.59048	0.071
Mof_C 	C 	0.8432	0.6242	0.37145	0.094
Mof_H 	H 	0.81648	0.57427	0.36709	0.019
Mof_C 	C 	0.6115	0.1116	0.60493	-0.022
Mof_H 	H 	0.64233	0.09565	0.6218	0.048
Mof_C 	C 	0.6842	0.2531	0.64292	-0.004
Mof_H 	H 	0.70472	0.20414	0.65131	0.034
Mof_C 	C 	0.7137	0.9476	0.50546	-0.011
Mof_H 	H 	0.76934	0.95852	0.50975	0.057
Mof_C 	C 	0.6094	0.8829	0.47584	-0.017
Mof_H 	H 	0.59354	0.84741	0.46023	0.04
Mof_C 	C 	0.652	0.9797	0.52397	-0.106
Mof_H 	H 	0.66755	0.01208	0.5405	0.079
Mof_C 	C 	0.8555	0.75	0.40113	0.18
Mof_C 	C 	0.9512	0.7251	0.36144	0.11
Mof_H 	H 	0.99805	0.74079	0.35047	0.004
Mof_C 	C 	0.9218	0.7739	0.38387	-0.209
Mof_H 	H 	0.94715	0.82492	0.38765	0.118
Mof_C 	C 	0.8158	0.6763	0.39578	-0.192
Mof_H 	H 	0.77117	0.66011	0.40787	0.105
Mof_C 	C 	0.6344	0.2591	0.61919	0.061
Mof_C 	C 	0.754	0.3563	0.67706	0.185
Mof_N 	N 	0.6237	0.3382	0.6142	-0.082
Mof_N 	N 	0.6604	0.3818	0.6354	-0.044
Mof_C 	C 	0.8082	0.3055	0.68895	-0.217
Mof_H 	H 	0.81474	0.25186	0.68136	0.112
Mof_C 	C 	0.8566	0.3336	0.7136	0.11
Mof_H 	H 	0.89405	0.29734	0.7228	0.012
Mof_C 	C 	0.7416	0.4379	0.68748	-0.197
Mof_H 	H 	0.70298	0.47314	0.67842	0.117
Mof_C 	C 	0.7898	0.4637	0.71204	0.11
Mof_H 	H 	0.78092	0.51631	0.72022	0.013
Mof_C 	C 	0.8493	0.4143	0.72429	-0.158
Mof_C 	C 	0.9059	0.4461	0.74886	0.378
Mof_O 	O 	0.8944	0.52	0.75694	-0.414
Mof_O 	O 	0.9579	0.3948	0.75959	-0.407
Mof_C 	C 	0.5	1.10918e-33	0.03979	-0.089
Mof_C 	C 	0.5	0	0.53979	-0.089
_end
