# CIF file generated by openbabel 3.1.0, see https://openbabel.org
data_I
_chemical_name_common 'VAPBAR_charged'
_cell_length_a 12.336
_cell_length_b 12.488
_cell_length_c 12.488
_cell_angle_alpha 120
_cell_angle_beta 90
_cell_angle_gamma 90
_space_group_name_H-M_alt 'P 1'
_space_group_name_Hall 'P 1'
loop_
    _symmetry_equiv_pos_as_xyz
    x,y,z
loop_
    _atom_site_label
    _atom_site_type_symbol
    _atom_site_fract_x
    _atom_site_fract_y
    _atom_site_fract_z
    _atom_site_occupancy
    Eu1      Eu       0.00000    0.00000    0.00000    1.000
    H1       H        0.65240    0.91280    0.23180    1.000
    H2       H        0.64000    0.71040    0.20400    1.000
    H3       H        0.58690    0.79790    0.33290    1.000
    H4       H        0.80290    0.80320    0.27710    1.000
    H5       H        0.75130    0.88940    0.40700    1.000
    H6       H        0.74740    0.08560    0.44780    1.000
    H7       H        0.67690    0.12040    0.36580    1.000
    H8       H        0.67170    0.07150    0.60400    1.000
    H9       H        0.46910    0.07130    0.35380    1.000
    H10      H        0.78900    0.03080    0.21040    1.000
    H11      H        0.86870    0.96530    0.25720    1.000
    H12      H        0.65240    0.31900    0.08720    1.000
    H13      H        0.64000    0.49360    0.28960    1.000
    H14      H        0.58690    0.53500    0.20210    1.000
    H15      H        0.80290    0.47390    0.19680    1.000
    H16      H        0.75130    0.51760    0.11060    1.000
    H17      H        0.74740    0.36220    0.91440    1.000
    H18      H        0.67690    0.24540    0.87960    1.000
    H19      H        0.67170    0.53250    0.92850    1.000
    H20      H        0.46910    0.28250    0.92870    1.000
    H21      H        0.78900    0.17960    0.96920    1.000
    H22      H        0.86870    0.29190    0.03470    1.000
    H23      H        0.65240    0.76820    0.68100    1.000
    H24      H        0.64000    0.79600    0.50640    1.000
    H25      H        0.58690    0.66710    0.46500    1.000
    H26      H        0.80290    0.72290    0.52610    1.000
    H27      H        0.75130    0.59300    0.48240    1.000
    H28      H        0.74740    0.55220    0.63780    1.000
    H29      H        0.67690    0.63420    0.75460    1.000
    H30      H        0.67170    0.39600    0.46750    1.000
    H31      H        0.46910    0.64620    0.71750    1.000
    H32      H        0.78900    0.78960    0.82040    1.000
    H33      H        0.86870    0.74280    0.70810    1.000
    H34      H        0.34760    0.31900    0.23180    1.000
    H35      H        0.36000    0.49360    0.20400    1.000
    H36      H        0.41310    0.53500    0.33290    1.000
    H37      H        0.19710    0.47390    0.27710    1.000
    H38      H        0.24870    0.51760    0.40700    1.000
    H39      H        0.25260    0.36220    0.44780    1.000
    H40      H        0.32310    0.24540    0.36580    1.000
    H41      H        0.32830    0.53250    0.60400    1.000
    H42      H        0.53090    0.28250    0.35380    1.000
    H43      H        0.21100    0.17960    0.21040    1.000
    H44      H        0.13130    0.29190    0.25720    1.000
    H45      H        0.34760    0.76820    0.08720    1.000
    H46      H        0.36000    0.79600    0.28960    1.000
    H47      H        0.41310    0.66710    0.20210    1.000
    H48      H        0.19710    0.72290    0.19680    1.000
    H49      H        0.24870    0.59300    0.11060    1.000
    H50      H        0.25260    0.55220    0.91440    1.000
    H51      H        0.32310    0.63420    0.87960    1.000
    H52      H        0.32830    0.39600    0.92850    1.000
    H53      H        0.53090    0.64620    0.92870    1.000
    H54      H        0.21100    0.78960    0.96920    1.000
    H55      H        0.13130    0.74280    0.03470    1.000
    H56      H        0.34760    0.91280    0.68100    1.000
    H57      H        0.36000    0.71040    0.50640    1.000
    H58      H        0.41310    0.79790    0.46500    1.000
    H59      H        0.19710    0.80320    0.52610    1.000
    H60      H        0.24870    0.88940    0.48240    1.000
    H61      H        0.25260    0.08560    0.63780    1.000
    H62      H        0.32310    0.12040    0.75460    1.000
    H63      H        0.32830    0.07150    0.46750    1.000
    H64      H        0.53090    0.07130    0.71750    1.000
    H65      H        0.21100    0.03080    0.82040    1.000
    H66      H        0.13130    0.96530    0.70810    1.000
    C1       C        0.65330    0.75550    0.29240    1.000
    C2       C        0.73700    0.84620    0.31880    1.000
    C3       C        0.68500    0.06000    0.39200    1.000
    C4       C        0.58890    0.06710    0.46470    1.000
    C5       C        0.60180    0.06960    0.57530    1.000
    C6       C        0.48160    0.06960    0.42630    1.000
    C7       C        0.81330    0.85150    0.08530    1.000
    C8       C        0.80140    0.95540    0.21290    1.000
    C9       C        0.65330    0.53690    0.24450    1.000
    C10      C        0.73700    0.47260    0.15380    1.000
    C11      C        0.68500    0.33200    0.94000    1.000
    C12      C        0.58890    0.39760    0.93290    1.000
    C13      C        0.60180    0.50570    0.93040    1.000
    C14      C        0.48160    0.35670    0.93040    1.000
    C15      C        0.81330    0.23380    0.14850    1.000
    C16      C        0.80140    0.25750    0.04460    1.000
    C17      C        0.65330    0.70760    0.46310    1.000
    C18      C        0.73700    0.68120    0.52740    1.000
    C19      C        0.68500    0.60800    0.66800    1.000
    C20      C        0.58890    0.53530    0.60240    1.000
    C21      C        0.60180    0.42470    0.49430    1.000
    C22      C        0.48160    0.57370    0.64330    1.000
    C23      C        0.81330    0.91470    0.76620    1.000
    C24      C        0.80140    0.78710    0.74250    1.000
    C25      C        0.34670    0.53690    0.29240    1.000
    C26      C        0.26300    0.47260    0.31880    1.000
    C27      C        0.31500    0.33200    0.39200    1.000
    C28      C        0.41110    0.39760    0.46470    1.000
    C29      C        0.39820    0.50570    0.57530    1.000
    C30      C        0.51840    0.35670    0.42630    1.000
    C31      C        0.18670    0.23380    0.08530    1.000
    C32      C        0.19860    0.25750    0.21290    1.000
    C33      C        0.34670    0.70760    0.24450    1.000
    C34      C        0.26300    0.68120    0.15380    1.000
    C35      C        0.31500    0.60800    0.94000    1.000
    C36      C        0.41110    0.53530    0.93290    1.000
    C37      C        0.39820    0.42470    0.93040    1.000
    C38      C        0.51840    0.57370    0.93040    1.000
    C39      C        0.18670    0.91470    0.14850    1.000
    C40      C        0.19860    0.78710    0.04460    1.000
    C41      C        0.34670    0.75550    0.46310    1.000
    C42      C        0.26300    0.84620    0.52740    1.000
    C43      C        0.31500    0.06000    0.66800    1.000
    C44      C        0.41110    0.06710    0.60240    1.000
    C45      C        0.39820    0.06960    0.49430    1.000
    C46      C        0.51840    0.06960    0.64330    1.000
    C47      C        0.18670    0.85150    0.76620    1.000
    C48      C        0.19860    0.95540    0.74250    1.000
    N1       N        0.71190    0.93850    0.28160    1.000
    N2       N        0.71190    0.34310    0.06150    1.000
    N3       N        0.71190    0.71840    0.65690    1.000
    N4       N        0.28810    0.34310    0.28160    1.000
    N5       N        0.28810    0.71840    0.06150    1.000
    N6       N        0.28810    0.93850    0.65690    1.000
    N7       N        0.68100    0.66667    0.33334    1.000
    N8       N        0.31900    0.66667    0.33334    1.000
    O1       O        0.88760    0.86600    0.02290    1.000
    O2       O        0.76060    0.75850    0.04680    1.000
    O3       O        0.88760    0.15690    0.13400    1.000
    O4       O        0.76060    0.28830    0.24150    1.000
    O5       O        0.88760    0.97710    0.84310    1.000
    O6       O        0.76060    0.95320    0.71170    1.000
    O7       O        0.11240    0.15690    0.02290    1.000
    O8       O        0.23940    0.28830    0.04680    1.000
    O9       O        0.11240    0.97710    0.13400    1.000
    O10      O        0.23940    0.95320    0.24150    1.000
    O11      O        0.11240    0.86600    0.84310    1.000
    O12      O        0.23940    0.75850    0.71170    1.000
    N9       N        0.00000    0.66667    0.33334    1.000
    O13      O        0.00000    0.72495    0.27505    1.000
    O14      O        0.00000    0.55010    0.27505    1.000
    O15      O        0.00000    0.72495    0.44990    1.000
