# CIF file generated by openbabel 3.1.0, see https://openbabel.org
data_I
_chemical_name_common 'image0'
_cell_length_a 10.8161
_cell_length_b 10.8161
_cell_length_c 9.7482
_cell_angle_alpha 90
_cell_angle_beta 90
_cell_angle_gamma 120
_space_group_name_H-M_alt 'P 1'
_space_group_name_Hall 'P 1'
loop_
    _symmetry_equiv_pos_as_xyz
    x,y,z
loop_
    _atom_site_label
    _atom_site_type_symbol
    _atom_site_fract_x
    _atom_site_fract_y
    _atom_site_fract_z
    _atom_site_occupancy
    N1       N        0.56720    0.63920    0.20030    1.000
    N2       N        0.54250    0.81210    0.32630    1.000
    C1       C        0.61680    0.60770    0.31380    1.000
    H1       H        0.64300    0.53790    0.30860    1.000
    C2       C        0.63010    0.67480    0.43690    1.000
    C3       C        0.59250    0.77870    0.43810    1.000
    H2       H        0.60210    0.82780    0.51940    1.000
    C4       C        0.53320    0.73990    0.21280    1.000
    H3       H        0.49940    0.76270    0.13460    1.000
    N3       N        0.36080    0.92800    0.53363    1.000
    N4       N        0.18790    0.73040    0.65963    1.000
    C5       C        0.39230    0.00910    0.64713    1.000
    H4       H        0.46210    0.10510    0.64193    1.000
    C6       C        0.32520    0.95530    0.77023    1.000
    C7       C        0.22130    0.81380    0.77143    1.000
    H5       H        0.17220    0.77430    0.85273    1.000
    C8       C        0.26010    0.79330    0.54613    1.000
    H6       H        0.23730    0.73670    0.46793    1.000
    N5       N        0.07200    0.43280    0.86697    1.000
    N6       N        0.26960    0.45750    0.99297    1.000
    C9       C        0.99090    0.38320    0.98047    1.000
    H7       H        0.89490    0.35700    0.97527    1.000
    C10      C        0.04470    0.36990    0.10357    1.000
    C11      C        0.18620    0.40750    0.10477    1.000
    H8       H        0.22570    0.39790    0.18607    1.000
    C12      C        0.20670    0.46680    0.87947    1.000
    H9       H        0.26330    0.50060    0.80127    1.000
    N7       N        0.63920    0.56720    0.79970    1.000
    N8       N        0.81210    0.54250    0.67370    1.000
    C13      C        0.60770    0.61680    0.68620    1.000
    H10      H        0.53790    0.64300    0.69140    1.000
    C14      C        0.67480    0.63010    0.56310    1.000
    C15      C        0.77870    0.59250    0.56190    1.000
    H11      H        0.82780    0.60210    0.48060    1.000
    C16      C        0.73990    0.53320    0.78720    1.000
    H12      H        0.76270    0.49940    0.86540    1.000
    N9       N        0.92800    0.36080    0.46637    1.000
    N10      N        0.73040    0.18790    0.34037    1.000
    C17      C        0.00910    0.39230    0.35287    1.000
    H13      H        0.10510    0.46210    0.35807    1.000
    C18      C        0.95530    0.32520    0.22977    1.000
    C19      C        0.81380    0.22130    0.22857    1.000
    H14      H        0.77430    0.17220    0.14727    1.000
    C20      C        0.79330    0.26010    0.45387    1.000
    H15      H        0.73670    0.23730    0.53207    1.000
    N11      N        0.43280    0.07200    0.13303    1.000
    N12      N        0.45750    0.26960    0.00703    1.000
    C21      C        0.38320    0.99090    0.01953    1.000
    H16      H        0.35700    0.89490    0.02473    1.000
    C22      C        0.36990    0.04470    0.89643    1.000
    C23      C        0.40750    0.18620    0.89523    1.000
    H17      H        0.39790    0.22570    0.81393    1.000
    C24      C        0.46680    0.20670    0.12053    1.000
    H18      H        0.50060    0.26330    0.19873    1.000
    Ag1      Ag       0.51502    0.51502    0.00000    1.000
    Ag2      Ag       0.48498    0.00000    0.33333    1.000
    Ag3      Ag       0.00000    0.48498    0.66667    1.000
