data_functionalizedCrystal
_audit_creation_method	'EQeq! by Chris Wilmer'
_symmetry_space_group_name_H-M	'P1'
_symmetry_Int_Tables_number	1
_symmetry_cell_setting	triclinic
loop_
_symmetry_equiv_pos_as_xyz
  x,y,z
_cell_length_a	29.9258
_cell_length_b	21.0418
_cell_length_c	19.4326
_cell_angle_alpha	90
_cell_angle_beta	94
_cell_angle_gamma	90
loop_
_atom_site_label
_atom_site_type_symbol
_atom_site_fract_x
_atom_site_fract_y
_atom_site_fract_z
_atom_site_charge
Mof_Er	Er	0.27659	0.175	0.05766	1.792
Mof_Er	Er	0.18199	0.82999	0.96255	1.693
Mof_O 	O 	0.2791	0.0697	0.0168	-0.442
Mof_O 	O 	0.3397	0.1026	0.0708	-0.421
Mof_O 	O 	0.2582	0.84	0.9662	-0.531
Mof_O 	O 	0.3091	0.7717	0.0023	-0.563
Mof_O 	O 	0.62853	0.723	0.3816	-0.399
Mof_O 	O 	0.69703	0.7096	0.3518	-0.405
Mof_O 	O 	0.68897	0.8075	0.0449	-0.477
Mof_O 	O 	0.73144	0.7432	0.1116	-0.541
Mof_O 	O 	0.1472	0.9089	0.8915	-0.434
Mof_O 	O 	0.1908	0.9439	0.9738	-0.437
Mof_O 	O 	0.2166	0.1845	0.9807	-0.542
Mof_O 	O 	0.1717	0.2442	0.9122	-0.475
Mof_C 	C 	0.3172	0.0585	0.0431	0.348
Mof_C 	C 	0.3337	0.9915	0.0466	-0.114
Mof_C 	C 	0.3766	0.9781	0.0774	-0.003
Mof_H 	H 	0.3944	0.0111	0.0958	0.047
Mof_C 	C 	0.3926	0.9169	0.0808	-0.02
Mof_C 	C 	0.3648	0.8671	0.053	0.04
Mof_H 	H 	0.3753	0.8255	0.0547	0.024
Mof_C 	C 	0.3231	0.8797	0.0239	-0.195
Mof_C 	C 	0.3078	0.9416	0.0183	0.08
Mof_H 	H 	0.28	0.95	0.9956	0.024
Mof_C 	C 	0.2946	0.826	0.995	0.548
Mof_C 	C 	0.436	0.9017	0.1113	-0.005
Mof_C 	C 	0.4729	0.8858	0.1331	-0.01
Mof_C 	C 	0.5141	0.8652	0.1586	-0.001
Mof_C 	C 	0.5501	0.8441	0.1768	-0.014
Mof_C 	C 	0.5935	0.8146	0.1923	-0
Mof_C 	C 	0.6045	0.7884	0.2574	-0.02
Mof_H 	H 	0.5847	0.7913	0.2921	0.056
Mof_C 	C 	0.6456	0.758	0.2693	-0.092
Mof_C 	C 	0.6749	0.7551	0.2182	0.058
Mof_H 	H 	0.7016	0.7329	0.2268	0.02
Mof_C 	C 	0.6664	0.7843	0.153	-0.162
Mof_C 	C 	0.6232	0.8129	0.1418	0.009
Mof_H 	H 	0.615	0.8308	0.099	0.046
Mof_C 	C 	0.6579	0.7285	0.3384	0.33
Mof_C 	C 	0.6984	0.7788	0.1002	0.498
Mof_C 	C 	0.1631	0.9544	0.9253	0.356
Mof_C 	C 	0.1474	0.0194	0.9072	-0.108
Mof_C 	C 	0.1725	0.0729	0.9313	0.049
Mof_H 	H 	0.1989	0.0674	0.9589	0.028
Mof_C 	C 	0.1575	0.1341	0.9133	-0.139
Mof_C 	C 	0.1187	0.1431	0.8726	-0.001
Mof_H 	H 	0.109	0.1839	0.8609	0.044
Mof_C 	C 	0.0938	0.0899	0.8486	-0.007
Mof_C 	C 	0.1098	0.0265	0.8662	-0.012
Mof_H 	H 	0.0941	0.991	0.8492	0.048
Mof_C 	C 	0.184	0.1916	0.9374	0.458
Mof_C 	C 	0.0538	0.0958	0.8032	-0.019
Mof_C 	C 	0.0198	0.098	0.7721	-0.013
Mof_Er	Er	0.77659	0.675	0.05766	1.795
Mof_Er	Er	0.68199	0.32999	0.96255	1.695
Mof_O 	O 	0.7791	0.5697	0.0168	-0.44
Mof_O 	O 	0.8397	0.6026	0.0708	-0.419
Mof_O 	O 	0.7582	0.34	0.9662	-0.53
Mof_O 	O 	0.8091	0.2717	0.0023	-0.564
Mof_O 	O 	0.12853	0.223	0.3816	-0.399
Mof_O 	O 	0.19703	0.2096	0.3518	-0.405
Mof_O 	O 	0.18897	0.3075	0.0449	-0.478
Mof_O 	O 	0.23144	0.2432	0.1116	-0.541
Mof_O 	O 	0.6472	0.4089	0.8915	-0.434
Mof_O 	O 	0.6908	0.4439	0.9738	-0.437
Mof_O 	O 	0.7166	0.6845	0.9807	-0.543
Mof_O 	O 	0.6717	0.7442	0.9122	-0.475
Mof_C 	C 	0.8172	0.5585	0.0431	0.348
Mof_C 	C 	0.8337	0.4915	0.0466	-0.113
Mof_C 	C 	0.8766	0.4781	0.0774	-0.006
Mof_H 	H 	0.8944	0.5111	0.0958	0.049
Mof_C 	C 	0.8926	0.4169	0.0808	-0.019
Mof_C 	C 	0.8648	0.3671	0.053	0.04
Mof_H 	H 	0.8753	0.3255	0.0547	0.024
Mof_C 	C 	0.8231	0.3797	0.0239	-0.196
Mof_C 	C 	0.8078	0.4416	0.0183	0.078
Mof_H 	H 	0.78	0.45	0.9956	0.026
Mof_C 	C 	0.7946	0.326	0.995	0.551
Mof_C 	C 	0.936	0.4017	0.1113	-0.006
Mof_C 	C 	0.9729	0.3858	0.1331	-0.01
Mof_C 	C 	0.0141	0.3652	0.1586	-0.002
Mof_C 	C 	0.0501	0.3441	0.1768	-0.013
Mof_C 	C 	0.0935	0.3146	0.1923	-0.001
Mof_C 	C 	0.1045	0.2884	0.2574	-0.02
Mof_H 	H 	0.0847	0.2913	0.2921	0.056
Mof_C 	C 	0.1456	0.258	0.2693	-0.092
Mof_C 	C 	0.1749	0.2551	0.2182	0.058
Mof_H 	H 	0.2016	0.2329	0.2268	0.02
Mof_C 	C 	0.1664	0.2843	0.153	-0.162
Mof_C 	C 	0.1232	0.3129	0.1418	0.009
Mof_H 	H 	0.115	0.3308	0.099	0.046
Mof_C 	C 	0.1579	0.2285	0.3384	0.33
Mof_C 	C 	0.1984	0.2788	0.1002	0.498
Mof_C 	C 	0.6631	0.4544	0.9253	0.357
Mof_C 	C 	0.6474	0.5194	0.9072	-0.109
Mof_C 	C 	0.6725	0.5729	0.9313	0.049
Mof_H 	H 	0.6989	0.5674	0.9589	0.028
Mof_C 	C 	0.6575	0.6341	0.9133	-0.139
Mof_C 	C 	0.6187	0.6431	0.8726	-0.001
Mof_H 	H 	0.609	0.6839	0.8609	0.044
Mof_C 	C 	0.5938	0.5899	0.8486	-0.006
Mof_C 	C 	0.6098	0.5265	0.8662	-0.013
Mof_H 	H 	0.5941	0.491	0.8492	0.049
Mof_C 	C 	0.684	0.6916	0.9374	0.458
Mof_C 	C 	0.5538	0.5958	0.8032	-0.019
Mof_C 	C 	0.5198	0.598	0.7721	-0.013
Mof_Er	Er	0.72341	0.175	0.44234	1.794
Mof_Er	Er	0.81801	0.82999	0.53745	1.694
Mof_O 	O 	0.7209	0.0697	0.4832	-0.44
Mof_O 	O 	0.6603	0.1026	0.4292	-0.42
Mof_O 	O 	0.7418	0.84	0.5338	-0.53
Mof_O 	O 	0.6909	0.7717	0.4977	-0.564
Mof_O 	O 	0.37147	0.723	0.1184	-0.399
Mof_O 	O 	0.30297	0.7096	0.1482	-0.405
Mof_O 	O 	0.31103	0.8075	0.4551	-0.477
Mof_O 	O 	0.26856	0.7432	0.3884	-0.541
Mof_O 	O 	0.8528	0.9089	0.6085	-0.434
Mof_O 	O 	0.8092	0.9439	0.5262	-0.437
Mof_O 	O 	0.7834	0.1845	0.5193	-0.542
Mof_O 	O 	0.8283	0.2442	0.5878	-0.475
Mof_C 	C 	0.6828	0.0585	0.4569	0.348
Mof_C 	C 	0.6663	0.9915	0.4534	-0.113
Mof_C 	C 	0.6234	0.9781	0.4226	-0.005
Mof_H 	H 	0.6056	0.0111	0.4042	0.049
Mof_C 	C 	0.6074	0.9169	0.4192	-0.02
Mof_C 	C 	0.6352	0.8671	0.447	0.04
Mof_H 	H 	0.6247	0.8255	0.4453	0.024
Mof_C 	C 	0.6769	0.8797	0.4761	-0.195
Mof_C 	C 	0.6922	0.9416	0.4817	0.078
Mof_H 	H 	0.72	0.95	0.5044	0.026
Mof_C 	C 	0.7054	0.826	0.505	0.549
Mof_C 	C 	0.564	0.9017	0.3887	-0.006
Mof_C 	C 	0.5271	0.8858	0.3669	-0.01
Mof_C 	C 	0.4859	0.8652	0.3414	-0.002
Mof_C 	C 	0.4499	0.8441	0.3232	-0.013
Mof_C 	C 	0.4065	0.8146	0.3077	-0.001
Mof_C 	C 	0.3955	0.7884	0.2426	-0.02
Mof_H 	H 	0.4153	0.7913	0.2079	0.056
Mof_C 	C 	0.3544	0.758	0.2307	-0.092
Mof_C 	C 	0.3251	0.7551	0.2818	0.058
Mof_H 	H 	0.2984	0.7329	0.2732	0.02
Mof_C 	C 	0.3336	0.7843	0.347	-0.162
Mof_C 	C 	0.3768	0.8129	0.3582	0.009
Mof_H 	H 	0.385	0.8308	0.401	0.046
Mof_C 	C 	0.3421	0.7285	0.1616	0.33
Mof_C 	C 	0.3016	0.7788	0.3998	0.498
Mof_C 	C 	0.8369	0.9544	0.5747	0.357
Mof_C 	C 	0.8526	0.0194	0.5928	-0.109
Mof_C 	C 	0.8275	0.0729	0.5687	0.049
Mof_H 	H 	0.8011	0.0674	0.5411	0.028
Mof_C 	C 	0.8425	0.1341	0.5867	-0.139
Mof_C 	C 	0.8813	0.1431	0.6274	-0.001
Mof_H 	H 	0.891	0.1839	0.6391	0.044
Mof_C 	C 	0.9062	0.0899	0.6514	-0.007
Mof_C 	C 	0.8902	0.0265	0.6338	-0.012
Mof_H 	H 	0.9059	0.991	0.6508	0.049
Mof_C 	C 	0.816	0.1916	0.5626	0.458
Mof_C 	C 	0.9462	0.0958	0.6968	-0.019
Mof_C 	C 	0.9802	0.098	0.7279	-0.013
Mof_Er	Er	0.22341	0.675	0.44234	1.794
Mof_Er	Er	0.31801	0.32999	0.53745	1.694
Mof_O 	O 	0.2209	0.5697	0.4832	-0.44
Mof_O 	O 	0.1603	0.6026	0.4292	-0.419
Mof_O 	O 	0.2418	0.34	0.5338	-0.53
Mof_O 	O 	0.1909	0.2717	0.4977	-0.564
Mof_O 	O 	0.87147	0.223	0.1184	-0.399
Mof_O 	O 	0.80297	0.2096	0.1482	-0.405
Mof_O 	O 	0.81103	0.3075	0.4551	-0.477
Mof_O 	O 	0.76856	0.2432	0.3884	-0.541
Mof_O 	O 	0.3528	0.4089	0.6085	-0.434
Mof_O 	O 	0.3092	0.4439	0.5262	-0.437
Mof_O 	O 	0.2834	0.6845	0.5193	-0.542
Mof_O 	O 	0.3283	0.7442	0.5878	-0.475
Mof_C 	C 	0.1828	0.5585	0.4569	0.348
Mof_C 	C 	0.1663	0.4915	0.4534	-0.113
Mof_C 	C 	0.1234	0.4781	0.4226	-0.006
Mof_H 	H 	0.1056	0.5111	0.4042	0.049
Mof_C 	C 	0.1074	0.4169	0.4192	-0.019
Mof_C 	C 	0.1352	0.3671	0.447	0.039
Mof_H 	H 	0.1247	0.3255	0.4453	0.024
Mof_C 	C 	0.1769	0.3797	0.4761	-0.195
Mof_C 	C 	0.1922	0.4416	0.4817	0.077
Mof_H 	H 	0.22	0.45	0.5044	0.026
Mof_C 	C 	0.2054	0.326	0.505	0.549
Mof_C 	C 	0.064	0.4017	0.3887	-0.006
Mof_C 	C 	0.0271	0.3858	0.3669	-0.01
Mof_C 	C 	0.9859	0.3652	0.3414	-0.002
Mof_C 	C 	0.9499	0.3441	0.3232	-0.013
Mof_C 	C 	0.9065	0.3146	0.3077	-0.001
Mof_C 	C 	0.8955	0.2884	0.2426	-0.02
Mof_H 	H 	0.9153	0.2913	0.2079	0.056
Mof_C 	C 	0.8544	0.258	0.2307	-0.093
Mof_C 	C 	0.8251	0.2551	0.2818	0.058
Mof_H 	H 	0.7984	0.2329	0.2732	0.02
Mof_C 	C 	0.8336	0.2843	0.347	-0.162
Mof_C 	C 	0.8768	0.3129	0.3582	0.009
Mof_H 	H 	0.885	0.3308	0.401	0.046
Mof_C 	C 	0.8421	0.2285	0.1616	0.33
Mof_C 	C 	0.8016	0.2788	0.3998	0.498
Mof_C 	C 	0.3369	0.4544	0.5747	0.357
Mof_C 	C 	0.3526	0.5194	0.5928	-0.109
Mof_C 	C 	0.3275	0.5729	0.5687	0.049
Mof_H 	H 	0.3011	0.5674	0.5411	0.028
Mof_C 	C 	0.3425	0.6341	0.5867	-0.139
Mof_C 	C 	0.3813	0.6431	0.6274	-0.001
Mof_H 	H 	0.391	0.6839	0.6391	0.044
Mof_C 	C 	0.4062	0.5899	0.6514	-0.006
Mof_C 	C 	0.3902	0.5265	0.6338	-0.013
Mof_H 	H 	0.4059	0.491	0.6508	0.049
Mof_C 	C 	0.316	0.6916	0.5626	0.458
Mof_C 	C 	0.4462	0.5958	0.6968	-0.019
Mof_C 	C 	0.4802	0.598	0.7279	-0.013
Mof_Er	Er	0.72341	0.825	0.94234	1.793
Mof_Er	Er	0.81801	0.17001	0.03745	1.694
Mof_O 	O 	0.7209	0.9303	0.9832	-0.441
Mof_O 	O 	0.6603	0.8974	0.9292	-0.42
Mof_O 	O 	0.7418	0.16	0.0338	-0.53
Mof_O 	O 	0.6909	0.2283	0.9977	-0.562
Mof_O 	O 	0.37147	0.277	0.6184	-0.399
Mof_O 	O 	0.30297	0.2904	0.6482	-0.405
Mof_O 	O 	0.31103	0.1925	0.9551	-0.477
Mof_O 	O 	0.26856	0.2568	0.8884	-0.541
Mof_O 	O 	0.8528	0.0911	0.1085	-0.434
Mof_O 	O 	0.8092	0.0561	0.0262	-0.437
Mof_O 	O 	0.7834	0.8155	0.0193	-0.542
Mof_O 	O 	0.8283	0.7558	0.0878	-0.475
Mof_C 	C 	0.6828	0.9415	0.9569	0.348
Mof_C 	C 	0.6663	0.0085	0.9534	-0.114
Mof_C 	C 	0.6234	0.0219	0.9226	-0.003
Mof_H 	H 	0.6056	0.9889	0.9042	0.047
Mof_C 	C 	0.6074	0.0831	0.9192	-0.02
Mof_C 	C 	0.6352	0.1329	0.947	0.04
Mof_H 	H 	0.6247	0.1745	0.9453	0.024
Mof_C 	C 	0.6769	0.1203	0.9761	-0.195
Mof_C 	C 	0.6922	0.0584	0.9817	0.08
Mof_H 	H 	0.72	0.05	0.0044	0.024
Mof_C 	C 	0.7054	0.174	0.005	0.548
Mof_C 	C 	0.564	0.0983	0.8887	-0.005
Mof_C 	C 	0.5271	0.1142	0.8669	-0.01
Mof_C 	C 	0.4859	0.1348	0.8414	-0.001
Mof_C 	C 	0.4499	0.1559	0.8232	-0.014
Mof_C 	C 	0.4065	0.1854	0.8077	-0
Mof_C 	C 	0.3955	0.2116	0.7426	-0.02
Mof_H 	H 	0.4153	0.2087	0.7079	0.056
Mof_C 	C 	0.3544	0.242	0.7307	-0.092
Mof_C 	C 	0.3251	0.2449	0.7818	0.058
Mof_H 	H 	0.2984	0.2671	0.7732	0.02
Mof_C 	C 	0.3336	0.2157	0.847	-0.162
Mof_C 	C 	0.3768	0.1871	0.8582	0.009
Mof_H 	H 	0.385	0.1692	0.901	0.046
Mof_C 	C 	0.3421	0.2715	0.6616	0.33
Mof_C 	C 	0.3016	0.2212	0.8998	0.498
Mof_C 	C 	0.8369	0.0456	0.0747	0.356
Mof_C 	C 	0.8526	0.9806	0.0928	-0.108
Mof_C 	C 	0.8275	0.9271	0.0687	0.049
Mof_H 	H 	0.8011	0.9326	0.0411	0.028
Mof_C 	C 	0.8425	0.8659	0.0867	-0.139
Mof_C 	C 	0.8813	0.8569	0.1274	-0.001
Mof_H 	H 	0.891	0.8161	0.1391	0.044
Mof_C 	C 	0.9062	0.9101	0.1514	-0.007
Mof_C 	C 	0.8902	0.9735	0.1338	-0.012
Mof_H 	H 	0.9059	0.009	0.1508	0.048
Mof_C 	C 	0.816	0.8084	0.0626	0.458
Mof_C 	C 	0.9462	0.9042	0.1968	-0.019
Mof_C 	C 	0.9802	0.902	0.2279	-0.013
Mof_Er	Er	0.22341	0.325	0.94234	1.795
Mof_Er	Er	0.31801	0.67001	0.03745	1.695
Mof_O 	O 	0.2209	0.4303	0.9832	-0.44
Mof_O 	O 	0.1603	0.3974	0.9292	-0.419
Mof_O 	O 	0.2418	0.66	0.0338	-0.53
Mof_O 	O 	0.1909	0.7283	0.9977	-0.564
Mof_O 	O 	0.87147	0.777	0.6184	-0.399
Mof_O 	O 	0.80297	0.7904	0.6482	-0.405
Mof_O 	O 	0.81103	0.6925	0.9551	-0.478
Mof_O 	O 	0.76856	0.7568	0.8884	-0.541
Mof_O 	O 	0.3528	0.5911	0.1085	-0.434
Mof_O 	O 	0.3092	0.5561	0.0262	-0.437
Mof_O 	O 	0.2834	0.3155	0.0193	-0.543
Mof_O 	O 	0.3283	0.2558	0.0878	-0.475
Mof_C 	C 	0.1828	0.4415	0.9569	0.348
Mof_C 	C 	0.1663	0.5085	0.9534	-0.113
Mof_C 	C 	0.1234	0.5219	0.9226	-0.006
Mof_H 	H 	0.1056	0.4889	0.9042	0.049
Mof_C 	C 	0.1074	0.5831	0.9192	-0.019
Mof_C 	C 	0.1352	0.6329	0.947	0.04
Mof_H 	H 	0.1247	0.6745	0.9453	0.024
Mof_C 	C 	0.1769	0.6203	0.9761	-0.196
Mof_C 	C 	0.1922	0.5584	0.9817	0.078
Mof_H 	H 	0.22	0.55	0.0044	0.026
Mof_C 	C 	0.2054	0.674	0.005	0.551
Mof_C 	C 	0.064	0.5983	0.8887	-0.006
Mof_C 	C 	0.0271	0.6142	0.8669	-0.01
Mof_C 	C 	0.9859	0.6348	0.8414	-0.002
Mof_C 	C 	0.9499	0.6559	0.8232	-0.013
Mof_C 	C 	0.9065	0.6854	0.8077	-0.001
Mof_C 	C 	0.8955	0.7116	0.7426	-0.02
Mof_H 	H 	0.9153	0.7087	0.7079	0.056
Mof_C 	C 	0.8544	0.742	0.7307	-0.092
Mof_C 	C 	0.8251	0.7449	0.7818	0.058
Mof_H 	H 	0.7984	0.7671	0.7732	0.02
Mof_C 	C 	0.8336	0.7157	0.847	-0.162
Mof_C 	C 	0.8768	0.6871	0.8582	0.009
Mof_H 	H 	0.885	0.6692	0.901	0.046
Mof_C 	C 	0.8421	0.7715	0.6616	0.33
Mof_C 	C 	0.8016	0.7212	0.8998	0.498
Mof_C 	C 	0.3369	0.5456	0.0747	0.357
Mof_C 	C 	0.3526	0.4806	0.0928	-0.109
Mof_C 	C 	0.3275	0.4271	0.0687	0.049
Mof_H 	H 	0.3011	0.4326	0.0411	0.028
Mof_C 	C 	0.3425	0.3659	0.0867	-0.139
Mof_C 	C 	0.3813	0.3569	0.1274	-0.001
Mof_H 	H 	0.391	0.3161	0.1391	0.044
Mof_C 	C 	0.4062	0.4101	0.1514	-0.006
Mof_C 	C 	0.3902	0.4735	0.1338	-0.013
Mof_H 	H 	0.4059	0.509	0.1508	0.049
Mof_C 	C 	0.316	0.3084	0.0626	0.458
Mof_C 	C 	0.4462	0.4042	0.1968	-0.019
Mof_C 	C 	0.4802	0.402	0.2279	-0.013
Mof_Er	Er	0.27659	0.825	0.55766	1.794
Mof_Er	Er	0.18199	0.17001	0.46255	1.694
Mof_O 	O 	0.2791	0.9303	0.5168	-0.44
Mof_O 	O 	0.3397	0.8974	0.5708	-0.42
Mof_O 	O 	0.2582	0.16	0.4662	-0.53
Mof_O 	O 	0.3091	0.2283	0.5023	-0.564
Mof_O 	O 	0.62853	0.277	0.8816	-0.399
Mof_O 	O 	0.69703	0.2904	0.8518	-0.405
Mof_O 	O 	0.68897	0.1925	0.5449	-0.477
Mof_O 	O 	0.73144	0.2568	0.6116	-0.541
Mof_O 	O 	0.1472	0.0911	0.3915	-0.434
Mof_O 	O 	0.1908	0.0561	0.4738	-0.437
Mof_O 	O 	0.2166	0.8155	0.4807	-0.542
Mof_O 	O 	0.1717	0.7558	0.4122	-0.475
Mof_C 	C 	0.3172	0.9415	0.5431	0.348
Mof_C 	C 	0.3337	0.0085	0.5466	-0.113
Mof_C 	C 	0.3766	0.0219	0.5774	-0.005
Mof_H 	H 	0.3944	0.9889	0.5958	0.049
Mof_C 	C 	0.3926	0.0831	0.5808	-0.02
Mof_C 	C 	0.3648	0.1329	0.553	0.04
Mof_H 	H 	0.3753	0.1745	0.5547	0.024
Mof_C 	C 	0.3231	0.1203	0.5239	-0.195
Mof_C 	C 	0.3078	0.0584	0.5183	0.078
Mof_H 	H 	0.28	0.05	0.4956	0.026
Mof_C 	C 	0.2946	0.174	0.495	0.549
Mof_C 	C 	0.436	0.0983	0.6113	-0.006
Mof_C 	C 	0.4729	0.1142	0.6331	-0.01
Mof_C 	C 	0.5141	0.1348	0.6586	-0.002
Mof_C 	C 	0.5501	0.1559	0.6768	-0.013
Mof_C 	C 	0.5935	0.1854	0.6923	-0.001
Mof_C 	C 	0.6045	0.2116	0.7574	-0.02
Mof_H 	H 	0.5847	0.2087	0.7921	0.056
Mof_C 	C 	0.6456	0.242	0.7693	-0.092
Mof_C 	C 	0.6749	0.2449	0.7182	0.058
Mof_H 	H 	0.7016	0.2671	0.7268	0.02
Mof_C 	C 	0.6664	0.2157	0.653	-0.162
Mof_C 	C 	0.6232	0.1871	0.6418	0.009
Mof_H 	H 	0.615	0.1692	0.599	0.046
Mof_C 	C 	0.6579	0.2715	0.8384	0.33
Mof_C 	C 	0.6984	0.2212	0.6002	0.498
Mof_C 	C 	0.1631	0.0456	0.4253	0.357
Mof_C 	C 	0.1474	0.9806	0.4072	-0.109
Mof_C 	C 	0.1725	0.9271	0.4313	0.049
Mof_H 	H 	0.1989	0.9326	0.4589	0.028
Mof_C 	C 	0.1575	0.8659	0.4133	-0.139
Mof_C 	C 	0.1187	0.8569	0.3726	-0.001
Mof_H 	H 	0.109	0.8161	0.3609	0.044
Mof_C 	C 	0.0938	0.9101	0.3486	-0.007
Mof_C 	C 	0.1098	0.9735	0.3662	-0.012
Mof_H 	H 	0.0941	0.009	0.3492	0.049
Mof_C 	C 	0.184	0.8084	0.4374	0.458
Mof_C 	C 	0.0538	0.9042	0.3032	-0.019
Mof_C 	C 	0.0198	0.902	0.2721	-0.013
Mof_Er	Er	0.77659	0.325	0.55766	1.794
Mof_Er	Er	0.68199	0.67001	0.46255	1.694
Mof_O 	O 	0.7791	0.4303	0.5168	-0.44
Mof_O 	O 	0.8397	0.3974	0.5708	-0.419
Mof_O 	O 	0.7582	0.66	0.4662	-0.53
Mof_O 	O 	0.8091	0.7283	0.5023	-0.564
Mof_O 	O 	0.12853	0.777	0.8816	-0.399
Mof_O 	O 	0.19703	0.7904	0.8518	-0.405
Mof_O 	O 	0.18897	0.6925	0.5449	-0.477
Mof_O 	O 	0.23144	0.7568	0.6116	-0.541
Mof_O 	O 	0.6472	0.5911	0.3915	-0.434
Mof_O 	O 	0.6908	0.5561	0.4738	-0.437
Mof_O 	O 	0.7166	0.3155	0.4807	-0.542
Mof_O 	O 	0.6717	0.2558	0.4122	-0.475
Mof_C 	C 	0.8172	0.4415	0.5431	0.348
Mof_C 	C 	0.8337	0.5085	0.5466	-0.113
Mof_C 	C 	0.8766	0.5219	0.5774	-0.006
Mof_H 	H 	0.8944	0.4889	0.5958	0.049
Mof_C 	C 	0.8926	0.5831	0.5808	-0.019
Mof_C 	C 	0.8648	0.6329	0.553	0.039
Mof_H 	H 	0.8753	0.6745	0.5547	0.024
Mof_C 	C 	0.8231	0.6203	0.5239	-0.195
Mof_C 	C 	0.8078	0.5584	0.5183	0.077
Mof_H 	H 	0.78	0.55	0.4956	0.026
Mof_C 	C 	0.7946	0.674	0.495	0.549
Mof_C 	C 	0.936	0.5983	0.6113	-0.006
Mof_C 	C 	0.9729	0.6142	0.6331	-0.01
Mof_C 	C 	0.0141	0.6348	0.6586	-0.002
Mof_C 	C 	0.0501	0.6559	0.6768	-0.013
Mof_C 	C 	0.0935	0.6854	0.6923	-0.001
Mof_C 	C 	0.1045	0.7116	0.7574	-0.02
Mof_H 	H 	0.0847	0.7087	0.7921	0.056
Mof_C 	C 	0.1456	0.742	0.7693	-0.093
Mof_C 	C 	0.1749	0.7449	0.7182	0.058
Mof_H 	H 	0.2016	0.7671	0.7268	0.02
Mof_C 	C 	0.1664	0.7157	0.653	-0.162
Mof_C 	C 	0.1232	0.6871	0.6418	0.009
Mof_H 	H 	0.115	0.6692	0.599	0.046
Mof_C 	C 	0.1579	0.7715	0.8384	0.33
Mof_C 	C 	0.1984	0.7212	0.6002	0.498
Mof_C 	C 	0.6631	0.5456	0.4253	0.357
Mof_C 	C 	0.6474	0.4806	0.4072	-0.109
Mof_C 	C 	0.6725	0.4271	0.4313	0.049
Mof_H 	H 	0.6989	0.4326	0.4589	0.028
Mof_C 	C 	0.6575	0.3659	0.4133	-0.139
Mof_C 	C 	0.6187	0.3569	0.3726	-0.001
Mof_H 	H 	0.609	0.3161	0.3609	0.044
Mof_C 	C 	0.5938	0.4101	0.3486	-0.006
Mof_C 	C 	0.6098	0.4735	0.3662	-0.013
Mof_H 	H 	0.5941	0.509	0.3492	0.049
Mof_C 	C 	0.684	0.3084	0.4374	0.458
Mof_C 	C 	0.5538	0.4042	0.3032	-0.019
Mof_C 	C 	0.5198	0.402	0.2721	-0.013
_end
