# CIF file generated by openbabel 3.1.0, see https://openbabel.org
data_I
_chemical_name_common 'image0'
_cell_length_a 26.522
_cell_length_b 26.522
_cell_length_c 4.9344
_cell_angle_alpha 90
_cell_angle_beta 90
_cell_angle_gamma 90
_space_group_name_H-M_alt 'P 1'
_space_group_name_Hall 'P 1'
loop_
    _symmetry_equiv_pos_as_xyz
    x,y,z
loop_
    _atom_site_label
    _atom_site_type_symbol
    _atom_site_fract_x
    _atom_site_fract_y
    _atom_site_fract_z
    _atom_site_occupancy
    Zn1      Zn       0.27369    0.21377    0.89560    1.000
    O1       O        0.21820    0.25020    0.06000    1.000
    H1       H        0.19710    0.26140    0.94550    1.000
    N1       N        0.25210    0.14400    0.88000    1.000
    C1       C        0.26790    0.10660    0.03000    1.000
    H2       H        0.29400    0.10980    0.15410    1.000
    N2       N        0.24290    0.06260    0.98700    1.000
    C2       C        0.21300    0.12250    0.72900    1.000
    O2       O        0.27430    0.83640    0.39900    1.000
    C3       C        0.18230    0.14460    0.53600    1.000
    H3       H        0.18620    0.17840    0.49080    1.000
    O3       O        0.31140    0.86310    0.70800    1.000
    C4       C        0.14590    0.11550    0.41000    1.000
    C5       C        0.11530    0.13760    0.21700    1.000
    H4       H        0.12000    0.17150    0.17670    1.000
    C6       C        0.07790    0.11130    0.08200    1.000
    H5       H        0.05770    0.12700    0.95330    1.000
    C7       C        0.07170    0.06090    0.14600    1.000
    H6       H        0.04710    0.04190    0.05850    1.000
    C8       C        0.10220    0.03880    0.33900    1.000
    H7       H        0.09740    0.00500    0.38040    1.000
    C9       C        0.13960    0.06510    0.47400    1.000
    C10      C        0.17010    0.04270    0.66700    1.000
    H8       H        0.16630    0.00880    0.71130    1.000
    C11      C        0.20650    0.07200    0.79100    1.000
    C12      C        0.25710    0.01410    0.10200    1.000
    C13      C        0.28490    0.92580    0.33400    1.000
    C14      C        0.27990    0.01390    0.35400    1.000
    H9       H        0.28570    0.04430    0.44250    1.000
    C15      C        0.29430    0.96950    0.47500    1.000
    H10      H        0.30980    0.96900    0.64440    1.000
    C16      C        0.26250    0.92400    0.08400    1.000
    H11      H        0.25690    0.89350    0.99580    1.000
    C17      C        0.24860    0.96920    0.97100    1.000
    H12      H        0.23320    0.96950    0.80140    1.000
    C18      C        0.29180    0.87550    0.47400    1.000
    O4       O        0.33920    0.87820    0.55000    1.000
    C19      C        0.30710    0.00540    0.15700    1.000
    H13      H        0.33080    0.03000    0.11350    1.000
    C20      C        0.32290    0.96050    0.27600    1.000
    H14      H        0.35660    0.95410    0.31420    1.000
    C21      C        0.23330    0.93060    0.28700    1.000
    H15      H        0.20950    0.90610    0.32980    1.000
    C22      C        0.22200    0.97690    0.16800    1.000
    H16      H        0.18830    0.98360    0.12980    1.000
    Zn2      Zn       0.77369    0.71377    0.39560    1.000
    O5       O        0.71820    0.75020    0.56000    1.000
    H17      H        0.69710    0.76140    0.44550    1.000
    N3       N        0.75210    0.64400    0.38000    1.000
    C23      C        0.76790    0.60660    0.53000    1.000
    H18      H        0.79400    0.60980    0.65410    1.000
    N4       N        0.74290    0.56260    0.48700    1.000
    C24      C        0.71300    0.62250    0.22900    1.000
    O6       O        0.77430    0.33640    0.89900    1.000
    C25      C        0.68230    0.64460    0.03600    1.000
    H19      H        0.68620    0.67840    0.99080    1.000
    O7       O        0.81140    0.36310    0.20800    1.000
    C26      C        0.64590    0.61550    0.91000    1.000
    C27      C        0.61530    0.63760    0.71700    1.000
    H20      H        0.62000    0.67150    0.67670    1.000
    C28      C        0.57790    0.61130    0.58200    1.000
    H21      H        0.55770    0.62700    0.45330    1.000
    C29      C        0.57170    0.56090    0.64600    1.000
    H22      H        0.54710    0.54190    0.55850    1.000
    C30      C        0.60220    0.53880    0.83900    1.000
    H23      H        0.59740    0.50500    0.88040    1.000
    C31      C        0.63960    0.56510    0.97400    1.000
    C32      C        0.67010    0.54270    0.16700    1.000
    H24      H        0.66630    0.50880    0.21130    1.000
    C33      C        0.70650    0.57200    0.29100    1.000
    C34      C        0.75710    0.51410    0.60200    1.000
    C35      C        0.78490    0.42580    0.83400    1.000
    C36      C        0.77990    0.51390    0.85400    1.000
    H25      H        0.78570    0.54430    0.94250    1.000
    C37      C        0.79430    0.46950    0.97500    1.000
    H26      H        0.80980    0.46900    0.14440    1.000
    C38      C        0.76250    0.42400    0.58400    1.000
    H27      H        0.75690    0.39350    0.49580    1.000
    C39      C        0.74860    0.46920    0.47100    1.000
    H28      H        0.73320    0.46950    0.30140    1.000
    C40      C        0.79180    0.37550    0.97400    1.000
    O8       O        0.83920    0.37820    0.05000    1.000
    C41      C        0.80710    0.50540    0.65700    1.000
    H29      H        0.83080    0.53000    0.61350    1.000
    C42      C        0.82290    0.46050    0.77600    1.000
    H30      H        0.85660    0.45410    0.81420    1.000
    C43      C        0.73330    0.43060    0.78700    1.000
    H31      H        0.70950    0.40610    0.82980    1.000
    C44      C        0.72200    0.47690    0.66800    1.000
    H32      H        0.68830    0.48360    0.62980    1.000
    Zn3      Zn       0.72631    0.78623    0.89560    1.000
    O9       O        0.78180    0.74980    0.06000    1.000
    H33      H        0.80290    0.73860    0.94550    1.000
    N5       N        0.74790    0.85600    0.88000    1.000
    C45      C        0.73210    0.89340    0.03000    1.000
    H34      H        0.70600    0.89020    0.15410    1.000
    N6       N        0.75710    0.93740    0.98700    1.000
    C46      C        0.78700    0.87750    0.72900    1.000
    O10      O        0.72570    0.16360    0.39900    1.000
    C47      C        0.81770    0.85540    0.53600    1.000
    H35      H        0.81380    0.82160    0.49080    1.000
    O11      O        0.68860    0.13690    0.70800    1.000
    C48      C        0.85410    0.88450    0.41000    1.000
    C49      C        0.88470    0.86240    0.21700    1.000
    H36      H        0.88000    0.82850    0.17670    1.000
    C50      C        0.92210    0.88870    0.08200    1.000
    H37      H        0.94230    0.87300    0.95330    1.000
    C51      C        0.92830    0.93910    0.14600    1.000
    H38      H        0.95290    0.95810    0.05850    1.000
    C52      C        0.89780    0.96120    0.33900    1.000
    H39      H        0.90260    0.99500    0.38040    1.000
    C53      C        0.86040    0.93490    0.47400    1.000
    C54      C        0.82990    0.95730    0.66700    1.000
    H40      H        0.83370    0.99120    0.71130    1.000
    C55      C        0.79350    0.92800    0.79100    1.000
    C56      C        0.74290    0.98590    0.10200    1.000
    C57      C        0.71510    0.07420    0.33400    1.000
    C58      C        0.72010    0.98610    0.35400    1.000
    H41      H        0.71430    0.95570    0.44250    1.000
    C59      C        0.70570    0.03050    0.47500    1.000
    H42      H        0.69020    0.03100    0.64440    1.000
    C60      C        0.73750    0.07600    0.08400    1.000
    H43      H        0.74310    0.10650    0.99580    1.000
    C61      C        0.75140    0.03080    0.97100    1.000
    H44      H        0.76680    0.03050    0.80140    1.000
    C62      C        0.70820    0.12450    0.47400    1.000
    O12      O        0.66080    0.12180    0.55000    1.000
    C63      C        0.69290    0.99460    0.15700    1.000
    H45      H        0.66920    0.97000    0.11350    1.000
    C64      C        0.67710    0.03950    0.27600    1.000
    H46      H        0.64340    0.04590    0.31420    1.000
    C65      C        0.76670    0.06940    0.28700    1.000
    H47      H        0.79050    0.09390    0.32980    1.000
    C66      C        0.77800    0.02310    0.16800    1.000
    H48      H        0.81170    0.01640    0.12980    1.000
    Zn4      Zn       0.22631    0.28623    0.39560    1.000
    O13      O        0.28180    0.24980    0.56000    1.000
    H49      H        0.30290    0.23860    0.44550    1.000
    N7       N        0.24790    0.35600    0.38000    1.000
    C67      C        0.23210    0.39340    0.53000    1.000
    H50      H        0.20600    0.39020    0.65410    1.000
    N8       N        0.25710    0.43740    0.48700    1.000
    C68      C        0.28700    0.37750    0.22900    1.000
    O14      O        0.22570    0.66360    0.89900    1.000
    C69      C        0.31770    0.35540    0.03600    1.000
    H51      H        0.31380    0.32160    0.99080    1.000
    O15      O        0.18860    0.63690    0.20800    1.000
    C70      C        0.35410    0.38450    0.91000    1.000
    C71      C        0.38470    0.36240    0.71700    1.000
    H52      H        0.38000    0.32850    0.67670    1.000
    C72      C        0.42210    0.38870    0.58200    1.000
    H53      H        0.44230    0.37300    0.45330    1.000
    C73      C        0.42830    0.43910    0.64600    1.000
    H54      H        0.45290    0.45810    0.55850    1.000
    C74      C        0.39780    0.46120    0.83900    1.000
    H55      H        0.40260    0.49500    0.88040    1.000
    C75      C        0.36040    0.43490    0.97400    1.000
    C76      C        0.32990    0.45730    0.16700    1.000
    H56      H        0.33370    0.49120    0.21130    1.000
    C77      C        0.29350    0.42800    0.29100    1.000
    C78      C        0.24290    0.48590    0.60200    1.000
    C79      C        0.21510    0.57420    0.83400    1.000
    C80      C        0.22010    0.48610    0.85400    1.000
    H57      H        0.21430    0.45570    0.94250    1.000
    C81      C        0.20570    0.53050    0.97500    1.000
    H58      H        0.19020    0.53100    0.14440    1.000
    C82      C        0.23750    0.57600    0.58400    1.000
    H59      H        0.24310    0.60650    0.49580    1.000
    C83      C        0.25140    0.53080    0.47100    1.000
    H60      H        0.26680    0.53050    0.30140    1.000
    C84      C        0.20820    0.62450    0.97400    1.000
    O16      O        0.16080    0.62180    0.05000    1.000
    C85      C        0.19290    0.49460    0.65700    1.000
    H61      H        0.16920    0.47000    0.61350    1.000
    C86      C        0.17710    0.53950    0.77600    1.000
    H62      H        0.14340    0.54590    0.81420    1.000
    C87      C        0.26670    0.56940    0.78700    1.000
    H63      H        0.29050    0.59390    0.82980    1.000
    C88      C        0.27800    0.52310    0.66800    1.000
    H64      H        0.31170    0.51640    0.62980    1.000
    Zn5      Zn       0.21377    0.72631    0.10440    1.000
    O17      O        0.25020    0.78180    0.94000    1.000
    H65      H        0.26140    0.80290    0.05450    1.000
    N9       N        0.14400    0.74790    0.12000    1.000
    C89      C        0.10660    0.73210    0.97000    1.000
    H66      H        0.10980    0.70600    0.84590    1.000
    N10      N        0.06260    0.75710    0.01300    1.000
    C90      C        0.12250    0.78700    0.27100    1.000
    O18      O        0.83640    0.72570    0.60100    1.000
    C91      C        0.14460    0.81770    0.46400    1.000
    H67      H        0.17840    0.81380    0.50920    1.000
    O19      O        0.86310    0.68860    0.29200    1.000
    C92      C        0.11550    0.85410    0.59000    1.000
    C93      C        0.13760    0.88470    0.78300    1.000
    H68      H        0.17150    0.88000    0.82330    1.000
    C94      C        0.11130    0.92210    0.91800    1.000
    H69      H        0.12700    0.94230    0.04670    1.000
    C95      C        0.06090    0.92830    0.85400    1.000
    H70      H        0.04190    0.95290    0.94150    1.000
    C96      C        0.03880    0.89780    0.66100    1.000
    H71      H        0.00500    0.90260    0.61960    1.000
    C97      C        0.06510    0.86040    0.52600    1.000
    C98      C        0.04270    0.82990    0.33300    1.000
    H72      H        0.00880    0.83370    0.28870    1.000
    C99      C        0.07200    0.79350    0.20900    1.000
    C100     C        0.01410    0.74290    0.89800    1.000
    C101     C        0.92580    0.71510    0.66600    1.000
    C102     C        0.01390    0.72010    0.64600    1.000
    H73      H        0.04430    0.71430    0.55750    1.000
    C103     C        0.96950    0.70570    0.52500    1.000
    H74      H        0.96900    0.69020    0.35560    1.000
    C104     C        0.92400    0.73750    0.91600    1.000
    H75      H        0.89350    0.74310    0.00420    1.000
    C105     C        0.96920    0.75140    0.02900    1.000
    H76      H        0.96950    0.76680    0.19860    1.000
    C106     C        0.87550    0.70820    0.52600    1.000
    O20      O        0.87820    0.66080    0.45000    1.000
    C107     C        0.00540    0.69290    0.84300    1.000
    H77      H        0.03000    0.66920    0.88650    1.000
    C108     C        0.96050    0.67710    0.72400    1.000
    H78      H        0.95410    0.64340    0.68580    1.000
    C109     C        0.93060    0.76670    0.71300    1.000
    H79      H        0.90610    0.79050    0.67020    1.000
    C110     C        0.97690    0.77800    0.83200    1.000
    H80      H        0.98360    0.81170    0.87020    1.000
    Zn6      Zn       0.71377    0.22631    0.60440    1.000
    O21      O        0.75020    0.28180    0.44000    1.000
    H81      H        0.76140    0.30290    0.55450    1.000
    N11      N        0.64400    0.24790    0.62000    1.000
    C111     C        0.60660    0.23210    0.47000    1.000
    H82      H        0.60980    0.20600    0.34590    1.000
    N12      N        0.56260    0.25710    0.51300    1.000
    C112     C        0.62250    0.28700    0.77100    1.000
    O22      O        0.33640    0.22570    0.10100    1.000
    C113     C        0.64460    0.31770    0.96400    1.000
    H83      H        0.67840    0.31380    0.00920    1.000
    O23      O        0.36310    0.18860    0.79200    1.000
    C114     C        0.61550    0.35410    0.09000    1.000
    C115     C        0.63760    0.38470    0.28300    1.000
    H84      H        0.67150    0.38000    0.32330    1.000
    C116     C        0.61130    0.42210    0.41800    1.000
    H85      H        0.62700    0.44230    0.54670    1.000
    C117     C        0.56090    0.42830    0.35400    1.000
    H86      H        0.54190    0.45290    0.44150    1.000
    C118     C        0.53880    0.39780    0.16100    1.000
    H87      H        0.50500    0.40260    0.11960    1.000
    C119     C        0.56510    0.36040    0.02600    1.000
    C120     C        0.54270    0.32990    0.83300    1.000
    H88      H        0.50880    0.33370    0.78870    1.000
    C121     C        0.57200    0.29350    0.70900    1.000
    C122     C        0.51410    0.24290    0.39800    1.000
    C123     C        0.42580    0.21510    0.16600    1.000
    C124     C        0.51390    0.22010    0.14600    1.000
    H89      H        0.54430    0.21430    0.05750    1.000
    C125     C        0.46950    0.20570    0.02500    1.000
    H90      H        0.46900    0.19020    0.85560    1.000
    C126     C        0.42400    0.23750    0.41600    1.000
    H91      H        0.39350    0.24310    0.50420    1.000
    C127     C        0.46920    0.25140    0.52900    1.000
    H92      H        0.46950    0.26680    0.69860    1.000
    C128     C        0.37550    0.20820    0.02600    1.000
    O24      O        0.37820    0.16080    0.95000    1.000
    C129     C        0.50540    0.19290    0.34300    1.000
    H93      H        0.53000    0.16920    0.38650    1.000
    C130     C        0.46050    0.17710    0.22400    1.000
    H94      H        0.45410    0.14340    0.18580    1.000
    C131     C        0.43060    0.26670    0.21300    1.000
    H95      H        0.40610    0.29050    0.17020    1.000
    C132     C        0.47690    0.27800    0.33200    1.000
    H96      H        0.48360    0.31170    0.37020    1.000
    Zn7      Zn       0.78623    0.27369    0.10440    1.000
    O25      O        0.74980    0.21820    0.94000    1.000
    H97      H        0.73860    0.19710    0.05450    1.000
    N13      N        0.85600    0.25210    0.12000    1.000
    C133     C        0.89340    0.26790    0.97000    1.000
    H98      H        0.89020    0.29400    0.84590    1.000
    N14      N        0.93740    0.24290    0.01300    1.000
    C134     C        0.87750    0.21300    0.27100    1.000
    O26      O        0.16360    0.27430    0.60100    1.000
    C135     C        0.85540    0.18230    0.46400    1.000
    H99      H        0.82160    0.18620    0.50920    1.000
    O27      O        0.13690    0.31140    0.29200    1.000
    C136     C        0.88450    0.14590    0.59000    1.000
    C137     C        0.86240    0.11530    0.78300    1.000
    H100     H        0.82850    0.12000    0.82330    1.000
    C138     C        0.88870    0.07790    0.91800    1.000
    H101     H        0.87300    0.05770    0.04670    1.000
    C139     C        0.93910    0.07170    0.85400    1.000
    H102     H        0.95810    0.04710    0.94150    1.000
    C140     C        0.96120    0.10220    0.66100    1.000
    H103     H        0.99500    0.09740    0.61960    1.000
    C141     C        0.93490    0.13960    0.52600    1.000
    C142     C        0.95730    0.17010    0.33300    1.000
    H104     H        0.99120    0.16630    0.28870    1.000
    C143     C        0.92800    0.20650    0.20900    1.000
    C144     C        0.98590    0.25710    0.89800    1.000
    C145     C        0.07420    0.28490    0.66600    1.000
    C146     C        0.98610    0.27990    0.64600    1.000
    H105     H        0.95570    0.28570    0.55750    1.000
    C147     C        0.03050    0.29430    0.52500    1.000
    H106     H        0.03100    0.30980    0.35560    1.000
    C148     C        0.07600    0.26250    0.91600    1.000
    H107     H        0.10650    0.25690    0.00420    1.000
    C149     C        0.03080    0.24860    0.02900    1.000
    H108     H        0.03050    0.23320    0.19860    1.000
    C150     C        0.12450    0.29180    0.52600    1.000
    O28      O        0.12180    0.33920    0.45000    1.000
    C151     C        0.99460    0.30710    0.84300    1.000
    H109     H        0.97000    0.33080    0.88650    1.000
    C152     C        0.03950    0.32290    0.72400    1.000
    H110     H        0.04590    0.35660    0.68580    1.000
    C153     C        0.06940    0.23330    0.71300    1.000
    H111     H        0.09390    0.20950    0.67020    1.000
    C154     C        0.02310    0.22200    0.83200    1.000
    H112     H        0.01640    0.18830    0.87020    1.000
    Zn8      Zn       0.28623    0.77369    0.60440    1.000
    O29      O        0.24980    0.71820    0.44000    1.000
    H113     H        0.23860    0.69710    0.55450    1.000
    N15      N        0.35600    0.75210    0.62000    1.000
    C155     C        0.39340    0.76790    0.47000    1.000
    H114     H        0.39020    0.79400    0.34590    1.000
    N16      N        0.43740    0.74290    0.51300    1.000
    C156     C        0.37750    0.71300    0.77100    1.000
    O30      O        0.66360    0.77430    0.10100    1.000
    C157     C        0.35540    0.68230    0.96400    1.000
    H115     H        0.32160    0.68620    0.00920    1.000
    O31      O        0.63690    0.81140    0.79200    1.000
    C158     C        0.38450    0.64590    0.09000    1.000
    C159     C        0.36240    0.61530    0.28300    1.000
    H116     H        0.32850    0.62000    0.32330    1.000
    C160     C        0.38870    0.57790    0.41800    1.000
    H117     H        0.37300    0.55770    0.54670    1.000
    C161     C        0.43910    0.57170    0.35400    1.000
    H118     H        0.45810    0.54710    0.44150    1.000
    C162     C        0.46120    0.60220    0.16100    1.000
    H119     H        0.49500    0.59740    0.11960    1.000
    C163     C        0.43490    0.63960    0.02600    1.000
    C164     C        0.45730    0.67010    0.83300    1.000
    H120     H        0.49120    0.66630    0.78870    1.000
    C165     C        0.42800    0.70650    0.70900    1.000
    C166     C        0.48590    0.75710    0.39800    1.000
    C167     C        0.57420    0.78490    0.16600    1.000
    C168     C        0.48610    0.77990    0.14600    1.000
    H121     H        0.45570    0.78570    0.05750    1.000
    C169     C        0.53050    0.79430    0.02500    1.000
    H122     H        0.53100    0.80980    0.85560    1.000
    C170     C        0.57600    0.76250    0.41600    1.000
    H123     H        0.60650    0.75690    0.50420    1.000
    C171     C        0.53080    0.74860    0.52900    1.000
    H124     H        0.53050    0.73320    0.69860    1.000
    C172     C        0.62450    0.79180    0.02600    1.000
    O32      O        0.62180    0.83920    0.95000    1.000
    C173     C        0.49460    0.80710    0.34300    1.000
    H125     H        0.47000    0.83080    0.38650    1.000
    C174     C        0.53950    0.82290    0.22400    1.000
    H126     H        0.54590    0.85660    0.18580    1.000
    C175     C        0.56940    0.73330    0.21300    1.000
    H127     H        0.59390    0.70950    0.17020    1.000
    C176     C        0.52310    0.72200    0.33200    1.000
    H128     H        0.51640    0.68830    0.37020    1.000
