data_functionalizedCrystal
_audit_creation_method	'EQeq! by Chris Wilmer'
_symmetry_space_group_name_H-M	'P1'
_symmetry_Int_Tables_number	1
_symmetry_cell_setting	triclinic
loop_
_symmetry_equiv_pos_as_xyz
  x,y,z
_cell_length_a	9.7104
_cell_length_b	14.0035
_cell_length_c	14.0035
_cell_angle_alpha	95.6381
_cell_angle_beta	103.484
_cell_angle_gamma	103.484
loop_
_atom_site_label
_atom_site_type_symbol
_atom_site_fract_x
_atom_site_fract_y
_atom_site_fract_z
_atom_site_charge
Mof_Tm	Tm	0.65837	0.79801	0.62477	2.013
Mof_Tm	Tm	0.84163	0.37523	0.20199	2.013
Mof_Tm	Tm	0.34163	0.20199	0.37523	2.013
Mof_Tm	Tm	0.15837	0.62477	0.79801	2.013
Mof_Tm	Tm	0.75	0.21562	0.78438	2.003
Mof_Tm	Tm	0.25	0.78438	0.21562	2.003
Mof_H 	H 	0.3164	0.9705	0.5945	0.017
Mof_H 	H 	0.3374	0.1176	0.686	0.124
Mof_H 	H 	0.137	0.1393	0.7437	-0.012
Mof_H 	H 	0.1836	0.4055	0.0295	0.016
Mof_H 	H 	0.1626	0.314	0.8824	0.125
Mof_H 	H 	0.363	0.2563	0.8607	-0.013
Mof_H 	H 	0.6836	0.0295	0.4055	0.017
Mof_H 	H 	0.6626	0.8824	0.314	0.124
Mof_H 	H 	0.863	0.8607	0.2563	-0.012
Mof_H 	H 	0.8164	0.5945	0.9705	0.016
Mof_H 	H 	0.8374	0.686	0.1176	0.125
Mof_H 	H 	0.637	0.7437	0.1393	-0.013
Mof_C 	C 	0.9833	0.9206	0.6112	0.369
Mof_C 	C 	0.2351	0.9821	0.6131	0.152
Mof_C 	C 	0.2496	0.0677	0.6691	-0.223
Mof_C 	C 	0.1281	0.081	0.702	0.211
Mof_C 	C 	0.9974	0.0096	0.6738	-0.319
Mof_C 	C 	0.871	0.0266	0.7108	0.543
Mof_C 	C 	0.5113	0.2461	0.6017	0.259
Mof_C 	C 	0.5787	0.1697	0.5555	0.27
Mof_C 	C 	0.4114	0.7658	0.7404	0.267
Mof_C 	C 	0.3611	0.6726	0.657	0.273
Mof_C 	C 	0.5167	0.3888	0.0794	0.372
Mof_C 	C 	0.2649	0.3869	0.0179	0.153
Mof_C 	C 	0.2504	0.3309	0.9323	-0.224
Mof_C 	C 	0.3719	0.298	0.919	0.216
Mof_C 	C 	0.5026	0.3262	0.9904	-0.324
Mof_C 	C 	0.629	0.2892	0.9734	0.544
Mof_C 	C 	0.9887	0.3983	0.7539	0.259
Mof_C 	C 	0.9213	0.4445	0.8303	0.27
Mof_C 	C 	0.0886	0.2596	0.2342	0.266
Mof_C 	C 	0.1389	0.343	0.3274	0.273
Mof_C 	C 	0.0167	0.0794	0.3888	0.369
Mof_C 	C 	0.7649	0.0179	0.3869	0.152
Mof_C 	C 	0.7504	0.9323	0.3309	-0.223
Mof_C 	C 	0.8719	0.919	0.298	0.211
Mof_C 	C 	0.0026	0.9904	0.3262	-0.319
Mof_C 	C 	0.129	0.9734	0.2892	0.543
Mof_C 	C 	0.4887	0.7539	0.3983	0.259
Mof_C 	C 	0.4213	0.8303	0.4445	0.27
Mof_C 	C 	0.5886	0.2342	0.2596	0.267
Mof_C 	C 	0.6389	0.3274	0.343	0.273
Mof_C 	C 	0.4833	0.6112	0.9206	0.372
Mof_C 	C 	0.7351	0.6131	0.9821	0.153
Mof_C 	C 	0.7496	0.6691	0.0677	-0.224
Mof_C 	C 	0.6281	0.702	0.081	0.216
Mof_C 	C 	0.4974	0.6738	0.0096	-0.324
Mof_C 	C 	0.371	0.7108	0.0266	0.544
Mof_C 	C 	0.0113	0.6017	0.2461	0.259
Mof_C 	C 	0.0787	0.5555	0.1697	0.27
Mof_C 	C 	0.9114	0.7404	0.7658	0.266
Mof_C 	C 	0.8611	0.657	0.6726	0.273
Mof_N 	N 	0.1072	0.9114	0.5826	-0.167
Mof_N 	N 	0.3928	0.4174	0.0886	-0.168
Mof_N 	N 	0.8928	0.0886	0.4174	-0.167
Mof_N 	N 	0.6072	0.5826	0.9114	-0.168
Mof_O 	O 	0.7492	0.9613	0.6879	-0.496
Mof_O 	O 	0.5883	0.0611	0.7755	-0.283
Mof_O 	O 	0.8926	0.1099	0.7643	-0.477
Mof_O 	O 	0.8711	0.8474	0.5784	-0.451
Mof_O 	O 	0.5219	0.1358	0.4642	-0.403
Mof_O 	O 	0.4079	0.2694	0.5448	-0.373
Mof_O 	O 	0.5645	0.2774	0.693	-0.392
Mof_O 	O 	0.684	0.15	0.6114	-0.383
Mof_O 	O 	0.4429	0.6656	0.6024	-0.379
Mof_O 	O 	0.5339	0.8247	0.7447	-0.38
Mof_O 	O 	0.241	0.6141	0.6523	-0.37
Mof_O 	O 	0.3306	0.7738	0.795	-0.392
Mof_O 	O 	0.7508	0.3121	0.0387	-0.495
Mof_O 	O 	0.9117	0.2245	0.9389	-0.283
Mof_O 	O 	0.6074	0.2357	0.8901	-0.477
Mof_O 	O 	0.6289	0.4216	0.1526	-0.452
Mof_O 	O 	0.9781	0.5358	0.8642	-0.403
Mof_O 	O 	0.0921	0.4552	0.7306	-0.373
Mof_O 	O 	0.9355	0.307	0.7226	-0.392
Mof_O 	O 	0.816	0.3886	0.85	-0.383
Mof_O 	O 	0.0571	0.3976	0.3344	-0.379
Mof_O 	O 	0.9661	0.2553	0.1753	-0.38
Mof_O 	O 	0.259	0.3477	0.3859	-0.37
Mof_O 	O 	0.1694	0.205	0.2262	-0.392
Mof_O 	O 	0.2508	0.0387	0.3121	-0.496
Mof_O 	O 	0.4117	0.9389	0.2245	-0.283
Mof_O 	O 	0.1074	0.8901	0.2357	-0.477
Mof_O 	O 	0.1289	0.1526	0.4216	-0.451
Mof_O 	O 	0.4781	0.8642	0.5358	-0.403
Mof_O 	O 	0.5921	0.7306	0.4552	-0.373
Mof_O 	O 	0.4355	0.7226	0.307	-0.392
Mof_O 	O 	0.316	0.85	0.3886	-0.383
Mof_O 	O 	0.5571	0.3344	0.3976	-0.379
Mof_O 	O 	0.4661	0.1753	0.2553	-0.38
Mof_O 	O 	0.759	0.3859	0.3477	-0.37
Mof_O 	O 	0.6694	0.2262	0.205	-0.392
Mof_O 	O 	0.2492	0.6879	0.9613	-0.495
Mof_O 	O 	0.0883	0.7755	0.0611	-0.283
Mof_O 	O 	0.3926	0.7643	0.1099	-0.477
Mof_O 	O 	0.3711	0.5784	0.8474	-0.452
Mof_O 	O 	0.0219	0.4642	0.1358	-0.403
Mof_O 	O 	0.9079	0.5448	0.2694	-0.373
Mof_O 	O 	0.0645	0.693	0.2774	-0.392
Mof_O 	O 	0.184	0.6114	0.15	-0.383
Mof_O 	O 	0.9429	0.6024	0.6656	-0.379
Mof_O 	O 	0.0339	0.7447	0.8247	-0.38
Mof_O 	O 	0.741	0.6523	0.6141	-0.37
Mof_O 	O 	0.8306	0.795	0.7738	-0.392
_end
