data_functionalizedCrystal
_audit_creation_method	'EQeq! by Chris Wilmer'
_symmetry_space_group_name_H-M	'P1'
_symmetry_Int_Tables_number	1
_symmetry_cell_setting	triclinic
loop_
_symmetry_equiv_pos_as_xyz
  x,y,z
_cell_length_a	10.599
_cell_length_b	10.681
_cell_length_c	11.424
_cell_angle_alpha	82.67
_cell_angle_beta	74.14
_cell_angle_gamma	69.32
loop_
_atom_site_label
_atom_site_type_symbol
_atom_site_fract_x
_atom_site_fract_y
_atom_site_fract_z
_atom_site_charge
Mof_Pr	Pr	0.58905	0.5979	0.62865	2.423
Mof_O 	O 	0.397	0.6239	0.4086	-0.636
Mof_O 	O 	0.4709	0.753	0.491	-0.598
Mof_O 	O 	0.2675	0.2544	0.4475	-0.562
Mof_O 	O 	0.0408	0.3215	0.4552	-0.46
Mof_O 	O 	0.8776	0.0602	0.2604	-0.123
Mof_O 	O 	0.9566	0.8476	0.2747	-0.105
Mof_O 	O 	0.008	0.4396	0.6678	-0.473
Mof_O 	O 	0.7811	0.4853	0.7164	-0.623
Mof_O 	O 	0.5359	0.4778	0.1597	-0.435
Mof_O 	O 	0.6617	0.3865	0.2927	-0.48
Mof_O 	O 	0.1712	0.2513	0.1574	-0.148
Mof_O 	O 	0.2705	0.2398	0.9671	-0.123
Mof_N 	N 	0.9627	0.9563	0.285	0.013
Mof_N 	N 	0.1676	0.2652	0.051	-0.001
Mof_C 	C 	0.28	0.8583	0.405	-0.172
Mof_C 	C 	0.2758	0.9843	0.4314	0.09
Mof_H 	H 	0.3452	0.9913	0.4627	0.018
Mof_C 	C 	0.1692	0.0984	0.4114	-0.115
Mof_C 	C 	0.0648	0.0883	0.3643	-0.059
Mof_H 	H 	0.991	0.1639	0.3527	0.107
Mof_C 	C 	0.074	0.9638	0.3354	0.034
Mof_C 	C 	0.1778	0.8479	0.3555	0.02
Mof_H 	H 	0.1796	0.765	0.3365	0.031
Mof_C 	C 	0.391	0.7352	0.4357	0.545
Mof_C 	C 	0.1608	0.2351	0.4402	0.455
Mof_C 	C 	0.899	0.4137	0.8739	-0.097
Mof_C 	C 	0.7776	0.4381	0.965	0.052
Mof_H 	H 	0.6921	0.4765	0.9454	0.033
Mof_C 	C 	0.7825	0.4055	0.0863	-0.073
Mof_C 	C 	0.9109	0.3474	0.1154	0.005
Mof_H 	H 	0.9158	0.3247	0.1957	0.071
Mof_C 	C 	0.0307	0.3241	0.0222	0.036
Mof_C 	C 	0.028	0.3553	0.9018	-0.038
Mof_H 	H 	0.1101	0.3379	0.8408	0.078
Mof_C 	C 	0.8947	0.4495	0.7433	0.529
Mof_C 	C 	0.6507	0.4266	0.1854	0.317
Mof_Pr	Pr	0.41095	0.4021	0.37135	2.405
Mof_O 	O 	0.603	0.3761	0.5914	-0.638
Mof_O 	O 	0.5291	0.247	0.509	-0.598
Mof_O 	O 	0.7325	0.7456	0.5525	-0.566
Mof_O 	O 	0.9592	0.6785	0.5448	-0.428
Mof_O 	O 	0.1224	0.9398	0.7396	-0.134
Mof_O 	O 	0.0434	0.1524	0.7253	-0.128
Mof_O 	O 	0.992	0.5604	0.3322	-0.403
Mof_O 	O 	0.2189	0.5147	0.2836	-0.61
Mof_O 	O 	0.4641	0.5222	0.8403	-0.434
Mof_O 	O 	0.3383	0.6135	0.7073	-0.481
Mof_O 	O 	0.8288	0.7487	0.8426	-0.133
Mof_O 	O 	0.7295	0.7602	0.0329	-0.121
Mof_N 	N 	0.0373	0.0437	0.715	-0.006
Mof_N 	N 	0.8324	0.7348	0.949	-0.007
Mof_C 	C 	0.72	0.1417	0.595	-0.189
Mof_C 	C 	0.7242	0.0157	0.5686	0.124
Mof_H 	H 	0.6548	0.0087	0.5373	0.007
Mof_C 	C 	0.8308	0.9016	0.5886	-0.166
Mof_C 	C 	0.9352	0.9117	0.6357	0.089
Mof_H 	H 	0.009	0.8361	0.6473	0.01
Mof_C 	C 	0.926	0.0362	0.6646	0.034
Mof_C 	C 	0.8222	0.1521	0.6445	0.042
Mof_H 	H 	0.8204	0.235	0.6635	0.038
Mof_C 	C 	0.609	0.2648	0.5643	0.553
Mof_C 	C 	0.8392	0.7649	0.5598	0.472
Mof_C 	C 	0.101	0.5863	0.1261	-0.145
Mof_C 	C 	0.2224	0.5619	0.035	0.046
Mof_H 	H 	0.3079	0.5235	0.0546	0.035
Mof_C 	C 	0.2175	0.5945	0.9137	-0.048
Mof_C 	C 	0.0891	0.6526	0.8846	-0.095
Mof_H 	H 	0.0842	0.6753	0.8043	0.09
Mof_C 	C 	0.9693	0.6759	0.9778	0.108
Mof_C 	C 	0.972	0.6447	0.0982	0.018
Mof_H 	H 	0.8899	0.6621	0.1592	0.066
Mof_C 	C 	0.1053	0.5505	0.2567	0.456
Mof_C 	C 	0.3493	0.5734	0.8146	0.307
Mof_Cu	Cu	6.1085e-18	0.5	0.5	0.894
_end
