data_functionalizedCrystal
_audit_creation_method	'EQeq! by Chris Wilmer'
_symmetry_space_group_name_H-M	'P1'
_symmetry_Int_Tables_number	1
_symmetry_cell_setting	triclinic
loop_
_symmetry_equiv_pos_as_xyz
  x,y,z
_cell_length_a	15.29
_cell_length_b	15.29
_cell_length_c	6.905
_cell_angle_alpha	90
_cell_angle_beta	90
_cell_angle_gamma	120
loop_
_atom_site_label
_atom_site_type_symbol
_atom_site_fract_x
_atom_site_fract_y
_atom_site_fract_z
_atom_site_charge
Mof_Ag	Ag	0.26446	0.73554	0.99999	0.386
Mof_N 	N 	0.4855	0.8959	0.6823	-0.167
Mof_N 	N 	0.4107	0.8964	0.3171	-0.167
Mof_C 	C 	0.3574	0.8371	0.2098	-0.092
Mof_C 	C 	0.4795	0.8371	0.7907	-0.096
Mof_N 	N 	0.6254	0.0148	0.3821	-0.087
Mof_C 	C 	0.7056	0.1111	0.345	0.111
Mof_H 	H 	0.6989	0.1673	0.3692	0.017
Mof_C 	C 	0.7958	0.1235	0.2719	-0.013
Mof_H 	H 	0.8494	0.1879	0.2471	0.024
Mof_C 	C 	0.8058	0.0395	0.2358	0.057
Mof_H 	H 	0.8661	0.0477	0.1868	0.006
Mof_C 	C 	0.7256	0.9431	0.2729	-0.064
Mof_C 	C 	0.6354	0.9308	0.346	0.24
Mof_H 	H 	0.5818	0.8663	0.3708	-0.175
Mof_C 	C 	0.7397	0.8609	0.2423	0.09
Mof_N 	N 	0.753	0.7939	0.2152	-0.104
Mof_N 	N 	0.6102	0.9846	0.3825	-0.169
Mof_C 	C 	0.7041	0.0688	0.347	0.041
Mof_H 	H 	0.7146	0.1332	0.3718	-0.103
Mof_C 	C 	0.7824	0.0569	0.2744	-0.192
Mof_C 	C 	0.7667	0.9608	0.2373	0.164
Mof_H 	H 	0.819	0.9528	0.1887	-0.016
Mof_C 	C 	0.6728	0.8765	0.2728	-0.279
Mof_H 	H 	0.6623	0.8122	0.248	0.117
Mof_C 	C 	0.5946	0.8884	0.3454	0.114
Mof_H 	H 	0.5317	0.832	0.3692	0.056
Mof_C 	C 	0.8798	0.1399	0.2403	0.068
Mof_N 	N 	0.9604	0.2066	0.2171	-0.076
Mof_Ag	Ag	0.26446	0.52892	0.99999	0.384
Mof_N 	N 	0.1041	0.5896	0.6823	-0.177
Mof_N 	N 	0.1036	0.5143	0.3171	-0.178
Mof_C 	C 	0.1629	0.5203	0.2098	-0.098
Mof_C 	C 	0.1629	0.6424	0.7907	-0.101
Mof_N 	N 	0.9852	0.6106	0.3821	-0.168
Mof_C 	C 	0.8889	0.5945	0.345	0.115
Mof_H 	H 	0.8327	0.5316	0.3692	0.056
Mof_C 	C 	0.8765	0.6723	0.2719	-0.269
Mof_H 	H 	0.8121	0.6615	0.2471	0.114
Mof_C 	C 	0.9605	0.7663	0.2358	0.162
Mof_H 	H 	0.9523	0.8184	0.1868	-0.015
Mof_C 	C 	0.0569	0.7825	0.2729	-0.187
Mof_C 	C 	0.0692	0.7046	0.346	0.047
Mof_H 	H 	0.1337	0.7155	0.3708	-0.103
Mof_C 	C 	0.1391	0.8788	0.2423	0.071
Mof_N 	N 	0.2061	0.9591	0.2152	-0.075
Mof_N 	N 	0.0154	0.6256	0.3825	-0.089
Mof_C 	C 	0.9312	0.6353	0.347	0.234
Mof_H 	H 	0.8668	0.5814	0.3718	-0.176
Mof_C 	C 	0.9431	0.7255	0.2744	-0.067
Mof_C 	C 	0.0392	0.8059	0.2373	0.058
Mof_H 	H 	0.0472	0.8662	0.1887	0.007
Mof_C 	C 	0.1235	0.7963	0.2728	-0.02
Mof_H 	H 	0.1878	0.8501	0.248	0.027
Mof_C 	C 	0.1116	0.7062	0.3454	0.109
Mof_H 	H 	0.168	0.6997	0.3692	0.017
Mof_C 	C 	0.8601	0.7399	0.2403	0.084
Mof_N 	N 	0.7934	0.7538	0.2171	-0.101
Mof_Ag	Ag	0.47108	0.73554	0.99999	0.39
Mof_N 	N 	0.4104	0.5145	0.6823	-0.178
Mof_N 	N 	0.4857	0.5893	0.3171	-0.179
Mof_C 	C 	0.4797	0.6426	0.2098	-0.096
Mof_C 	C 	0.3576	0.5205	0.7907	-0.095
Mof_N 	N 	0.3894	0.3746	0.3821	-0.132
Mof_C 	C 	0.4055	0.2944	0.345	0.112
Mof_H 	H 	0.4684	0.3011	0.3692	0.037
Mof_C 	C 	0.3277	0.2042	0.2719	-0.154
Mof_H 	H 	0.3385	0.1506	0.2471	0.07
Mof_C 	C 	0.2337	0.1942	0.2358	0.109
Mof_H 	H 	0.1816	0.1339	0.1868	-0.013
Mof_C 	C 	0.2175	0.2744	0.2729	-0.124
Mof_C 	C 	0.2954	0.3646	0.346	0.146
Mof_H 	H 	0.2845	0.4182	0.3708	-0.14
Mof_C 	C 	0.1212	0.2603	0.2423	0.088
Mof_N 	N 	0.0409	0.247	0.2152	-0.124
Mof_N 	N 	0.3744	0.3898	0.3825	-0.132
Mof_C 	C 	0.3647	0.2959	0.347	0.144
Mof_H 	H 	0.4186	0.2854	0.3718	-0.141
Mof_C 	C 	0.2745	0.2176	0.2744	-0.124
Mof_C 	C 	0.1941	0.2333	0.2373	0.108
Mof_H 	H 	0.1338	0.181	0.1887	-0.013
Mof_C 	C 	0.2037	0.3272	0.2728	-0.157
Mof_H 	H 	0.1499	0.3377	0.248	0.071
Mof_C 	C 	0.2938	0.4054	0.3454	0.111
Mof_H 	H 	0.3003	0.4683	0.3692	0.036
Mof_C 	C 	0.2601	0.1202	0.2403	0.084
Mof_N 	N 	0.2462	0.0396	0.2171	-0.123
Mof_Ag	Ag	0.73554	0.26446	1e-05	0.386
Mof_N 	N 	0.5145	0.1041	0.3177	-0.177
Mof_N 	N 	0.5893	0.1036	0.6829	-0.178
Mof_C 	C 	0.6426	0.1629	0.7902	-0.099
Mof_C 	C 	0.5205	0.1629	0.2093	-0.1
Mof_N 	N 	0.3746	0.9852	0.6179	-0.168
Mof_C 	C 	0.2944	0.8889	0.655	0.114
Mof_H 	H 	0.3011	0.8327	0.6308	0.057
Mof_C 	C 	0.2042	0.8765	0.7281	-0.274
Mof_H 	H 	0.1506	0.8121	0.7529	0.113
Mof_C 	C 	0.1942	0.9605	0.7642	0.16
Mof_H 	H 	0.1339	0.9523	0.8132	-0.021
Mof_C 	C 	0.2744	0.0569	0.7271	-0.184
Mof_C 	C 	0.3646	0.0692	0.654	0.05
Mof_H 	H 	0.4182	0.1337	0.6292	-0.103
Mof_C 	C 	0.2603	0.1391	0.7577	0.076
Mof_N 	N 	0.247	0.2061	0.7848	-0.099
Mof_N 	N 	0.3898	0.0154	0.6175	-0.089
Mof_C 	C 	0.2959	0.9312	0.653	0.235
Mof_H 	H 	0.2854	0.8668	0.6282	-0.176
Mof_C 	C 	0.2176	0.9431	0.7256	-0.065
Mof_C 	C 	0.2333	0.0392	0.7627	0.057
Mof_H 	H 	0.181	0.0472	0.8113	0.001
Mof_C 	C 	0.3272	0.1235	0.7272	-0.028
Mof_H 	H 	0.3377	0.1878	0.752	0.027
Mof_C 	C 	0.4054	0.1116	0.6546	0.108
Mof_H 	H 	0.4683	0.168	0.6308	0.017
Mof_C 	C 	0.1202	0.8601	0.7597	0.089
Mof_N 	N 	0.0396	0.7934	0.7829	-0.125
Mof_Ag	Ag	0.73554	0.47108	1e-05	0.39
Mof_N 	N 	0.8959	0.4104	0.3177	-0.167
Mof_N 	N 	0.8964	0.4857	0.6829	-0.167
Mof_C 	C 	0.8371	0.4797	0.7902	-0.093
Mof_C 	C 	0.8371	0.3576	0.2093	-0.094
Mof_N 	N 	0.0148	0.3894	0.6179	-0.088
Mof_C 	C 	0.1111	0.4055	0.655	0.11
Mof_H 	H 	0.1673	0.4684	0.6308	0.017
Mof_C 	C 	0.1235	0.3277	0.7281	-0.019
Mof_H 	H 	0.1879	0.3385	0.7529	0.024
Mof_C 	C 	0.0395	0.2337	0.7642	0.056
Mof_H 	H 	0.0477	0.1816	0.8132	0.001
Mof_C 	C 	0.9431	0.2175	0.7271	-0.063
Mof_C 	C 	0.9308	0.2954	0.654	0.241
Mof_H 	H 	0.8663	0.2845	0.6292	-0.175
Mof_C 	C 	0.8609	0.1212	0.7577	0.094
Mof_N 	N 	0.7939	0.0409	0.7848	-0.126
Mof_N 	N 	0.9846	0.3744	0.6175	-0.169
Mof_C 	C 	0.0688	0.3647	0.653	0.044
Mof_H 	H 	0.1332	0.4186	0.6282	-0.103
Mof_C 	C 	0.0569	0.2745	0.7256	-0.189
Mof_C 	C 	0.9608	0.1941	0.7627	0.162
Mof_H 	H 	0.9528	0.1338	0.8113	-0.021
Mof_C 	C 	0.8765	0.2037	0.7272	-0.284
Mof_H 	H 	0.8122	0.1499	0.752	0.117
Mof_C 	C 	0.8884	0.2938	0.6546	0.113
Mof_H 	H 	0.832	0.3003	0.6308	0.056
Mof_C 	C 	0.1399	0.2601	0.7597	0.073
Mof_N 	N 	0.2066	0.2462	0.7829	-0.098
Mof_Ag	Ag	0.52892	0.26446	1e-05	0.384
Mof_N 	N 	0.5896	0.4855	0.3177	-0.178
Mof_N 	N 	0.5143	0.4107	0.6829	-0.179
Mof_C 	C 	0.5203	0.3574	0.7902	-0.093
Mof_C 	C 	0.6424	0.4795	0.2093	-0.098
Mof_N 	N 	0.6106	0.6254	0.6179	-0.131
Mof_C 	C 	0.5945	0.7056	0.655	0.114
Mof_H 	H 	0.5316	0.6989	0.6308	0.036
Mof_C 	C 	0.6723	0.7958	0.7281	-0.142
Mof_H 	H 	0.6615	0.8494	0.7529	0.071
Mof_C 	C 	0.7663	0.8058	0.7642	0.112
Mof_H 	H 	0.8184	0.8661	0.8132	-0.001
Mof_C 	C 	0.7825	0.7256	0.7271	-0.128
Mof_C 	C 	0.7046	0.6354	0.654	0.142
Mof_H 	H 	0.7155	0.5818	0.6292	-0.14
Mof_C 	C 	0.8788	0.7397	0.7577	0.078
Mof_N 	N 	0.9591	0.753	0.7848	-0.078
Mof_N 	N 	0.6256	0.6102	0.6175	-0.131
Mof_C 	C 	0.6353	0.7041	0.653	0.14
Mof_H 	H 	0.5814	0.7146	0.6282	-0.141
Mof_C 	C 	0.7255	0.7824	0.7256	-0.128
Mof_C 	C 	0.8059	0.7667	0.7627	0.11
Mof_H 	H 	0.8662	0.819	0.8113	-0.001
Mof_C 	C 	0.7963	0.6728	0.7272	-0.145
Mof_H 	H 	0.8501	0.6623	0.752	0.072
Mof_C 	C 	0.7062	0.5946	0.6546	0.112
Mof_H 	H 	0.6997	0.5317	0.6308	0.036
Mof_C 	C 	0.7399	0.8798	0.7597	0.074
Mof_N 	N 	0.7538	0.9604	0.7829	-0.077
Mof_Fe	Fe	0.5	-4.5142e-33	0.5	0.696
Mof_Fe	Fe	-2.76527e-17	0.5	0.5	0.696
Mof_Fe	Fe	0.5	0.5	0.5	0.739
_end
