data_functionalizedCrystal
_audit_creation_method	'EQeq! by Chris Wilmer'
_symmetry_space_group_name_H-M	'P1'
_symmetry_Int_Tables_number	1
_symmetry_cell_setting	triclinic
loop_
_symmetry_equiv_pos_as_xyz
  x,y,z
_cell_length_a	10.23
_cell_length_b	11.059
_cell_length_c	13.818
_cell_angle_alpha	69.01
_cell_angle_beta	78.31
_cell_angle_gamma	72.15
loop_
_atom_site_label
_atom_site_type_symbol
_atom_site_fract_x
_atom_site_fract_y
_atom_site_fract_z
_atom_site_charge
Mof_Zn	Zn	0.92146	0.14906	0.08523	1.239
Mof_Zn	Zn	0.0775	0.35239	0.9143	1.241
Mof_Zn	Zn	0.38253	0.01446	0.17298	1.217
Mof_Zn	Zn	0.37969	0.51497	0.17448	1.218
Mof_Zn	Zn	0.02136	0.72416	0.49037	0.785
Mof_P 	P 	0.22299	0.03104	0.98165	0.502
Mof_P 	P 	0.22296	0.53098	0.98146	0.501
Mof_P 	P 	0.15649	0.97881	0.38131	0.475
Mof_P 	P 	0.15654	0.48571	0.38395	0.481
Mof_O 	O 	0.1006	0.1519	0.9862	-0.566
Mof_O 	O 	0.8212	0.0945	0.0021	-0.42
Mof_O 	O 	0.3314	0.0046	0.0498	-0.468
Mof_O 	O 	0.5841	0.027	0.1707	-0.258
Mof_O 	O 	0.5105	0.8146	0.1975	-0.391
Mof_O 	O 	0.279	0.3095	0.8253	-0.381
Mof_O 	O 	0.1794	0.4058	0.997	-0.418
Mof_O 	O 	0.8998	0.3491	0.0144	-0.572
Mof_O 	O 	0.33	0.5056	0.0508	-0.467
Mof_O 	O 	0.5821	0.5285	0.1691	-0.256
Mof_O 	O 	0.7193	0.1916	0.1739	-0.376
Mof_O 	O 	0.5078	0.3169	0.1972	-0.392
Mof_O 	O 	0.2797	0.9445	0.307	-0.426
Mof_O 	O 	0.1676	0.0894	0.4211	-0.341
Mof_O 	O 	0.1338	0.8584	0.4715	-0.45
Mof_O 	O 	0.0148	0.1601	0.22	-0.228
Mof_O 	O 	0.966	0.9631	0.1884	-0.423
Mof_O 	O 	0.9393	0.8433	0.3538	-0.461
Mof_O 	O 	0.2809	0.4501	0.3099	-0.427
Mof_O 	O 	0.1666	0.5957	0.4222	-0.376
Mof_O 	O 	0.8673	0.6358	0.5255	-0.446
Mof_O 	O 	0.0182	0.6603	0.2177	-0.234
Mof_O 	O 	0.0306	0.5395	0.8102	-0.427
Mof_O 	O 	0.0562	0.6567	0.6465	-0.467
Mof_C 	C 	0.3052	0.0803	0.8474	-0.205
Mof_H 	H 	0.2362	0.1029	0.7995	0.135
Mof_C 	C 	0.6385	0.799	0.1766	0.392
Mof_C 	C 	0.3075	0.5778	0.8486	-0.201
Mof_H 	H 	0.2394	0.6003	0.8001	0.132
Mof_C 	C 	0.6358	0.301	0.1758	0.384
Mof_C 	C 	0.0002	0.0513	0.3143	-0.223
Mof_H 	H 	0.9232	0.0844	0.3612	0.115
Mof_C 	C 	0.9659	0.946	0.2837	0.402
Mof_C 	C 	0.0016	0.5524	0.3129	-0.24
Mof_H 	H 	0.9227	0.5869	0.3578	0.12
Mof_C 	C 	0.0304	0.5546	0.7159	0.415
Mof_Zn	Zn	0.0166	0.2315	0.4936	0.786
Mof_Zn	Zn	0.07854	0.85094	0.91477	1.239
Mof_Zn	Zn	0.9225	0.64761	0.0857	1.241
Mof_Zn	Zn	0.61747	0.98554	0.82702	1.217
Mof_Zn	Zn	0.62031	0.48503	0.82552	1.218
Mof_Zn	Zn	0.97864	0.27584	0.50963	0.785
Mof_P 	P 	0.77701	0.96896	0.01835	0.502
Mof_P 	P 	0.77704	0.46902	0.01854	0.501
Mof_P 	P 	0.84351	0.02119	0.61869	0.475
Mof_P 	P 	0.84346	0.51429	0.61605	0.481
Mof_O 	O 	0.8994	0.8481	0.0138	-0.566
Mof_O 	O 	0.1788	0.9055	0.9979	-0.42
Mof_O 	O 	0.6686	0.9954	0.9502	-0.468
Mof_O 	O 	0.4159	0.973	0.8293	-0.258
Mof_O 	O 	0.4895	0.1854	0.8025	-0.391
Mof_O 	O 	0.721	0.6905	0.1747	-0.381
Mof_O 	O 	0.8206	0.5942	0.003	-0.418
Mof_O 	O 	0.1002	0.6509	0.9856	-0.572
Mof_O 	O 	0.67	0.4944	0.9492	-0.467
Mof_O 	O 	0.4179	0.4715	0.8309	-0.256
Mof_O 	O 	0.2807	0.8084	0.8261	-0.376
Mof_O 	O 	0.4922	0.6831	0.8028	-0.392
Mof_O 	O 	0.7203	0.0555	0.693	-0.426
Mof_O 	O 	0.8324	0.9106	0.5789	-0.341
Mof_O 	O 	0.8662	0.1416	0.5285	-0.45
Mof_O 	O 	0.9852	0.8399	0.78	-0.228
Mof_O 	O 	0.034	0.0369	0.8116	-0.423
Mof_O 	O 	0.0607	0.1567	0.6462	-0.461
Mof_O 	O 	0.7191	0.5499	0.6901	-0.427
Mof_O 	O 	0.8334	0.4043	0.5778	-0.376
Mof_O 	O 	0.1327	0.3642	0.4745	-0.446
Mof_O 	O 	0.9818	0.3397	0.7823	-0.234
Mof_O 	O 	0.9694	0.4605	0.1898	-0.427
Mof_O 	O 	0.9438	0.3433	0.3535	-0.467
Mof_C 	C 	0.6948	0.9197	0.1526	-0.205
Mof_H 	H 	0.7638	0.8971	0.2005	0.135
Mof_C 	C 	0.3615	0.201	0.8234	0.392
Mof_C 	C 	0.6925	0.4222	0.1514	-0.201
Mof_H 	H 	0.7606	0.3997	0.1999	0.132
Mof_C 	C 	0.3642	0.699	0.8242	0.384
Mof_C 	C 	0.9998	0.9487	0.6857	-0.223
Mof_H 	H 	0.0768	0.9156	0.6388	0.115
Mof_C 	C 	0.0341	0.054	0.7163	0.402
Mof_C 	C 	0.9984	0.4476	0.6871	-0.24
Mof_H 	H 	0.0773	0.4131	0.6422	0.12
Mof_C 	C 	0.9696	0.4454	0.2841	0.415
Mof_Zn	Zn	0.9834	0.7685	0.5064	0.786
_end
