data_functionalizedCrystal
_audit_creation_method	'EQeq! by Chris Wilmer'
_symmetry_space_group_name_H-M	'P1'
_symmetry_Int_Tables_number	1
_symmetry_cell_setting	triclinic
loop_
_symmetry_equiv_pos_as_xyz
  x,y,z
_cell_length_a	7.8354
_cell_length_b	12.0496
_cell_length_c	12.2524
_cell_angle_alpha	112.015
_cell_angle_beta	89.967
_cell_angle_gamma	99.921
loop_
_atom_site_label
_atom_site_type_symbol
_atom_site_fract_x
_atom_site_fract_y
_atom_site_fract_z
_atom_site_charge
Mof_C 	C 	0.647	0.429	0.149	0.477
Mof_C 	C 	0.722	0.31	0.0857	-0.233
Mof_H 	H 	0.7441	0.276	0.1432	0.094
Mof_H 	H 	0.6356	0.2511	0.0262	0.091
Mof_C 	C 	0.894	0.333	0.0257	-0.261
Mof_H 	H 	0.9729	0.4021	0.0817	0.085
Mof_H 	H 	0.9485	0.2624	0.0051	0.094
Mof_C 	C 	0.863	0.359	0.9136	0.522
Mof_C 	C 	0.144	0.426	0.2971	0.454
Mof_C 	C 	0.224	0.3088	0.2718	-0.088
Mof_C 	C 	0.388	0.333	0.3512	-0.133
Mof_C 	C 	0.365	0.363	0.476	0.472
Mof_C 	C 	0.323	0.861	0.3151	0.497
Mof_C 	C 	0.248	0.969	0.365	-0.383
Mof_H 	H 	0.2863	0.0216	0.3233	0.138
Mof_H 	H 	0.1226	0.9444	0.3507	0.128
Mof_C 	C 	0.286	0.037	0.488	-0.064
Mof_H 	H 	0.4093	0.0723	0.5012	0.022
Mof_H 	H 	0.2647	0.9817	0.5292	0.046
Mof_C 	C 	0.179	0.144	0.545	0.351
Mof_Nd	Nd	0.99131	0.6457	0.35421	2.455
Mof_Nd	Nd	0.49093	0.64513	0.25275	2.451
Mof_O 	O 	0.7363	0.5184	0.2207	-0.725
Mof_O 	O 	0.488	0.4284	0.118	-0.521
Mof_O 	O 	0.2317	0.5179	0.2899	-0.709
Mof_O 	O 	0.9909	0.4285	0.3268	-0.526
Mof_O 	O 	0.2716	0.7771	0.3591	-0.718
Mof_O 	O 	0.45	0.855	0.2589	-0.536
Mof_O 	O 	0.7214	0.391	0.9013	-0.614
Mof_O 	O 	0.9844	0.3461	0.849	-0.575
Mof_O 	O 	0.2311	0.2231	0.6534	-0.688
Mof_O 	O 	0.0472	0.1495	0.4951	-0.497
Mof_O 	O 	0.4862	0.35	0.5355	-0.531
Mof_O 	O 	0.2269	0.3969	0.5168	-0.574
Mof_C 	C 	0.353	0.571	0.851	0.476
Mof_C 	C 	0.278	0.69	0.9143	-0.234
Mof_H 	H 	0.2559	0.724	0.8568	0.094
Mof_H 	H 	0.3644	0.7489	0.9738	0.091
Mof_C 	C 	0.106	0.667	0.9743	-0.261
Mof_H 	H 	0.0271	0.5979	0.9183	0.085
Mof_H 	H 	0.0515	0.7376	0.9949	0.094
Mof_C 	C 	0.137	0.641	0.0864	0.522
Mof_C 	C 	0.856	0.574	0.7029	0.454
Mof_C 	C 	0.776	0.6912	0.7282	-0.088
Mof_C 	C 	0.612	0.667	0.6488	-0.133
Mof_C 	C 	0.635	0.637	0.524	0.472
Mof_C 	C 	0.677	0.139	0.6849	0.497
Mof_C 	C 	0.752	0.031	0.635	-0.383
Mof_H 	H 	0.7137	0.9784	0.6767	0.138
Mof_H 	H 	0.8774	0.0556	0.6493	0.128
Mof_C 	C 	0.714	0.963	0.512	-0.064
Mof_H 	H 	0.5907	0.9277	0.4988	0.022
Mof_H 	H 	0.7353	0.0183	0.4708	0.046
Mof_C 	C 	0.821	0.856	0.455	0.351
Mof_Nd	Nd	0.00869	0.3543	0.64579	2.455
Mof_Nd	Nd	0.50907	0.35487	0.74725	2.451
Mof_O 	O 	0.2637	0.4816	0.7793	-0.725
Mof_O 	O 	0.512	0.5716	0.882	-0.521
Mof_O 	O 	0.7683	0.4821	0.7101	-0.709
Mof_O 	O 	0.0091	0.5715	0.6732	-0.526
Mof_O 	O 	0.7284	0.2229	0.6409	-0.718
Mof_O 	O 	0.55	0.145	0.7411	-0.536
Mof_O 	O 	0.2786	0.609	0.0987	-0.614
Mof_O 	O 	0.0156	0.6539	0.151	-0.575
Mof_O 	O 	0.7689	0.7769	0.3466	-0.688
Mof_O 	O 	0.9528	0.8505	0.5049	-0.497
Mof_O 	O 	0.5138	0.65	0.4645	-0.531
Mof_O 	O 	0.7731	0.6031	0.4832	-0.574
_end
