# CIF file generated by openbabel 3.1.0, see https://openbabel.org
data_I
_chemical_name_common 'image0'
_cell_length_a 14.538
_cell_length_b 14.538
_cell_length_c 17.515
_cell_angle_alpha 90
_cell_angle_beta 90
_cell_angle_gamma 120
_space_group_name_H-M_alt 'P 1'
_space_group_name_Hall 'P 1'
loop_
    _symmetry_equiv_pos_as_xyz
    x,y,z
loop_
    _atom_site_label
    _atom_site_type_symbol
    _atom_site_fract_x
    _atom_site_fract_y
    _atom_site_fract_z
    _atom_site_occupancy
    C1       C        0.60280    0.02090    0.07830    1.000
    H1       H        0.62210    0.09300    0.06730    1.000
    H2       H        0.63680    0.01860    0.12470    1.000
    H3       H        0.52720    0.97880    0.08420    1.000
    C2       C        0.63710    0.97840    0.01515    1.000
    N1       N        0.62400    0.88110    0.01027    1.000
    N2       N        0.66330    0.87310    0.94340    1.000
    N3       N        0.70070    0.96550    0.90700    1.000
    N4       N        0.68440    0.03050    0.95132    1.000
    C3       C        0.61540    0.15900    0.75020    1.000
    H4       H        0.58830    0.14610    0.80150    1.000
    H5       H        0.57080    0.09930    0.71870    1.000
    H6       H        0.61610    0.22140    0.73060    1.000
    C4       C        0.72540    0.17670    0.75005    1.000
    N5       N        0.78660    0.19710    0.81145    1.000
    N6       N        0.88520    0.23010    0.78788    1.000
    N7       N        0.88510    0.23010    0.71192    1.000
    N8       N        0.78630    0.19710    0.68854    1.000
    C5       C        0.60270    0.02060    0.42130    1.000
    H7       H        0.57120    0.96770    0.38210    1.000
    H8       H        0.66300    0.08280    0.40090    1.000
    H9       H        0.55150    0.03870    0.43960    1.000
    C6       C        0.63720    0.97860    0.48475    1.000
    N9       N        0.68450    0.03070    0.54872    1.000
    N10      N        0.70040    0.96540    0.59314    1.000
    N11      N        0.66300    0.87290    0.55660    1.000
    N12      N        0.62390    0.88110    0.48963    1.000
    Zn1      Zn       0.75232    0.18435    0.57680    1.000
    Zn2      Zn       0.75236    0.18439    0.92317    1.000
    O1       O        0.64860    0.22600    0.55760    1.000
    O2       O        0.64840    0.22610    0.94270    1.000
    C7       C        0.60910    0.11060    0.75030    1.000
    H10      H        0.58290    0.10790    0.80100    1.000
    H11      H        0.58910    0.04000    0.73370    1.000
    H12      H        0.57940    0.14060    0.71620    1.000
    C8       C        0.97910    0.58190    0.07830    1.000
    H13      H        0.90700    0.52910    0.06730    1.000
    H14      H        0.98140    0.61820    0.12470    1.000
    H15      H        0.02120    0.54840    0.08420    1.000
    C9       C        0.02160    0.65870    0.01515    1.000
    N13      N        0.11890    0.74290    0.01027    1.000
    N14      N        0.12690    0.79020    0.94340    1.000
    N15      N        0.03450    0.73520    0.90700    1.000
    N16      N        0.96950    0.65390    0.95132    1.000
    C10      C        0.84100    0.45640    0.75020    1.000
    H16      H        0.85390    0.44220    0.80150    1.000
    H17      H        0.90070    0.47150    0.71870    1.000
    H18      H        0.77860    0.39470    0.73060    1.000
    C11      C        0.82330    0.54870    0.75005    1.000
    N17      N        0.80290    0.58950    0.81145    1.000
    N18      N        0.76990    0.65510    0.78788    1.000
    N19      N        0.76990    0.65500    0.71192    1.000
    N20      N        0.80290    0.58920    0.68854    1.000
    C12      C        0.97940    0.58210    0.42130    1.000
    H19      H        0.03230    0.60350    0.38210    1.000
    H20      H        0.91720    0.58020    0.40090    1.000
    H21      H        0.96130    0.51280    0.43960    1.000
    C13      C        0.02140    0.65860    0.48475    1.000
    N21      N        0.96930    0.65380    0.54872    1.000
    N22      N        0.03460    0.73500    0.59314    1.000
    N23      N        0.12710    0.79010    0.55660    1.000
    N24      N        0.11890    0.74280    0.48963    1.000
    Zn3      Zn       0.81565    0.56797    0.57680    1.000
    Zn4      Zn       0.81561    0.56797    0.92317    1.000
    O3       O        0.77400    0.42260    0.55760    1.000
    O4       O        0.77390    0.42230    0.94270    1.000
    C14      C        0.88940    0.49850    0.75030    1.000
    H22      H        0.89210    0.47500    0.80100    1.000
    H23      H        0.96000    0.54910    0.73370    1.000
    H24      H        0.85940    0.43880    0.71620    1.000
    C15      C        0.41810    0.39720    0.07830    1.000
    H25      H        0.47090    0.37790    0.06730    1.000
    H26      H        0.38180    0.36320    0.12470    1.000
    H27      H        0.45160    0.47280    0.08420    1.000
    C16      C        0.34130    0.36290    0.01515    1.000
    N25      N        0.25710    0.37600    0.01027    1.000
    N26      N        0.20980    0.33670    0.94340    1.000
    N27      N        0.26480    0.29930    0.90700    1.000
    N28      N        0.34610    0.31560    0.95132    1.000
    C17      C        0.54360    0.38460    0.75020    1.000
    H28      H        0.55780    0.41170    0.80150    1.000
    H29      H        0.52850    0.42920    0.71870    1.000
    H30      H        0.60530    0.38390    0.73060    1.000
    C18      C        0.45130    0.27460    0.75005    1.000
    N29      N        0.41050    0.21340    0.81145    1.000
    N30      N        0.34490    0.11480    0.78788    1.000
    N31      N        0.34500    0.11490    0.71192    1.000
    N32      N        0.41080    0.21370    0.68854    1.000
    C19      C        0.41790    0.39730    0.42130    1.000
    H31      H        0.39650    0.42880    0.38210    1.000
    H32      H        0.41980    0.33700    0.40090    1.000
    H33      H        0.48720    0.44850    0.43960    1.000
    C20      C        0.34140    0.36280    0.48475    1.000
    N33      N        0.34620    0.31550    0.54872    1.000
    N34      N        0.26500    0.29960    0.59314    1.000
    N35      N        0.20990    0.33700    0.55660    1.000
    N36      N        0.25720    0.37610    0.48963    1.000
    Zn5      Zn       0.43203    0.24768    0.57680    1.000
    Zn6      Zn       0.43203    0.24764    0.92317    1.000
    O5       O        0.57740    0.35140    0.55760    1.000
    O6       O        0.57770    0.35160    0.94270    1.000
    C21      C        0.50150    0.39090    0.75030    1.000
    H34      H        0.52500    0.41710    0.80100    1.000
    H35      H        0.45090    0.41090    0.73370    1.000
    H36      H        0.56120    0.42060    0.71620    1.000
    C22      C        0.39720    0.97910    0.92170    1.000
    H37      H        0.37790    0.90700    0.93270    1.000
    H38      H        0.36320    0.98140    0.87530    1.000
    H39      H        0.47280    0.02120    0.91580    1.000
    C23      C        0.36290    0.02160    0.98485    1.000
    N37      N        0.37600    0.11890    0.98973    1.000
    N38      N        0.33670    0.12690    0.05660    1.000
    N39      N        0.29930    0.03450    0.09300    1.000
    N40      N        0.31560    0.96950    0.04868    1.000
    C24      C        0.38460    0.84100    0.24980    1.000
    H40      H        0.41170    0.85390    0.19850    1.000
    H41      H        0.42920    0.90070    0.28130    1.000
    H42      H        0.38390    0.77860    0.26940    1.000
    C25      C        0.27460    0.82330    0.24995    1.000
    N41      N        0.21340    0.80290    0.18855    1.000
    N42      N        0.11480    0.76990    0.21212    1.000
    N43      N        0.11490    0.76990    0.28808    1.000
    N44      N        0.21370    0.80290    0.31146    1.000
    C26      C        0.39730    0.97940    0.57870    1.000
    H43      H        0.42880    0.03230    0.61790    1.000
    H44      H        0.33700    0.91720    0.59910    1.000
    H45      H        0.44850    0.96130    0.56040    1.000
    C27      C        0.36280    0.02140    0.51525    1.000
    N45      N        0.31550    0.96930    0.45128    1.000
    N46      N        0.29960    0.03460    0.40686    1.000
    N47      N        0.33700    0.12710    0.44340    1.000
    N48      N        0.37610    0.11890    0.51037    1.000
    Zn7      Zn       0.24768    0.81565    0.42320    1.000
    Zn8      Zn       0.24764    0.81561    0.07683    1.000
    O7       O        0.35140    0.77400    0.44240    1.000
    O8       O        0.35160    0.77390    0.05730    1.000
    C28      C        0.39090    0.88940    0.24970    1.000
    H46      H        0.41710    0.89210    0.19900    1.000
    H47      H        0.41090    0.96000    0.26630    1.000
    H48      H        0.42060    0.85940    0.28380    1.000
    C29      C        0.02090    0.41810    0.92170    1.000
    H49      H        0.09300    0.47090    0.93270    1.000
    H50      H        0.01860    0.38180    0.87530    1.000
    H51      H        0.97880    0.45160    0.91580    1.000
    C30      C        0.97840    0.34130    0.98485    1.000
    N49      N        0.88110    0.25710    0.98973    1.000
    N50      N        0.87310    0.20980    0.05660    1.000
    N51      N        0.96550    0.26480    0.09300    1.000
    N52      N        0.03050    0.34610    0.04868    1.000
    C31      C        0.15900    0.54360    0.24980    1.000
    H52      H        0.14610    0.55780    0.19850    1.000
    H53      H        0.09930    0.52850    0.28130    1.000
    H54      H        0.22140    0.60530    0.26940    1.000
    C32      C        0.17670    0.45130    0.24995    1.000
    N53      N        0.19710    0.41050    0.18855    1.000
    N54      N        0.23010    0.34490    0.21212    1.000
    N55      N        0.23010    0.34500    0.28808    1.000
    N56      N        0.19710    0.41080    0.31146    1.000
    C33      C        0.02060    0.41790    0.57870    1.000
    H55      H        0.96770    0.39650    0.61790    1.000
    H56      H        0.08280    0.41980    0.59910    1.000
    H57      H        0.03870    0.48720    0.56040    1.000
    C34      C        0.97860    0.34140    0.51525    1.000
    N57      N        0.03070    0.34620    0.45128    1.000
    N58      N        0.96540    0.26500    0.40686    1.000
    N59      N        0.87290    0.20990    0.44340    1.000
    N60      N        0.88110    0.25720    0.51037    1.000
    Zn9      Zn       0.18435    0.43203    0.42320    1.000
    Zn10     Zn       0.18439    0.43203    0.07683    1.000
    O9       O        0.22600    0.57740    0.44240    1.000
    O10      O        0.22610    0.57770    0.05730    1.000
    C35      C        0.11060    0.50150    0.24970    1.000
    H58      H        0.10790    0.52500    0.19900    1.000
    H59      H        0.04000    0.45090    0.26630    1.000
    H60      H        0.14060    0.56120    0.28380    1.000
    C36      C        0.58190    0.60280    0.92170    1.000
    H61      H        0.52910    0.62210    0.93270    1.000
    H62      H        0.61820    0.63680    0.87530    1.000
    H63      H        0.54840    0.52720    0.91580    1.000
    C37      C        0.65870    0.63710    0.98485    1.000
    N61      N        0.74290    0.62400    0.98973    1.000
    N62      N        0.79020    0.66330    0.05660    1.000
    N63      N        0.73520    0.70070    0.09300    1.000
    N64      N        0.65390    0.68440    0.04868    1.000
    C38      C        0.45640    0.61540    0.24980    1.000
    H64      H        0.44220    0.58830    0.19850    1.000
    H65      H        0.47150    0.57080    0.28130    1.000
    H66      H        0.39470    0.61610    0.26940    1.000
    C39      C        0.54870    0.72540    0.24995    1.000
    N65      N        0.58950    0.78660    0.18855    1.000
    N66      N        0.65510    0.88520    0.21212    1.000
    N67      N        0.65500    0.88510    0.28808    1.000
    N68      N        0.58920    0.78630    0.31146    1.000
    C40      C        0.58210    0.60270    0.57870    1.000
    H67      H        0.60350    0.57120    0.61790    1.000
    H68      H        0.58020    0.66300    0.59910    1.000
    H69      H        0.51280    0.55150    0.56040    1.000
    C41      C        0.65860    0.63720    0.51525    1.000
    N69      N        0.65380    0.68450    0.45128    1.000
    N70      N        0.73500    0.70040    0.40686    1.000
    N71      N        0.79010    0.66300    0.44340    1.000
    N72      N        0.74280    0.62390    0.51037    1.000
    Zn11     Zn       0.56797    0.75232    0.42320    1.000
    Zn12     Zn       0.56797    0.75236    0.07683    1.000
    O11      O        0.42260    0.64860    0.44240    1.000
    O12      O        0.42230    0.64840    0.05730    1.000
    C42      C        0.49850    0.60910    0.24970    1.000
    H70      H        0.47500    0.58290    0.19900    1.000
    H71      H        0.54910    0.58910    0.26630    1.000
    H72      H        0.43880    0.57940    0.28380    1.000
    P1       P        0.66667    0.33333    0.96772    1.000
    P2       P        0.66667    0.33333    0.53224    1.000
    P3       P        0.33333    0.66667    0.03228    1.000
    P4       P        0.33333    0.66667    0.46776    1.000
