data_functionalizedCrystal
_audit_creation_method	'EQeq! by Chris Wilmer'
_symmetry_space_group_name_H-M	'P1'
_symmetry_Int_Tables_number	1
_symmetry_cell_setting	triclinic
loop_
_symmetry_equiv_pos_as_xyz
  x,y,z
_cell_length_a	15.4775
_cell_length_b	19.1313
_cell_length_c	25.544
_cell_angle_alpha	90
_cell_angle_beta	90
_cell_angle_gamma	90
loop_
_atom_site_label
_atom_site_type_symbol
_atom_site_fract_x
_atom_site_fract_y
_atom_site_fract_z
_atom_site_charge
Mof_Zn	Zn	0.44326	0.66128	0.51702	1.192
Mof_Zn	Zn	0.43403	0.83707	0.51801	1.187
Mof_Zn	Zn	0.30836	0.74104	0.44199	1.171
Mof_Zn	Zn	0.041	0.03939	0.79745	1.214
Mof_Zn	Zn	0.98234	0.96935	0.70018	1.213
Mof_O 	O 	0.5554	0.1058	0.9203	-0.484
Mof_O 	O 	0.689	0.0881	0.9479	-0.375
Mof_O 	O 	0.9119	0.0369	0.8123	-0.473
Mof_O 	O 	0.8699	0.0045	0.7322	-0.473
Mof_O 	O 	0.3499	0.8724	0.5729	-0.473
Mof_O 	O 	0.4592	0.9401	0.5568	-0.433
Mof_O 	O 	0.1132	0.954	0.6908	-0.46
Mof_O 	O 	0.1515	0.0288	0.754	-0.476
Mof_O 	O 	0.0165	0.1256	0.7507	-0.46
Mof_O 	O 	0.0058	0.0695	0.6745	-0.474
Mof_O 	O 	0.0198	0.3868	0.7488	-0.47
Mof_O 	O 	0.9549	0.437	0.6798	-0.467
Mof_N 	N 	0.5529	0.7179	0.5281	-0.297
Mof_N 	N 	0.5504	0.79	0.5283	-0.304
Mof_N 	N 	0.6822	0.7568	0.5493	-0.392
Mof_N 	N 	0.4169	0.8659	0.4427	-0.311
Mof_N 	N 	0.361	0.8275	0.4117	-0.317
Mof_N 	N 	0.4177	0.9108	0.3631	-0.345
Mof_N 	N 	0.4315	0.6268	0.4428	-0.315
Mof_N 	N 	0.3665	0.6565	0.4129	-0.321
Mof_N 	N 	0.4358	0.5793	0.3648	-0.344
Mof_C 	C 	0.6634	0.6268	0.5441	-0.818
Mof_H 	H 	0.6149	0.5957	0.5408	0.23
Mof_H 	H 	0.691	0.6193	0.5772	0.239
Mof_H 	H 	0.7038	0.6179	0.5164	0.228
Mof_C 	C 	0.6329	0.7004	0.5408	0.275
Mof_C 	C 	0.6291	0.8118	0.5408	0.3
Mof_C 	C 	0.6574	0.8857	0.5436	-0.91
Mof_H 	H 	0.6853	0.8985	0.5114	0.28
Mof_H 	H 	0.6971	0.8914	0.5721	0.26
Mof_H 	H 	0.608	0.9152	0.5491	0.279
Mof_C 	C 	0.5139	0.9678	0.4303	-0.907
Mof_H 	H 	0.5295	0.9579	0.4659	0.269
Mof_H 	H 	0.4891	0.0137	0.4282	0.292
Mof_H 	H 	0.5645	0.9657	0.4087	0.296
Mof_C 	C 	0.4493	0.9149	0.4117	0.32
Mof_C 	C 	0.3633	0.8563	0.3646	0.291
Mof_C 	C 	0.3091	0.8319	0.3196	-0.848
Mof_H 	H 	0.2728	0.7941	0.3309	0.222
Mof_H 	H 	0.3459	0.8161	0.2918	0.272
Mof_H 	H 	0.2738	0.8698	0.3074	0.269
Mof_C 	C 	0.5457	0.5377	0.4304	-0.897
Mof_H 	H 	0.5986	0.5614	0.422	0.28
Mof_H 	H 	0.5441	0.4935	0.4126	0.289
Mof_H 	H 	0.5425	0.5302	0.4675	0.254
Mof_C 	C 	0.4715	0.581	0.4134	0.319
Mof_C 	C 	0.3713	0.6261	0.3665	0.307
Mof_C 	C 	0.3111	0.6407	0.3226	-0.875
Mof_H 	H 	0.2735	0.6786	0.332	0.231
Mof_H 	H 	0.2774	0.5998	0.3153	0.277
Mof_H 	H 	0.3437	0.6533	0.292	0.28
Mof_C 	C 	0.6345	0.0859	0.9131	0.299
Mof_C 	C 	0.656	0.0625	0.8582	-0.047
Mof_C 	C 	0.7431	0.0535	0.8449	-0.012
Mof_H 	H 	0.7864	0.0602	0.8696	0.04
Mof_C 	C 	0.7634	0.0342	0.7938	-0.066
Mof_C 	C 	0.8556	0.0249	0.7783	0.375
Mof_C 	C 	0.6982	0.025	0.7575	-0.098
Mof_H 	H 	0.7125	0.0123	0.7234	0.061
Mof_C 	C 	0.6133	0.0342	0.7703	0.122
Mof_C 	C 	0.5925	0.0531	0.8213	-0.108
Mof_H 	H 	0.535	0.0595	0.8305	0.071
Mof_C 	C 	0.391	0.9277	0.5817	0.306
Mof_C 	C 	0.3568	0.9771	0.6213	-0.06
Mof_C 	C 	0.2793	0.9625	0.6475	-0.01
Mof_H 	H 	0.2487	0.9219	0.6399	0.045
Mof_C 	C 	0.2485	0.0091	0.6847	-0.068
Mof_C 	C 	0.1641	0.9956	0.7122	0.374
Mof_C 	C 	0.2944	0.0708	0.6957	-0.097
Mof_H 	H 	0.2732	0.1019	0.7206	0.057
Mof_C 	C 	0.3711	0.0858	0.6697	0.12
Mof_C 	C 	0.4021	0.0386	0.6319	-0.107
Mof_H 	H 	0.4529	0.0483	0.6139	0.066
Mof_C 	C 	0.009	0.1241	0.7013	0.377
Mof_C 	C 	0.005	0.1919	0.6733	-0.084
Mof_C 	C 	0.0038	0.2551	0.7009	0.009
Mof_H 	H 	0.0103	0.2553	0.7371	0.037
Mof_C 	C 	0.9929	0.3176	0.6739	-0.074
Mof_C 	C 	0.9888	0.3858	0.7029	0.369
Mof_C 	C 	0.9859	0.3179	0.6195	-0.08
Mof_H 	H 	0.9765	0.3596	0.6018	0.055
Mof_C 	C 	0.9931	0.2553	0.5918	0.104
Mof_C 	C 	0.9994	0.1919	0.6187	-0.076
Mof_H 	H 	0.9999	0.1499	0.6003	0.058
Mof_N 	N 	0.5481	0.0228	0.7329	-0.309
Mof_H 	H 	0.5616	0.01	0.7017	0.138
Mof_H 	H 	0.4947	0.0286	0.7413	0.143
Mof_N 	N 	0.4148	0.1463	0.6813	-0.309
Mof_H 	H 	0.3947	0.1745	0.7045	0.133
Mof_H 	H 	0.4623	0.1559	0.6654	0.137
Mof_N 	N 	0.9879	0.2563	0.5366	-0.3
Mof_H 	H 	0.9886	0.2177	0.5193	0.134
Mof_H 	H 	0.984	0.2955	0.5202	0.134
Mof_O 	O 	0.3664	0.7443	0.51107	-0.937
Mof_H 	H 	0.326	0.7541	0.5325	0.272
Mof_Zn	Zn	0.05674	0.33872	0.01702	1.191
Mof_Zn	Zn	0.06597	0.16293	0.01801	1.186
Mof_Zn	Zn	0.19164	0.25896	0.94199	1.17
Mof_Zn	Zn	0.459	0.96061	0.29745	1.214
Mof_Zn	Zn	0.51766	0.03065	0.20018	1.213
Mof_O 	O 	0.9446	0.8942	0.4203	-0.486
Mof_O 	O 	0.811	0.9119	0.4479	-0.377
Mof_O 	O 	0.5881	0.9631	0.3123	-0.474
Mof_O 	O 	0.6301	0.9955	0.2322	-0.476
Mof_O 	O 	0.1501	0.1276	0.0729	-0.474
Mof_O 	O 	0.0408	0.0599	0.0568	-0.434
Mof_O 	O 	0.3868	0.046	0.1908	-0.461
Mof_O 	O 	0.3485	0.9712	0.254	-0.473
Mof_O 	O 	0.4835	0.8744	0.2507	-0.459
Mof_O 	O 	0.4942	0.9305	0.1745	-0.473
Mof_O 	O 	0.4802	0.6132	0.2488	-0.47
Mof_O 	O 	0.5451	0.563	0.1798	-0.467
Mof_N 	N 	0.9471	0.2821	0.0281	-0.297
Mof_N 	N 	0.9496	0.21	0.0283	-0.303
Mof_N 	N 	0.8178	0.2432	0.0493	-0.393
Mof_N 	N 	0.0831	0.1341	0.9427	-0.31
Mof_N 	N 	0.139	0.1725	0.9117	-0.317
Mof_N 	N 	0.0823	0.0892	0.8631	-0.345
Mof_N 	N 	0.0685	0.3732	0.9428	-0.315
Mof_N 	N 	0.1335	0.3435	0.9129	-0.321
Mof_N 	N 	0.0642	0.4207	0.8648	-0.344
Mof_C 	C 	0.8366	0.3732	0.0441	-0.818
Mof_H 	H 	0.8851	0.4043	0.0408	0.23
Mof_H 	H 	0.809	0.3807	0.0772	0.24
Mof_H 	H 	0.7962	0.3821	0.0164	0.228
Mof_C 	C 	0.8671	0.2996	0.0408	0.275
Mof_C 	C 	0.8709	0.1882	0.0408	0.301
Mof_C 	C 	0.8426	0.1143	0.0436	-0.912
Mof_H 	H 	0.8147	0.1015	0.0114	0.281
Mof_H 	H 	0.8029	0.1086	0.0721	0.261
Mof_H 	H 	0.892	0.0848	0.0491	0.28
Mof_C 	C 	0.9861	0.0322	0.9303	-0.894
Mof_H 	H 	0.9705	0.0421	0.9659	0.267
Mof_H 	H 	0.0109	0.9863	0.9282	0.288
Mof_H 	H 	0.9355	0.0343	0.9087	0.293
Mof_C 	C 	0.0507	0.0851	0.9117	0.315
Mof_C 	C 	0.1367	0.1437	0.8646	0.291
Mof_C 	C 	0.1909	0.1681	0.8196	-0.848
Mof_H 	H 	0.2272	0.2059	0.8309	0.222
Mof_H 	H 	0.1541	0.1839	0.7918	0.272
Mof_H 	H 	0.2262	0.1302	0.8074	0.269
Mof_C 	C 	0.9543	0.4623	0.9304	-0.896
Mof_H 	H 	0.9014	0.4386	0.922	0.279
Mof_H 	H 	0.9559	0.5065	0.9126	0.289
Mof_H 	H 	0.9575	0.4698	0.9675	0.254
Mof_C 	C 	0.0285	0.419	0.9134	0.318
Mof_C 	C 	0.1287	0.3739	0.8665	0.307
Mof_C 	C 	0.1889	0.3593	0.8226	-0.875
Mof_H 	H 	0.2265	0.3214	0.832	0.231
Mof_H 	H 	0.2226	0.4002	0.8153	0.277
Mof_H 	H 	0.1563	0.3467	0.792	0.28
Mof_C 	C 	0.8655	0.9141	0.4131	0.299
Mof_C 	C 	0.844	0.9375	0.3582	-0.048
Mof_C 	C 	0.7569	0.9465	0.3449	-0.012
Mof_H 	H 	0.7136	0.9398	0.3696	0.039
Mof_C 	C 	0.7366	0.9658	0.2938	-0.067
Mof_C 	C 	0.6444	0.9751	0.2783	0.375
Mof_C 	C 	0.8018	0.975	0.2575	-0.098
Mof_H 	H 	0.7875	0.9877	0.2234	0.06
Mof_C 	C 	0.8867	0.9658	0.2703	0.121
Mof_C 	C 	0.9075	0.9469	0.3213	-0.108
Mof_H 	H 	0.965	0.9405	0.3305	0.07
Mof_C 	C 	0.109	0.0723	0.0817	0.307
Mof_C 	C 	0.1432	0.0229	0.1213	-0.061
Mof_C 	C 	0.2207	0.0375	0.1475	-0.016
Mof_H 	H 	0.2513	0.0781	0.1399	0.046
Mof_C 	C 	0.2515	0.9909	0.1847	-0.06
Mof_C 	C 	0.3359	0.0044	0.2122	0.366
Mof_C 	C 	0.2056	0.9292	0.1957	-0.1
Mof_H 	H 	0.2268	0.8981	0.2206	0.059
Mof_C 	C 	0.1289	0.9142	0.1697	0.121
Mof_C 	C 	0.0979	0.9614	0.1319	-0.104
Mof_H 	H 	0.0471	0.9517	0.1139	0.066
Mof_C 	C 	0.491	0.8759	0.2013	0.376
Mof_C 	C 	0.495	0.8081	0.1733	-0.082
Mof_C 	C 	0.4962	0.7449	0.2009	0.01
Mof_H 	H 	0.4897	0.7447	0.2371	0.037
Mof_C 	C 	0.5071	0.6824	0.1739	-0.075
Mof_C 	C 	0.5112	0.6142	0.2029	0.369
Mof_C 	C 	0.5141	0.6821	0.1195	-0.08
Mof_H 	H 	0.5235	0.6404	0.1018	0.055
Mof_C 	C 	0.5069	0.7447	0.0918	0.104
Mof_C 	C 	0.5006	0.8081	0.1187	-0.078
Mof_H 	H 	0.5001	0.8501	0.1003	0.058
Mof_N 	N 	0.9519	0.9772	0.2329	-0.312
Mof_H 	H 	0.9384	0.99	0.2017	0.137
Mof_H 	H 	0.0053	0.9714	0.2413	0.147
Mof_N 	N 	0.0852	0.8537	0.1813	-0.309
Mof_H 	H 	0.1053	0.8255	0.2045	0.133
Mof_H 	H 	0.0377	0.8441	0.1654	0.138
Mof_N 	N 	0.5121	0.7437	0.0366	-0.3
Mof_H 	H 	0.5114	0.7823	0.0193	0.134
Mof_H 	H 	0.516	0.7045	0.0202	0.134
Mof_O 	O 	0.1336	0.2557	0.01107	-0.937
Mof_H 	H 	0.174	0.2459	0.0325	0.272
Mof_Zn	Zn	0.55674	0.16128	0.98298	1.192
Mof_Zn	Zn	0.56597	0.33707	0.98199	1.186
Mof_Zn	Zn	0.69164	0.24104	0.05801	1.17
Mof_Zn	Zn	0.959	0.53939	0.70255	1.214
Mof_Zn	Zn	0.01766	0.46935	0.79982	1.213
Mof_O 	O 	0.4446	0.6058	0.5797	-0.485
Mof_O 	O 	0.311	0.5881	0.5521	-0.377
Mof_O 	O 	0.0881	0.5369	0.6877	-0.474
Mof_O 	O 	0.1301	0.5045	0.7678	-0.475
Mof_O 	O 	0.6501	0.3724	0.9271	-0.473
Mof_O 	O 	0.5408	0.4401	0.9432	-0.433
Mof_O 	O 	0.8868	0.454	0.8092	-0.461
Mof_O 	O 	0.8485	0.5288	0.746	-0.475
Mof_O 	O 	0.9835	0.6256	0.7493	-0.459
Mof_O 	O 	0.9942	0.5695	0.8255	-0.473
Mof_O 	O 	0.9802	0.8868	0.7512	-0.473
Mof_O 	O 	0.0451	0.937	0.8202	-0.467
Mof_N 	N 	0.4471	0.2179	0.9719	-0.297
Mof_N 	N 	0.4496	0.29	0.9717	-0.304
Mof_N 	N 	0.3178	0.2568	0.9507	-0.393
Mof_N 	N 	0.5831	0.3659	0.0573	-0.311
Mof_N 	N 	0.639	0.3275	0.0883	-0.317
Mof_N 	N 	0.5823	0.4108	0.1369	-0.345
Mof_N 	N 	0.5685	0.1268	0.0572	-0.315
Mof_N 	N 	0.6335	0.1565	0.0871	-0.321
Mof_N 	N 	0.5642	0.0793	0.1352	-0.344
Mof_C 	C 	0.3366	0.1268	0.9559	-0.818
Mof_H 	H 	0.3851	0.0957	0.9592	0.23
Mof_H 	H 	0.309	0.1193	0.9228	0.24
Mof_H 	H 	0.2962	0.1179	0.9836	0.228
Mof_C 	C 	0.3671	0.2004	0.9592	0.275
Mof_C 	C 	0.3709	0.3118	0.9592	0.301
Mof_C 	C 	0.3426	0.3857	0.9564	-0.911
Mof_H 	H 	0.3147	0.3985	0.9886	0.28
Mof_H 	H 	0.3029	0.3914	0.9279	0.261
Mof_H 	H 	0.392	0.4152	0.9509	0.279
Mof_C 	C 	0.4861	0.4678	0.0697	-0.906
Mof_H 	H 	0.4705	0.4579	0.0341	0.269
Mof_H 	H 	0.5109	0.5137	0.0718	0.291
Mof_H 	H 	0.4355	0.4657	0.0913	0.296
Mof_C 	C 	0.5507	0.4149	0.0883	0.32
Mof_C 	C 	0.6367	0.3563	0.1354	0.291
Mof_C 	C 	0.6909	0.3319	0.1804	-0.848
Mof_H 	H 	0.7272	0.2941	0.1691	0.222
Mof_H 	H 	0.6541	0.3161	0.2082	0.272
Mof_H 	H 	0.7262	0.3698	0.1926	0.269
Mof_C 	C 	0.4543	0.0377	0.0696	-0.9
Mof_H 	H 	0.4014	0.0614	0.078	0.28
Mof_H 	H 	0.4559	0.9935	0.0874	0.291
Mof_H 	H 	0.4575	0.0302	0.0325	0.255
Mof_C 	C 	0.5285	0.081	0.0866	0.319
Mof_C 	C 	0.6287	0.1261	0.1335	0.307
Mof_C 	C 	0.6889	0.1407	0.1774	-0.876
Mof_H 	H 	0.7265	0.1786	0.168	0.232
Mof_H 	H 	0.7226	0.0998	0.1847	0.278
Mof_H 	H 	0.6563	0.1533	0.208	0.281
Mof_C 	C 	0.3655	0.5859	0.5869	0.299
Mof_C 	C 	0.344	0.5625	0.6418	-0.048
Mof_C 	C 	0.2569	0.5535	0.6551	-0.012
Mof_H 	H 	0.2136	0.5602	0.6304	0.039
Mof_C 	C 	0.2366	0.5342	0.7062	-0.067
Mof_C 	C 	0.1444	0.5249	0.7217	0.375
Mof_C 	C 	0.3018	0.525	0.7425	-0.098
Mof_H 	H 	0.2875	0.5123	0.7766	0.06
Mof_C 	C 	0.3867	0.5342	0.7297	0.121
Mof_C 	C 	0.4075	0.5531	0.6787	-0.108
Mof_H 	H 	0.465	0.5595	0.6695	0.071
Mof_C 	C 	0.609	0.4277	0.9183	0.306
Mof_C 	C 	0.6432	0.4771	0.8787	-0.059
Mof_C 	C 	0.7207	0.4625	0.8525	-0.013
Mof_H 	H 	0.7513	0.4219	0.8601	0.045
Mof_C 	C 	0.7515	0.5091	0.8153	-0.064
Mof_C 	C 	0.8359	0.4956	0.7878	0.37
Mof_C 	C 	0.7056	0.5708	0.8043	-0.099
Mof_H 	H 	0.7268	0.6019	0.7794	0.058
Mof_C 	C 	0.6289	0.5858	0.8303	0.121
Mof_C 	C 	0.5979	0.5386	0.8681	-0.108
Mof_H 	H 	0.5471	0.5483	0.8861	0.066
Mof_C 	C 	0.991	0.6241	0.7987	0.377
Mof_C 	C 	0.995	0.6919	0.8267	-0.083
Mof_C 	C 	0.9962	0.7551	0.7991	0.007
Mof_H 	H 	0.9897	0.7553	0.7629	0.038
Mof_C 	C 	0.0071	0.8176	0.8261	-0.073
Mof_C 	C 	0.0112	0.8858	0.7971	0.371
Mof_C 	C 	0.0141	0.8179	0.8805	-0.08
Mof_H 	H 	0.0235	0.8596	0.8982	0.055
Mof_C 	C 	0.0069	0.7553	0.9082	0.104
Mof_C 	C 	0.0006	0.6919	0.8813	-0.076
Mof_H 	H 	0.0001	0.6499	0.8997	0.058
Mof_N 	N 	0.4519	0.5228	0.7671	-0.308
Mof_H 	H 	0.4384	0.51	0.7983	0.137
Mof_H 	H 	0.5053	0.5286	0.7587	0.143
Mof_N 	N 	0.5852	0.6463	0.8187	-0.309
Mof_H 	H 	0.6053	0.6745	0.7955	0.133
Mof_H 	H 	0.5377	0.6559	0.8346	0.137
Mof_N 	N 	0.0121	0.7563	0.9634	-0.3
Mof_H 	H 	0.0114	0.7177	0.9807	0.134
Mof_H 	H 	0.016	0.7955	0.9798	0.134
Mof_O 	O 	0.6336	0.2443	0.98893	-0.936
Mof_H 	H 	0.674	0.2541	0.9675	0.272
Mof_Zn	Zn	0.94326	0.83872	0.48298	1.191
Mof_Zn	Zn	0.93403	0.66293	0.48199	1.186
Mof_Zn	Zn	0.80836	0.75896	0.55801	1.17
Mof_Zn	Zn	0.541	0.46061	0.20255	1.214
Mof_Zn	Zn	0.48234	0.53065	0.29982	1.213
Mof_O 	O 	0.0554	0.3942	0.0797	-0.485
Mof_O 	O 	0.189	0.4119	0.0521	-0.377
Mof_O 	O 	0.4119	0.4631	0.1877	-0.474
Mof_O 	O 	0.3699	0.4955	0.2678	-0.475
Mof_O 	O 	0.8499	0.6276	0.4271	-0.474
Mof_O 	O 	0.9592	0.5599	0.4432	-0.433
Mof_O 	O 	0.6132	0.546	0.3092	-0.461
Mof_O 	O 	0.6515	0.4712	0.246	-0.475
Mof_O 	O 	0.5165	0.3744	0.2493	-0.459
Mof_O 	O 	0.5058	0.4305	0.3255	-0.473
Mof_O 	O 	0.5198	0.1132	0.2512	-0.47
Mof_O 	O 	0.4549	0.063	0.3202	-0.467
Mof_N 	N 	0.0529	0.7821	0.4719	-0.296
Mof_N 	N 	0.0504	0.71	0.4717	-0.303
Mof_N 	N 	0.1822	0.7432	0.4507	-0.393
Mof_N 	N 	0.9169	0.6341	0.5573	-0.311
Mof_N 	N 	0.861	0.6725	0.5883	-0.317
Mof_N 	N 	0.9177	0.5892	0.6369	-0.345
Mof_N 	N 	0.9315	0.8732	0.5572	-0.314
Mof_N 	N 	0.8665	0.8435	0.5871	-0.321
Mof_N 	N 	0.9358	0.9207	0.6352	-0.343
Mof_C 	C 	0.1634	0.8732	0.4559	-0.82
Mof_H 	H 	0.1149	0.9043	0.4592	0.232
Mof_H 	H 	0.191	0.8807	0.4228	0.24
Mof_H 	H 	0.2038	0.8821	0.4836	0.229
Mof_C 	C 	0.1329	0.7996	0.4592	0.276
Mof_C 	C 	0.1291	0.6882	0.4592	0.301
Mof_C 	C 	0.1574	0.6143	0.4564	-0.911
Mof_H 	H 	0.1853	0.6015	0.4886	0.28
Mof_H 	H 	0.1971	0.6086	0.4279	0.261
Mof_H 	H 	0.108	0.5848	0.4509	0.28
Mof_C 	C 	0.0139	0.5322	0.5697	-0.901
Mof_H 	H 	0.0295	0.5421	0.5341	0.268
Mof_H 	H 	0.9891	0.4863	0.5718	0.289
Mof_H 	H 	0.0645	0.5343	0.5913	0.294
Mof_C 	C 	0.9493	0.5851	0.5883	0.318
Mof_C 	C 	0.8633	0.6437	0.6354	0.291
Mof_C 	C 	0.8091	0.6681	0.6804	-0.848
Mof_H 	H 	0.7728	0.7059	0.6691	0.222
Mof_H 	H 	0.8459	0.6839	0.7082	0.271
Mof_H 	H 	0.7738	0.6302	0.6926	0.269
Mof_C 	C 	0.0457	0.9623	0.5696	-0.873
Mof_H 	H 	0.0986	0.9386	0.578	0.273
Mof_H 	H 	0.0441	0.0065	0.5874	0.28
Mof_H 	H 	0.0425	0.9698	0.5325	0.249
Mof_C 	C 	0.9715	0.919	0.5866	0.31
Mof_C 	C 	0.8713	0.8739	0.6335	0.306
Mof_C 	C 	0.8111	0.8593	0.6774	-0.873
Mof_H 	H 	0.7735	0.8214	0.668	0.231
Mof_H 	H 	0.7774	0.9002	0.6847	0.276
Mof_H 	H 	0.8437	0.8467	0.708	0.279
Mof_C 	C 	0.1345	0.4141	0.0869	0.299
Mof_C 	C 	0.156	0.4375	0.1418	-0.048
Mof_C 	C 	0.2431	0.4465	0.1551	-0.012
Mof_H 	H 	0.2864	0.4398	0.1304	0.039
Mof_C 	C 	0.2634	0.4658	0.2062	-0.067
Mof_C 	C 	0.3556	0.4751	0.2217	0.375
Mof_C 	C 	0.1982	0.475	0.2425	-0.098
Mof_H 	H 	0.2125	0.4877	0.2766	0.06
Mof_C 	C 	0.1133	0.4658	0.2297	0.121
Mof_C 	C 	0.0925	0.4469	0.1787	-0.108
Mof_H 	H 	0.035	0.4405	0.1695	0.071
Mof_C 	C 	0.891	0.5723	0.4183	0.306
Mof_C 	C 	0.8568	0.5229	0.3787	-0.059
Mof_C 	C 	0.7793	0.5375	0.3525	-0.013
Mof_H 	H 	0.7487	0.5781	0.3601	0.045
Mof_C 	C 	0.7485	0.4909	0.3153	-0.064
Mof_C 	C 	0.6641	0.5044	0.2878	0.37
Mof_C 	C 	0.7944	0.4292	0.3043	-0.099
Mof_H 	H 	0.7732	0.3981	0.2794	0.058
Mof_C 	C 	0.8711	0.4142	0.3303	0.121
Mof_C 	C 	0.9021	0.4614	0.3681	-0.108
Mof_H 	H 	0.9529	0.4517	0.3861	0.066
Mof_C 	C 	0.509	0.3759	0.2987	0.376
Mof_C 	C 	0.505	0.3081	0.3267	-0.082
Mof_C 	C 	0.5038	0.2449	0.2991	0.01
Mof_H 	H 	0.5103	0.2447	0.2629	0.037
Mof_C 	C 	0.4929	0.1824	0.3261	-0.075
Mof_C 	C 	0.4888	0.1142	0.2971	0.369
Mof_C 	C 	0.4859	0.1821	0.3805	-0.08
Mof_H 	H 	0.4765	0.1404	0.3982	0.055
Mof_C 	C 	0.4931	0.2447	0.4082	0.104
Mof_C 	C 	0.4994	0.3081	0.3813	-0.078
Mof_H 	H 	0.4999	0.3501	0.3997	0.058
Mof_N 	N 	0.0481	0.4772	0.2671	-0.308
Mof_H 	H 	0.0616	0.49	0.2983	0.137
Mof_H 	H 	0.9947	0.4714	0.2587	0.143
Mof_N 	N 	0.9148	0.3537	0.3187	-0.309
Mof_H 	H 	0.8947	0.3255	0.2955	0.133
Mof_H 	H 	0.9623	0.3441	0.3346	0.137
Mof_N 	N 	0.4879	0.2437	0.4634	-0.3
Mof_H 	H 	0.4886	0.2823	0.4807	0.134
Mof_H 	H 	0.484	0.2045	0.4798	0.134
Mof_O 	O 	0.8664	0.7557	0.48893	-0.937
Mof_H 	H 	0.826	0.7459	0.4675	0.272
_end
