# CIF file generated by openbabel 3.1.0, see https://openbabel.org
data_I
_chemical_name_common 'image0'
_cell_length_a 17.34
_cell_length_b 6.6053
_cell_length_c 11.54
_cell_angle_alpha 90
_cell_angle_beta 95.41
_cell_angle_gamma 90
_space_group_name_H-M_alt 'P 1'
_space_group_name_Hall 'P 1'
loop_
    _symmetry_equiv_pos_as_xyz
    x,y,z
loop_
    _atom_site_label
    _atom_site_type_symbol
    _atom_site_fract_x
    _atom_site_fract_y
    _atom_site_fract_z
    _atom_site_occupancy
    Zr1      Zr       0.85979    0.85487    0.10017    1.000
    Zr2      Zr       0.22146    0.84751    0.35054    1.000
    P1       P        0.22812    0.85260    0.63908    1.000
    P2       P        0.69236    0.85510    0.91438    1.000
    P3       P        0.05782    0.78530    0.16692    1.000
    F1       F        0.32900    0.83870    0.42220    1.000
    O1       O        0.10610    0.84940    0.27720    1.000
    O2       O        0.74780    0.85430    0.02530    1.000
    O3       O        0.18320    0.85040    0.51800    1.000
    O4       O        0.97520    0.85920    0.17150    1.000
    O5       O        0.05910    0.55040    0.17130    1.000
    O6       O        0.64210    0.04270    0.90760    1.000
    O7       O        0.17140    0.85870    0.73290    1.000
    O8       O        0.28200    0.03400    0.65110    1.000
    O9       O        0.63810    0.66900    0.91450    1.000
    O10      O        0.27750    0.65950    0.65330    1.000
    O11      O        0.09140    0.85570    0.05860    1.000
    O12      O        0.73920    0.84190    0.80960    1.000
    Zr3      Zr       0.35979    0.35487    0.10017    1.000
    Zr4      Zr       0.72146    0.34751    0.35054    1.000
    P4       P        0.72812    0.35260    0.63908    1.000
    P5       P        0.19236    0.35510    0.91438    1.000
    P6       P        0.55782    0.28530    0.16692    1.000
    F2       F        0.82900    0.33870    0.42220    1.000
    O13      O        0.60610    0.34940    0.27720    1.000
    O14      O        0.24780    0.35430    0.02530    1.000
    O15      O        0.68320    0.35040    0.51800    1.000
    O16      O        0.47520    0.35920    0.17150    1.000
    O17      O        0.55910    0.05040    0.17130    1.000
    O18      O        0.14210    0.54270    0.90760    1.000
    O19      O        0.67140    0.35870    0.73290    1.000
    O20      O        0.78200    0.53400    0.65110    1.000
    O21      O        0.13810    0.16900    0.91450    1.000
    O22      O        0.77750    0.15950    0.65330    1.000
    O23      O        0.59140    0.35570    0.05860    1.000
    O24      O        0.23920    0.34190    0.80960    1.000
    Zr5      Zr       0.14021    0.85487    0.89983    1.000
    Zr6      Zr       0.77854    0.84751    0.64946    1.000
    P7       P        0.77188    0.85260    0.36092    1.000
    P8       P        0.30764    0.85510    0.08562    1.000
    P9       P        0.94218    0.78530    0.83308    1.000
    F3       F        0.67100    0.83870    0.57780    1.000
    O25      O        0.89390    0.84940    0.72280    1.000
    O26      O        0.25220    0.85430    0.97470    1.000
    O27      O        0.81680    0.85040    0.48200    1.000
    O28      O        0.02480    0.85920    0.82850    1.000
    O29      O        0.94090    0.55040    0.82870    1.000
    O30      O        0.35790    0.04270    0.09240    1.000
    O31      O        0.82860    0.85870    0.26710    1.000
    O32      O        0.71800    0.03400    0.34890    1.000
    O33      O        0.36190    0.66900    0.08550    1.000
    O34      O        0.72250    0.65950    0.34670    1.000
    O35      O        0.90860    0.85570    0.94140    1.000
    O36      O        0.26080    0.84190    0.19040    1.000
    Zr7      Zr       0.64021    0.35487    0.89983    1.000
    Zr8      Zr       0.27854    0.34751    0.64946    1.000
    P10      P        0.27188    0.35260    0.36092    1.000
    P11      P        0.80764    0.35510    0.08562    1.000
    P12      P        0.44218    0.28530    0.83308    1.000
    F4       F        0.17100    0.33870    0.57780    1.000
    O37      O        0.39390    0.34940    0.72280    1.000
    O38      O        0.75220    0.35430    0.97470    1.000
    O39      O        0.31680    0.35040    0.48200    1.000
    O40      O        0.52480    0.35920    0.82850    1.000
    O41      O        0.44090    0.05040    0.82870    1.000
    O42      O        0.85790    0.54270    0.09240    1.000
    O43      O        0.32860    0.35870    0.26710    1.000
    O44      O        0.21800    0.53400    0.34890    1.000
    O45      O        0.86190    0.16900    0.08550    1.000
    O46      O        0.22250    0.15950    0.34670    1.000
    O47      O        0.40860    0.35570    0.94140    1.000
    O48      O        0.76080    0.34190    0.19040    1.000
