data_functionalizedCrystal
_audit_creation_method	'EQeq! by Chris Wilmer'
_symmetry_space_group_name_H-M	'P1'
_symmetry_Int_Tables_number	1
_symmetry_cell_setting	triclinic
loop_
_symmetry_equiv_pos_as_xyz
  x,y,z
_cell_length_a	14.1869
_cell_length_b	14.8623
_cell_length_c	14.8623
_cell_angle_alpha	76.8064
_cell_angle_beta	63.571
_cell_angle_gamma	116.429
loop_
_atom_site_label
_atom_site_type_symbol
_atom_site_fract_x
_atom_site_fract_y
_atom_site_fract_z
_atom_site_charge
Mof_Cd	Cd	0.75	0.43594	0.93594	0.515
Mof_Cd	Cd	0.25	0.56406	0.06406	0.475
Mof_Cd	Cd	2.67082e-17	0.5	-0	0.381
Mof_Cd	Cd	0.5	0.5	-0	0.392
Mof_Si	Si	0.25	0.20678	0.70678	0.815
Mof_Si	Si	0.75	0.79322	0.29322	0.818
Mof_H 	H 	0.0975	0.0399	0.6647	-0.026
Mof_H 	H 	0.9804	0.8397	0.7341	0.11
Mof_H 	H 	0.0418	0.7974	0.9752	0.1
Mof_H 	H 	0.1605	0.9983	0.9041	-0.016
Mof_H 	H 	0.2893	0.4176	0.7032	-0.01
Mof_H 	H 	0.1531	0.472	0.7736	0.086
Mof_H 	H 	0.8272	0.152	0.8958	0.085
Mof_H 	H 	0.9611	0.0967	0.8255	0.017
Mof_H 	H 	0.4025	0.1647	0.5399	-0.016
Mof_H 	H 	0.5196	0.2341	0.3397	0.085
Mof_H 	H 	0.4582	0.4752	0.2974	0.087
Mof_H 	H 	0.3395	0.4041	0.4983	-0.02
Mof_H 	H 	0.2107	0.2032	0.9176	-0.005
Mof_H 	H 	0.3469	0.2736	0.972	0.092
Mof_H 	H 	0.6728	0.3958	0.652	0.09
Mof_H 	H 	0.5389	0.3255	0.5967	-0.013
Mof_H 	H 	0.9025	0.9601	0.3353	-0.006
Mof_H 	H 	0.0196	0.1603	0.2659	0.065
Mof_H 	H 	0.9582	0.2026	0.0248	0.077
Mof_H 	H 	0.8395	0.0017	0.0959	-0.022
Mof_H 	H 	0.7107	0.5824	0.2968	-0.013
Mof_H 	H 	0.8469	0.528	0.2264	0.08
Mof_H 	H 	0.1728	0.848	0.1042	0.092
Mof_H 	H 	0.0389	0.9033	0.1745	-0.046
Mof_H 	H 	0.5975	0.8353	0.4601	-0.018
Mof_H 	H 	0.4804	0.7659	0.6603	0.091
Mof_H 	H 	0.5418	0.5248	0.7026	0.09
Mof_H 	H 	0.6605	0.5959	0.5017	-0.019
Mof_H 	H 	0.7893	0.7968	0.0824	-0.018
Mof_H 	H 	0.6531	0.7264	0.028	0.073
Mof_H 	H 	0.3272	0.6042	0.348	0.085
Mof_H 	H 	0.4611	0.6745	0.4033	-0.014
Mof_C 	C 	0.14513	0.04267	0.77471	-0.311
Mof_C 	C 	0.088	0.99128	0.72728	0.136
Mof_C 	C 	0.0181	0.87192	0.76832	-0.156
Mof_C 	C 	0.00307	0.79925	0.85945	0.025
Mof_C 	C 	0.0546	0.84694	0.91054	-0.135
Mof_C 	C 	0.1249	0.9669	0.8681	0.132
Mof_C 	C 	0.93117	0.66957	0.90277	0.286
Mof_C 	C 	0.13976	0.24991	0.75813	-0.276
Mof_C 	C 	0.1954	0.36292	0.74252	0.099
Mof_C 	C 	0.11445	0.39565	0.78405	-0.116
Mof_C 	C 	0.97785	0.31712	0.84052	0.02
Mof_C 	C 	0.92123	0.20601	0.85641	-0.083
Mof_C 	C 	0.0011	0.17305	0.81505	0.06
Mof_C 	C 	0.89011	0.35151	0.88951	0.271
Mof_C 	C 	0.35487	0.27471	0.54267	-0.302
Mof_C 	C 	0.412	0.22728	0.49128	0.114
Mof_C 	C 	0.4819	0.26832	0.37192	-0.123
Mof_C 	C 	0.49693	0.35945	0.29925	0.012
Mof_C 	C 	0.4454	0.41054	0.34694	-0.128
Mof_C 	C 	0.3751	0.3681	0.4669	0.119
Mof_C 	C 	0.56883	0.40277	0.16957	0.281
Mof_C 	C 	0.36024	0.25813	0.74991	-0.291
Mof_C 	C 	0.3046	0.24252	0.86292	0.105
Mof_C 	C 	0.38555	0.28405	0.89565	-0.11
Mof_C 	C 	0.52215	0.34052	0.81712	0.016
Mof_C 	C 	0.57877	0.35641	0.70601	-0.121
Mof_C 	C 	0.4989	0.31505	0.67305	0.109
Mof_C 	C 	0.60989	0.38951	0.85151	0.267
Mof_C 	C 	0.85487	0.95733	0.22529	-0.292
Mof_C 	C 	0.912	0.00872	0.27272	0.092
Mof_C 	C 	0.9819	0.12808	0.23168	-0.091
Mof_C 	C 	0.99693	0.20075	0.14055	0.008
Mof_C 	C 	0.9454	0.15306	0.08946	-0.123
Mof_C 	C 	0.8751	0.0331	0.1319	0.107
Mof_C 	C 	0.06883	0.33043	0.09723	0.27
Mof_C 	C 	0.86024	0.75009	0.24187	-0.309
Mof_C 	C 	0.8046	0.63708	0.25748	0.105
Mof_C 	C 	0.88555	0.60435	0.21595	-0.103
Mof_C 	C 	0.02215	0.68288	0.15948	0.003
Mof_C 	C 	0.07877	0.79399	0.14359	-0.159
Mof_C 	C 	0.9989	0.82695	0.18495	0.158
Mof_C 	C 	0.10989	0.64849	0.11049	0.266
Mof_C 	C 	0.64513	0.72529	0.45733	-0.305
Mof_C 	C 	0.588	0.77272	0.50872	0.119
Mof_C 	C 	0.5181	0.73168	0.62808	-0.127
Mof_C 	C 	0.50307	0.64055	0.70075	0.022
Mof_C 	C 	0.5546	0.58946	0.65306	-0.131
Mof_C 	C 	0.6249	0.6319	0.5331	0.123
Mof_C 	C 	0.43117	0.59723	0.83043	0.277
Mof_C 	C 	0.63976	0.74187	0.25009	-0.293
Mof_C 	C 	0.6954	0.75748	0.13708	0.098
Mof_C 	C 	0.61445	0.71595	0.10435	-0.109
Mof_C 	C 	0.47785	0.65948	0.18288	0.005
Mof_C 	C 	0.42123	0.64359	0.29399	-0.118
Mof_C 	C 	0.5011	0.68495	0.32695	0.105
Mof_C 	C 	0.39011	0.61049	0.14849	0.271
Mof_O 	O 	0.87448	0.62961	0.85869	-0.26
Mof_O 	O 	0.93073	0.60948	0.97634	-0.254
Mof_O 	O 	0.94075	0.44805	0.88643	-0.271
Mof_O 	O 	0.77029	0.28677	0.92857	-0.241
Mof_O 	O 	0.62552	0.35869	0.12961	-0.287
Mof_O 	O 	0.56927	0.47634	0.10948	-0.292
Mof_O 	O 	0.55925	0.38643	0.94805	-0.271
Mof_O 	O 	0.72971	0.42857	0.78677	-0.248
Mof_O 	O 	0.12552	0.37039	0.14131	-0.273
Mof_O 	O 	0.06927	0.39052	0.02366	-0.296
Mof_O 	O 	0.05925	0.55195	0.11357	-0.294
Mof_O 	O 	0.22971	0.71323	0.07143	-0.261
Mof_O 	O 	0.37448	0.64131	0.87039	-0.246
Mof_O 	O 	0.43073	0.52366	0.89052	-0.261
Mof_O 	O 	0.44075	0.61357	0.05195	-0.298
Mof_O 	O 	0.27029	0.57143	0.21323	-0.255
_end
