data_functionalizedCrystal
_audit_creation_method	'EQeq! by Chris Wilmer'
_symmetry_space_group_name_H-M	'P1'
_symmetry_Int_Tables_number	1
_symmetry_cell_setting	triclinic
loop_
_symmetry_equiv_pos_as_xyz
  x,y,z
_cell_length_a	6.5676
_cell_length_b	16.4019
_cell_length_c	13.1632
_cell_angle_alpha	90
_cell_angle_beta	90
_cell_angle_gamma	90
loop_
_atom_site_label
_atom_site_type_symbol
_atom_site_fract_x
_atom_site_fract_y
_atom_site_fract_z
_atom_site_charge
Mof_O 	O 	0.1668	0.16933	0.84071	-1.679
Mof_C 	C 	0.8044	0.0252	0.9525	0.016
Mof_O 	O 	0.6668	0.66933	0.34071	-1.67
Mof_C 	C 	0.3044	0.5252	0.4525	0.057
Mof_O 	O 	0.8332	0.33067	0.84071	-1.698
Mof_C 	C 	0.1956	0.4748	0.9525	0.046
Mof_O 	O 	0.3332	0.83067	0.34071	-1.671
Mof_C 	C 	0.6956	0.9748	0.4525	0.037
Mof_O 	O 	0.8332	0.66933	0.15929	-1.698
Mof_C 	C 	0.1956	0.5252	0.0475	0.046
Mof_O 	O 	0.3332	0.16933	0.65929	-1.671
Mof_C 	C 	0.6956	0.0252	0.5475	0.037
Mof_O 	O 	0.1668	0.83067	0.15929	-1.679
Mof_C 	C 	0.8044	0.9748	0.0475	0.016
Mof_O 	O 	0.6668	0.33067	0.65929	-1.67
Mof_C 	C 	0.3044	0.4748	0.5475	0.057
Mof_O 	O 	0.8332	0.83067	0.15929	-1.698
Mof_C 	C 	0.1956	0.9748	0.0475	0.045
Mof_O 	O 	0.3332	0.33067	0.65929	-1.671
Mof_C 	C 	0.6956	0.4748	0.5475	0.037
Mof_O 	O 	0.1668	0.66933	0.15929	-1.679
Mof_C 	C 	0.8044	0.5252	0.0475	0.016
Mof_O 	O 	0.6668	0.16933	0.65929	-1.67
Mof_C 	C 	0.3044	0.0252	0.5475	0.057
Mof_O 	O 	0.1668	0.33067	0.84071	-1.679
Mof_C 	C 	0.8044	0.4748	0.9525	0.016
Mof_O 	O 	0.6668	0.83067	0.34071	-1.67
Mof_C 	C 	0.3044	0.9748	0.4525	0.057
Mof_O 	O 	0.8332	0.16933	0.84071	-1.698
Mof_C 	C 	0.1956	0.0252	0.9525	0.045
Mof_O 	O 	0.3332	0.66933	0.34071	-1.671
Mof_C 	C 	0.6956	0.5252	0.4525	0.037
Mof_Al	Al	0.25	0.25	0.75	7.049
Mof_Al	Al	0.75	0.25	0.75	6.964
Mof_Al	Al	0.75	0.75	0.25	6.964
Mof_Al	Al	0.25	0.75	0.25	7.049
Mof_F 	F 	5.20023e-33	0.25	0.692	-2.32
Mof_F 	F 	0.5	0.75	0.192	-2.34
Mof_F 	F 	6.76525e-33	0.75	0.308	-2.32
Mof_F 	F 	0.5	0.25	0.808	-2.34
Mof_C 	C 	-1.0666e-32	0.0633	0.9497	-0.252
Mof_C 	C 	6.52283e-33	0.1351	0.868	1.232
Mof_C 	C 	0.5	0.5633	0.4497	-0.285
Mof_C 	C 	0.5	0.6351	0.368	1.191
Mof_C 	C 	2.49396e-32	0.4367	0.9497	-0.252
Mof_C 	C 	-1.128e-32	0.3649	0.868	1.232
Mof_C 	C 	0.5	0.9367	0.4497	-0.285
Mof_C 	C 	0.5	0.8649	0.368	1.191
Mof_C 	C 	-6.29805e-33	0.5633	0.0503	-0.252
Mof_C 	C 	-2.79376e-32	0.6351	0.132	1.232
Mof_C 	C 	0.5	0.0633	0.5503	-0.285
Mof_C 	C 	0.5	0.1351	0.632	1.191
Mof_C 	C 	-2.41008e-32	0.9367	0.0503	-0.252
Mof_C 	C 	-1.01348e-32	0.8649	0.132	1.232
Mof_C 	C 	0.5	0.4367	0.5503	-0.285
Mof_C 	C 	0.5	0.3649	0.632	1.191
_end
