# CIF file generated by openbabel 3.1.0, see https://openbabel.org
data_I
_chemical_name_common 'image0'
_cell_length_a 33.786
_cell_length_b 33.786
_cell_length_c 8.417
_cell_angle_alpha 90
_cell_angle_beta 90
_cell_angle_gamma 120
_space_group_name_H-M_alt 'P 1'
_space_group_name_Hall 'P 1'
loop_
    _symmetry_equiv_pos_as_xyz
    x,y,z
loop_
    _atom_site_label
    _atom_site_type_symbol
    _atom_site_fract_x
    _atom_site_fract_y
    _atom_site_fract_z
    _atom_site_occupancy
    Ag1      Ag       0.14745    0.32186    0.50460    1.000
    O1       O        0.33579    0.33034    0.78520    1.000
    N1       N        0.20642    0.34187    0.66210    1.000
    N2       N        0.27930    0.19753    0.61630    1.000
    C1       C        0.21927    0.37744    0.76100    1.000
    H1       H        0.20270    0.39330    0.75980    1.000
    C2       C        0.25576    0.39191    0.86480    1.000
    H2       H        0.26360    0.41700    0.93410    1.000
    C3       C        0.28063    0.36950    0.86640    1.000
    H3       H        0.30640    0.37940    0.93410    1.000
    C4       C        0.26681    0.33200    0.76590    1.000
    C5       C        0.23000    0.31953    0.66650    1.000
    H4       H        0.22090    0.29400    0.59820    1.000
    C6       C        0.29469    0.30859    0.76130    1.000
    C7       C        0.27161    0.25873    0.72800    1.000
    C8       C        0.22809    0.22797    0.78380    1.000
    H5       H        0.21060    0.23830    0.84060    1.000
    C9       C        0.21080    0.18161    0.75400    1.000
    H6       H        0.18130    0.15960    0.79140    1.000
    C10      C        0.23695    0.16820    0.66980    1.000
    H7       H        0.22450    0.13660    0.64830    1.000
    C11      C        0.29613    0.24195    0.64640    1.000
    H8       H        0.32610    0.26300    0.61080    1.000
    Ag2      Ag       0.81412    0.65519    0.83793    1.000
    O2       O        0.00246    0.66367    0.11853    1.000
    N3       N        0.87309    0.67520    0.99543    1.000
    N4       N        0.94597    0.53086    0.94963    1.000
    C12      C        0.88594    0.71077    0.09433    1.000
    H9       H        0.86937    0.72663    0.09313    1.000
    C13      C        0.92243    0.72524    0.19813    1.000
    H10      H        0.93027    0.75033    0.26743    1.000
    C14      C        0.94730    0.70283    0.19973    1.000
    H11      H        0.97307    0.71273    0.26743    1.000
    C15      C        0.93348    0.66533    0.09923    1.000
    C16      C        0.89667    0.65286    0.99983    1.000
    H12      H        0.88757    0.62733    0.93153    1.000
    C17      C        0.96136    0.64192    0.09463    1.000
    C18      C        0.93828    0.59206    0.06133    1.000
    C19      C        0.89476    0.56130    0.11713    1.000
    H13      H        0.87727    0.57163    0.17393    1.000
    C20      C        0.87747    0.51494    0.08733    1.000
    H14      H        0.84797    0.49293    0.12473    1.000
    C21      C        0.90362    0.50153    0.00313    1.000
    H15      H        0.89117    0.46993    0.98163    1.000
    C22      C        0.96280    0.57528    0.97973    1.000
    H16      H        0.99277    0.59633    0.94413    1.000
    Ag3      Ag       0.48079    0.98852    0.17127    1.000
    O3       O        0.66912    0.99701    0.45187    1.000
    N5       N        0.53975    0.00854    0.32877    1.000
    N6       N        0.61263    0.86420    0.28297    1.000
    C23      C        0.55260    0.04411    0.42767    1.000
    H17      H        0.53603    0.05997    0.42647    1.000
    C24      C        0.58909    0.05858    0.53147    1.000
    H18      H        0.59693    0.08367    0.60077    1.000
    C25      C        0.61396    0.03617    0.53307    1.000
    H19      H        0.63973    0.04607    0.60077    1.000
    C26      C        0.60014    0.99867    0.43257    1.000
    C27      C        0.56333    0.98620    0.33317    1.000
    H20      H        0.55423    0.96067    0.26487    1.000
    C28      C        0.62802    0.97526    0.42797    1.000
    C29      C        0.60494    0.92540    0.39467    1.000
    C30      C        0.56142    0.89464    0.45047    1.000
    H21      H        0.54393    0.90497    0.50727    1.000
    C31      C        0.54413    0.84828    0.42067    1.000
    H22      H        0.51463    0.82627    0.45807    1.000
    C32      C        0.57028    0.83487    0.33647    1.000
    H23      H        0.55783    0.80327    0.31497    1.000
    C33      C        0.62946    0.90862    0.31307    1.000
    H24      H        0.65943    0.92967    0.27747    1.000
    Ag4      Ag       0.67814    0.82560    0.50460    1.000
    O4       O        0.66966    0.00545    0.78520    1.000
    N7       N        0.65813    0.86455    0.66210    1.000
    N8       N        0.80247    0.08177    0.61630    1.000
    C34      C        0.62256    0.84183    0.76100    1.000
    H25      H        0.60670    0.80940    0.75980    1.000
    C35      C        0.60809    0.86385    0.86480    1.000
    H26      H        0.58300    0.84660    0.93410    1.000
    C36      C        0.63050    0.91113    0.86640    1.000
    H27      H        0.62060    0.92700    0.93410    1.000
    C37      C        0.66800    0.93481    0.76590    1.000
    C38      C        0.68047    0.91047    0.66650    1.000
    H28      H        0.70600    0.92690    0.59820    1.000
    C39      C        0.69141    0.98610    0.76130    1.000
    C40      C        0.74127    0.01288    0.72800    1.000
    C41      C        0.77203    0.00012    0.78380    1.000
    H29      H        0.76170    0.97230    0.84060    1.000
    C42      C        0.81839    0.02919    0.75400    1.000
    H30      H        0.84040    0.02170    0.79140    1.000
    C43      C        0.83180    0.06875    0.66980    1.000
    H31      H        0.86340    0.08790    0.64830    1.000
    C44      C        0.75805    0.05418    0.64640    1.000
    H32      H        0.73700    0.06310    0.61080    1.000
    Ag5      Ag       0.34481    0.15893    0.83793    1.000
    O5       O        0.33633    0.33878    0.11853    1.000
    N9       N        0.32480    0.19788    0.99543    1.000
    N10      N        0.46914    0.41510    0.94963    1.000
    C45      C        0.28923    0.17516    0.09433    1.000
    H33      H        0.27337    0.14273    0.09313    1.000
    C46      C        0.27476    0.19718    0.19813    1.000
    H34      H        0.24967    0.17993    0.26743    1.000
    C47      C        0.29717    0.24446    0.19973    1.000
    H35      H        0.28727    0.26033    0.26743    1.000
    C48      C        0.33467    0.26814    0.09923    1.000
    C49      C        0.34714    0.24380    0.99983    1.000
    H36      H        0.37267    0.26023    0.93153    1.000
    C50      C        0.35808    0.31943    0.09463    1.000
    C51      C        0.40794    0.34621    0.06133    1.000
    C52      C        0.43870    0.33345    0.11713    1.000
    H37      H        0.42837    0.30563    0.17393    1.000
    C53      C        0.48506    0.36252    0.08733    1.000
    H38      H        0.50707    0.35503    0.12473    1.000
    C54      C        0.49847    0.40208    0.00313    1.000
    H39      H        0.53007    0.42123    0.98163    1.000
    C55      C        0.42472    0.38751    0.97973    1.000
    H40      H        0.40367    0.39643    0.94413    1.000
    Ag6      Ag       0.01148    0.49226    0.17127    1.000
    O6       O        0.00299    0.67212    0.45187    1.000
    N11      N        0.99146    0.53122    0.32877    1.000
    N12      N        0.13580    0.74844    0.28297    1.000
    C56      C        0.95589    0.50850    0.42767    1.000
    H41      H        0.94003    0.47607    0.42647    1.000
    C57      C        0.94142    0.53052    0.53147    1.000
    H42      H        0.91633    0.51327    0.60077    1.000
    C58      C        0.96383    0.57780    0.53307    1.000
    H43      H        0.95393    0.59367    0.60077    1.000
    C59      C        0.00133    0.60148    0.43257    1.000
    C60      C        0.01380    0.57714    0.33317    1.000
    H44      H        0.03933    0.59357    0.26487    1.000
    C61      C        0.02474    0.65277    0.42797    1.000
    C62      C        0.07460    0.67955    0.39467    1.000
    C63      C        0.10536    0.66679    0.45047    1.000
    H45      H        0.09503    0.63897    0.50727    1.000
    C64      C        0.15172    0.69586    0.42067    1.000
    H46      H        0.17373    0.68837    0.45807    1.000
    C65      C        0.16513    0.73542    0.33647    1.000
    H47      H        0.19673    0.75457    0.31497    1.000
    C66      C        0.09138    0.72085    0.31307    1.000
    H48      H        0.07033    0.72977    0.27747    1.000
    Ag7      Ag       0.17440    0.85255    0.50460    1.000
    O7       O        0.99455    0.66421    0.78520    1.000
    N13      N        0.13545    0.79358    0.66210    1.000
    N14      N        0.91823    0.72070    0.61630    1.000
    C67      C        0.15817    0.78073    0.76100    1.000
    H49      H        0.19060    0.79730    0.75980    1.000
    C68      C        0.13615    0.74424    0.86480    1.000
    H50      H        0.15340    0.73640    0.93410    1.000
    C69      C        0.08887    0.71937    0.86640    1.000
    H51      H        0.07300    0.69360    0.93410    1.000
    C70      C        0.06519    0.73319    0.76590    1.000
    C71      C        0.08953    0.77000    0.66650    1.000
    H52      H        0.07310    0.77910    0.59820    1.000
    C72      C        0.01390    0.70531    0.76130    1.000
    C73      C        0.98712    0.72839    0.72800    1.000
    C74      C        0.99988    0.77191    0.78380    1.000
    H53      H        0.02770    0.78940    0.84060    1.000
    C75      C        0.97081    0.78920    0.75400    1.000
    H54      H        0.97830    0.81870    0.79140    1.000
    C76      C        0.93125    0.76305    0.66980    1.000
    H55      H        0.91210    0.77550    0.64830    1.000
    C77      C        0.94582    0.70387    0.64640    1.000
    H56      H        0.93690    0.67390    0.61080    1.000
    Ag8      Ag       0.84107    0.18588    0.83793    1.000
    O8       O        0.66122    0.99754    0.11853    1.000
    N15      N        0.80212    0.12691    0.99543    1.000
    N16      N        0.58490    0.05403    0.94963    1.000
    C78      C        0.82484    0.11406    0.09433    1.000
    H57      H        0.85727    0.13063    0.09313    1.000
    C79      C        0.80282    0.07757    0.19813    1.000
    H58      H        0.82007    0.06973    0.26743    1.000
    C80      C        0.75554    0.05270    0.19973    1.000
    H59      H        0.73967    0.02693    0.26743    1.000
    C81      C        0.73186    0.06652    0.09923    1.000
    C82      C        0.75620    0.10333    0.99983    1.000
    H60      H        0.73977    0.11243    0.93153    1.000
    C83      C        0.68057    0.03864    0.09463    1.000
    C84      C        0.65379    0.06172    0.06133    1.000
    C85      C        0.66655    0.10524    0.11713    1.000
    H61      H        0.69437    0.12273    0.17393    1.000
    C86      C        0.63748    0.12253    0.08733    1.000
    H62      H        0.64497    0.15203    0.12473    1.000
    C87      C        0.59792    0.09638    0.00313    1.000
    H63      H        0.57877    0.10883    0.98163    1.000
    C88      C        0.61249    0.03720    0.97973    1.000
    H64      H        0.60357    0.00723    0.94413    1.000
    Ag9      Ag       0.50774    0.51921    0.17127    1.000
    O9       O        0.32788    0.33088    0.45187    1.000
    N17      N        0.46878    0.46025    0.32877    1.000
    N18      N        0.25156    0.38737    0.28297    1.000
    C89      C        0.49150    0.44740    0.42767    1.000
    H65      H        0.52393    0.46397    0.42647    1.000
    C90      C        0.46948    0.41091    0.53147    1.000
    H66      H        0.48673    0.40307    0.60077    1.000
    C91      C        0.42220    0.38604    0.53307    1.000
    H67      H        0.40633    0.36027    0.60077    1.000
    C92      C        0.39852    0.39986    0.43257    1.000
    C93      C        0.42286    0.43667    0.33317    1.000
    H68      H        0.40643    0.44577    0.26487    1.000
    C94      C        0.34723    0.37198    0.42797    1.000
    C95      C        0.32045    0.39506    0.39467    1.000
    C96      C        0.33321    0.43858    0.45047    1.000
    H69      H        0.36103    0.45607    0.50727    1.000
    C97      C        0.30414    0.45587    0.42067    1.000
    H70      H        0.31163    0.48537    0.45807    1.000
    C98      C        0.26458    0.42972    0.33647    1.000
    H71      H        0.24543    0.44217    0.31497    1.000
    C99      C        0.27915    0.37054    0.31307    1.000
    H72      H        0.27023    0.34057    0.27747    1.000
    Ag10     Ag       0.85255    0.67814    0.49540    1.000
    O10      O        0.66421    0.66966    0.21480    1.000
    N19      N        0.79358    0.65813    0.33790    1.000
    N20      N        0.72070    0.80247    0.38370    1.000
    C100     C        0.78073    0.62256    0.23900    1.000
    H73      H        0.79730    0.60670    0.24020    1.000
    C101     C        0.74424    0.60809    0.13520    1.000
    H74      H        0.73640    0.58300    0.06590    1.000
    C102     C        0.71937    0.63050    0.13360    1.000
    H75      H        0.69360    0.62060    0.06590    1.000
    C103     C        0.73319    0.66800    0.23410    1.000
    C104     C        0.77000    0.68047    0.33350    1.000
    H76      H        0.77910    0.70600    0.40180    1.000
    C105     C        0.70531    0.69141    0.23870    1.000
    C106     C        0.72839    0.74127    0.27200    1.000
    C107     C        0.77191    0.77203    0.21620    1.000
    H77      H        0.78940    0.76170    0.15940    1.000
    C108     C        0.78920    0.81839    0.24600    1.000
    H78      H        0.81870    0.84040    0.20860    1.000
    C109     C        0.76305    0.83180    0.33020    1.000
    H79      H        0.77550    0.86340    0.35170    1.000
    C110     C        0.70387    0.75805    0.35360    1.000
    H80      H        0.67390    0.73700    0.38920    1.000
    Ag11     Ag       0.51921    0.01148    0.82873    1.000
    O11      O        0.33088    0.00299    0.54813    1.000
    N21      N        0.46025    0.99146    0.67123    1.000
    N22      N        0.38737    0.13580    0.71703    1.000
    C111     C        0.44740    0.95589    0.57233    1.000
    H81      H        0.46397    0.94003    0.57353    1.000
    C112     C        0.41091    0.94142    0.46853    1.000
    H82      H        0.40307    0.91633    0.39923    1.000
    C113     C        0.38604    0.96383    0.46693    1.000
    H83      H        0.36027    0.95393    0.39923    1.000
    C114     C        0.39986    0.00133    0.56743    1.000
    C115     C        0.43667    0.01380    0.66683    1.000
    H84      H        0.44577    0.03933    0.73513    1.000
    C116     C        0.37198    0.02474    0.57203    1.000
    C117     C        0.39506    0.07460    0.60533    1.000
    C118     C        0.43858    0.10536    0.54953    1.000
    H85      H        0.45607    0.09503    0.49273    1.000
    C119     C        0.45587    0.15172    0.57933    1.000
    H86      H        0.48537    0.17373    0.54193    1.000
    C120     C        0.42972    0.16513    0.66353    1.000
    H87      H        0.44217    0.19673    0.68503    1.000
    C121     C        0.37054    0.09138    0.68693    1.000
    H88      H        0.34057    0.07033    0.72253    1.000
    Ag12     Ag       0.18588    0.34481    0.16207    1.000
    O12      O        0.99754    0.33633    0.88147    1.000
    N23      N        0.12691    0.32480    0.00457    1.000
    N24      N        0.05403    0.46914    0.05037    1.000
    C122     C        0.11406    0.28923    0.90567    1.000
    H89      H        0.13063    0.27337    0.90687    1.000
    C123     C        0.07757    0.27476    0.80187    1.000
    H90      H        0.06973    0.24967    0.73257    1.000
    C124     C        0.05270    0.29717    0.80027    1.000
    H91      H        0.02693    0.28727    0.73257    1.000
    C125     C        0.06652    0.33467    0.90077    1.000
    C126     C        0.10333    0.34714    0.00017    1.000
    H92      H        0.11243    0.37267    0.06847    1.000
    C127     C        0.03864    0.35808    0.90537    1.000
    C128     C        0.06172    0.40794    0.93867    1.000
    C129     C        0.10524    0.43870    0.88287    1.000
    H93      H        0.12273    0.42837    0.82607    1.000
    C130     C        0.12253    0.48506    0.91267    1.000
    H94      H        0.15203    0.50707    0.87527    1.000
    C131     C        0.09638    0.49847    0.99687    1.000
    H95      H        0.10883    0.53007    0.01837    1.000
    C132     C        0.03720    0.42472    0.02027    1.000
    H96      H        0.00723    0.40367    0.05587    1.000
    Ag13     Ag       0.32186    0.17440    0.49540    1.000
    O13      O        0.33034    0.99455    0.21480    1.000
    N25      N        0.34187    0.13545    0.33790    1.000
    N26      N        0.19753    0.91823    0.38370    1.000
    C133     C        0.37744    0.15817    0.23900    1.000
    H97      H        0.39330    0.19060    0.24020    1.000
    C134     C        0.39191    0.13615    0.13520    1.000
    H98      H        0.41700    0.15340    0.06590    1.000
    C135     C        0.36950    0.08887    0.13360    1.000
    H99      H        0.37940    0.07300    0.06590    1.000
    C136     C        0.33200    0.06519    0.23410    1.000
    C137     C        0.31953    0.08953    0.33350    1.000
    H100     H        0.29400    0.07310    0.40180    1.000
    C138     C        0.30859    0.01390    0.23870    1.000
    C139     C        0.25873    0.98712    0.27200    1.000
    C140     C        0.22797    0.99988    0.21620    1.000
    H101     H        0.23830    0.02770    0.15940    1.000
    C141     C        0.18161    0.97081    0.24600    1.000
    H102     H        0.15960    0.97830    0.20860    1.000
    C142     C        0.16820    0.93125    0.33020    1.000
    H103     H        0.13660    0.91210    0.35170    1.000
    C143     C        0.24195    0.94582    0.35360    1.000
    H104     H        0.26300    0.93690    0.38920    1.000
    Ag14     Ag       0.98852    0.50774    0.82873    1.000
    O14      O        0.99701    0.32788    0.54813    1.000
    N27      N        0.00854    0.46878    0.67123    1.000
    N28      N        0.86420    0.25156    0.71703    1.000
    C144     C        0.04411    0.49150    0.57233    1.000
    H105     H        0.05997    0.52393    0.57353    1.000
    C145     C        0.05858    0.46948    0.46853    1.000
    H106     H        0.08367    0.48673    0.39923    1.000
    C146     C        0.03617    0.42220    0.46693    1.000
    H107     H        0.04607    0.40633    0.39923    1.000
    C147     C        0.99867    0.39852    0.56743    1.000
    C148     C        0.98620    0.42286    0.66683    1.000
    H108     H        0.96067    0.40643    0.73513    1.000
    C149     C        0.97526    0.34723    0.57203    1.000
    C150     C        0.92540    0.32045    0.60533    1.000
    C151     C        0.89464    0.33321    0.54953    1.000
    H109     H        0.90497    0.36103    0.49273    1.000
    C152     C        0.84828    0.30414    0.57933    1.000
    H110     H        0.82627    0.31163    0.54193    1.000
    C153     C        0.83487    0.26458    0.66353    1.000
    H111     H        0.80327    0.24543    0.68503    1.000
    C154     C        0.90862    0.27915    0.68693    1.000
    H112     H        0.92967    0.27023    0.72253    1.000
    Ag15     Ag       0.65519    0.84107    0.16207    1.000
    O15      O        0.66367    0.66122    0.88147    1.000
    N29      N        0.67520    0.80212    0.00457    1.000
    N30      N        0.53086    0.58490    0.05037    1.000
    C155     C        0.71077    0.82484    0.90567    1.000
    H113     H        0.72663    0.85727    0.90687    1.000
    C156     C        0.72524    0.80282    0.80187    1.000
    H114     H        0.75033    0.82007    0.73257    1.000
    C157     C        0.70283    0.75554    0.80027    1.000
    H115     H        0.71273    0.73967    0.73257    1.000
    C158     C        0.66533    0.73186    0.90077    1.000
    C159     C        0.65286    0.75620    0.00017    1.000
    H116     H        0.62733    0.73977    0.06847    1.000
    C160     C        0.64192    0.68057    0.90537    1.000
    C161     C        0.59206    0.65379    0.93867    1.000
    C162     C        0.56130    0.66655    0.88287    1.000
    H117     H        0.57163    0.69437    0.82607    1.000
    C163     C        0.51494    0.63748    0.91267    1.000
    H118     H        0.49293    0.64497    0.87527    1.000
    C164     C        0.50153    0.59792    0.99687    1.000
    H119     H        0.46993    0.57877    0.01837    1.000
    C165     C        0.57528    0.61249    0.02027    1.000
    H120     H        0.59633    0.60357    0.05587    1.000
    Ag16     Ag       0.82560    0.14745    0.49540    1.000
    O16      O        0.00545    0.33579    0.21480    1.000
    N31      N        0.86455    0.20642    0.33790    1.000
    N32      N        0.08177    0.27930    0.38370    1.000
    C166     C        0.84183    0.21927    0.23900    1.000
    H121     H        0.80940    0.20270    0.24020    1.000
    C167     C        0.86385    0.25576    0.13520    1.000
    H122     H        0.84660    0.26360    0.06590    1.000
    C168     C        0.91113    0.28063    0.13360    1.000
    H123     H        0.92700    0.30640    0.06590    1.000
    C169     C        0.93481    0.26681    0.23410    1.000
    C170     C        0.91047    0.23000    0.33350    1.000
    H124     H        0.92690    0.22090    0.40180    1.000
    C171     C        0.98610    0.29469    0.23870    1.000
    C172     C        0.01288    0.27161    0.27200    1.000
    C173     C        0.00012    0.22809    0.21620    1.000
    H125     H        0.97230    0.21060    0.15940    1.000
    C174     C        0.02919    0.21080    0.24600    1.000
    H126     H        0.02170    0.18130    0.20860    1.000
    C175     C        0.06875    0.23695    0.33020    1.000
    H127     H        0.08790    0.22450    0.35170    1.000
    C176     C        0.05418    0.29613    0.35360    1.000
    H128     H        0.06310    0.32610    0.38920    1.000
    Ag17     Ag       0.49226    0.48079    0.82873    1.000
    O17      O        0.67212    0.66912    0.54813    1.000
    N33      N        0.53122    0.53975    0.67123    1.000
    N34      N        0.74844    0.61263    0.71703    1.000
    C177     C        0.50850    0.55260    0.57233    1.000
    H129     H        0.47607    0.53603    0.57353    1.000
    C178     C        0.53052    0.58909    0.46853    1.000
    H130     H        0.51327    0.59693    0.39923    1.000
    C179     C        0.57780    0.61396    0.46693    1.000
    H131     H        0.59367    0.63973    0.39923    1.000
    C180     C        0.60148    0.60014    0.56743    1.000
    C181     C        0.57714    0.56333    0.66683    1.000
    H132     H        0.59357    0.55423    0.73513    1.000
    C182     C        0.65277    0.62802    0.57203    1.000
    C183     C        0.67955    0.60494    0.60533    1.000
    C184     C        0.66679    0.56142    0.54953    1.000
    H133     H        0.63897    0.54393    0.49273    1.000
    C185     C        0.69586    0.54413    0.57933    1.000
    H134     H        0.68837    0.51463    0.54193    1.000
    C186     C        0.73542    0.57028    0.66353    1.000
    H135     H        0.75457    0.55783    0.68503    1.000
    C187     C        0.72085    0.62946    0.68693    1.000
    H136     H        0.72977    0.65943    0.72253    1.000
    Ag18     Ag       0.15893    0.81412    0.16207    1.000
    O18      O        0.33878    0.00246    0.88147    1.000
    N35      N        0.19788    0.87309    0.00457    1.000
    N36      N        0.41510    0.94597    0.05037    1.000
    C188     C        0.17516    0.88594    0.90567    1.000
    H137     H        0.14273    0.86937    0.90687    1.000
    C189     C        0.19718    0.92243    0.80187    1.000
    H138     H        0.17993    0.93027    0.73257    1.000
    C190     C        0.24446    0.94730    0.80027    1.000
    H139     H        0.26033    0.97307    0.73257    1.000
    C191     C        0.26814    0.93348    0.90077    1.000
    C192     C        0.24380    0.89667    0.00017    1.000
    H140     H        0.26023    0.88757    0.06847    1.000
    C193     C        0.31943    0.96136    0.90537    1.000
    C194     C        0.34621    0.93828    0.93867    1.000
    C195     C        0.33345    0.89476    0.88287    1.000
    H141     H        0.30563    0.87727    0.82607    1.000
    C196     C        0.36252    0.87747    0.91267    1.000
    H142     H        0.35503    0.84797    0.87527    1.000
    C197     C        0.40208    0.90362    0.99687    1.000
    H143     H        0.42123    0.89117    0.01837    1.000
    C198     C        0.38751    0.96280    0.02027    1.000
    H144     H        0.39643    0.99277    0.05587    1.000
