data_functionalizedCrystal
_audit_creation_method	'EQeq! by Chris Wilmer'
_symmetry_space_group_name_H-M	'P1'
_symmetry_Int_Tables_number	1
_symmetry_cell_setting	triclinic
loop_
_symmetry_equiv_pos_as_xyz
  x,y,z
_cell_length_a	12.104
_cell_length_b	18.06
_cell_length_c	31.65
_cell_angle_alpha	90.48
_cell_angle_beta	90
_cell_angle_gamma	90
loop_
_atom_site_label
_atom_site_type_symbol
_atom_site_fract_x
_atom_site_fract_y
_atom_site_fract_z
_atom_site_charge
Mof_Zn	Zn	0.40112	0.95594	0.48653	1.196
Mof_Zn	Zn	0.59907	0.45502	0.51243	1.197
Mof_Zn	Zn	0.99797	0.66586	0.69005	1.218
Mof_Zn	Zn	0.40818	0.75465	0.26871	1.183
Mof_Zn	Zn	0.03162	0.14537	0.3054	1.205
Mof_Zn	Zn	0.90112	0.04406	0.01347	1.195
Mof_Zn	Zn	0.09907	0.54498	0.98757	1.195
Mof_Zn	Zn	0.49797	0.33414	0.80995	1.219
Mof_Zn	Zn	0.90818	0.24535	0.23129	1.183
Mof_Zn	Zn	0.53162	0.85463	0.1946	1.206
Mof_Zn	Zn	0.59888	0.04406	0.51347	1.195
Mof_Zn	Zn	0.40093	0.54498	0.48757	1.196
Mof_Zn	Zn	0.00203	0.33414	0.30995	1.218
Mof_Zn	Zn	0.59182	0.24535	0.73129	1.183
Mof_Zn	Zn	0.96838	0.85463	0.6946	1.205
Mof_Zn	Zn	0.09888	0.95594	0.98653	1.195
Mof_Zn	Zn	0.90093	0.45502	0.01243	1.195
Mof_Zn	Zn	0.50203	0.66586	0.19005	1.219
Mof_Zn	Zn	0.09182	0.75465	0.76871	1.183
Mof_Zn	Zn	0.46838	0.14537	0.8054	1.206
Mof_H 	H 	0.743	0.9566	0.2724	0.013
Mof_H 	H 	0.5379	0.8874	0.3666	0.02
Mof_H 	H 	0.7711	0.0504	0.3912	0.03
Mof_H 	H 	0.7304	0.44	0.3849	0.032
Mof_H 	H 	0.5078	0.5999	0.3588	0.03
Mof_H 	H 	0.7048	0.519	0.265	0.035
Mof_H 	H 	0.7782	0.8591	0.591	0.023
Mof_H 	H 	0.7614	0.6324	0.5874	0.03
Mof_H 	H 	0.5554	0.7554	0.5127	0.021
Mof_H 	H 	0.243	0.0434	0.2276	0.013
Mof_H 	H 	0.0379	0.1126	0.1334	0.019
Mof_H 	H 	0.2711	0.9496	0.1088	0.03
Mof_H 	H 	0.2304	0.56	0.1151	0.032
Mof_H 	H 	0.0078	0.4001	0.1412	0.029
Mof_H 	H 	0.2048	0.481	0.235	0.035
Mof_H 	H 	0.2782	0.1409	0.909	0.023
Mof_H 	H 	0.2614	0.3676	0.9126	0.031
Mof_H 	H 	0.0554	0.2446	0.9873	0.021
Mof_H 	H 	0.257	0.0434	0.7276	0.013
Mof_H 	H 	0.4621	0.1126	0.6334	0.02
Mof_H 	H 	0.2289	0.9496	0.6088	0.03
Mof_H 	H 	0.2696	0.56	0.6151	0.032
Mof_H 	H 	0.4922	0.4001	0.6412	0.03
Mof_H 	H 	0.2952	0.481	0.735	0.035
Mof_H 	H 	0.2218	0.1409	0.409	0.023
Mof_H 	H 	0.2386	0.3676	0.4126	0.03
Mof_H 	H 	0.4446	0.2446	0.4873	0.021
Mof_H 	H 	0.757	0.9566	0.7724	0.013
Mof_H 	H 	0.9621	0.8874	0.8666	0.019
Mof_H 	H 	0.7289	0.0504	0.8912	0.03
Mof_H 	H 	0.7696	0.44	0.8849	0.032
Mof_H 	H 	0.9922	0.5999	0.8588	0.029
Mof_H 	H 	0.7952	0.519	0.765	0.035
Mof_H 	H 	0.7218	0.8591	0.091	0.023
Mof_H 	H 	0.7386	0.6324	0.0874	0.031
Mof_H 	H 	0.9446	0.7554	0.0127	0.021
Mof_C 	C 	0.7746	0.0076	0.3297	-0.143
Mof_C 	C 	0.7202	0.9587	0.3011	0.083
Mof_C 	C 	0.6319	0.9127	0.3151	-0.179
Mof_C 	C 	0.5959	0.9182	0.3568	0.092
Mof_C 	C 	0.6484	0.9717	0.3853	-0.153
Mof_C 	C 	0.7371	0.016	0.3723	0.075
Mof_C 	C 	0.8659	0.0541	0.3156	0.347
Mof_C 	C 	0.5755	0.8638	0.2875	0.406
Mof_C 	C 	0.6035	0.9801	0.4293	0.432
Mof_C 	C 	0.7317	0.4713	0.3239	-0.115
Mof_C 	C 	0.6967	0.4719	0.365	0.058
Mof_C 	C 	0.6092	0.5205	0.3781	-0.129
Mof_C 	C 	0.5651	0.5673	0.3499	0.075
Mof_C 	C 	0.6011	0.5697	0.3071	-0.141
Mof_C 	C 	0.6823	0.5203	0.2937	0.06
Mof_C 	C 	0.8245	0.4193	0.3093	0.346
Mof_C 	C 	0.5661	0.5182	0.4231	0.378
Mof_C 	C 	0.5483	0.6221	0.2775	0.406
Mof_C 	C 	0.6553	0.818	0.5489	-0.138
Mof_C 	C 	0.7421	0.8154	0.5815	0.076
Mof_C 	C 	0.768	0.7495	0.5971	-0.146
Mof_C 	C 	0.7324	0.6786	0.5786	0.068
Mof_C 	C 	0.6508	0.6846	0.5463	-0.147
Mof_C 	C 	0.6127	0.7533	0.5332	0.083
Mof_C 	C 	0.6133	0.8898	0.5338	0.353
Mof_C 	C 	0.8539	0.7457	0.6325	0.428
Mof_C 	C 	0.6025	0.617	0.5281	0.389
Mof_C 	C 	0.2746	0.9924	0.1703	-0.141
Mof_C 	C 	0.2202	0.0413	0.1989	0.08
Mof_C 	C 	0.1319	0.0873	0.1849	-0.178
Mof_C 	C 	0.0959	0.0818	0.1432	0.09
Mof_C 	C 	0.1484	0.0283	0.1147	-0.154
Mof_C 	C 	0.2371	0.984	0.1277	0.076
Mof_C 	C 	0.3659	0.9459	0.1844	0.347
Mof_C 	C 	0.0755	0.1362	0.2125	0.401
Mof_C 	C 	0.1035	0.0199	0.0707	0.43
Mof_C 	C 	0.2317	0.5287	0.1761	-0.115
Mof_C 	C 	0.1967	0.5281	0.135	0.057
Mof_C 	C 	0.1092	0.4795	0.1219	-0.128
Mof_C 	C 	0.0651	0.4327	0.1501	0.074
Mof_C 	C 	0.1011	0.4303	0.1929	-0.14
Mof_C 	C 	0.1823	0.4797	0.2063	0.059
Mof_C 	C 	0.3245	0.5807	0.1907	0.345
Mof_C 	C 	0.0661	0.4818	0.0769	0.376
Mof_C 	C 	0.0483	0.3779	0.2225	0.401
Mof_C 	C 	0.1553	0.182	0.9511	-0.137
Mof_C 	C 	0.2421	0.1846	0.9185	0.076
Mof_C 	C 	0.268	0.2505	0.9029	-0.146
Mof_C 	C 	0.2324	0.3214	0.9214	0.068
Mof_C 	C 	0.1508	0.3154	0.9537	-0.147
Mof_C 	C 	0.1127	0.2467	0.9668	0.083
Mof_C 	C 	0.1133	0.1102	0.9662	0.353
Mof_C 	C 	0.3539	0.2543	0.8675	0.428
Mof_C 	C 	0.1025	0.383	0.9719	0.389
Mof_C 	C 	0.2254	0.9924	0.6703	-0.143
Mof_C 	C 	0.2798	0.0413	0.6989	0.083
Mof_C 	C 	0.3681	0.0873	0.6849	-0.179
Mof_C 	C 	0.4041	0.0818	0.6432	0.092
Mof_C 	C 	0.3516	0.0283	0.6147	-0.153
Mof_C 	C 	0.2629	0.984	0.6277	0.075
Mof_C 	C 	0.1341	0.9459	0.6844	0.347
Mof_C 	C 	0.4245	0.1362	0.7125	0.406
Mof_C 	C 	0.3965	0.0199	0.5707	0.432
Mof_C 	C 	0.2683	0.5287	0.6761	-0.115
Mof_C 	C 	0.3033	0.5281	0.635	0.058
Mof_C 	C 	0.3908	0.4795	0.6219	-0.129
Mof_C 	C 	0.4349	0.4327	0.6501	0.075
Mof_C 	C 	0.3989	0.4303	0.6929	-0.141
Mof_C 	C 	0.3177	0.4797	0.7063	0.06
Mof_C 	C 	0.1755	0.5807	0.6907	0.346
Mof_C 	C 	0.4339	0.4818	0.5769	0.378
Mof_C 	C 	0.4517	0.3779	0.7225	0.406
Mof_C 	C 	0.3447	0.182	0.4511	-0.138
Mof_C 	C 	0.2579	0.1846	0.4185	0.076
Mof_C 	C 	0.232	0.2505	0.4029	-0.146
Mof_C 	C 	0.2676	0.3214	0.4214	0.068
Mof_C 	C 	0.3492	0.3154	0.4537	-0.147
Mof_C 	C 	0.3873	0.2467	0.4668	0.083
Mof_C 	C 	0.3867	0.1102	0.4662	0.353
Mof_C 	C 	0.1461	0.2543	0.3675	0.428
Mof_C 	C 	0.3975	0.383	0.4719	0.389
Mof_C 	C 	0.7254	0.0076	0.8297	-0.141
Mof_C 	C 	0.7798	0.9587	0.8011	0.08
Mof_C 	C 	0.8681	0.9127	0.8151	-0.178
Mof_C 	C 	0.9041	0.9182	0.8568	0.09
Mof_C 	C 	0.8516	0.9717	0.8853	-0.154
Mof_C 	C 	0.7629	0.016	0.8723	0.076
Mof_C 	C 	0.6341	0.0541	0.8156	0.347
Mof_C 	C 	0.9245	0.8638	0.7875	0.401
Mof_C 	C 	0.8965	0.9801	0.9293	0.43
Mof_C 	C 	0.7683	0.4713	0.8239	-0.115
Mof_C 	C 	0.8033	0.4719	0.865	0.057
Mof_C 	C 	0.8908	0.5205	0.8781	-0.128
Mof_C 	C 	0.9349	0.5673	0.8499	0.074
Mof_C 	C 	0.8989	0.5697	0.8071	-0.14
Mof_C 	C 	0.8177	0.5203	0.7937	0.059
Mof_C 	C 	0.6755	0.4193	0.8093	0.345
Mof_C 	C 	0.9339	0.5182	0.9231	0.376
Mof_C 	C 	0.9517	0.6221	0.7775	0.401
Mof_C 	C 	0.8447	0.818	0.0489	-0.137
Mof_C 	C 	0.7579	0.8154	0.0815	0.076
Mof_C 	C 	0.732	0.7495	0.0971	-0.146
Mof_C 	C 	0.7676	0.6786	0.0786	0.068
Mof_C 	C 	0.8492	0.6846	0.0463	-0.147
Mof_C 	C 	0.8873	0.7533	0.0332	0.083
Mof_C 	C 	0.8867	0.8898	0.0338	0.353
Mof_C 	C 	0.6461	0.7457	0.1325	0.428
Mof_C 	C 	0.8975	0.617	0.0281	0.389
Mof_O 	O 	0.9187	0.0914	0.343	-0.432
Mof_O 	O 	0.8844	0.0598	0.2779	-0.39
Mof_O 	O 	0.6126	0.8468	0.2514	-0.506
Mof_O 	O 	0.486	0.8338	0.3012	-0.492
Mof_O 	O 	0.5105	0.9542	0.4364	-0.494
Mof_O 	O 	0.6558	0.0194	0.4553	-0.487
Mof_O 	O 	0.8252	0.3993	0.2716	-0.365
Mof_O 	O 	0.8921	0.3991	0.3366	-0.457
Mof_O 	O 	0.6273	0.4838	0.45015	-0.462
Mof_O 	O 	0.4783	0.5524	0.4303	-0.465
Mof_O 	O 	0.4805	0.6678	0.29321	-0.507
Mof_O 	O 	0.5797	0.6204	0.23915	-0.484
Mof_O 	O 	0.5174	0.8875	0.5155	-0.459
Mof_O 	O 	0.6692	0.9516	0.5381	-0.442
Mof_O 	O 	0.8833	0.8054	0.6472	-0.512
Mof_O 	O 	0.8857	0.683	0.6454	-0.484
Mof_O 	O 	0.6563	0.5545	0.5318	-0.462
Mof_O 	O 	0.509	0.6204	0.5106	-0.484
Mof_O 	O 	0.0644	0.7612	0.70845	-0.708
Mof_O 	O 	0.4187	0.9086	0.157	-0.433
Mof_O 	O 	0.3844	0.9402	0.2221	-0.391
Mof_O 	O 	0.1126	0.1532	0.2486	-0.506
Mof_O 	O 	0.986	0.1662	0.1988	-0.487
Mof_O 	O 	0.0105	0.0458	0.0636	-0.495
Mof_O 	O 	0.1558	0.9806	0.0447	-0.485
Mof_O 	O 	0.3252	0.6007	0.2284	-0.366
Mof_O 	O 	0.3921	0.6009	0.1634	-0.459
Mof_O 	O 	0.1273	0.5162	0.04985	-0.462
Mof_O 	O 	0.9783	0.4476	0.0697	-0.463
Mof_O 	O 	0.9805	0.3322	0.20679	-0.502
Mof_O 	O 	0.0797	0.3796	0.26085	-0.484
Mof_O 	O 	0.0174	0.1125	0.9845	-0.459
Mof_O 	O 	0.1692	0.0484	0.9619	-0.441
Mof_O 	O 	0.3833	0.1946	0.8528	-0.511
Mof_O 	O 	0.3857	0.317	0.8546	-0.483
Mof_O 	O 	0.1563	0.4455	0.9682	-0.461
Mof_O 	O 	0.009	0.3796	0.9894	-0.484
Mof_O 	O 	0.5644	0.2388	0.79155	-0.71
Mof_O 	O 	0.0813	0.9086	0.657	-0.432
Mof_O 	O 	0.1156	0.9402	0.7221	-0.39
Mof_O 	O 	0.3874	0.1532	0.7486	-0.506
Mof_O 	O 	0.514	0.1662	0.6988	-0.492
Mof_O 	O 	0.4895	0.0458	0.5636	-0.494
Mof_O 	O 	0.3442	0.9806	0.5447	-0.487
Mof_O 	O 	0.1748	0.6007	0.7284	-0.365
Mof_O 	O 	0.1079	0.6009	0.6634	-0.457
Mof_O 	O 	0.3727	0.5162	0.54985	-0.462
Mof_O 	O 	0.5217	0.4476	0.5697	-0.465
Mof_O 	O 	0.5195	0.3322	0.70679	-0.507
Mof_O 	O 	0.4203	0.3796	0.76085	-0.484
Mof_O 	O 	0.4826	0.1125	0.4845	-0.459
Mof_O 	O 	0.3308	0.0484	0.4619	-0.442
Mof_O 	O 	0.1167	0.1946	0.3528	-0.512
Mof_O 	O 	0.1143	0.317	0.3546	-0.484
Mof_O 	O 	0.3437	0.4455	0.4682	-0.462
Mof_O 	O 	0.491	0.3796	0.4894	-0.484
Mof_O 	O 	0.9356	0.2388	0.29155	-0.708
Mof_O 	O 	0.5813	0.0914	0.843	-0.433
Mof_O 	O 	0.6156	0.0598	0.7779	-0.391
Mof_O 	O 	0.8874	0.8468	0.7514	-0.506
Mof_O 	O 	0.014	0.8338	0.8012	-0.487
Mof_O 	O 	0.9895	0.9542	0.9364	-0.495
Mof_O 	O 	0.8442	0.0194	0.9553	-0.485
Mof_O 	O 	0.6748	0.3993	0.7716	-0.366
Mof_O 	O 	0.6079	0.3991	0.8366	-0.459
Mof_O 	O 	0.8727	0.4838	0.95015	-0.462
Mof_O 	O 	0.0217	0.5524	0.9303	-0.463
Mof_O 	O 	0.0195	0.6678	0.79321	-0.502
Mof_O 	O 	0.9203	0.6204	0.73915	-0.484
Mof_O 	O 	0.9826	0.8875	0.0155	-0.459
Mof_O 	O 	0.8308	0.9516	0.0381	-0.441
Mof_O 	O 	0.6167	0.8054	0.1472	-0.511
Mof_O 	O 	0.6143	0.683	0.1454	-0.483
Mof_O 	O 	0.8437	0.5545	0.0318	-0.461
Mof_O 	O 	0.991	0.6204	0.0106	-0.484
Mof_O 	O 	0.4356	0.7612	0.20845	-0.71
_end
