data_functionalizedCrystal
_audit_creation_method	'EQeq! by Chris Wilmer'
_symmetry_space_group_name_H-M	'P1'
_symmetry_Int_Tables_number	1
_symmetry_cell_setting	triclinic
loop_
_symmetry_equiv_pos_as_xyz
  x,y,z
_cell_length_a	18.2766
_cell_length_b	24.6401
_cell_length_c	24.6401
_cell_angle_alpha	65.9017
_cell_angle_beta	75.6853
_cell_angle_gamma	104.315
loop_
_atom_site_label
_atom_site_type_symbol
_atom_site_fract_x
_atom_site_fract_y
_atom_site_fract_z
_atom_site_charge
Mof_Cu	Cu	0.86716	0.16711	0.28268	0.899
Mof_Cu	Cu	0.87996	0.35089	0.21176	0.877
Mof_Cu	Cu	0.79246	0.9609	0.39894	0.879
Mof_Cu	Cu	0.96029	0.55694	0.10916	0.898
Mof_Cu	Cu	0.14984	0.28268	0.55021	0.9
Mof_Cu	Cu	0.09172	0.21176	0.43735	0.878
Mof_Cu	Cu	0.1914	0.39894	0.64016	0.88
Mof_Cu	Cu	0.06945	0.10916	0.3339	0.899
Mof_Cu	Cu	0.70005	0.55021	0.16711	0.9
Mof_Cu	Cu	0.52907	0.43735	0.35089	0.878
Mof_Cu	Cu	0.83156	0.64016	0.9609	0.88
Mof_Cu	Cu	0.40335	0.3339	0.55694	0.899
Mof_Cu	Cu	0.13284	0.83289	0.71732	0.9
Mof_Cu	Cu	0.12004	0.64911	0.78824	0.878
Mof_Cu	Cu	0.20754	0.0391	0.60106	0.88
Mof_Cu	Cu	0.03971	0.44306	0.89084	0.899
Mof_Cu	Cu	0.85016	0.71732	0.44979	0.9
Mof_Cu	Cu	0.90828	0.78824	0.56265	0.878
Mof_Cu	Cu	0.8086	0.60106	0.35984	0.88
Mof_Cu	Cu	0.93055	0.89084	0.6661	0.899
Mof_Cu	Cu	0.29995	0.44979	0.83289	0.9
Mof_Cu	Cu	0.47093	0.56265	0.64911	0.878
Mof_Cu	Cu	0.16844	0.35984	0.0391	0.88
Mof_Cu	Cu	0.59665	0.6661	0.44306	0.899
Mof_H 	H 	0.0552	0.7	0.9939	0.016
Mof_H 	H 	0.1619	0.7548	0.8933	0.075
Mof_H 	H 	0.2256	0.6971	0.8593	0.007
Mof_H 	H 	0.1801	0.5863	0.9246	0.084
Mof_H 	H 	0.6813	0.8157	0.51	0.022
Mof_H 	H 	0.5491	0.7592	0.5861	0.074
Mof_H 	H 	0.4681	0.8144	0.5996	0.029
Mof_H 	H 	0.5185	0.926	0.5306	0.083
Mof_H 	H 	0.704	0.2963	0.3174	0.013
Mof_H 	H 	0.0318	0.22	0.1598	-0.001
Mof_H 	H 	0.0491	0.9939	0.3061	0.016
Mof_H 	H 	0.0552	0.8933	0.3519	0.075
Mof_H 	H 	0.0849	0.8593	0.4436	0.007
Mof_H 	H 	0.1047	0.9246	0.4891	0.084
Mof_H 	H 	0.1913	0.51	0.6743	0.022
Mof_H 	H 	0.1352	0.5861	0.6547	0.074
Mof_H 	H 	0.0677	0.5996	0.586	0.029
Mof_H 	H 	0.0491	0.5306	0.5434	0.083
Mof_H 	H 	0.0214	0.3174	0.3863	0.012
Mof_H 	H 	0.1916	0.1598	0.6202	-0.001
Mof_H 	H 	0.3552	0.3061	0.7	0.017
Mof_H 	H 	0.4071	0.3519	0.7548	0.074
Mof_H 	H 	0.5285	0.4436	0.6971	0.008
Mof_H 	H 	0.5938	0.4891	0.5863	0.083
Mof_H 	H 	0.8656	0.6743	0.8157	0.022
Mof_H 	H 	0.7899	0.6547	0.7592	0.074
Mof_H 	H 	0.6537	0.586	0.8144	0.029
Mof_H 	H 	0.5925	0.5434	0.926	0.083
Mof_H 	H 	0.4077	0.3863	0.2963	0.012
Mof_H 	H 	0.8118	0.6202	0.22	-0.001
Mof_H 	H 	0.9448	0.3	0.0061	0.016
Mof_H 	H 	0.8381	0.2452	0.1067	0.075
Mof_H 	H 	0.7744	0.3029	0.1407	0.007
Mof_H 	H 	0.8199	0.4137	0.0754	0.084
Mof_H 	H 	0.3187	0.1843	0.49	0.022
Mof_H 	H 	0.4509	0.2408	0.4139	0.074
Mof_H 	H 	0.5319	0.1856	0.4004	0.029
Mof_H 	H 	0.4815	0.074	0.4694	0.083
Mof_H 	H 	0.296	0.7037	0.6826	0.013
Mof_H 	H 	0.9682	0.78	0.8402	-0.001
Mof_H 	H 	0.9509	0.0061	0.6939	0.016
Mof_H 	H 	0.9448	0.1067	0.6481	0.075
Mof_H 	H 	0.9151	0.1407	0.5564	0.007
Mof_H 	H 	0.8953	0.0754	0.5109	0.084
Mof_H 	H 	0.8087	0.49	0.3257	0.022
Mof_H 	H 	0.8648	0.4139	0.3453	0.074
Mof_H 	H 	0.9323	0.4004	0.414	0.029
Mof_H 	H 	0.9509	0.4694	0.4566	0.083
Mof_H 	H 	0.9786	0.6826	0.6137	0.012
Mof_H 	H 	0.8084	0.8402	0.3798	-0.001
Mof_H 	H 	0.6448	0.6939	0.3	0.017
Mof_H 	H 	0.5929	0.6481	0.2452	0.074
Mof_H 	H 	0.4715	0.5564	0.3029	0.008
Mof_H 	H 	0.4062	0.5109	0.4137	0.083
Mof_H 	H 	0.1344	0.3257	0.1843	0.022
Mof_H 	H 	0.2101	0.3453	0.2408	0.074
Mof_H 	H 	0.3463	0.414	0.1856	0.029
Mof_H 	H 	0.4075	0.4566	0.074	0.083
Mof_H 	H 	0.5923	0.6137	0.7037	0.012
Mof_H 	H 	0.1882	0.3798	0.78	-0.001
Mof_C 	C 	0.08005	0.67688	0.97963	0.08
Mof_C 	C 	0.14447	0.71032	0.91941	-0.131
Mof_C 	C 	0.18197	0.67563	0.89942	0.038
Mof_C 	C 	0.15557	0.61018	0.93777	-0.128
Mof_C 	C 	0.09119	0.58093	0.99696	0.057
Mof_C 	C 	0.05588	0.51135	0.04441	0.07
Mof_C 	C 	0.0259	0.41368	0.09788	0.051
Mof_C 	C 	0.013	0.34568	0.12768	0.075
Mof_C 	C 	0.64776	0.83792	0.51404	0.062
Mof_C 	C 	0.5692	0.804	0.5601	-0.114
Mof_C 	C 	0.5209	0.8364	0.5676	0.036
Mof_C 	C 	0.5509	0.903	0.5268	-0.112
Mof_C 	C 	0.63013	0.93392	0.48053	0.054
Mof_C 	C 	0.67064	0.00476	0.43554	0.072
Mof_C 	C 	0.70693	0.10288	0.38279	0.076
Mof_C 	C 	0.71982	0.17068	0.35222	0.076
Mof_C 	C 	0.72003	0.26241	0.32092	0.091
Mof_C 	C 	0.01571	0.25347	0.15784	0.107
Mof_C 	C 	0.05968	0.97963	0.34349	0.081
Mof_C 	C 	0.06388	0.91941	0.37027	-0.132
Mof_C 	C 	0.08139	0.89942	0.42495	0.038
Mof_C 	C 	0.09334	0.93777	0.45205	-0.128
Mof_C 	C 	0.08815	0.99696	0.42211	0.058
Mof_C 	C 	0.10029	0.04441	0.44424	0.07
Mof_C 	C 	0.12378	0.09788	0.48844	0.051
Mof_C 	C 	0.14068	0.12768	0.52664	0.076
Mof_C 	C 	0.1618	0.51404	0.64804	0.062
Mof_C 	C 	0.1293	0.5601	0.6359	-0.114
Mof_C 	C 	0.0885	0.5676	0.596	0.036
Mof_C 	C 	0.0777	0.5268	0.5702	-0.112
Mof_C 	C 	0.11066	0.48053	0.58555	0.054
Mof_C 	C 	0.10618	0.43554	0.5597	0.072
Mof_C 	C 	0.08972	0.38279	0.51433	0.076
Mof_C 	C 	0.07204	0.35222	0.4771	0.076
Mof_C 	C 	0.04095	0.32092	0.41667	0.091
Mof_C 	C 	0.17355	0.15784	0.58869	0.109
Mof_C 	C 	0.40317	0.34349	0.67688	0.079
Mof_C 	C 	0.43415	0.37027	0.71032	-0.13
Mof_C 	C 	0.50634	0.42495	0.67563	0.036
Mof_C 	C 	0.54539	0.45205	0.61018	-0.126
Mof_C 	C 	0.51026	0.42211	0.58093	0.055
Mof_C 	C 	0.54453	0.44424	0.51135	0.072
Mof_C 	C 	0.61222	0.48844	0.41368	0.051
Mof_C 	C 	0.66732	0.52664	0.34568	0.076
Mof_C 	C 	0.80984	0.64804	0.83792	0.062
Mof_C 	C 	0.7652	0.6359	0.804	-0.114
Mof_C 	C 	0.6845	0.596	0.8364	0.036
Mof_C 	C 	0.6479	0.5702	0.903	-0.112
Mof_C 	C 	0.69621	0.58555	0.93392	0.054
Mof_C 	C 	0.66588	0.5597	0.00476	0.072
Mof_C 	C 	0.60405	0.51433	0.10288	0.076
Mof_C 	C 	0.54914	0.4771	0.17068	0.076
Mof_C 	C 	0.45762	0.41667	0.26241	0.091
Mof_C 	C 	0.76224	0.58869	0.25347	0.109
Mof_C 	C 	0.91995	0.32312	0.02037	0.08
Mof_C 	C 	0.85553	0.28968	0.08059	-0.131
Mof_C 	C 	0.81803	0.32437	0.10058	0.038
Mof_C 	C 	0.84443	0.38982	0.06223	-0.128
Mof_C 	C 	0.90881	0.41907	0.00304	0.057
Mof_C 	C 	0.94412	0.48865	0.95559	0.07
Mof_C 	C 	0.9741	0.58632	0.90212	0.051
Mof_C 	C 	0.987	0.65432	0.87232	0.075
Mof_C 	C 	0.35224	0.16208	0.48596	0.062
Mof_C 	C 	0.4308	0.196	0.4399	-0.114
Mof_C 	C 	0.4791	0.1636	0.4324	0.036
Mof_C 	C 	0.4491	0.097	0.4732	-0.112
Mof_C 	C 	0.36987	0.06608	0.51947	0.054
Mof_C 	C 	0.32936	0.99524	0.56446	0.072
Mof_C 	C 	0.29307	0.89712	0.61721	0.076
Mof_C 	C 	0.28018	0.82932	0.64778	0.076
Mof_C 	C 	0.27997	0.73759	0.67908	0.091
Mof_C 	C 	0.98429	0.74653	0.84216	0.107
Mof_C 	C 	0.94032	0.02037	0.65651	0.081
Mof_C 	C 	0.93612	0.08059	0.62973	-0.132
Mof_C 	C 	0.91861	0.10058	0.57505	0.038
Mof_C 	C 	0.90666	0.06223	0.54795	-0.128
Mof_C 	C 	0.91185	0.00304	0.57789	0.058
Mof_C 	C 	0.89971	0.95559	0.55576	0.07
Mof_C 	C 	0.87622	0.90212	0.51156	0.051
Mof_C 	C 	0.85932	0.87232	0.47336	0.076
Mof_C 	C 	0.8382	0.48596	0.35196	0.062
Mof_C 	C 	0.8707	0.4399	0.3641	-0.114
Mof_C 	C 	0.9115	0.4324	0.404	0.036
Mof_C 	C 	0.9223	0.4732	0.4298	-0.112
Mof_C 	C 	0.88934	0.51947	0.41445	0.054
Mof_C 	C 	0.89382	0.56446	0.4403	0.072
Mof_C 	C 	0.91028	0.61721	0.48567	0.076
Mof_C 	C 	0.92796	0.64778	0.5229	0.076
Mof_C 	C 	0.95905	0.67908	0.58333	0.091
Mof_C 	C 	0.82645	0.84216	0.41131	0.109
Mof_C 	C 	0.59683	0.65651	0.32312	0.079
Mof_C 	C 	0.56585	0.62973	0.28968	-0.13
Mof_C 	C 	0.49366	0.57505	0.32437	0.036
Mof_C 	C 	0.45461	0.54795	0.38982	-0.126
Mof_C 	C 	0.48974	0.57789	0.41907	0.055
Mof_C 	C 	0.45547	0.55576	0.48865	0.072
Mof_C 	C 	0.38778	0.51156	0.58632	0.051
Mof_C 	C 	0.33268	0.47336	0.65432	0.076
Mof_C 	C 	0.19016	0.35196	0.16208	0.062
Mof_C 	C 	0.2348	0.3641	0.196	-0.114
Mof_C 	C 	0.3155	0.404	0.1636	0.036
Mof_C 	C 	0.3521	0.4298	0.097	-0.112
Mof_C 	C 	0.30379	0.41445	0.06608	0.054
Mof_C 	C 	0.33412	0.4403	0.99524	0.072
Mof_C 	C 	0.39595	0.48567	0.89712	0.076
Mof_C 	C 	0.45086	0.5229	0.82932	0.076
Mof_C 	C 	0.54238	0.58333	0.73759	0.091
Mof_C 	C 	0.23776	0.41131	0.74653	0.109
Mof_S 	S 	0.01016	0.21479	0.33687	0.706
Mof_S 	S 	0.95006	0.06979	0.27635	0.725
Mof_S 	S 	0.34703	0.33687	0.44834	0.708
Mof_S 	S 	0.22641	0.27635	0.65386	0.724
Mof_S 	S 	0.79537	0.44834	0.21479	0.708
Mof_S 	S 	0.88027	0.65386	0.06979	0.723
Mof_S 	S 	0.98984	0.78521	0.66313	0.706
Mof_S 	S 	0.04994	0.93021	0.72365	0.725
Mof_S 	S 	0.65297	0.66313	0.55166	0.708
Mof_S 	S 	0.77359	0.72365	0.34614	0.724
Mof_S 	S 	0.20463	0.55166	0.78521	0.708
Mof_S 	S 	0.11973	0.34614	0.93021	0.723
Mof_N 	N 	0.05251	0.61346	0.01773	-0.218
Mof_N 	N 	0.98984	0.49006	0.09674	-0.192
Mof_N 	N 	0.96958	0.42602	0.13272	-0.189
Mof_N 	N 	0.08183	0.4651	0.04241	-0.137
Mof_N 	N 	0.94716	0.30571	0.18155	-0.191
Mof_N 	N 	0.94882	0.24547	0.20117	-0.19
Mof_N 	N 	0.67852	0.90278	0.47402	-0.221
Mof_N 	N 	0.74602	0.02567	0.39231	-0.194
Mof_N 	N 	0.76979	0.09082	0.35708	-0.182
Mof_N 	N 	0.64231	0.05094	0.43171	-0.123
Mof_N 	N 	0.79182	0.21088	0.30212	-0.191
Mof_N 	N 	0.79181	0.271	0.28157	-0.203
Mof_N 	N 	0.67279	0.20025	0.36628	-0.128
Mof_N 	N 	0.05821	0.31572	0.11041	-0.231
Mof_N 	N 	0.07024	0.01773	0.36881	-0.218
Mof_N 	N 	0.08658	0.09674	0.4132	-0.193
Mof_N 	N 	0.1023	0.13272	0.44126	-0.189
Mof_N 	N 	0.12424	0.04241	0.49249	-0.138
Mof_N 	N 	0.12871	0.18155	0.51274	-0.192
Mof_N 	N 	0.14999	0.20117	0.55336	-0.191
Mof_N 	N 	0.15254	0.47402	0.6232	-0.221
Mof_N 	N 	0.13833	0.39231	0.58202	-0.195
Mof_N 	N 	0.12687	0.35708	0.5521	-0.182
Mof_N 	N 	0.07402	0.43171	0.51735	-0.123
Mof_N 	N 	0.09394	0.30212	0.487	-0.191
Mof_N 	N 	0.07338	0.28157	0.44743	-0.203
Mof_N 	N 	0.03907	0.36628	0.43347	-0.128
Mof_N 	N 	0.16862	0.11041	0.57387	-0.231
Mof_N 	N 	0.43905	0.36881	0.61346	-0.216
Mof_N 	N 	0.49978	0.4132	0.49006	-0.193
Mof_N 	N 	0.54356	0.44126	0.42602	-0.189
Mof_N 	N 	0.61673	0.49249	0.4651	-0.137
Mof_N 	N 	0.64145	0.51274	0.30571	-0.192
Mof_N 	N 	0.70335	0.55336	0.24547	-0.191
Mof_N 	N 	0.77574	0.6232	0.90278	-0.221
Mof_N 	N 	0.72035	0.58202	0.02567	-0.194
Mof_N 	N 	0.67897	0.5521	0.09082	-0.182
Mof_N 	N 	0.59137	0.51735	0.05094	-0.123
Mof_N 	N 	0.58094	0.487	0.21088	-0.191
Mof_N 	N 	0.52081	0.44743	0.271	-0.203
Mof_N 	N 	0.47254	0.43347	0.20025	-0.128
Mof_N 	N 	0.74249	0.57387	0.31572	-0.231
Mof_N 	N 	0.94749	0.38654	0.98227	-0.218
Mof_N 	N 	0.01016	0.50994	0.90326	-0.192
Mof_N 	N 	0.03042	0.57398	0.86728	-0.189
Mof_N 	N 	0.91817	0.5349	0.95759	-0.137
Mof_N 	N 	0.05284	0.69429	0.81845	-0.191
Mof_N 	N 	0.05118	0.75453	0.79883	-0.19
Mof_N 	N 	0.32148	0.09722	0.52598	-0.221
Mof_N 	N 	0.25398	0.97433	0.60769	-0.194
Mof_N 	N 	0.23021	0.90918	0.64292	-0.182
Mof_N 	N 	0.35769	0.94906	0.56829	-0.123
Mof_N 	N 	0.20818	0.78912	0.69788	-0.191
Mof_N 	N 	0.20819	0.729	0.71843	-0.203
Mof_N 	N 	0.32721	0.79975	0.63372	-0.128
Mof_N 	N 	0.94179	0.68428	0.88959	-0.231
Mof_N 	N 	0.92976	0.98227	0.63119	-0.218
Mof_N 	N 	0.91342	0.90326	0.5868	-0.193
Mof_N 	N 	0.8977	0.86728	0.55874	-0.189
Mof_N 	N 	0.87576	0.95759	0.50751	-0.138
Mof_N 	N 	0.87129	0.81845	0.48726	-0.192
Mof_N 	N 	0.85001	0.79883	0.44664	-0.191
Mof_N 	N 	0.84746	0.52598	0.3768	-0.221
Mof_N 	N 	0.86167	0.60769	0.41798	-0.195
Mof_N 	N 	0.87313	0.64292	0.4479	-0.182
Mof_N 	N 	0.92598	0.56829	0.48265	-0.123
Mof_N 	N 	0.90606	0.69788	0.513	-0.191
Mof_N 	N 	0.92662	0.71843	0.55257	-0.203
Mof_N 	N 	0.96093	0.63372	0.56653	-0.128
Mof_N 	N 	0.83138	0.88959	0.42613	-0.231
Mof_N 	N 	0.56095	0.63119	0.38654	-0.216
Mof_N 	N 	0.50022	0.5868	0.50994	-0.193
Mof_N 	N 	0.45644	0.55874	0.57398	-0.189
Mof_N 	N 	0.38327	0.50751	0.5349	-0.137
Mof_N 	N 	0.35855	0.48726	0.69429	-0.192
Mof_N 	N 	0.29665	0.44664	0.75453	-0.191
Mof_N 	N 	0.22426	0.3768	0.09722	-0.221
Mof_N 	N 	0.27965	0.41798	0.97433	-0.194
Mof_N 	N 	0.32103	0.4479	0.90918	-0.182
Mof_N 	N 	0.40863	0.48265	0.94906	-0.123
Mof_N 	N 	0.41906	0.513	0.78912	-0.191
Mof_N 	N 	0.47919	0.55257	0.729	-0.203
Mof_N 	N 	0.52746	0.56653	0.79975	-0.128
Mof_N 	N 	0.25751	0.42613	0.68428	-0.231
Mof_O 	O 	0.90569	0.02634	0.34693	-0.472
Mof_O 	O 	0.95355	0.03461	0.24216	-0.303
Mof_O 	O 	0.90922	0.11379	0.25168	-0.436
Mof_O 	O 	0.03001	0.28323	0.29425	-0.323
Mof_O 	O 	0.07579	0.19738	0.30794	-0.448
Mof_O 	O 	0.00783	0.20385	0.40138	-0.439
Mof_O 	O 	0.03414	0.10858	0.26528	-0.431
Mof_O 	O 	0.93023	0.17258	0.34764	-0.408
Mof_O 	O 	0.25262	0.34693	0.62673	-0.472
Mof_O 	O 	0.19571	0.24216	0.72323	-0.304
Mof_O 	O 	0.1609	0.25168	0.63453	-0.436
Mof_O 	O 	0.32426	0.29425	0.42252	-0.323
Mof_O 	O 	0.38373	0.30794	0.49468	-0.448
Mof_O 	O 	0.40921	0.40138	0.39477	-0.439
Mof_O 	O 	0.29942	0.26528	0.62614	-0.429
Mof_O 	O 	0.27787	0.34764	0.47978	-0.409
Mof_O 	O 	0.87935	0.62673	0.02634	-0.472
Mof_O 	O 	0.91894	0.72323	0.03461	-0.303
Mof_O 	O 	0.79543	0.63453	0.11379	-0.435
Mof_O 	O 	0.74678	0.42252	0.28323	-0.323
Mof_O 	O 	0.87841	0.49468	0.19738	-0.448
Mof_O 	O 	0.80398	0.39477	0.20385	-0.439
Mof_O 	O 	0.92556	0.62614	0.10858	-0.429
Mof_O 	O 	0.75765	0.47978	0.17258	-0.409
Mof_O 	O 	0.09431	0.97366	0.65307	-0.472
Mof_O 	O 	0.04645	0.96539	0.75784	-0.303
Mof_O 	O 	0.09078	0.88621	0.74832	-0.436
Mof_O 	O 	0.96999	0.71677	0.70575	-0.323
Mof_O 	O 	0.92421	0.80262	0.69206	-0.448
Mof_O 	O 	0.99217	0.79615	0.59862	-0.439
Mof_O 	O 	0.96586	0.89142	0.73472	-0.431
Mof_O 	O 	0.06977	0.82742	0.65236	-0.408
Mof_O 	O 	0.74738	0.65307	0.37327	-0.472
Mof_O 	O 	0.80429	0.75784	0.27677	-0.304
Mof_O 	O 	0.8391	0.74832	0.36547	-0.436
Mof_O 	O 	0.67574	0.70575	0.57748	-0.323
Mof_O 	O 	0.61627	0.69206	0.50532	-0.448
Mof_O 	O 	0.59079	0.59862	0.60523	-0.439
Mof_O 	O 	0.70058	0.73472	0.37386	-0.429
Mof_O 	O 	0.72213	0.65236	0.52022	-0.409
Mof_O 	O 	0.12065	0.37327	0.97366	-0.472
Mof_O 	O 	0.08106	0.27677	0.96539	-0.303
Mof_O 	O 	0.20457	0.36547	0.88621	-0.435
Mof_O 	O 	0.25322	0.57748	0.71677	-0.323
Mof_O 	O 	0.12159	0.50532	0.80262	-0.448
Mof_O 	O 	0.19602	0.60523	0.79615	-0.439
Mof_O 	O 	0.07444	0.37386	0.89142	-0.429
Mof_O 	O 	0.24235	0.52022	0.82742	-0.409
_end
