# CIF file generated by openbabel 3.1.0, see https://openbabel.org
data_I
_chemical_name_common 'image0'
_cell_length_a 7.83
_cell_length_b 8.041
_cell_length_c 9.652
_cell_angle_alpha 76.29
_cell_angle_beta 78.47
_cell_angle_gamma 86.36
_space_group_name_H-M_alt 'P 1'
_space_group_name_Hall 'P 1'
loop_
    _symmetry_equiv_pos_as_xyz
    x,y,z
loop_
    _atom_site_label
    _atom_site_type_symbol
    _atom_site_fract_x
    _atom_site_fract_y
    _atom_site_fract_z
    _atom_site_occupancy
    Mn1      Mn       0.19076    0.31033    0.61460    1.000
    Mn2      Mn       0.84283    0.03389    0.74818    1.000
    P1       P        0.07780    0.73290    0.59030    1.000
    O1       O        0.41570    0.36010    0.70390    1.000
    O2       O        0.34440    0.06160    0.64930    1.000
    O3       O        0.03110    0.15850    0.83820    1.000
    O4       O        0.07440    0.54050    0.63500    1.000
    O5       O        0.18620    0.09850    0.01640    1.000
    O6       O        0.59040    0.94690    0.71690    1.000
    O7       O        0.65380    0.23900    0.78300    1.000
    O8       O        0.27480    0.78590    0.56500    1.000
    O9       O        0.97170    0.81070    0.70990    1.000
    O10      O        0.01660    0.80150    0.44580    1.000
    C1       C        0.51960    0.23800    0.73080    1.000
    C2       C        0.48170    0.06700    0.69510    1.000
    C3       C        0.06390    0.07350    0.95890    1.000
    H1       H        0.28400    0.87400    0.58500    1.000
    Mn3      Mn       0.80924    0.68967    0.38540    1.000
    Mn4      Mn       0.15717    0.96611    0.25182    1.000
    P2       P        0.92220    0.26710    0.40970    1.000
    O11      O        0.58430    0.63990    0.29610    1.000
    O12      O        0.65560    0.93840    0.35070    1.000
    O13      O        0.96890    0.84150    0.16180    1.000
    O14      O        0.92560    0.45950    0.36500    1.000
    O15      O        0.81380    0.90150    0.98360    1.000
    O16      O        0.40960    0.05310    0.28310    1.000
    O17      O        0.34620    0.76100    0.21700    1.000
    O18      O        0.72520    0.21410    0.43500    1.000
    O19      O        0.02830    0.18930    0.29010    1.000
    O20      O        0.98340    0.19850    0.55420    1.000
    C4       C        0.48040    0.76200    0.26920    1.000
    C5       C        0.51830    0.93300    0.30490    1.000
    C6       C        0.93610    0.92650    0.04110    1.000
    H2       H        0.71600    0.12600    0.41500    1.000
