# CIF file generated by openbabel 3.1.0, see https://openbabel.org
data_I
_chemical_name_common 'image0'
_cell_length_a 21.9302
_cell_length_b 16.7795
_cell_length_c 25.488
_cell_angle_alpha 90
_cell_angle_beta 115.029
_cell_angle_gamma 90
_space_group_name_H-M_alt 'P 1'
_space_group_name_Hall 'P 1'
loop_
    _symmetry_equiv_pos_as_xyz
    x,y,z
loop_
    _atom_site_label
    _atom_site_type_symbol
    _atom_site_fract_x
    _atom_site_fract_y
    _atom_site_fract_z
    _atom_site_occupancy
    Ag1      Ag       0.34423    0.45588    0.36631    1.000
    Ag2      Ag       0.32111    0.75773    0.86597    1.000
    C1       C        0.59760    0.97180    0.99860    1.000
    C2       C        0.03240    0.80910    0.40820    1.000
    H1       H        0.05370    0.78780    0.38670    1.000
    C3       C        0.77620    0.13870    0.00700    1.000
    H2       H        0.79690    0.13470    0.04720    1.000
    C4       C        0.05970    0.79950    0.46710    1.000
    C5       C        0.29730    0.58330    0.50290    1.000
    H3       H        0.31940    0.58730    0.54300    1.000
    C6       C        0.12280    0.75560    0.49930    1.000
    C7       C        0.50350    0.88570    0.99390    1.000
    H4       H        0.52320    0.88410    0.03410    1.000
    C8       C        0.53260    0.92790    0.96440    1.000
    C9       C        0.68150    0.05240    0.00440    1.000
    C10      C        0.20930    0.72510    0.58510    1.000
    C11      C        0.71370    0.10170    0.97500    1.000
    C12      C        0.71960    0.15250    0.88980    1.000
    H5       H        0.70030    0.15640    0.84970    1.000
    C13      C        0.44350    0.84500    0.96200    1.000
    H6       H        0.42410    0.81610    0.98220    1.000
    C14      C        0.71170    0.99170    0.15000    1.000
    C15      C        0.23480    0.62080    0.47200    1.000
    C16      C        0.23570    0.56450    0.38670    1.000
    H7       H        0.21470    0.55860    0.34670    1.000
    C17      C        0.24260    0.73630    0.64880    1.000
    C18      C        0.67870    0.95540    0.17920    1.000
    H8       H        0.63490    0.93710    0.15890    1.000
    C19      C        0.02490    0.83420    0.49660    1.000
    H9       H        0.04190    0.83080    0.53670    1.000
    C20      C        0.80630    0.18120    0.97760    1.000
    H10      H        0.84720    0.20630    0.99890    1.000
    C21      C        0.67940    0.00250    0.08480    1.000
    C22      C        0.20410    0.60930    0.41330    1.000
    H11      H        0.16200    0.63150    0.39140    1.000
    C23      C        0.20470    0.67120    0.50200    1.000
    C24      C        0.68550    0.11050    0.91620    1.000
    H12      H        0.64360    0.08840    0.89390    1.000
    C25      C        0.32490    0.54090    0.47250    1.000
    H13      H        0.36720    0.51870    0.49290    1.000
    C26      C        0.50110    0.92860    0.90450    1.000
    H14      H        0.51890    0.95790    0.88330    1.000
    C27      C        0.97250    0.85100    0.38090    1.000
    H15      H        0.95490    0.85830    0.34100    1.000
    C28      C        0.80590    0.00460    0.24030    1.000
    H16      H        0.84950    0.02310    0.26140    1.000
    C29      C        0.21350    0.78600    0.67560    1.000
    H17      H        0.17380    0.81310    0.65410    1.000
    C30      C        0.96680    0.87230    0.46600    1.000
    H18      H        0.94430    0.89450    0.48630    1.000
    C31      C        0.71070    0.94630    0.23790    1.000
    H19      H        0.68730    0.92290    0.25690    1.000
    C32      C        0.24520    0.79370    0.73460    1.000
    H20      H        0.22660    0.82840    0.75220    1.000
    C33      C        0.44310    0.88540    0.87700    1.000
    H21      H        0.42380    0.88380    0.83670    1.000
    C34      C        0.77740    0.01520    0.18080    1.000
    H22      H        0.80200    0.03740    0.16230    1.000
    C35      C        0.30200    0.69980    0.68200    1.000
    H23      H        0.32450    0.66880    0.66540    1.000
    C36      C        0.32780    0.71080    0.74180    1.000
    H24      H        0.36760    0.68450    0.76470    1.000
    N1       N        0.29510    0.52950    0.41580    1.000
    N2       N        0.93940    0.88070    0.40940    1.000
    N3       N        0.30040    0.75510    0.76800    1.000
    N4       N        0.23680    0.67730    0.56000    1.000
    N5       N        0.14760    0.70950    0.46970    1.000
    N6       N        0.15230    0.76550    0.55660    1.000
    N7       N        0.77920    0.18760    0.92010    1.000
    N8       N        0.41270    0.84530    0.90480    1.000
    N9       N        0.77510    0.96980    0.26950    1.000
    N10      N        0.62490    0.01350    0.97050    1.000
    N11      N        0.71070    0.04900    0.06250    1.000
    N12      N        0.62230    0.96230    0.05610    1.000
    Ag3      Ag       0.84423    0.95588    0.36631    1.000
    Ag4      Ag       0.82111    0.25773    0.86597    1.000
    C37      C        0.09760    0.47180    0.99860    1.000
    C38      C        0.53240    0.30910    0.40820    1.000
    H25      H        0.55370    0.28780    0.38670    1.000
    C39      C        0.27620    0.63870    0.00700    1.000
    H26      H        0.29690    0.63470    0.04720    1.000
    C40      C        0.55970    0.29950    0.46710    1.000
    C41      C        0.79730    0.08330    0.50290    1.000
    H27      H        0.81940    0.08730    0.54300    1.000
    C42      C        0.62280    0.25560    0.49930    1.000
    C43      C        0.00350    0.38570    0.99390    1.000
    H28      H        0.02320    0.38410    0.03410    1.000
    C44      C        0.03260    0.42790    0.96440    1.000
    C45      C        0.18150    0.55240    0.00440    1.000
    C46      C        0.70930    0.22510    0.58510    1.000
    C47      C        0.21370    0.60170    0.97500    1.000
    C48      C        0.21960    0.65250    0.88980    1.000
    H29      H        0.20030    0.65640    0.84970    1.000
    C49      C        0.94350    0.34500    0.96200    1.000
    H30      H        0.92410    0.31610    0.98220    1.000
    C50      C        0.21170    0.49170    0.15000    1.000
    C51      C        0.73480    0.12080    0.47200    1.000
    C52      C        0.73570    0.06450    0.38670    1.000
    H31      H        0.71470    0.05860    0.34670    1.000
    C53      C        0.74260    0.23630    0.64880    1.000
    C54      C        0.17870    0.45540    0.17920    1.000
    H32      H        0.13490    0.43710    0.15890    1.000
    C55      C        0.52490    0.33420    0.49660    1.000
    H33      H        0.54190    0.33080    0.53670    1.000
    C56      C        0.30630    0.68120    0.97760    1.000
    H34      H        0.34720    0.70630    0.99890    1.000
    C57      C        0.17940    0.50250    0.08480    1.000
    C58      C        0.70410    0.10930    0.41330    1.000
    H35      H        0.66200    0.13150    0.39140    1.000
    C59      C        0.70470    0.17120    0.50200    1.000
    C60      C        0.18550    0.61050    0.91620    1.000
    H36      H        0.14360    0.58840    0.89390    1.000
    C61      C        0.82490    0.04090    0.47250    1.000
    H37      H        0.86720    0.01870    0.49290    1.000
    C62      C        0.00110    0.42860    0.90450    1.000
    H38      H        0.01890    0.45790    0.88330    1.000
    C63      C        0.47250    0.35100    0.38090    1.000
    H39      H        0.45490    0.35830    0.34100    1.000
    C64      C        0.30590    0.50460    0.24030    1.000
    H40      H        0.34950    0.52310    0.26140    1.000
    C65      C        0.71350    0.28600    0.67560    1.000
    H41      H        0.67380    0.31310    0.65410    1.000
    C66      C        0.46680    0.37230    0.46600    1.000
    H42      H        0.44430    0.39450    0.48630    1.000
    C67      C        0.21070    0.44630    0.23790    1.000
    H43      H        0.18730    0.42290    0.25690    1.000
    C68      C        0.74520    0.29370    0.73460    1.000
    H44      H        0.72660    0.32840    0.75220    1.000
    C69      C        0.94310    0.38540    0.87700    1.000
    H45      H        0.92380    0.38380    0.83670    1.000
    C70      C        0.27740    0.51520    0.18080    1.000
    H46      H        0.30200    0.53740    0.16230    1.000
    C71      C        0.80200    0.19980    0.68200    1.000
    H47      H        0.82450    0.16880    0.66540    1.000
    C72      C        0.82780    0.21080    0.74180    1.000
    H48      H        0.86760    0.18450    0.76470    1.000
    N13      N        0.79510    0.02950    0.41580    1.000
    N14      N        0.43940    0.38070    0.40940    1.000
    N15      N        0.80040    0.25510    0.76800    1.000
    N16      N        0.73680    0.17730    0.56000    1.000
    N17      N        0.64760    0.20950    0.46970    1.000
    N18      N        0.65230    0.26550    0.55660    1.000
    N19      N        0.27920    0.68760    0.92010    1.000
    N20      N        0.91270    0.34530    0.90480    1.000
    N21      N        0.27510    0.46980    0.26950    1.000
    N22      N        0.12490    0.51350    0.97050    1.000
    N23      N        0.21070    0.54900    0.06250    1.000
    N24      N        0.12230    0.46230    0.05610    1.000
    Ag5      Ag       0.65577    0.45588    0.13369    1.000
    Ag6      Ag       0.67889    0.75773    0.63403    1.000
    C73      C        0.40240    0.97180    0.50140    1.000
    C74      C        0.96760    0.80910    0.09180    1.000
    H49      H        0.94630    0.78780    0.11330    1.000
    C75      C        0.22380    0.13870    0.49300    1.000
    H50      H        0.20310    0.13470    0.45280    1.000
    C76      C        0.94030    0.79950    0.03290    1.000
    C77      C        0.70270    0.58330    0.99710    1.000
    H51      H        0.68060    0.58730    0.95700    1.000
    C78      C        0.87720    0.75560    0.00070    1.000
    C79      C        0.49650    0.88570    0.50610    1.000
    H52      H        0.47680    0.88410    0.46590    1.000
    C80      C        0.46740    0.92790    0.53560    1.000
    C81      C        0.31850    0.05240    0.49560    1.000
    C82      C        0.79070    0.72510    0.91490    1.000
    C83      C        0.28630    0.10170    0.52500    1.000
    C84      C        0.28040    0.15250    0.61020    1.000
    H53      H        0.29970    0.15640    0.65030    1.000
    C85      C        0.55650    0.84500    0.53800    1.000
    H54      H        0.57590    0.81610    0.51780    1.000
    C86      C        0.28830    0.99170    0.35000    1.000
    C87      C        0.76520    0.62080    0.02800    1.000
    C88      C        0.76430    0.56450    0.11330    1.000
    H55      H        0.78530    0.55860    0.15330    1.000
    C89      C        0.75740    0.73630    0.85120    1.000
    C90      C        0.32130    0.95540    0.32080    1.000
    H56      H        0.36510    0.93710    0.34110    1.000
    C91      C        0.97510    0.83420    0.00340    1.000
    H57      H        0.95810    0.83080    0.96330    1.000
    C92      C        0.19370    0.18120    0.52240    1.000
    H58      H        0.15280    0.20630    0.50110    1.000
    C93      C        0.32060    0.00250    0.41520    1.000
    C94      C        0.79590    0.60930    0.08670    1.000
    H59      H        0.83800    0.63150    0.10860    1.000
    C95      C        0.79530    0.67120    0.99800    1.000
    C96      C        0.31450    0.11050    0.58380    1.000
    H60      H        0.35640    0.08840    0.60610    1.000
    C97      C        0.67510    0.54090    0.02750    1.000
    H61      H        0.63280    0.51870    0.00710    1.000
    C98      C        0.49890    0.92860    0.59550    1.000
    H62      H        0.48110    0.95790    0.61670    1.000
    C99      C        0.02750    0.85100    0.11910    1.000
    H63      H        0.04510    0.85830    0.15900    1.000
    C100     C        0.19410    0.00460    0.25970    1.000
    H64      H        0.15050    0.02310    0.23860    1.000
    C101     C        0.78650    0.78600    0.82440    1.000
    H65      H        0.82620    0.81310    0.84590    1.000
    C102     C        0.03320    0.87230    0.03400    1.000
    H66      H        0.05570    0.89450    0.01370    1.000
    C103     C        0.28930    0.94630    0.26210    1.000
    H67      H        0.31270    0.92290    0.24310    1.000
    C104     C        0.75480    0.79370    0.76540    1.000
    H68      H        0.77340    0.82840    0.74780    1.000
    C105     C        0.55690    0.88540    0.62300    1.000
    H69      H        0.57620    0.88380    0.66330    1.000
    C106     C        0.22260    0.01520    0.31920    1.000
    H70      H        0.19800    0.03740    0.33770    1.000
    C107     C        0.69800    0.69980    0.81800    1.000
    H71      H        0.67550    0.66880    0.83460    1.000
    C108     C        0.67220    0.71080    0.75820    1.000
    H72      H        0.63240    0.68450    0.73530    1.000
    N25      N        0.70490    0.52950    0.08420    1.000
    N26      N        0.06060    0.88070    0.09060    1.000
    N27      N        0.69960    0.75510    0.73200    1.000
    N28      N        0.76320    0.67730    0.94000    1.000
    N29      N        0.85240    0.70950    0.03030    1.000
    N30      N        0.84770    0.76550    0.94340    1.000
    N31      N        0.22080    0.18760    0.57990    1.000
    N32      N        0.58730    0.84530    0.59520    1.000
    N33      N        0.22490    0.96980    0.23050    1.000
    N34      N        0.37510    0.01350    0.52950    1.000
    N35      N        0.28930    0.04900    0.43750    1.000
    N36      N        0.37770    0.96230    0.44390    1.000
    Ag7      Ag       0.15577    0.95588    0.13369    1.000
    Ag8      Ag       0.17889    0.25773    0.63403    1.000
    C109     C        0.90240    0.47180    0.50140    1.000
    C110     C        0.46760    0.30910    0.09180    1.000
    H73      H        0.44630    0.28780    0.11330    1.000
    C111     C        0.72380    0.63870    0.49300    1.000
    H74      H        0.70310    0.63470    0.45280    1.000
    C112     C        0.44030    0.29950    0.03290    1.000
    C113     C        0.20270    0.08330    0.99710    1.000
    H75      H        0.18060    0.08730    0.95700    1.000
    C114     C        0.37720    0.25560    0.00070    1.000
    C115     C        0.99650    0.38570    0.50610    1.000
    H76      H        0.97680    0.38410    0.46590    1.000
    C116     C        0.96740    0.42790    0.53560    1.000
    C117     C        0.81850    0.55240    0.49560    1.000
    C118     C        0.29070    0.22510    0.91490    1.000
    C119     C        0.78630    0.60170    0.52500    1.000
    C120     C        0.78040    0.65250    0.61020    1.000
    H77      H        0.79970    0.65640    0.65030    1.000
    C121     C        0.05650    0.34500    0.53800    1.000
    H78      H        0.07590    0.31610    0.51780    1.000
    C122     C        0.78830    0.49170    0.35000    1.000
    C123     C        0.26520    0.12080    0.02800    1.000
    C124     C        0.26430    0.06450    0.11330    1.000
    H79      H        0.28530    0.05860    0.15330    1.000
    C125     C        0.25740    0.23630    0.85120    1.000
    C126     C        0.82130    0.45540    0.32080    1.000
    H80      H        0.86510    0.43710    0.34110    1.000
    C127     C        0.47510    0.33420    0.00340    1.000
    H81      H        0.45810    0.33080    0.96330    1.000
    C128     C        0.69370    0.68120    0.52240    1.000
    H82      H        0.65280    0.70630    0.50110    1.000
    C129     C        0.82060    0.50250    0.41520    1.000
    C130     C        0.29590    0.10930    0.08670    1.000
    H83      H        0.33800    0.13150    0.10860    1.000
    C131     C        0.29530    0.17120    0.99800    1.000
    C132     C        0.81450    0.61050    0.58380    1.000
    H84      H        0.85640    0.58840    0.60610    1.000
    C133     C        0.17510    0.04090    0.02750    1.000
    H85      H        0.13280    0.01870    0.00710    1.000
    C134     C        0.99890    0.42860    0.59550    1.000
    H86      H        0.98110    0.45790    0.61670    1.000
    C135     C        0.52750    0.35100    0.11910    1.000
    H87      H        0.54510    0.35830    0.15900    1.000
    C136     C        0.69410    0.50460    0.25970    1.000
    H88      H        0.65050    0.52310    0.23860    1.000
    C137     C        0.28650    0.28600    0.82440    1.000
    H89      H        0.32620    0.31310    0.84590    1.000
    C138     C        0.53320    0.37230    0.03400    1.000
    H90      H        0.55570    0.39450    0.01370    1.000
    C139     C        0.78930    0.44630    0.26210    1.000
    H91      H        0.81270    0.42290    0.24310    1.000
    C140     C        0.25480    0.29370    0.76540    1.000
    H92      H        0.27340    0.32840    0.74780    1.000
    C141     C        0.05690    0.38540    0.62300    1.000
    H93      H        0.07620    0.38380    0.66330    1.000
    C142     C        0.72260    0.51520    0.31920    1.000
    H94      H        0.69800    0.53740    0.33770    1.000
    C143     C        0.19800    0.19980    0.81800    1.000
    H95      H        0.17550    0.16880    0.83460    1.000
    C144     C        0.17220    0.21080    0.75820    1.000
    H96      H        0.13240    0.18450    0.73530    1.000
    N37      N        0.20490    0.02950    0.08420    1.000
    N38      N        0.56060    0.38070    0.09060    1.000
    N39      N        0.19960    0.25510    0.73200    1.000
    N40      N        0.26320    0.17730    0.94000    1.000
    N41      N        0.35240    0.20950    0.03030    1.000
    N42      N        0.34770    0.26550    0.94340    1.000
    N43      N        0.72080    0.68760    0.57990    1.000
    N44      N        0.08730    0.34530    0.59520    1.000
    N45      N        0.72490    0.46980    0.23050    1.000
    N46      N        0.87510    0.51350    0.52950    1.000
    N47      N        0.78930    0.54900    0.43750    1.000
    N48      N        0.87770    0.46230    0.44390    1.000
    Ag9      Ag       0.65577    0.54412    0.63369    1.000
    Ag10     Ag       0.67889    0.24227    0.13403    1.000
    C145     C        0.40240    0.02820    0.00140    1.000
    C146     C        0.96760    0.19090    0.59180    1.000
    H97      H        0.94630    0.21220    0.61330    1.000
    C147     C        0.22380    0.86130    0.99300    1.000
    H98      H        0.20310    0.86530    0.95280    1.000
    C148     C        0.94030    0.20050    0.53290    1.000
    C149     C        0.70270    0.41670    0.49710    1.000
    H99      H        0.68060    0.41270    0.45700    1.000
    C150     C        0.87720    0.24440    0.50070    1.000
    C151     C        0.49650    0.11430    0.00610    1.000
    H100     H        0.47680    0.11590    0.96590    1.000
    C152     C        0.46740    0.07210    0.03560    1.000
    C153     C        0.31850    0.94760    0.99560    1.000
    C154     C        0.79070    0.27490    0.41490    1.000
    C155     C        0.28630    0.89830    0.02500    1.000
    C156     C        0.28040    0.84750    0.11020    1.000
    H101     H        0.29970    0.84360    0.15030    1.000
    C157     C        0.55650    0.15500    0.03800    1.000
    H102     H        0.57590    0.18390    0.01780    1.000
    C158     C        0.28830    0.00830    0.85000    1.000
    C159     C        0.76520    0.37920    0.52800    1.000
    C160     C        0.76430    0.43550    0.61330    1.000
    H103     H        0.78530    0.44140    0.65330    1.000
    C161     C        0.75740    0.26370    0.35120    1.000
    C162     C        0.32130    0.04460    0.82080    1.000
    H104     H        0.36510    0.06290    0.84110    1.000
    C163     C        0.97510    0.16580    0.50340    1.000
    H105     H        0.95810    0.16920    0.46330    1.000
    C164     C        0.19370    0.81880    0.02240    1.000
    H106     H        0.15280    0.79370    0.00110    1.000
    C165     C        0.32060    0.99750    0.91520    1.000
    C166     C        0.79590    0.39070    0.58670    1.000
    H107     H        0.83800    0.36850    0.60860    1.000
    C167     C        0.79530    0.32880    0.49800    1.000
    C168     C        0.31450    0.88950    0.08380    1.000
    H108     H        0.35640    0.91160    0.10610    1.000
    C169     C        0.67510    0.45910    0.52750    1.000
    H109     H        0.63280    0.48130    0.50710    1.000
    C170     C        0.49890    0.07140    0.09550    1.000
    H110     H        0.48110    0.04210    0.11670    1.000
    C171     C        0.02750    0.14900    0.61910    1.000
    H111     H        0.04510    0.14170    0.65900    1.000
    C172     C        0.19410    0.99540    0.75970    1.000
    H112     H        0.15050    0.97690    0.73860    1.000
    C173     C        0.78650    0.21400    0.32440    1.000
    H113     H        0.82620    0.18690    0.34590    1.000
    C174     C        0.03320    0.12770    0.53400    1.000
    H114     H        0.05570    0.10550    0.51370    1.000
    C175     C        0.28930    0.05370    0.76210    1.000
    H115     H        0.31270    0.07710    0.74310    1.000
    C176     C        0.75480    0.20630    0.26540    1.000
    H116     H        0.77340    0.17160    0.24780    1.000
    C177     C        0.55690    0.11460    0.12300    1.000
    H117     H        0.57620    0.11620    0.16330    1.000
    C178     C        0.22260    0.98480    0.81920    1.000
    H118     H        0.19800    0.96260    0.83770    1.000
    C179     C        0.69800    0.30020    0.31800    1.000
    H119     H        0.67550    0.33120    0.33460    1.000
    C180     C        0.67220    0.28920    0.25820    1.000
    H120     H        0.63240    0.31550    0.23530    1.000
    N49      N        0.70490    0.47050    0.58420    1.000
    N50      N        0.06060    0.11930    0.59060    1.000
    N51      N        0.69960    0.24490    0.23200    1.000
    N52      N        0.76320    0.32270    0.44000    1.000
    N53      N        0.85240    0.29050    0.53030    1.000
    N54      N        0.84770    0.23450    0.44340    1.000
    N55      N        0.22080    0.81240    0.07990    1.000
    N56      N        0.58730    0.15470    0.09520    1.000
    N57      N        0.22490    0.03020    0.73050    1.000
    N58      N        0.37510    0.98650    0.02950    1.000
    N59      N        0.28930    0.95100    0.93750    1.000
    N60      N        0.37770    0.03770    0.94390    1.000
    Ag11     Ag       0.15577    0.04412    0.63369    1.000
    Ag12     Ag       0.17889    0.74227    0.13403    1.000
    C181     C        0.90240    0.52820    0.00140    1.000
    C182     C        0.46760    0.69090    0.59180    1.000
    H121     H        0.44630    0.71220    0.61330    1.000
    C183     C        0.72380    0.36130    0.99300    1.000
    H122     H        0.70310    0.36530    0.95280    1.000
    C184     C        0.44030    0.70050    0.53290    1.000
    C185     C        0.20270    0.91670    0.49710    1.000
    H123     H        0.18060    0.91270    0.45700    1.000
    C186     C        0.37720    0.74440    0.50070    1.000
    C187     C        0.99650    0.61430    0.00610    1.000
    H124     H        0.97680    0.61590    0.96590    1.000
    C188     C        0.96740    0.57210    0.03560    1.000
    C189     C        0.81850    0.44760    0.99560    1.000
    C190     C        0.29070    0.77490    0.41490    1.000
    C191     C        0.78630    0.39830    0.02500    1.000
    C192     C        0.78040    0.34750    0.11020    1.000
    H125     H        0.79970    0.34360    0.15030    1.000
    C193     C        0.05650    0.65500    0.03800    1.000
    H126     H        0.07590    0.68390    0.01780    1.000
    C194     C        0.78830    0.50830    0.85000    1.000
    C195     C        0.26520    0.87920    0.52800    1.000
    C196     C        0.26430    0.93550    0.61330    1.000
    H127     H        0.28530    0.94140    0.65330    1.000
    C197     C        0.25740    0.76370    0.35120    1.000
    C198     C        0.82130    0.54460    0.82080    1.000
    H128     H        0.86510    0.56290    0.84110    1.000
    C199     C        0.47510    0.66580    0.50340    1.000
    H129     H        0.45810    0.66920    0.46330    1.000
    C200     C        0.69370    0.31880    0.02240    1.000
    H130     H        0.65280    0.29370    0.00110    1.000
    C201     C        0.82060    0.49750    0.91520    1.000
    C202     C        0.29590    0.89070    0.58670    1.000
    H131     H        0.33800    0.86850    0.60860    1.000
    C203     C        0.29530    0.82880    0.49800    1.000
    C204     C        0.81450    0.38950    0.08380    1.000
    H132     H        0.85640    0.41160    0.10610    1.000
    C205     C        0.17510    0.95910    0.52750    1.000
    H133     H        0.13280    0.98130    0.50710    1.000
    C206     C        0.99890    0.57140    0.09550    1.000
    H134     H        0.98110    0.54210    0.11670    1.000
    C207     C        0.52750    0.64900    0.61910    1.000
    H135     H        0.54510    0.64170    0.65900    1.000
    C208     C        0.69410    0.49540    0.75970    1.000
    H136     H        0.65050    0.47690    0.73860    1.000
    C209     C        0.28650    0.71400    0.32440    1.000
    H137     H        0.32620    0.68690    0.34590    1.000
    C210     C        0.53320    0.62770    0.53400    1.000
    H138     H        0.55570    0.60550    0.51370    1.000
    C211     C        0.78930    0.55370    0.76210    1.000
    H139     H        0.81270    0.57710    0.74310    1.000
    C212     C        0.25480    0.70630    0.26540    1.000
    H140     H        0.27340    0.67160    0.24780    1.000
    C213     C        0.05690    0.61460    0.12300    1.000
    H141     H        0.07620    0.61620    0.16330    1.000
    C214     C        0.72260    0.48480    0.81920    1.000
    H142     H        0.69800    0.46260    0.83770    1.000
    C215     C        0.19800    0.80020    0.31800    1.000
    H143     H        0.17550    0.83120    0.33460    1.000
    C216     C        0.17220    0.78920    0.25820    1.000
    H144     H        0.13240    0.81550    0.23530    1.000
    N61      N        0.20490    0.97050    0.58420    1.000
    N62      N        0.56060    0.61930    0.59060    1.000
    N63      N        0.19960    0.74490    0.23200    1.000
    N64      N        0.26320    0.82270    0.44000    1.000
    N65      N        0.35240    0.79050    0.53030    1.000
    N66      N        0.34770    0.73450    0.44340    1.000
    N67      N        0.72080    0.31240    0.07990    1.000
    N68      N        0.08730    0.65470    0.09520    1.000
    N69      N        0.72490    0.53020    0.73050    1.000
    N70      N        0.87510    0.48650    0.02950    1.000
    N71      N        0.78930    0.45100    0.93750    1.000
    N72      N        0.87770    0.53770    0.94390    1.000
    Ag13     Ag       0.34423    0.54412    0.86631    1.000
    Ag14     Ag       0.32111    0.24227    0.36597    1.000
    C217     C        0.59760    0.02820    0.49860    1.000
    C218     C        0.03240    0.19090    0.90820    1.000
    H145     H        0.05370    0.21220    0.88670    1.000
    C219     C        0.77620    0.86130    0.50700    1.000
    H146     H        0.79690    0.86530    0.54720    1.000
    C220     C        0.05970    0.20050    0.96710    1.000
    C221     C        0.29730    0.41670    0.00290    1.000
    H147     H        0.31940    0.41270    0.04300    1.000
    C222     C        0.12280    0.24440    0.99930    1.000
    C223     C        0.50350    0.11430    0.49390    1.000
    H148     H        0.52320    0.11590    0.53410    1.000
    C224     C        0.53260    0.07210    0.46440    1.000
    C225     C        0.68150    0.94760    0.50440    1.000
    C226     C        0.20930    0.27490    0.08510    1.000
    C227     C        0.71370    0.89830    0.47500    1.000
    C228     C        0.71960    0.84750    0.38980    1.000
    H149     H        0.70030    0.84360    0.34970    1.000
    C229     C        0.44350    0.15500    0.46200    1.000
    H150     H        0.42410    0.18390    0.48220    1.000
    C230     C        0.71170    0.00830    0.65000    1.000
    C231     C        0.23480    0.37920    0.97200    1.000
    C232     C        0.23570    0.43550    0.88670    1.000
    H151     H        0.21470    0.44140    0.84670    1.000
    C233     C        0.24260    0.26370    0.14880    1.000
    C234     C        0.67870    0.04460    0.67920    1.000
    H152     H        0.63490    0.06290    0.65890    1.000
    C235     C        0.02490    0.16580    0.99660    1.000
    H153     H        0.04190    0.16920    0.03670    1.000
    C236     C        0.80630    0.81880    0.47760    1.000
    H154     H        0.84720    0.79370    0.49890    1.000
    C237     C        0.67940    0.99750    0.58480    1.000
    C238     C        0.20410    0.39070    0.91330    1.000
    H155     H        0.16200    0.36850    0.89140    1.000
    C239     C        0.20470    0.32880    0.00200    1.000
    C240     C        0.68550    0.88950    0.41620    1.000
    H156     H        0.64360    0.91160    0.39390    1.000
    C241     C        0.32490    0.45910    0.97250    1.000
    H157     H        0.36720    0.48130    0.99290    1.000
    C242     C        0.50110    0.07140    0.40450    1.000
    H158     H        0.51890    0.04210    0.38330    1.000
    C243     C        0.97250    0.14900    0.88090    1.000
    H159     H        0.95490    0.14170    0.84100    1.000
    C244     C        0.80590    0.99540    0.74030    1.000
    H160     H        0.84950    0.97690    0.76140    1.000
    C245     C        0.21350    0.21400    0.17560    1.000
    H161     H        0.17380    0.18690    0.15410    1.000
    C246     C        0.96680    0.12770    0.96600    1.000
    H162     H        0.94430    0.10550    0.98630    1.000
    C247     C        0.71070    0.05370    0.73790    1.000
    H163     H        0.68730    0.07710    0.75690    1.000
    C248     C        0.24520    0.20630    0.23460    1.000
    H164     H        0.22660    0.17160    0.25220    1.000
    C249     C        0.44310    0.11460    0.37700    1.000
    H165     H        0.42380    0.11620    0.33670    1.000
    C250     C        0.77740    0.98480    0.68080    1.000
    H166     H        0.80200    0.96260    0.66230    1.000
    C251     C        0.30200    0.30020    0.18200    1.000
    H167     H        0.32450    0.33120    0.16540    1.000
    C252     C        0.32780    0.28920    0.24180    1.000
    H168     H        0.36760    0.31550    0.26470    1.000
    N73      N        0.29510    0.47050    0.91580    1.000
    N74      N        0.93940    0.11930    0.90940    1.000
    N75      N        0.30040    0.24490    0.26800    1.000
    N76      N        0.23680    0.32270    0.06000    1.000
    N77      N        0.14760    0.29050    0.96970    1.000
    N78      N        0.15230    0.23450    0.05660    1.000
    N79      N        0.77920    0.81240    0.42010    1.000
    N80      N        0.41270    0.15470    0.40480    1.000
    N81      N        0.77510    0.03020    0.76950    1.000
    N82      N        0.62490    0.98650    0.47050    1.000
    N83      N        0.71070    0.95100    0.56250    1.000
    N84      N        0.62230    0.03770    0.55610    1.000
    Ag15     Ag       0.84423    0.04412    0.86631    1.000
    Ag16     Ag       0.82111    0.74227    0.36597    1.000
    C253     C        0.09760    0.52820    0.49860    1.000
    C254     C        0.53240    0.69090    0.90820    1.000
    H169     H        0.55370    0.71220    0.88670    1.000
    C255     C        0.27620    0.36130    0.50700    1.000
    H170     H        0.29690    0.36530    0.54720    1.000
    C256     C        0.55970    0.70050    0.96710    1.000
    C257     C        0.79730    0.91670    0.00290    1.000
    H171     H        0.81940    0.91270    0.04300    1.000
    C258     C        0.62280    0.74440    0.99930    1.000
    C259     C        0.00350    0.61430    0.49390    1.000
    H172     H        0.02320    0.61590    0.53410    1.000
    C260     C        0.03260    0.57210    0.46440    1.000
    C261     C        0.18150    0.44760    0.50440    1.000
    C262     C        0.70930    0.77490    0.08510    1.000
    C263     C        0.21370    0.39830    0.47500    1.000
    C264     C        0.21960    0.34750    0.38980    1.000
    H173     H        0.20030    0.34360    0.34970    1.000
    C265     C        0.94350    0.65500    0.46200    1.000
    H174     H        0.92410    0.68390    0.48220    1.000
    C266     C        0.21170    0.50830    0.65000    1.000
    C267     C        0.73480    0.87920    0.97200    1.000
    C268     C        0.73570    0.93550    0.88670    1.000
    H175     H        0.71470    0.94140    0.84670    1.000
    C269     C        0.74260    0.76370    0.14880    1.000
    C270     C        0.17870    0.54460    0.67920    1.000
    H176     H        0.13490    0.56290    0.65890    1.000
    C271     C        0.52490    0.66580    0.99660    1.000
    H177     H        0.54190    0.66920    0.03670    1.000
    C272     C        0.30630    0.31880    0.47760    1.000
    H178     H        0.34720    0.29370    0.49890    1.000
    C273     C        0.17940    0.49750    0.58480    1.000
    C274     C        0.70410    0.89070    0.91330    1.000
    H179     H        0.66200    0.86850    0.89140    1.000
    C275     C        0.70470    0.82880    0.00200    1.000
    C276     C        0.18550    0.38950    0.41620    1.000
    H180     H        0.14360    0.41160    0.39390    1.000
    C277     C        0.82490    0.95910    0.97250    1.000
    H181     H        0.86720    0.98130    0.99290    1.000
    C278     C        0.00110    0.57140    0.40450    1.000
    H182     H        0.01890    0.54210    0.38330    1.000
    C279     C        0.47250    0.64900    0.88090    1.000
    H183     H        0.45490    0.64170    0.84100    1.000
    C280     C        0.30590    0.49540    0.74030    1.000
    H184     H        0.34950    0.47690    0.76140    1.000
    C281     C        0.71350    0.71400    0.17560    1.000
    H185     H        0.67380    0.68690    0.15410    1.000
    C282     C        0.46680    0.62770    0.96600    1.000
    H186     H        0.44430    0.60550    0.98630    1.000
    C283     C        0.21070    0.55370    0.73790    1.000
    H187     H        0.18730    0.57710    0.75690    1.000
    C284     C        0.74520    0.70630    0.23460    1.000
    H188     H        0.72660    0.67160    0.25220    1.000
    C285     C        0.94310    0.61460    0.37700    1.000
    H189     H        0.92380    0.61620    0.33670    1.000
    C286     C        0.27740    0.48480    0.68080    1.000
    H190     H        0.30200    0.46260    0.66230    1.000
    C287     C        0.80200    0.80020    0.18200    1.000
    H191     H        0.82450    0.83120    0.16540    1.000
    C288     C        0.82780    0.78920    0.24180    1.000
    H192     H        0.86760    0.81550    0.26470    1.000
    N85      N        0.79510    0.97050    0.91580    1.000
    N86      N        0.43940    0.61930    0.90940    1.000
    N87      N        0.80040    0.74490    0.26800    1.000
    N88      N        0.73680    0.82270    0.06000    1.000
    N89      N        0.64760    0.79050    0.96970    1.000
    N90      N        0.65230    0.73450    0.05660    1.000
    N91      N        0.27920    0.31240    0.42010    1.000
    N92      N        0.91270    0.65470    0.40480    1.000
    N93      N        0.27510    0.53020    0.76950    1.000
    N94      N        0.12490    0.48650    0.47050    1.000
    N95      N        0.21070    0.45100    0.56250    1.000
    N96      N        0.12230    0.53770    0.55610    1.000
