# CIF file generated by openbabel 3.1.0, see https://openbabel.org
data_I
_chemical_name_common 'image0'
_cell_length_a 12.932
_cell_length_b 14.338
_cell_length_c 14.51
_cell_angle_alpha 104.743
_cell_angle_beta 108.981
_cell_angle_gamma 108.119
_space_group_name_H-M_alt 'P 1'
_space_group_name_Hall 'P 1'
loop_
    _symmetry_equiv_pos_as_xyz
    x,y,z
loop_
    _atom_site_label
    _atom_site_type_symbol
    _atom_site_fract_x
    _atom_site_fract_y
    _atom_site_fract_z
    _atom_site_occupancy
    Eu1      Eu       0.49806    0.89729    0.56945    1.000
    Mo1      Mo       0.14214    0.71242    0.46809    1.000
    Mo2      Mo       0.10426    0.47870    0.31954    1.000
    Mo3      Mo       0.95852    0.26434    0.35082    1.000
    Mo4      Mo       0.38727    0.64102    0.88939    1.000
    Mo5      Mo       0.35948    0.40858    0.74064    1.000
    Mo6      Mo       0.46854    0.26825    0.85139    1.000
    Na1      Na       0.54680    0.94260    0.90670    1.000
    O1       O        0.65310    0.92910    0.51190    1.000
    O2       O        0.63070    0.02120    0.41010    1.000
    O3       O        0.40860    0.90880    0.40630    1.000
    O4       O        0.35170    0.94360    0.26720    1.000
    O5       O        0.29120    0.76030    0.48660    1.000
    O6       O        0.14860    0.56290    0.49460    1.000
    O7       O        0.06510    0.59800    0.33080    1.000
    O8       O        0.97670    0.61780    0.47910    1.000
    O9       O        0.17890    0.76380    0.61750    1.000
    O10      O        0.94230    0.41660    0.35320    1.000
    O11      O        0.10750    0.36240    0.35790    1.000
    O12      O        0.43720    0.84900    0.70640    1.000
    O13      O        0.55190    0.64120    0.00700    1.000
    O14      O        0.34970    0.47720    0.89600    1.000
    O15      O        0.42960    0.56280    0.78910    1.000
    O16      O        0.38010    0.67810    0.02360    1.000
    O17      O        0.45940    0.76540    0.89520    1.000
    O18      O        0.53010    0.44470    0.88420    1.000
    O19      O        0.33010    0.28620    0.77310    1.000
    N1       N        0.90170    0.86730    0.42310    1.000
    C1       C        0.92860    0.89790    0.35020    1.000
    H1       H        0.98320    0.87950    0.32730    1.000
    C2       C        0.87390    0.95740    0.30960    1.000
    H2       H        0.89140    0.98060    0.25840    1.000
    C3       C        0.79540    0.98250    0.34280    1.000
    H3       H        0.75830    0.02370    0.31590    1.000
    C4       C        0.77050    0.94640    0.41710    1.000
    C5       C        0.82170    0.88760    0.45570    1.000
    H4       H        0.80200    0.86120    0.50450    1.000
    C6       C        0.67590    0.96810    0.44960    1.000
    C7       C        0.25080    0.76250    0.24810    1.000
    H5       H        0.23690    0.74080    0.17370    1.000
    H6       H        0.17460    0.75500    0.25210    1.000
    H7       H        0.28090    0.71710    0.27820    1.000
    C8       C        0.34280    0.87700    0.30960    1.000
    O20      O        0.37340    0.97240    0.90400    1.000
    Eu2      Eu       0.50194    0.10271    0.43055    1.000
    Mo7      Mo       0.85786    0.28758    0.53191    1.000
    Mo8      Mo       0.89574    0.52130    0.68046    1.000
    Mo9      Mo       0.04148    0.73566    0.64918    1.000
    Mo10     Mo       0.61273    0.35898    0.11061    1.000
    Mo11     Mo       0.64052    0.59142    0.25936    1.000
    Mo12     Mo       0.53146    0.73175    0.14861    1.000
    Na2      Na       0.45320    0.05740    0.09330    1.000
    O21      O        0.34690    0.07090    0.48810    1.000
    O22      O        0.36930    0.97880    0.58990    1.000
    O23      O        0.59140    0.09120    0.59370    1.000
    O24      O        0.64830    0.05640    0.73280    1.000
    O25      O        0.70880    0.23970    0.51340    1.000
    O26      O        0.85140    0.43710    0.50540    1.000
    O27      O        0.93490    0.40200    0.66920    1.000
    O28      O        0.02330    0.38220    0.52090    1.000
    O29      O        0.82110    0.23620    0.38250    1.000
    O30      O        0.05770    0.58340    0.64680    1.000
    O31      O        0.89250    0.63760    0.64210    1.000
    O32      O        0.56280    0.15100    0.29360    1.000
    O33      O        0.44810    0.35880    0.99300    1.000
    O34      O        0.65030    0.52280    0.10400    1.000
    O35      O        0.57040    0.43720    0.21090    1.000
    O36      O        0.61990    0.32190    0.97640    1.000
    O37      O        0.54060    0.23460    0.10480    1.000
    O38      O        0.46990    0.55530    0.11580    1.000
    O39      O        0.66990    0.71380    0.22690    1.000
    N2       N        0.09830    0.13270    0.57690    1.000
    C9       C        0.07140    0.10210    0.64980    1.000
    H8       H        0.01680    0.12050    0.67270    1.000
    C10      C        0.12610    0.04260    0.69040    1.000
    H9       H        0.10860    0.01940    0.74160    1.000
    C11      C        0.20460    0.01750    0.65720    1.000
    H10      H        0.24170    0.97630    0.68410    1.000
    C12      C        0.22950    0.05360    0.58290    1.000
    C13      C        0.17830    0.11240    0.54430    1.000
    H11      H        0.19800    0.13880    0.49550    1.000
    C14      C        0.32410    0.03190    0.55040    1.000
    C15      C        0.74920    0.23750    0.75190    1.000
    H12      H        0.76310    0.25920    0.82630    1.000
    H13      H        0.82540    0.24500    0.74790    1.000
    H14      H        0.71910    0.28290    0.72180    1.000
    C16      C        0.65720    0.12300    0.69040    1.000
    O40      O        0.62660    0.02760    0.09600    1.000
    Al1      Al       0.00000    0.50000    0.50000    1.000
    Al2      Al       0.50000    0.50000    0.00000    1.000
