data_functionalizedCrystal
_audit_creation_method	'EQeq! by Chris Wilmer'
_symmetry_space_group_name_H-M	'P1'
_symmetry_Int_Tables_number	1
_symmetry_cell_setting	triclinic
loop_
_symmetry_equiv_pos_as_xyz
  x,y,z
_cell_length_a	10.15
_cell_length_b	14.383
_cell_length_c	18.355
_cell_angle_alpha	90.39
_cell_angle_beta	90
_cell_angle_gamma	90
loop_
_atom_site_label
_atom_site_type_symbol
_atom_site_fract_x
_atom_site_fract_y
_atom_site_fract_z
_atom_site_charge
Mof_V 	V 	0.8162	0.7589	0.896	1.807
Mof_V 	V 	0.3017	0.7122	0.8035	1.821
Mof_V 	V 	0.6515	0.7469	0.1966	1.807
Mof_V 	V 	0.1389	0.7469	0.1073	1.807
Mof_V 	V 	0.3162	0.7411	0.604	1.803
Mof_V 	V 	0.8017	0.7878	0.6965	1.821
Mof_V 	V 	0.1515	0.7531	0.3034	1.806
Mof_V 	V 	0.6389	0.7531	0.3927	1.81
Mof_V 	V 	0.1838	0.2411	0.104	1.797
Mof_V 	V 	0.6983	0.2878	0.1965	1.819
Mof_V 	V 	0.3485	0.2531	0.8034	1.806
Mof_V 	V 	0.8611	0.2531	0.8927	1.813
Mof_V 	V 	0.6838	0.2589	0.396	1.802
Mof_V 	V 	0.1983	0.2122	0.3035	1.819
Mof_V 	V 	0.8485	0.2469	0.6966	1.806
Mof_V 	V 	0.3611	0.2469	0.6073	1.809
Mof_Fe	Fe	-0	0	-0	0.852
Mof_Fe	Fe	0.5	0.5	0.5	0.996
Mof_P 	P 	0.363	0.8465	0.199	0.605
Mof_P 	P 	0.5718	0.8353	0.8133	0.616
Mof_P 	P 	0.8564	0.8166	0.0693	0.55
Mof_P 	P 	0.1118	0.8021	0.9336	0.613
Mof_P 	P 	0.863	0.6535	0.301	0.622
Mof_P 	P 	0.0718	0.6647	0.6867	0.607
Mof_P 	P 	0.3564	0.6834	0.4307	0.575
Mof_P 	P 	0.6118	0.6979	0.5664	0.592
Mof_P 	P 	0.637	0.1535	0.801	0.603
Mof_P 	P 	0.4282	0.1647	0.1867	0.616
Mof_P 	P 	0.1436	0.1834	0.9307	0.6
Mof_P 	P 	0.8882	0.1979	0.0664	0.565
Mof_P 	P 	0.137	0.3465	0.699	0.588
Mof_P 	P 	0.9282	0.3353	0.3133	0.628
Mof_P 	P 	0.6436	0.3166	0.5693	0.575
Mof_P 	P 	0.3882	0.3021	0.4336	0.591
Mof_H 	H 	0.3862	0.9777	0.2255	0.348
Mof_H 	H 	0.496	0.9318	0.7506	0.262
Mof_H 	H 	0.8862	0.5223	0.2745	0.345
Mof_H 	H 	0.996	0.5682	0.7494	0.289
Mof_H 	H 	0.6138	0.0223	0.7745	0.332
Mof_H 	H 	0.504	0.0682	0.2494	0.259
Mof_H 	H 	0.1138	0.4777	0.7255	0.335
Mof_H 	H 	0.004	0.4318	0.2506	0.222
Mof_O 	O 	0.7512	0.6556	0.8905	-0.516
Mof_O 	O 	0.612	0.658	0.1485	-0.527
Mof_O 	O 	0.1847	0.6411	0.1137	-0.561
Mof_O 	O 	0.3183	0.6108	0.8321	-0.549
Mof_O 	O 	0.2932	0.8247	0.1271	-0.475
Mof_O 	O 	0.5115	0.8426	0.1873	-0.476
Mof_O 	O 	0.3253	0.7729	0.2565	-0.511
Mof_O 	O 	0.322	0.9431	0.2255	-0.515
Mof_O 	O 	0.6755	0.8478	0.872	-0.466
Mof_O 	O 	0.6278	0.7884	0.7456	-0.522
Mof_O 	O 	0.4605	0.7748	0.84	-0.47
Mof_O 	O 	0.5147	0.9306	0.7941	-0.493
Mof_O 	O 	0.786	0.8032	0.9971	-0.434
Mof_O 	O 	0.9464	0.733	0.0852	-0.462
Mof_O 	O 	0.7505	0.8289	0.1291	-0.461
Mof_O 	O 	0.9418	0.9055	0.0711	-0.373
Mof_O 	O 	0.0011	0.7308	0.9183	-0.497
Mof_O 	O 	0.2166	0.7938	0.8741	-0.475
Mof_O 	O 	0.1748	0.7835	0.0071	-0.503
Mof_O 	O 	0.056	0.9022	0.9296	-0.375
Mof_O 	O 	0.8847	0.784	0.7945	-0.6
Mof_O 	O 	0.5738	0.7183	0.2937	-0.603
Mof_O 	O 	0.8253	0.0029	0.9513	-0.214
Mof_O 	O 	0.2512	0.8444	0.6095	-0.523
Mof_O 	O 	0.112	0.842	0.3515	-0.524
Mof_O 	O 	0.6847	0.8589	0.3863	-0.541
Mof_O 	O 	0.8183	0.8892	0.6679	-0.544
Mof_O 	O 	0.7932	0.6753	0.3729	-0.47
Mof_O 	O 	0.0115	0.6574	0.3127	-0.496
Mof_O 	O 	0.8253	0.7271	0.2435	-0.507
Mof_O 	O 	0.822	0.5569	0.2745	-0.519
Mof_O 	O 	0.1755	0.6522	0.628	-0.475
Mof_O 	O 	0.1278	0.7116	0.7544	-0.527
Mof_O 	O 	0.9605	0.7252	0.66	-0.459
Mof_O 	O 	0.0147	0.5694	0.7059	-0.534
Mof_O 	O 	0.286	0.6968	0.5029	-0.466
Mof_O 	O 	0.4464	0.767	0.4148	-0.47
Mof_O 	O 	0.2505	0.6711	0.3709	-0.465
Mof_O 	O 	0.4418	0.5945	0.4289	-0.408
Mof_O 	O 	0.5011	0.7692	0.5817	-0.49
Mof_O 	O 	0.7166	0.7062	0.6259	-0.474
Mof_O 	O 	0.6748	0.7165	0.4929	-0.471
Mof_O 	O 	0.556	0.5978	0.5704	-0.402
Mof_O 	O 	0.3847	0.716	0.7055	-0.607
Mof_O 	O 	0.0738	0.7817	0.2063	-0.612
Mof_O 	O 	0.3253	0.4971	0.5487	-0.244
Mof_O 	O 	0.2488	0.3444	0.1095	-0.536
Mof_O 	O 	0.388	0.342	0.8515	-0.516
Mof_O 	O 	0.8153	0.3589	0.8863	-0.539
Mof_O 	O 	0.6817	0.3892	0.1679	-0.556
Mof_O 	O 	0.7068	0.1753	0.8729	-0.469
Mof_O 	O 	0.4885	0.1574	0.8127	-0.477
Mof_O 	O 	0.6747	0.2271	0.7435	-0.512
Mof_O 	O 	0.678	0.0569	0.7745	-0.515
Mof_O 	O 	0.3245	0.1522	0.128	-0.483
Mof_O 	O 	0.3722	0.2116	0.2544	-0.525
Mof_O 	O 	0.5395	0.2252	0.16	-0.479
Mof_O 	O 	0.4853	0.0694	0.2059	-0.512
Mof_O 	O 	0.214	0.1968	0.0029	-0.5
Mof_O 	O 	0.0536	0.267	0.9148	-0.478
Mof_O 	O 	0.2495	0.1711	0.8709	-0.465
Mof_O 	O 	0.0582	0.0945	0.9289	-0.395
Mof_O 	O 	0.9989	0.2692	0.0817	-0.479
Mof_O 	O 	0.7834	0.2062	0.1259	-0.476
Mof_O 	O 	0.8252	0.2165	0.9929	-0.443
Mof_O 	O 	0.944	0.0978	0.0704	-0.379
Mof_O 	O 	0.1153	0.216	0.2055	-0.618
Mof_O 	O 	0.4262	0.2817	0.7063	-0.603
Mof_O 	O 	0.1747	0.9971	0.0487	-0.226
Mof_O 	O 	0.7488	0.1556	0.3905	-0.525
Mof_O 	O 	0.888	0.158	0.6485	-0.52
Mof_O 	O 	0.3153	0.1411	0.6137	-0.558
Mof_O 	O 	0.1817	0.1108	0.3321	-0.565
Mof_O 	O 	0.2068	0.3247	0.6271	-0.476
Mof_O 	O 	0.9885	0.3426	0.6873	-0.46
Mof_O 	O 	0.1747	0.2729	0.7565	-0.516
Mof_O 	O 	0.178	0.4431	0.7255	-0.512
Mof_O 	O 	0.8245	0.3478	0.372	-0.473
Mof_O 	O 	0.8722	0.2884	0.2456	-0.518
Mof_O 	O 	0.0395	0.2748	0.34	-0.495
Mof_O 	O 	0.9853	0.4306	0.2941	-0.46
Mof_O 	O 	0.714	0.3032	0.4971	-0.462
Mof_O 	O 	0.5536	0.233	0.5852	-0.474
Mof_O 	O 	0.7495	0.3289	0.6291	-0.463
Mof_O 	O 	0.5582	0.4055	0.5711	-0.408
Mof_O 	O 	0.4989	0.2308	0.4183	-0.494
Mof_O 	O 	0.2834	0.2938	0.3741	-0.478
Mof_O 	O 	0.3252	0.2835	0.5071	-0.477
Mof_O 	O 	0.444	0.4022	0.4296	-0.402
Mof_O 	O 	0.6153	0.284	0.2945	-0.608
Mof_O 	O 	0.9262	0.2183	0.7937	-0.596
Mof_O 	O 	0.6747	0.5029	0.4513	-0.241
Mof_H 	H 	0.6801	0.0493	0.1787	0.177
Mof_H 	H 	0.731	0.9551	0.1744	0.192
Mof_H 	H 	0.8067	0.0318	0.1443	0.192
Mof_H 	H 	0.8248	0.094	0.2558	0.045
Mof_H 	H 	0.7572	0.0044	0.2851	0.056
Mof_H 	H 	0.9255	0.922	0.2667	0.043
Mof_H 	H 	0.9706	0.0127	0.3063	0.053
Mof_H 	H 	0.0267	0.9648	0.1682	0.165
Mof_H 	H 	0.1198	0.9811	0.2271	0.19
Mof_H 	H 	0.0498	0.0588	0.1949	0.132
Mof_C 	C 	0.8163	0.0275	0.2478	-0.064
Mof_C 	C 	0.9388	0.9883	0.2602	0.05
Mof_N 	N 	0.7528	0.0147	0.1801	-0.391
Mof_N 	N 	0.0439	0.9993	0.2075	-0.364
Mof_H 	H 	0.1801	0.4507	0.3213	0.177
Mof_H 	H 	0.231	0.5449	0.3256	0.177
Mof_H 	H 	0.3067	0.4682	0.3557	0.197
Mof_H 	H 	0.3248	0.406	0.2442	0.015
Mof_H 	H 	0.2572	0.4956	0.2149	0.032
Mof_H 	H 	0.4255	0.578	0.2333	0.069
Mof_H 	H 	0.4706	0.4873	0.1937	0.092
Mof_H 	H 	0.5267	0.5352	0.3318	0.168
Mof_H 	H 	0.6198	0.5189	0.2729	0.185
Mof_H 	H 	0.5498	0.4412	0.3051	0.155
Mof_C 	C 	0.3163	0.4725	0.2522	0.029
Mof_C 	C 	0.4388	0.5117	0.2398	-0.077
Mof_N 	N 	0.2528	0.4853	0.3199	-0.392
Mof_N 	N 	0.5439	0.5007	0.2925	-0.358
Mof_H 	H 	0.3199	0.9507	0.8213	0.19
Mof_H 	H 	0.269	0.0449	0.8256	0.17
Mof_H 	H 	0.1933	0.9682	0.8557	0.208
Mof_H 	H 	0.1752	0.906	0.7442	-0.019
Mof_H 	H 	0.2428	0.9956	0.7149	0.007
Mof_H 	H 	0.0745	0.078	0.7333	0.104
Mof_H 	H 	0.0294	0.9873	0.6937	0.148
Mof_H 	H 	0.9733	0.0352	0.8318	0.171
Mof_H 	H 	0.8802	0.0189	0.7729	0.179
Mof_H 	H 	0.9502	0.9412	0.8051	0.167
Mof_C 	C 	0.1837	0.9725	0.7522	0.143
Mof_C 	C 	0.0612	0.0117	0.7398	-0.232
Mof_N 	N 	0.2472	0.9853	0.8199	-0.405
Mof_N 	N 	0.9561	0.0007	0.7925	-0.339
Mof_H 	H 	0.8199	0.5493	0.6787	0.188
Mof_H 	H 	0.769	0.4551	0.6744	0.182
Mof_H 	H 	0.6933	0.5318	0.6443	0.199
Mof_H 	H 	0.6752	0.594	0.7558	0.015
Mof_H 	H 	0.7428	0.5044	0.7851	0.036
Mof_H 	H 	0.5745	0.422	0.7667	0.072
Mof_H 	H 	0.5294	0.5127	0.8063	0.098
Mof_H 	H 	0.4733	0.4648	0.6682	0.168
Mof_H 	H 	0.3802	0.4811	0.7271	0.185
Mof_H 	H 	0.4502	0.5588	0.6949	0.154
Mof_C 	C 	0.6837	0.5275	0.7478	0.032
Mof_C 	C 	0.5612	0.4883	0.7602	-0.082
Mof_N 	N 	0.7472	0.5147	0.6801	-0.398
Mof_N 	N 	0.4561	0.4993	0.7075	-0.357
_end
