data_functionalizedCrystal
_audit_creation_method	'EQeq! by Chris Wilmer'
_symmetry_space_group_name_H-M	'P1'
_symmetry_Int_Tables_number	1
_symmetry_cell_setting	triclinic
loop_
_symmetry_equiv_pos_as_xyz
  x,y,z
_cell_length_a	11.129
_cell_length_b	13.988
_cell_length_c	16.141
_cell_angle_alpha	82.895
_cell_angle_beta	88.392
_cell_angle_gamma	66.718
loop_
_atom_site_label
_atom_site_type_symbol
_atom_site_fract_x
_atom_site_fract_y
_atom_site_fract_z
_atom_site_charge
Mof_Zn	Zn	0.98742	0.48622	0.76027	1.194
Mof_Zn	Zn	0.22621	0.86977	0.08299	1.236
Mof_C 	C 	0.2257	0.312	0.6852	0.028
Mof_H 	H 	0.2415	0.2589	0.7294	0.024
Mof_C 	C 	0.2958	0.3043	0.6131	-0.011
Mof_H 	H 	0.3666	0.2459	0.5993	0.044
Mof_C 	C 	0.1381	0.4637	0.6087	0.06
Mof_C 	C 	0.0445	0.5706	0.5864	0.054
Mof_C 	C 	0.0346	0.6344	0.5115	-0.114
Mof_H 	H 	0.0941	0.6105	0.4695	0.077
Mof_C 	C 	0.9374	0.732	0.5001	0.049
Mof_H 	H 	0.9301	0.7749	0.45	0.021
Mof_C 	C 	0.849	0.7679	0.5629	-0.136
Mof_H 	H 	0.7822	0.8345	0.5562	0.081
Mof_C 	C 	0.864	0.701	0.6353	0.075
Mof_H 	H 	0.8056	0.724	0.678	-0.004
Mof_C 	C 	0.2967	0.421	0.4848	-0.132
Mof_H 	H 	0.227	0.4715	0.4481	0.074
Mof_H 	H 	0.3343	0.3569	0.459	0.076
Mof_C 	C 	0.4013	0.4635	0.4937	0.073
Mof_C 	C 	0.3831	0.5619	0.4601	-0.071
Mof_H 	H 	0.3042	0.6049	0.4328	0.071
Mof_C 	C 	0.5192	0.4006	0.5342	-0.058
Mof_H 	H 	0.5332	0.3328	0.5577	0.067
Mof_C 	C 	0.404	0.5843	0.9573	-0.068
Mof_H 	H 	0.3392	0.6419	0.9274	0.065
Mof_C 	C 	0.5341	0.5678	0.9444	-0.074
Mof_H 	H 	0.5555	0.6145	0.907	0.063
Mof_C 	C 	0.3679	0.5183	0.0126	0.079
Mof_C 	C 	0.2247	0.5419	0.0299	-0.15
Mof_H 	H 	0.2179	0.4809	0.062	0.08
Mof_H 	H 	0.1911	0.5994	0.0635	0.099
Mof_C 	C 	0.0809	0.6715	0.9165	-0.032
Mof_H 	H 	0.0807	0.7314	0.9359	0.068
Mof_C 	C 	0.0202	0.6676	0.8472	0.045
Mof_H 	H 	0.9718	0.7252	0.8095	0.011
Mof_C 	C 	0.1163	0.507	0.9065	0.059
Mof_C 	C 	0.1447	0.3946	0.9201	0.051
Mof_C 	C 	0.2311	0.3203	0.9796	-0.113
Mof_H 	H 	0.2819	0.3393	0.0137	0.072
Mof_C 	C 	0.2403	0.2195	0.9873	0.06
Mof_H 	H 	0.2997	0.1691	0.0257	0.018
Mof_C 	C 	0.1635	0.1916	0.9392	-0.135
Mof_H 	H 	0.1652	0.1241	0.9465	0.107
Mof_C 	C 	0.0823	0.2683	0.8789	0.086
Mof_H 	H 	0.0318	0.2499	0.8441	0.016
Mof_C 	C 	0.2313	0.8799	0.9034	0.38
Mof_C 	C 	0.9631	0.9983	0.8399	0.62
Mof_C 	C 	0.2699	0.7917	0.7777	-0.26
Mof_H 	H 	0.3556	0.7571	0.7979	0.132
Mof_C 	C 	0.1809	0.863	0.8213	0.113
Mof_C 	C 	0.0568	0.9151	0.7926	-0.261
Mof_C 	C 	0.0213	0.8957	0.7174	0.218
Mof_H 	H 	0.9358	0.9326	0.6973	-0.041
Mof_C 	C 	0.1096	0.8224	0.6705	-0.316
Mof_H 	H 	0.0849	0.8099	0.6197	0.158
Mof_C 	C 	0.2341	0.7696	0.7026	0.308
Mof_C 	C 	0.4053	0.6025	0.7004	0.279
Mof_C 	C 	0.5364	0.5791	0.7062	-0.23
Mof_H 	H 	0.5683	0.6294	0.6854	0.124
Mof_C 	C 	0.6229	0.4812	0.7427	0.081
Mof_C 	C 	0.7652	0.4605	0.7413	0.272
Mof_C 	C 	0.5732	0.407	0.775	-0.195
Mof_C 	C 	0.6594	0.3019	0.8204	0.54
Mof_C 	C 	0.4367	0.4358	0.7699	0.168
Mof_H 	H 	0.4022	0.388	0.7926	-0.01
Mof_C 	C 	0.3543	0.531	0.733	-0.275
Mof_H 	H 	0.2648	0.5478	0.7297	0.124
Mof_N 	N 	0.2406	0.3992	0.5659	-0.094
Mof_N 	N 	0.1301	0.4094	0.6815	-0.254
Mof_N 	N 	0.9591	0.6039	0.6478	-0.233
Mof_N 	N 	0.0403	0.5661	0.8404	-0.256
Mof_N 	N 	0.1436	0.5695	0.9536	-0.088
Mof_N 	N 	0.074	0.3661	0.8688	-0.233
Mof_O 	O 	0.1816	0.8581	0.9682	-0.449
Mof_O 	O 	0.3597	0.88	0.9059	-0.164
Mof_O 	O 	0.2592	0.9504	0.892	-0.233
Mof_O 	O 	0.9922	0.0625	0.8698	-0.41
Mof_O 	O 	0.8738	0.9996	0.8649	-0.582
Mof_O 	O 	0.755	0.2865	0.8565	-0.449
Mof_O 	O 	0.6155	0.2424	0.8554	-0.429
Mof_O 	O 	0.6427	0.2168	0.7744	-0.182
Mof_O 	O 	0.8435	0.3903	0.7042	-0.312
Mof_O 	O 	0.797	0.5251	0.7746	-0.44
Mof_O 	O 	0.3243	0.699	0.6559	-0.304
Mof_Zn	Zn	0.01258	0.51378	0.23973	1.193
Mof_Zn	Zn	0.77379	0.13023	0.91701	1.235
Mof_C 	C 	0.7743	0.688	0.3148	0.027
Mof_H 	H 	0.7585	0.7411	0.2706	0.023
Mof_C 	C 	0.7042	0.6957	0.3869	-0.011
Mof_H 	H 	0.6334	0.7541	0.4007	0.044
Mof_C 	C 	0.8619	0.5363	0.3913	0.06
Mof_C 	C 	0.9555	0.4294	0.4136	0.054
Mof_C 	C 	0.9654	0.3656	0.4885	-0.114
Mof_H 	H 	0.9059	0.3895	0.5305	0.077
Mof_C 	C 	0.0626	0.268	0.4999	0.049
Mof_H 	H 	0.0699	0.2251	0.55	0.021
Mof_C 	C 	0.151	0.2321	0.4371	-0.136
Mof_H 	H 	0.2178	0.1655	0.4438	0.081
Mof_C 	C 	0.136	0.299	0.3647	0.075
Mof_H 	H 	0.1944	0.276	0.322	-0.004
Mof_C 	C 	0.7033	0.579	0.5152	-0.132
Mof_H 	H 	0.773	0.5285	0.5519	0.074
Mof_H 	H 	0.6657	0.6431	0.541	0.076
Mof_C 	C 	0.5987	0.5365	0.5063	0.073
Mof_C 	C 	0.6169	0.4381	0.5399	-0.071
Mof_H 	H 	0.6958	0.3951	0.5672	0.071
Mof_C 	C 	0.4808	0.5994	0.4658	-0.058
Mof_H 	H 	0.4668	0.6672	0.4423	0.067
Mof_C 	C 	0.596	0.4157	0.0427	-0.068
Mof_H 	H 	0.6608	0.3581	0.0726	0.065
Mof_C 	C 	0.4659	0.4322	0.0556	-0.074
Mof_H 	H 	0.4445	0.3855	0.093	0.063
Mof_C 	C 	0.6321	0.4817	0.9874	0.079
Mof_C 	C 	0.7753	0.4581	0.9701	-0.15
Mof_H 	H 	0.7821	0.5191	0.938	0.08
Mof_H 	H 	0.8089	0.4006	0.9365	0.099
Mof_C 	C 	0.9191	0.3285	0.0835	-0.032
Mof_H 	H 	0.9193	0.2686	0.0641	0.068
Mof_C 	C 	0.9798	0.3324	0.1528	0.045
Mof_H 	H 	0.0282	0.2748	0.1905	0.011
Mof_C 	C 	0.8837	0.493	0.0935	0.059
Mof_C 	C 	0.8553	0.6054	0.0799	0.051
Mof_C 	C 	0.7689	0.6797	0.0204	-0.113
Mof_H 	H 	0.7181	0.6607	0.9863	0.072
Mof_C 	C 	0.7597	0.7805	0.0127	0.06
Mof_H 	H 	0.7003	0.8309	0.9743	0.018
Mof_C 	C 	0.8365	0.8084	0.0608	-0.135
Mof_H 	H 	0.8348	0.8759	0.0535	0.107
Mof_C 	C 	0.9177	0.7317	0.1211	0.086
Mof_H 	H 	0.9682	0.7501	0.1559	0.016
Mof_C 	C 	0.7687	0.1201	0.0966	0.38
Mof_C 	C 	0.0369	0.0017	0.1601	0.62
Mof_C 	C 	0.7301	0.2083	0.2223	-0.26
Mof_H 	H 	0.6444	0.2429	0.2021	0.132
Mof_C 	C 	0.8191	0.137	0.1787	0.113
Mof_C 	C 	0.9432	0.0849	0.2074	-0.261
Mof_C 	C 	0.9787	0.1043	0.2826	0.218
Mof_H 	H 	0.0642	0.0674	0.3027	-0.041
Mof_C 	C 	0.8904	0.1776	0.3295	-0.316
Mof_H 	H 	0.9151	0.1901	0.3803	0.158
Mof_C 	C 	0.7659	0.2304	0.2974	0.308
Mof_C 	C 	0.5947	0.3975	0.2996	0.279
Mof_C 	C 	0.4636	0.4209	0.2938	-0.23
Mof_H 	H 	0.4317	0.3706	0.3146	0.124
Mof_C 	C 	0.3771	0.5188	0.2573	0.081
Mof_C 	C 	0.2348	0.5395	0.2587	0.272
Mof_C 	C 	0.4268	0.593	0.225	-0.195
Mof_C 	C 	0.3406	0.6981	0.1796	0.54
Mof_C 	C 	0.5633	0.5642	0.2301	0.168
Mof_H 	H 	0.5978	0.612	0.2074	-0.01
Mof_C 	C 	0.6457	0.469	0.267	-0.275
Mof_H 	H 	0.7352	0.4522	0.2703	0.124
Mof_N 	N 	0.7594	0.6008	0.4341	-0.094
Mof_N 	N 	0.8699	0.5906	0.3185	-0.254
Mof_N 	N 	0.0409	0.3961	0.3522	-0.233
Mof_N 	N 	0.9597	0.4339	0.1596	-0.256
Mof_N 	N 	0.8564	0.4305	0.0464	-0.088
Mof_N 	N 	0.926	0.6339	0.1312	-0.233
Mof_O 	O 	0.8184	0.1419	0.0318	-0.449
Mof_O 	O 	0.6403	0.12	0.0941	-0.164
Mof_O 	O 	0.7408	0.0496	0.108	-0.233
Mof_O 	O 	0.0078	0.9375	0.1302	-0.41
Mof_O 	O 	0.1262	0.0004	0.1351	-0.582
Mof_O 	O 	0.245	0.7135	0.1435	-0.449
Mof_O 	O 	0.3845	0.7576	0.1446	-0.429
Mof_O 	O 	0.3573	0.7832	0.2256	-0.182
Mof_O 	O 	0.1565	0.6097	0.2958	-0.312
Mof_O 	O 	0.203	0.4749	0.2254	-0.44
Mof_O 	O 	0.6757	0.301	0.3441	-0.304
_end
