# CIF file generated by openbabel 3.1.0, see https://openbabel.org
data_I
_chemical_name_common 'image0'
_cell_length_a 6.136
_cell_length_b 16.863
_cell_length_c 12.237
_cell_angle_alpha 90
_cell_angle_beta 92.179
_cell_angle_gamma 90
_space_group_name_H-M_alt 'P 1'
_space_group_name_Hall 'P 1'
loop_
    _symmetry_equiv_pos_as_xyz
    x,y,z
loop_
    _atom_site_label
    _atom_site_type_symbol
    _atom_site_fract_x
    _atom_site_fract_y
    _atom_site_fract_z
    _atom_site_occupancy
    C1       C        0.20800    0.89460    0.36590    1.000
    C2       C        0.30420    0.63150    0.12590    1.000
    C3       C        0.21090    0.70450    0.17790    1.000
    C4       C        0.00200    0.73200    0.17600    1.000
    H1       H        0.88710    0.70750    0.13750    1.000
    C5       C        0.97820    0.80160    0.23880    1.000
    H2       H        0.84580    0.82760    0.24560    1.000
    C6       C        0.16840    0.82680    0.28820    1.000
    O1       O        0.50910    0.62393    0.13210    1.000
    O2       O        0.40100    0.91020    0.39700    1.000
    O3       O        0.04210    0.93134    0.39740    1.000
    O4       O        0.16930    0.58391    0.08140    1.000
    S1       S        0.38289    0.76487    0.25684    1.000
    Sr1      Sr       0.21929    0.48403    0.91179    1.000
    C7       C        0.29200    0.39460    0.13410    1.000
    C8       C        0.19580    0.13150    0.37410    1.000
    C9       C        0.28910    0.20450    0.32210    1.000
    C10      C        0.49800    0.23200    0.32400    1.000
    H3       H        0.61290    0.20750    0.36250    1.000
    C11      C        0.52180    0.30160    0.26120    1.000
    H4       H        0.65420    0.32760    0.25440    1.000
    C12      C        0.33160    0.32680    0.21180    1.000
    O5       O        0.99090    0.12393    0.36790    1.000
    O6       O        0.09900    0.41020    0.10300    1.000
    O7       O        0.45790    0.43134    0.10260    1.000
    O8       O        0.33070    0.08391    0.41860    1.000
    S2       S        0.11711    0.26487    0.24316    1.000
    Sr2      Sr       0.28071    0.98403    0.58821    1.000
    C13      C        0.79200    0.10540    0.63410    1.000
    C14      C        0.69580    0.36850    0.87410    1.000
    C15      C        0.78910    0.29550    0.82210    1.000
    C16      C        0.99800    0.26800    0.82400    1.000
    H5       H        0.11290    0.29250    0.86250    1.000
    C17      C        0.02180    0.19840    0.76120    1.000
    H6       H        0.15420    0.17240    0.75440    1.000
    C18      C        0.83160    0.17320    0.71180    1.000
    O9       O        0.49090    0.37607    0.86790    1.000
    O10      O        0.59900    0.08980    0.60300    1.000
    O11      O        0.95790    0.06866    0.60260    1.000
    O12      O        0.83070    0.41609    0.91860    1.000
    S3       S        0.61711    0.23513    0.74316    1.000
    Sr3      Sr       0.78071    0.51597    0.08821    1.000
    C19      C        0.70800    0.60540    0.86590    1.000
    C20      C        0.80420    0.86850    0.62590    1.000
    C21      C        0.71090    0.79550    0.67790    1.000
    C22      C        0.50200    0.76800    0.67600    1.000
    H7       H        0.38710    0.79250    0.63750    1.000
    C23      C        0.47820    0.69840    0.73880    1.000
    H8       H        0.34580    0.67240    0.74560    1.000
    C24      C        0.66840    0.67320    0.78820    1.000
    O13      O        0.00910    0.87607    0.63210    1.000
    O14      O        0.90100    0.58980    0.89700    1.000
    O15      O        0.54210    0.56866    0.89740    1.000
    O16      O        0.66930    0.91609    0.58140    1.000
    S4       S        0.88289    0.73513    0.75684    1.000
    Sr4      Sr       0.71929    0.01597    0.41179    1.000
