data_functionalizedCrystal
_audit_creation_method	'EQeq! by Chris Wilmer'
_symmetry_space_group_name_H-M	'P1'
_symmetry_Int_Tables_number	1
_symmetry_cell_setting	triclinic
loop_
_symmetry_equiv_pos_as_xyz
  x,y,z
_cell_length_a	10.7622
_cell_length_b	11.3038
_cell_length_c	26.224
_cell_angle_alpha	85.086
_cell_angle_beta	88.092
_cell_angle_gamma	62.225
loop_
_atom_site_label
_atom_site_type_symbol
_atom_site_fract_x
_atom_site_fract_y
_atom_site_fract_z
_atom_site_charge
Mof_Tb	Tb	0.41127	0.61743	0.39962	2.089
Mof_Tb	Tb	0.34386	0.84636	0.24189	1.968
Mof_Tb	Tb	0.37952	0.03628	0.06044	2.185
Mof_Tb	Tb	0.58873	0.38257	0.60038	2.089
Mof_Tb	Tb	0.65614	0.15364	0.75811	1.967
Mof_Tb	Tb	0.62048	0.96372	0.93956	2.184
Mof_H 	H 	0.5452	0.3879	0.9267	0.043
Mof_H 	H 	0.4477	0.411	0.0757	0.037
Mof_H 	H 	0.4325	0.1213	0.2777	0.007
Mof_H 	H 	0.4611	0.277	0.3177	0.039
Mof_H 	H 	0.3331	0.3581	0.1475	0.027
Mof_H 	H 	0.3697	0.5152	0.1878	0.042
Mof_H 	H 	0.0386	0.0035	0.0499	-0.014
Mof_H 	H 	0.8287	0.0143	0.0273	0.023
Mof_H 	H 	0.0718	0.7533	0.1713	0.018
Mof_H 	H 	0.8546	0.7722	0.1534	0.05
Mof_H 	H 	0.8161	0.6675	0.4031	0.048
Mof_H 	H 	0.0173	0.6911	0.3949	0.029
Mof_H 	H 	0.7075	0.8281	0.2599	0.026
Mof_H 	H 	0.9144	0.8423	0.2516	0.028
Mof_H 	H 	0.5939	0.7798	0.5341	0.059
Mof_H 	H 	0.3619	0.0652	0.427	0.043
Mof_H 	H 	0.0605	0.6478	0.5325	0.044
Mof_H 	H 	0.1327	0.374	0.4364	0.046
Mof_H 	H 	0.4548	0.6121	0.0733	0.043
Mof_H 	H 	0.5523	0.589	0.9243	0.037
Mof_H 	H 	0.5675	0.8787	0.7223	0.007
Mof_H 	H 	0.5389	0.723	0.6823	0.039
Mof_H 	H 	0.6669	0.6419	0.8525	0.027
Mof_H 	H 	0.6303	0.4848	0.8122	0.042
Mof_H 	H 	0.9614	0.9965	0.9501	-0.014
Mof_H 	H 	0.1713	0.9857	0.9727	0.023
Mof_H 	H 	0.9282	0.2467	0.8287	0.018
Mof_H 	H 	0.1454	0.2278	0.8466	0.05
Mof_H 	H 	0.1839	0.3325	0.5969	0.048
Mof_H 	H 	0.9827	0.3089	0.6051	0.029
Mof_H 	H 	0.2925	0.1719	0.7401	0.026
Mof_H 	H 	0.0856	0.1577	0.7484	0.028
Mof_H 	H 	0.4061	0.2202	0.4659	0.059
Mof_H 	H 	0.6381	0.9348	0.573	0.043
Mof_H 	H 	0.9395	0.3522	0.4675	0.044
Mof_H 	H 	0.8673	0.626	0.5636	0.046
Mof_C 	C 	0.488	0.247	0.0013	0.453
Mof_C 	C 	0.4948	0.3805	0.0024	-0.106
Mof_C 	C 	0.527	0.4338	0.9561	-0.021
Mof_C 	C 	0.4686	0.4466	0.0453	-0.011
Mof_C 	C 	0.3709	0.1179	0.1818	0.519
Mof_C 	C 	0.388	0.2225	0.2081	-0.165
Mof_C 	C 	0.4213	0.2	0.2595	0.016
Mof_C 	C 	0.438	0.2932	0.2831	-0.016
Mof_C 	C 	0.363	0.341	0.1815	0.013
Mof_C 	C 	0.3824	0.4361	0.2061	-0.014
Mof_C 	C 	0.4205	0.4142	0.2572	-0.136
Mof_C 	C 	0.4425	0.5179	0.2814	0.528
Mof_C 	C 	0.2098	0.8772	0.128	0.571
Mof_C 	C 	0.0767	0.8772	0.1125	-0.203
Mof_C 	C 	0.0024	0.9554	0.0701	0.06
Mof_C 	C 	0.876	0.964	0.057	-0.062
Mof_C 	C 	0.0211	0.8077	0.1429	0.044
Mof_C 	C 	0.8915	0.8177	0.132	-0.063
Mof_C 	C 	0.8169	0.8955	0.089	-0.076
Mof_C 	C 	0.67	0.9184	0.0773	0.381
Mof_C 	C 	0.6103	0.7243	0.3364	0.506
Mof_C 	C 	0.7429	0.7416	0.3321	-0.124
Mof_C 	C 	0.835	0.702	0.3722	-0.018
Mof_C 	C 	0.957	0.715	0.367	0.019
Mof_C 	C 	0.7715	0.7968	0.2869	-0.013
Mof_C 	C 	0.896	0.8054	0.2821	0.008
Mof_C 	C 	0.9907	0.7604	0.3215	-0.152
Mof_C 	C 	0.1259	0.7664	0.3166	0.494
Mof_C 	C 	0.4378	0.8107	0.4533	0.304
Mof_C 	C 	0.4713	0.9098	0.4774	-0.054
Mof_C 	C 	0.556	0.8684	0.5205	-0.035
Mof_C 	C 	0.417	0.0388	0.4565	-0.024
Mof_C 	C 	0.231	0.5352	0.4566	0.341
Mof_C 	C 	0.1166	0.5143	0.4802	-0.08
Mof_C 	C 	0.037	0.5875	0.5187	-0.02
Mof_C 	C 	0.08	0.4266	0.4622	-0.021
Mof_C 	C 	0.512	0.753	0.9987	0.453
Mof_C 	C 	0.5052	0.6195	0.9976	-0.106
Mof_C 	C 	0.473	0.5662	0.0439	-0.021
Mof_C 	C 	0.5314	0.5534	0.9547	-0.011
Mof_C 	C 	0.6291	0.8821	0.8182	0.519
Mof_C 	C 	0.612	0.7775	0.7919	-0.165
Mof_C 	C 	0.5787	0.8	0.7405	0.016
Mof_C 	C 	0.562	0.7068	0.7169	-0.016
Mof_C 	C 	0.637	0.659	0.8185	0.013
Mof_C 	C 	0.6176	0.5639	0.7939	-0.014
Mof_C 	C 	0.5795	0.5858	0.7428	-0.136
Mof_C 	C 	0.5575	0.4821	0.7186	0.528
Mof_C 	C 	0.7902	0.1228	0.872	0.571
Mof_C 	C 	0.9233	0.1228	0.8875	-0.203
Mof_C 	C 	0.9976	0.0446	0.9299	0.06
Mof_C 	C 	0.124	0.036	0.943	-0.062
Mof_C 	C 	0.9789	0.1923	0.8571	0.044
Mof_C 	C 	0.1085	0.1823	0.868	-0.063
Mof_C 	C 	0.1831	0.1045	0.911	-0.076
Mof_C 	C 	0.33	0.0816	0.9227	0.381
Mof_C 	C 	0.3897	0.2757	0.6636	0.506
Mof_C 	C 	0.2571	0.2584	0.6679	-0.124
Mof_C 	C 	0.165	0.298	0.6278	-0.018
Mof_C 	C 	0.043	0.285	0.633	0.019
Mof_C 	C 	0.2285	0.2032	0.7131	-0.013
Mof_C 	C 	0.104	0.1946	0.7179	0.008
Mof_C 	C 	0.0093	0.2396	0.6785	-0.152
Mof_C 	C 	0.8741	0.2336	0.6834	0.494
Mof_C 	C 	0.5622	0.1893	0.5467	0.304
Mof_C 	C 	0.5287	0.0902	0.5226	-0.054
Mof_C 	C 	0.444	0.1316	0.4795	-0.035
Mof_C 	C 	0.583	0.9612	0.5435	-0.024
Mof_C 	C 	0.769	0.4648	0.5434	0.341
Mof_C 	C 	0.8834	0.4857	0.5198	-0.08
Mof_C 	C 	0.963	0.4125	0.4813	-0.02
Mof_C 	C 	0.92	0.5734	0.5378	-0.021
Mof_O 	O 	0.425	0.2201	0.0384	-0.534
Mof_O 	O 	0.5478	0.1767	0.9643	-0.536
Mof_O 	O 	0.3351	0.1437	0.1349	-0.571
Mof_O 	O 	0.3961	0.0094	0.2058	-0.603
Mof_O 	O 	0.437	0.6135	0.255	-0.561
Mof_O 	O 	0.4665	0.4969	0.3292	-0.57
Mof_O 	O 	0.2436	0.9521	0.1008	-0.621
Mof_O 	O 	0.2732	0.8063	0.1657	-0.584
Mof_O 	O 	0.6297	0.9508	0.03	-0.641
Mof_O 	O 	0.5944	0.9099	0.1121	-0.468
Mof_O 	O 	0.515	0.791	0.3054	-0.585
Mof_O 	O 	0.6104	0.6414	0.3708	-0.539
Mof_O 	O 	0.1569	0.8033	0.2743	-0.54
Mof_O 	O 	0.2053	0.7357	0.3556	-0.573
Mof_O 	O 	0.3555	0.8477	0.4149	-0.436
Mof_O 	O 	0.493	0.6904	0.4729	-0.432
Mof_O 	O 	0.2535	0.6273	0.4712	-0.446
Mof_O 	O 	0.3011	0.4689	0.4217	-0.439
Mof_O 	O 	0.575	0.7799	0.9616	-0.534
Mof_O 	O 	0.4522	0.8233	0.0357	-0.536
Mof_O 	O 	0.6649	0.8563	0.8651	-0.571
Mof_O 	O 	0.6039	0.9906	0.7942	-0.603
Mof_O 	O 	0.563	0.3865	0.745	-0.561
Mof_O 	O 	0.5335	0.5031	0.6708	-0.57
Mof_O 	O 	0.7564	0.0479	0.8992	-0.621
Mof_O 	O 	0.7268	0.1937	0.8343	-0.584
Mof_O 	O 	0.3703	0.0492	0.97	-0.641
Mof_O 	O 	0.4056	0.0901	0.8879	-0.468
Mof_O 	O 	0.485	0.209	0.6946	-0.585
Mof_O 	O 	0.3896	0.3586	0.6292	-0.539
Mof_O 	O 	0.8431	0.1967	0.7257	-0.54
Mof_O 	O 	0.7947	0.2643	0.6444	-0.573
Mof_O 	O 	0.6445	0.1523	0.5851	-0.436
Mof_O 	O 	0.507	0.3096	0.5271	-0.432
Mof_O 	O 	0.7465	0.3727	0.5288	-0.446
Mof_O 	O 	0.6989	0.5311	0.5783	-0.439
_end
