# CIF file generated by openbabel 3.1.0, see https://openbabel.org
data_I
_chemical_name_common 'image0'
_cell_length_a 9.247
_cell_length_b 9.97
_cell_length_c 15.025
_cell_angle_alpha 100.151
_cell_angle_beta 91.372
_cell_angle_gamma 91.776
_space_group_name_H-M_alt 'P 1'
_space_group_name_Hall 'P 1'
loop_
    _symmetry_equiv_pos_as_xyz
    x,y,z
loop_
    _atom_site_label
    _atom_site_type_symbol
    _atom_site_fract_x
    _atom_site_fract_y
    _atom_site_fract_z
    _atom_site_occupancy
    Co1      Co       0.06792    0.84395    0.80653    1.000
    Co2      Co       0.82937    0.61331    0.06252    1.000
    P1       P        0.11377    0.71019    0.99383    1.000
    O1       O        0.13870    0.57550    0.93437    1.000
    O2       O        0.05080    0.80820    0.93805    1.000
    O3       O        0.02320    0.69710    0.07560    1.000
    O4       O        0.08400    0.99760    0.13207    1.000
    O5       O        0.21360    0.96330    0.25120    1.000
    O6       O        0.74320    0.04480    0.15950    1.000
    O7       O        0.80680    0.91530    0.03119    1.000
    O8       O        0.72450    0.62970    0.95098    1.000
    O9       O        0.64930    0.76210    0.85726    1.000
    N1       N        0.71140    0.67730    0.17000    1.000
    N2       N        0.62640    0.80990    0.28710    1.000
    N3       N        0.39780    0.59900    0.68440    1.000
    N4       N        0.19970    0.68730    0.74350    1.000
    C1       C        0.28680    0.78390    0.03430    1.000
    C2       C        0.31200    0.89100    0.10790    1.000
    C3       C        0.45360    0.94060    0.12610    1.000
    H1       H        0.47300    0.00920    0.17790    1.000
    C4       C        0.56770    0.89500    0.07240    1.000
    C5       C        0.54120    0.78930    0.99890    1.000
    C6       C        0.40230    0.73490    0.98160    1.000
    H2       H        0.38480    0.66170    0.93240    1.000
    C7       C        0.19430    0.95280    0.16850    1.000
    C8       C        0.71710    0.95710    0.08900    1.000
    C9       C        0.64980    0.72900    0.93200    1.000
    C10      C        0.74230    0.77990    0.23650    1.000
    H3       H        0.83410    0.82620    0.24710    1.000
    C11      C        0.56910    0.63990    0.17910    1.000
    H4       H        0.51640    0.56800    0.14070    1.000
    C12      C        0.51600    0.72150    0.25110    1.000
    H5       H        0.42050    0.71810    0.27260    1.000
    C13      C        0.62010    0.91550    0.36830    1.000
    H6       H        0.53770    0.97470    0.36230    1.000
    H7       H        0.71030    0.97290    0.37570    1.000
    C14      C        0.60160    0.84780    0.44990    1.000
    C15      C        0.46500    0.80510    0.46980    1.000
    H8       H        0.38300    0.83050    0.43810    1.000
    C16      C        0.44650    0.72550    0.53540    1.000
    H9       H        0.35190    0.69440    0.54730    1.000
    C17      C        0.56360    0.69080    0.58390    1.000
    C18      C        0.70220    0.73960    0.56660    1.000
    H10      H        0.78400    0.71960    0.60080    1.000
    C19      C        0.71900    0.81670    0.49980    1.000
    H11      H        0.81300    0.84900    0.48790    1.000
    C20      C        0.54530    0.59940    0.65260    1.000
    H12      H        0.56970    0.50540    0.62540    1.000
    H13      H        0.61310    0.63080    0.70460    1.000
    C21      C        0.34060    0.70440    0.73900    1.000
    H14      H        0.39510    0.78150    0.77020    1.000
    C22      C        0.28590    0.51070    0.65130    1.000
    H15      H        0.29180    0.42730    0.61010    1.000
    C23      C        0.16590    0.56480    0.68840    1.000
    H16      H        0.07130    0.52430    0.67800    1.000
    Co3      Co       0.93208    0.15605    0.19347    1.000
    Co4      Co       0.17063    0.38669    0.93748    1.000
    P2       P        0.88623    0.28981    0.00617    1.000
    O10      O        0.86130    0.42450    0.06563    1.000
    O11      O        0.94920    0.19180    0.06195    1.000
    O12      O        0.97680    0.30290    0.92440    1.000
    O13      O        0.91600    0.00240    0.86793    1.000
    O14      O        0.78640    0.03670    0.74880    1.000
    O15      O        0.25680    0.95520    0.84050    1.000
    O16      O        0.19320    0.08470    0.96881    1.000
    O17      O        0.27550    0.37030    0.04902    1.000
    O18      O        0.35070    0.23790    0.14274    1.000
    N5       N        0.28860    0.32270    0.83000    1.000
    N6       N        0.37360    0.19010    0.71290    1.000
    N7       N        0.60220    0.40100    0.31560    1.000
    N8       N        0.80030    0.31270    0.25650    1.000
    C24      C        0.71320    0.21610    0.96570    1.000
    C25      C        0.68800    0.10900    0.89210    1.000
    C26      C        0.54640    0.05940    0.87390    1.000
    H17      H        0.52700    0.99080    0.82210    1.000
    C27      C        0.43230    0.10500    0.92760    1.000
    C28      C        0.45880    0.21070    0.00110    1.000
    C29      C        0.59770    0.26510    0.01840    1.000
    H18      H        0.61520    0.33830    0.06760    1.000
    C30      C        0.80570    0.04720    0.83150    1.000
    C31      C        0.28290    0.04290    0.91100    1.000
    C32      C        0.35020    0.27100    0.06800    1.000
    C33      C        0.25770    0.22010    0.76350    1.000
    H19      H        0.16590    0.17380    0.75290    1.000
    C34      C        0.43090    0.36010    0.82090    1.000
    H20      H        0.48360    0.43200    0.85930    1.000
    C35      C        0.48400    0.27850    0.74890    1.000
    H21      H        0.57950    0.28190    0.72740    1.000
    C36      C        0.37990    0.08450    0.63170    1.000
    H22      H        0.46230    0.02530    0.63770    1.000
    H23      H        0.28970    0.02710    0.62430    1.000
    C37      C        0.39840    0.15220    0.55010    1.000
    C38      C        0.53500    0.19490    0.53020    1.000
    H24      H        0.61700    0.16950    0.56190    1.000
    C39      C        0.55350    0.27450    0.46460    1.000
    H25      H        0.64810    0.30560    0.45270    1.000
    C40      C        0.43640    0.30920    0.41610    1.000
    C41      C        0.29780    0.26040    0.43340    1.000
    H26      H        0.21600    0.28040    0.39920    1.000
    C42      C        0.28100    0.18330    0.50020    1.000
    H27      H        0.18700    0.15100    0.51210    1.000
    C43      C        0.45470    0.40060    0.34740    1.000
    H28      H        0.43030    0.49460    0.37460    1.000
    H29      H        0.38690    0.36920    0.29540    1.000
    C44      C        0.65940    0.29560    0.26100    1.000
    H30      H        0.60490    0.21850    0.22980    1.000
    C45      C        0.71410    0.48930    0.34870    1.000
    H31      H        0.70820    0.57270    0.38990    1.000
    C46      C        0.83410    0.43520    0.31160    1.000
    H32      H        0.92870    0.47570    0.32200    1.000
    Co5      Co       0.00000    0.00000    0.00000    1.000
