data_functionalizedCrystal
_audit_creation_method	'EQeq! by Chris Wilmer'
_symmetry_space_group_name_H-M	'P1'
_symmetry_Int_Tables_number	1
_symmetry_cell_setting	triclinic
loop_
_symmetry_equiv_pos_as_xyz
  x,y,z
_cell_length_a	12.606
_cell_length_b	12.606
_cell_length_c	19.668
_cell_angle_alpha	90
_cell_angle_beta	90
_cell_angle_gamma	120
loop_
_atom_site_label
_atom_site_type_symbol
_atom_site_fract_x
_atom_site_fract_y
_atom_site_fract_z
_atom_site_charge
Mof_Na	Na	0.6883	0.178	0.56747	1.889
Mof_Na	Na	0.1994	0.0262	0.5348	0.245
Mof_Na	Na	0.4897	0.3117	0.56747	1.89
Mof_Na	Na	0.8268	0.8006	0.5348	0.249
Mof_Na	Na	0.822	0.5103	0.56747	1.889
Mof_Na	Na	0.9738	0.1732	0.5348	0.242
Mof_Na	Na	0.3117	0.822	0.06747	1.87
Mof_Na	Na	0.8006	0.9738	0.0348	0.259
Mof_Na	Na	0.5103	0.6883	0.06747	1.874
Mof_Na	Na	0.1732	0.1994	0.0348	0.293
Mof_Na	Na	0.178	0.4897	0.06747	1.861
Mof_Na	Na	0.0262	0.8268	0.0348	0.17
Mof_Na	Na	0.3117	0.822	0.43253	1.89
Mof_Na	Na	0.8006	0.9738	0.4652	0.246
Mof_Na	Na	0.5103	0.6883	0.43253	1.891
Mof_Na	Na	0.1732	0.1994	0.4652	0.25
Mof_Na	Na	0.178	0.4897	0.43253	1.89
Mof_Na	Na	0.0262	0.8268	0.4652	0.243
Mof_Na	Na	0.6883	0.178	0.93253	1.87
Mof_Na	Na	0.1994	0.0262	0.9652	0.259
Mof_Na	Na	0.4897	0.3117	0.93253	1.874
Mof_Na	Na	0.8268	0.8006	0.9652	0.293
Mof_Na	Na	0.822	0.5103	0.93253	1.861
Mof_Na	Na	0.9738	0.1732	0.9652	0.17
Mof_Ni	Ni	0.66667	0.33334	0.42343	1.047
Mof_Ni	Ni	0.33333	0.66666	0.92343	1.047
Mof_Ni	Ni	0.33333	0.66666	0.57657	1.047
Mof_Ni	Ni	0.66667	0.33334	0.07657	1.047
Mof_H 	H 	0.8272	0.1707	0.3519	0.005
Mof_H 	H 	0.3435	0.1728	0.3519	0.003
Mof_H 	H 	0.8293	0.6565	0.3519	0.004
Mof_H 	H 	0.1728	0.8293	0.8519	0.008
Mof_H 	H 	0.6565	0.8272	0.8519	0.003
Mof_H 	H 	0.1707	0.3435	0.8519	0.008
Mof_H 	H 	0.1728	0.8293	0.6481	0.005
Mof_H 	H 	0.6565	0.8272	0.6481	0.003
Mof_H 	H 	0.1707	0.3435	0.6481	0.004
Mof_H 	H 	0.8272	0.1707	0.1481	0.008
Mof_H 	H 	0.3435	0.1728	0.1481	0.003
Mof_H 	H 	0.8293	0.6565	0.1481	0.008
Mof_H 	H 	0.5455	0.1521	0.25	0.114
Mof_H 	H 	0.9203	0.1777	0.25	-0.115
Mof_H 	H 	0.6066	0.4545	0.25	0.113
Mof_H 	H 	0.2574	0.0797	0.25	-0.115
Mof_H 	H 	0.8479	0.3934	0.25	0.115
Mof_H 	H 	0.8223	0.7426	0.25	-0.117
Mof_H 	H 	0.4545	0.8479	0.75	0.114
Mof_H 	H 	0.0797	0.8223	0.75	-0.115
Mof_H 	H 	0.3934	0.5455	0.75	0.113
Mof_H 	H 	0.7426	0.9203	0.75	-0.115
Mof_H 	H 	0.1521	0.6066	0.75	0.115
Mof_H 	H 	0.1777	0.2574	0.75	-0.117
Mof_C 	C 	0.4711	0.0983	0.4603	0.362
Mof_C 	C 	0.53	0.0772	0.3955	0.064
Mof_C 	C 	0.6782	0.1647	0.3112	0.17
Mof_C 	C 	0.7893	0.1696	0.3111	-0.249
Mof_C 	C 	0.6272	0.5289	0.4603	0.363
Mof_C 	C 	0.5472	0.47	0.3955	0.061
Mof_C 	C 	0.4865	0.3218	0.3112	0.168
Mof_C 	C 	0.3803	0.2107	0.3111	-0.247
Mof_C 	C 	0.9017	0.3728	0.4603	0.362
Mof_C 	C 	0.9228	0.4528	0.3955	0.064
Mof_C 	C 	0.8353	0.5135	0.3112	0.171
Mof_C 	C 	0.8304	0.6197	0.3111	-0.25
Mof_C 	C 	0.5289	0.9017	0.9603	0.359
Mof_C 	C 	0.47	0.9228	0.8955	0.073
Mof_C 	C 	0.3218	0.8353	0.8112	0.172
Mof_C 	C 	0.2107	0.8304	0.8111	-0.25
Mof_C 	C 	0.3728	0.4711	0.9603	0.363
Mof_C 	C 	0.4528	0.53	0.8955	0.06
Mof_C 	C 	0.5135	0.6782	0.8112	0.167
Mof_C 	C 	0.6197	0.7893	0.8111	-0.247
Mof_C 	C 	0.0983	0.6272	0.9603	0.355
Mof_C 	C 	0.0772	0.5472	0.8955	0.074
Mof_C 	C 	0.1647	0.4865	0.8112	0.172
Mof_C 	C 	0.1696	0.3803	0.8111	-0.25
Mof_C 	C 	0.5289	0.9017	0.5397	0.362
Mof_C 	C 	0.47	0.9228	0.6045	0.064
Mof_C 	C 	0.3218	0.8353	0.6888	0.17
Mof_C 	C 	0.2107	0.8304	0.6889	-0.249
Mof_C 	C 	0.3728	0.4711	0.5397	0.363
Mof_C 	C 	0.4528	0.53	0.6045	0.061
Mof_C 	C 	0.5135	0.6782	0.6888	0.168
Mof_C 	C 	0.6197	0.7893	0.6889	-0.247
Mof_C 	C 	0.0983	0.6272	0.5397	0.362
Mof_C 	C 	0.0772	0.5472	0.6045	0.064
Mof_C 	C 	0.1647	0.4865	0.6888	0.171
Mof_C 	C 	0.1696	0.3803	0.6889	-0.25
Mof_C 	C 	0.4711	0.0983	0.0397	0.359
Mof_C 	C 	0.53	0.0772	0.1045	0.073
Mof_C 	C 	0.6782	0.1647	0.1888	0.172
Mof_C 	C 	0.7893	0.1696	0.1889	-0.25
Mof_C 	C 	0.6272	0.5289	0.0397	0.363
Mof_C 	C 	0.5472	0.47	0.1045	0.06
Mof_C 	C 	0.4865	0.3218	0.1888	0.167
Mof_C 	C 	0.3803	0.2107	0.1889	-0.247
Mof_C 	C 	0.9017	0.3728	0.0397	0.355
Mof_C 	C 	0.9228	0.4528	0.1045	0.074
Mof_C 	C 	0.8353	0.5135	0.1888	0.172
Mof_C 	C 	0.8304	0.6197	0.1889	-0.25
Mof_C 	C 	0.6227	0.1595	0.25	-0.272
Mof_C 	C 	0.8443	0.173	0.25	0.09
Mof_C 	C 	0.5368	0.3773	0.25	-0.269
Mof_C 	C 	0.3287	0.1557	0.25	0.085
Mof_C 	C 	0.8405	0.4632	0.25	-0.272
Mof_C 	C 	0.827	0.6713	0.25	0.09
Mof_C 	C 	0.3773	0.8405	0.75	-0.272
Mof_C 	C 	0.1557	0.827	0.75	0.09
Mof_C 	C 	0.4632	0.6227	0.75	-0.269
Mof_C 	C 	0.6713	0.8443	0.75	0.085
Mof_C 	C 	0.1595	0.5368	0.75	-0.272
Mof_C 	C 	0.173	0.3287	0.75	0.09
Mof_N 	N 	0.6249	0.1735	0.3734	-0.292
Mof_N 	N 	0.5486	0.3751	0.3734	-0.291
Mof_N 	N 	0.8265	0.4514	0.3734	-0.292
Mof_N 	N 	0.3751	0.8265	0.8734	-0.293
Mof_N 	N 	0.4514	0.6249	0.8734	-0.291
Mof_N 	N 	0.1735	0.5486	0.8734	-0.293
Mof_N 	N 	0.3751	0.8265	0.6266	-0.292
Mof_N 	N 	0.4514	0.6249	0.6266	-0.291
Mof_N 	N 	0.1735	0.5486	0.6266	-0.292
Mof_N 	N 	0.6249	0.1735	0.1266	-0.293
Mof_N 	N 	0.5486	0.3751	0.1266	-0.291
Mof_N 	N 	0.8265	0.4514	0.1266	-0.293
Mof_O 	O 	0.5289	0.2032	0.4871	-0.88
Mof_O 	O 	0.3725	0.0131	0.4804	-0.731
Mof_O 	O 	0.4773	0.9673	0.3725	-0.571
Mof_O 	O 	0.6743	0.4711	0.4871	-0.88
Mof_O 	O 	0.6406	0.6275	0.4804	-0.731
Mof_O 	O 	0.49	0.5227	0.3725	-0.567
Mof_O 	O 	0.7968	0.3257	0.4871	-0.879
Mof_O 	O 	0.9869	0.3594	0.4804	-0.73
Mof_O 	O 	0.0327	0.51	0.3725	-0.57
Mof_O 	O 	0.4711	0.7968	0.9871	-0.872
Mof_O 	O 	0.6275	0.9869	0.9804	-0.722
Mof_O 	O 	0.5227	0.0327	0.8725	-0.575
Mof_O 	O 	0.3257	0.5289	0.9871	-0.872
Mof_O 	O 	0.3594	0.3725	0.9804	-0.733
Mof_O 	O 	0.51	0.4773	0.8725	-0.565
Mof_O 	O 	0.2032	0.6743	0.9871	-0.866
Mof_O 	O 	0.0131	0.6406	0.9804	-0.708
Mof_O 	O 	0.9673	0.49	0.8725	-0.573
Mof_O 	O 	0.4711	0.7968	0.5129	-0.88
Mof_O 	O 	0.6275	0.9869	0.5196	-0.731
Mof_O 	O 	0.5227	0.0327	0.6275	-0.571
Mof_O 	O 	0.3257	0.5289	0.5129	-0.88
Mof_O 	O 	0.3594	0.3725	0.5196	-0.731
Mof_O 	O 	0.51	0.4773	0.6275	-0.567
Mof_O 	O 	0.2032	0.6743	0.5129	-0.879
Mof_O 	O 	0.0131	0.6406	0.5196	-0.73
Mof_O 	O 	0.9673	0.49	0.6275	-0.57
Mof_O 	O 	0.5289	0.2032	0.0129	-0.872
Mof_O 	O 	0.3725	0.0131	0.0196	-0.722
Mof_O 	O 	0.4773	0.9673	0.1275	-0.575
Mof_O 	O 	0.6743	0.4711	0.0129	-0.872
Mof_O 	O 	0.6406	0.6275	0.0196	-0.733
Mof_O 	O 	0.49	0.5227	0.1275	-0.565
Mof_O 	O 	0.7968	0.3257	0.0129	-0.866
Mof_O 	O 	0.9869	0.3594	0.0196	-0.708
Mof_O 	O 	0.0327	0.51	0.1275	-0.573
Mof_O 	O 	0.66667	0.33334	0.6455	-0.81
Mof_O 	O 	0.33333	0.66666	0.1455	-0.806
Mof_O 	O 	0.33333	0.66666	0.3545	-0.81
Mof_O 	O 	0.66667	0.33334	0.8545	-0.806
_end
