data_functionalizedCrystal
_audit_creation_method	'EQeq! by Chris Wilmer'
_symmetry_space_group_name_H-M	'P1'
_symmetry_Int_Tables_number	1
_symmetry_cell_setting	triclinic
loop_
_symmetry_equiv_pos_as_xyz
  x,y,z
_cell_length_a	13.013
_cell_length_b	13.846
_cell_length_c	28.029
_cell_angle_alpha	75.71
_cell_angle_beta	79.28
_cell_angle_gamma	85.59
loop_
_atom_site_label
_atom_site_type_symbol
_atom_site_fract_x
_atom_site_fract_y
_atom_site_fract_z
_atom_site_charge
Mof_Eu	Eu	0.47158	0.53808	0.41513	1.917
Mof_Eu	Eu	0.03064	0.87534	0.0606	2.098
Mof_Eu	Eu	0.51721	0.48092	0.9141	1.935
Mof_Eu	Eu	0.88045	0.02113	0.55413	2.065
Mof_O 	O 	0.9447	0.9321	0.4724	-0.58
Mof_O 	O 	0.7989	0.8989	0.52615	-0.492
Mof_O 	O 	0.6	0.5671	0.45682	-0.587
Mof_O 	O 	0.6246	0.5906	0.52898	-0.593
Mof_O 	O 	0.0447	0.8889	0.14483	-0.485
Mof_O 	O 	0.9305	0.7859	0.14101	-0.467
Mof_O 	O 	0.6398	0.517	0.3581	-0.423
Mof_O 	O 	0.5957	0.3919	0.42349	-0.435
Mof_O 	O 	0.8688	0.1353	0.47613	-0.563
Mof_O 	O 	0.0188	0.1269	0.42219	-0.476
Mof_O 	O 	0.2594	0.6596	0.1472	-0.368
Mof_O 	O 	0.3246	0.5082	0.14131	-0.539
Mof_O 	O 	0.8892	0.9842	0.07753	-0.527
Mof_O 	O 	0.8764	0.1275	0.02166	-0.567
Mof_O 	O 	0.504	0.3508	0.13824	-0.451
Mof_O 	O 	0.6129	0.3867	0.06686	-0.45
Mof_O 	O 	0.4908	0.6945	0.36314	-0.564
Mof_O 	O 	0.4433	0.815	0.4031	-0.353
Mof_O 	O 	0.5982	0.572	0.95505	-0.592
Mof_O 	O 	0.6113	0.6071	0.0257	-0.613
Mof_O 	O 	0.9016	0.9676	0.96699	-0.602
Mof_O 	O 	0.8926	0.8269	0.02565	-0.538
Mof_O 	O 	0.7796	0.9355	0.63574	-0.459
Mof_O 	O 	0.9129	0.0179	0.63864	-0.485
Mof_C 	C 	0.8245	0.8228	0.4576	-0.188
Mof_C 	C 	0.7508	0.7522	0.4817	0.119
Mof_H 	H 	0.7252	0.7443	0.5157	0.001
Mof_C 	C 	0.7148	0.6931	0.4553	-0.208
Mof_C 	C 	0.753	0.7052	0.4046	0.073
Mof_H 	H 	0.7279	0.6661	0.3869	0.008
Mof_C 	C 	0.8294	0.7764	0.3793	-0.099
Mof_C 	C 	0.8651	0.8334	0.4069	0.059
Mof_H 	H 	0.9167	0.8793	0.3915	0.011
Mof_C 	C 	0.8672	0.7884	0.3244	0.127
Mof_C 	C 	0.962	0.8321	0.3017	-0.172
Mof_H 	H 	0.0031	0.8534	0.3207	0.086
Mof_C 	C 	0.9953	0.844	0.2506	0.105
Mof_H 	H 	0.0592	0.8729	0.2359	-0.003
Mof_C 	C 	0.9367	0.8145	0.2213	-0.159
Mof_C 	C 	0.8471	0.764	0.2445	0.095
Mof_H 	H 	0.8087	0.7383	0.2258	0.003
Mof_C 	C 	0.814	0.7512	0.2954	-0.183
Mof_H 	H 	0.7536	0.7163	0.3105	0.1
Mof_C 	C 	0.8592	0.8883	0.4867	0.446
Mof_C 	C 	0.6395	0.6118	0.4823	0.513
Mof_C 	C 	0.9732	0.8309	0.1656	0.381
Mof_C 	C 	0.7662	0.3838	0.3748	-0.105
Mof_C 	C 	0.7956	0.2999	0.4082	0.051
Mof_H 	H 	0.7504	0.274	0.4378	0.015
Mof_C 	C 	0.8939	0.2537	0.3974	-0.146
Mof_C 	C 	0.9609	0.2938	0.3536	0.018
Mof_H 	H 	0.0257	0.2624	0.3465	0.038
Mof_C 	C 	0.9341	0.3795	0.3199	-0.067
Mof_C 	C 	0.8359	0.4233	0.3313	0.008
Mof_H 	H 	0.8161	0.4807	0.3093	0.034
Mof_C 	C 	0.0103	0.4274	0.2759	0.115
Mof_C 	C 	0.0168	0.5297	0.26	-0.183
Mof_H 	H 	0.9679	0.5695	0.2758	0.094
Mof_C 	C 	0.0936	0.5755	0.2215	0.09
Mof_H 	H 	0.0963	0.6447	0.212	-0.004
Mof_C 	C 	0.1665	0.5168	0.1972	-0.184
Mof_C 	C 	0.1594	0.416	0.2112	0.1
Mof_H 	H 	0.2071	0.3766	0.1946	0.006
Mof_C 	C 	0.0818	0.3707	0.25	-0.181
Mof_H 	H 	0.078	0.3016	0.2586	0.098
Mof_C 	C 	0.6609	0.4328	0.3858	0.31
Mof_C 	C 	0.9295	0.1644	0.4354	0.453
Mof_C 	C 	0.2557	0.5656	0.1588	0.394
Mof_C 	C 	0.761	0.103	0.1002	-0.177
Mof_C 	C 	0.7145	0.1972	0.0878	0.075
Mof_H 	H 	0.7382	0.2406	0.0573	-0.001
Mof_C 	C 	0.6325	0.2265	0.1211	-0.126
Mof_C 	C 	0.5974	0.1614	0.166	0.026
Mof_H 	H 	0.5417	0.1813	0.1879	0.027
Mof_C 	C 	0.6427	0.067	0.1794	-0.083
Mof_C 	C 	0.7266	0.0382	0.1457	0.035
Mof_H 	H 	0.7591	0.9756	0.1541	0.032
Mof_C 	C 	0.6009	0.9955	0.2275	0.138
Mof_C 	C 	0.5986	0.8957	0.2296	-0.196
Mof_H 	H 	0.624	0.8726	0.2011	0.092
Mof_C 	C 	0.5589	0.8284	0.2739	0.116
Mof_H 	H 	0.5588	0.7609	0.2745	-0.015
Mof_C 	C 	0.52	0.8598	0.3166	-0.192
Mof_C 	C 	0.52	0.9599	0.3153	0.113
Mof_H 	H 	0.4927	0.9829	0.3438	-0.002
Mof_C 	C 	0.5615	0.0269	0.2709	-0.194
Mof_H 	H 	0.5627	0.0942	0.2704	0.096
Mof_C 	C 	0.8482	0.0683	0.0636	0.492
Mof_C 	C 	0.5797	0.3279	0.108	0.327
Mof_C 	C 	0.4804	0.7848	0.3649	0.425
Mof_C 	C 	0.6995	0.7082	0.9522	-0.25
Mof_C 	C 	0.7529	0.7529	0.9793	0.152
Mof_H 	H 	0.7472	0.7283	0.0137	-0.02
Mof_C 	C 	0.8147	0.8344	0.9551	-0.233
Mof_C 	C 	0.8236	0.8692	0.9041	0.097
Mof_H 	H 	0.8629	0.9251	0.8882	-0.001
Mof_C 	C 	0.7754	0.8229	0.8758	-0.124
Mof_C 	C 	0.7131	0.742	0.8999	0.101
Mof_H 	H 	0.6803	0.7103	0.8815	-0
Mof_C 	C 	0.791	0.8583	0.8204	0.132
Mof_C 	C 	0.7138	0.8508	0.7935	-0.181
Mof_H 	H 	0.6502	0.8238	0.8105	0.098
Mof_C 	C 	0.729	0.8823	0.7419	0.088
Mof_H 	H 	0.6761	0.8757	0.7248	0.008
Mof_C 	C 	0.8221	0.9235	0.7156	-0.152
Mof_C 	C 	0.9	0.931	0.7414	0.084
Mof_H 	H 	0.9635	0.9579	0.7241	0.017
Mof_C 	C 	0.8848	0.8988	0.7932	-0.175
Mof_H 	H 	0.9385	0.9044	0.81	0.099
Mof_C 	C 	0.6308	0.6239	0.9792	0.558
Mof_C 	C 	0.8731	0.88	0.9851	0.522
Mof_C 	C 	0.8392	0.9614	0.6596	0.38
Mof_Tb	Tb	0.11955	0.97887	0.44587	1.862
Mof_Eu	Eu	0.52842	0.46192	0.58487	1.915
Mof_Eu	Eu	0.96936	0.12466	0.9394	2.087
Mof_Eu	Eu	0.48279	0.51908	0.0859	1.937
Mof_O 	O 	0.0553	0.0679	0.5276	-0.6
Mof_O 	O 	0.2011	0.1011	0.47385	-0.47
Mof_O 	O 	0.4	0.4329	0.54318	-0.585
Mof_O 	O 	0.3754	0.4094	0.47102	-0.592
Mof_O 	O 	0.9553	0.1111	0.85517	-0.488
Mof_O 	O 	0.0695	0.2141	0.85899	-0.465
Mof_O 	O 	0.3602	0.483	0.6419	-0.422
Mof_O 	O 	0.4043	0.6081	0.57651	-0.433
Mof_O 	O 	0.1312	0.8647	0.52387	-0.532
Mof_O 	O 	0.9812	0.8731	0.57781	-0.5
Mof_O 	O 	0.7406	0.3404	0.8528	-0.369
Mof_O 	O 	0.6754	0.4918	0.85869	-0.539
Mof_O 	O 	0.1108	0.0158	0.92247	-0.531
Mof_O 	O 	0.1236	0.8725	0.97834	-0.568
Mof_O 	O 	0.496	0.6492	0.86176	-0.45
Mof_O 	O 	0.3871	0.6133	0.93314	-0.45
Mof_O 	O 	0.5092	0.3055	0.63686	-0.564
Mof_O 	O 	0.5567	0.185	0.5969	-0.357
Mof_O 	O 	0.4018	0.428	0.04495	-0.592
Mof_O 	O 	0.3887	0.3929	0.9743	-0.613
Mof_O 	O 	0.0984	0.0324	0.03301	-0.606
Mof_O 	O 	0.1074	0.1731	0.97435	-0.537
Mof_O 	O 	0.2204	0.0645	0.36426	-0.434
Mof_O 	O 	0.0871	0.9821	0.36136	-0.453
Mof_C 	C 	0.1755	0.1772	0.5424	-0.197
Mof_C 	C 	0.2492	0.2478	0.5183	0.123
Mof_H 	H 	0.2748	0.2557	0.4843	-0.001
Mof_C 	C 	0.2852	0.3069	0.5447	-0.211
Mof_C 	C 	0.247	0.2948	0.5954	0.075
Mof_H 	H 	0.2721	0.3339	0.6131	0.008
Mof_C 	C 	0.1706	0.2236	0.6207	-0.102
Mof_C 	C 	0.1349	0.1666	0.5931	0.064
Mof_H 	H 	0.0833	0.1207	0.6085	0.007
Mof_C 	C 	0.1328	0.2116	0.6756	0.127
Mof_C 	C 	0.038	0.1679	0.6983	-0.171
Mof_H 	H 	0.9969	0.1466	0.6793	0.081
Mof_C 	C 	0.0047	0.156	0.7494	0.11
Mof_H 	H 	0.9408	0.1271	0.7641	-0.008
Mof_C 	C 	0.0633	0.1855	0.7787	-0.162
Mof_C 	C 	0.1529	0.236	0.7555	0.097
Mof_H 	H 	0.1913	0.2617	0.7742	0.002
Mof_C 	C 	0.186	0.2488	0.7046	-0.185
Mof_H 	H 	0.2464	0.2837	0.6895	0.101
Mof_C 	C 	0.1408	0.1117	0.5133	0.457
Mof_C 	C 	0.3605	0.3882	0.5177	0.514
Mof_C 	C 	0.0268	0.1691	0.8344	0.385
Mof_C 	C 	0.2338	0.6162	0.6252	-0.105
Mof_C 	C 	0.2044	0.7001	0.5918	0.051
Mof_H 	H 	0.2496	0.726	0.5622	0.017
Mof_C 	C 	0.1061	0.7463	0.6026	-0.148
Mof_C 	C 	0.0391	0.7062	0.6464	0.025
Mof_H 	H 	0.9743	0.7376	0.6535	0.034
Mof_C 	C 	0.0659	0.6205	0.6801	-0.068
Mof_C 	C 	0.1641	0.5767	0.6687	0.009
Mof_H 	H 	0.1839	0.5193	0.6907	0.034
Mof_C 	C 	0.9897	0.5726	0.7241	0.117
Mof_C 	C 	0.9832	0.4703	0.74	-0.191
Mof_H 	H 	0.0321	0.4305	0.7242	0.098
Mof_C 	C 	0.9064	0.4245	0.7785	0.094
Mof_H 	H 	0.9037	0.3553	0.788	-0.006
Mof_C 	C 	0.8335	0.4832	0.8028	-0.187
Mof_C 	C 	0.8406	0.584	0.7888	0.102
Mof_H 	H 	0.7929	0.6234	0.8054	0.005
Mof_C 	C 	0.9182	0.6293	0.75	-0.183
Mof_H 	H 	0.922	0.6984	0.7414	0.098
Mof_C 	C 	0.3391	0.5672	0.6142	0.31
Mof_C 	C 	0.0705	0.8356	0.5646	0.457
Mof_C 	C 	0.7443	0.4344	0.8412	0.395
Mof_C 	C 	0.239	0.897	0.8998	-0.18
Mof_C 	C 	0.2855	0.8028	0.9122	0.076
Mof_H 	H 	0.2618	0.7594	0.9427	-0.001
Mof_C 	C 	0.3675	0.7735	0.8789	-0.124
Mof_C 	C 	0.4026	0.8386	0.834	0.021
Mof_H 	H 	0.4583	0.8187	0.8121	0.029
Mof_C 	C 	0.3573	0.933	0.8206	-0.072
Mof_C 	C 	0.2734	0.9618	0.8543	0.042
Mof_H 	H 	0.2409	0.0244	0.8459	0.027
Mof_C 	C 	0.3991	0.0045	0.7725	0.111
Mof_C 	C 	0.4014	0.1043	0.7704	-0.177
Mof_H 	H 	0.376	0.1274	0.7989	0.085
Mof_C 	C 	0.4411	0.1716	0.7261	0.1
Mof_H 	H 	0.4412	0.2391	0.7255	-0.01
Mof_C 	C 	0.48	0.1402	0.6834	-0.179
Mof_C 	C 	0.48	0.0401	0.6847	0.087
Mof_H 	H 	0.5073	0.0171	0.6562	0.004
Mof_C 	C 	0.4385	0.9731	0.7291	-0.161
Mof_H 	H 	0.4373	0.9058	0.7296	0.085
Mof_C 	C 	0.1518	0.9317	0.9364	0.5
Mof_C 	C 	0.4203	0.6721	0.892	0.326
Mof_C 	C 	0.5196	0.2152	0.6351	0.42
Mof_C 	C 	0.3005	0.2918	0.0478	-0.25
Mof_C 	C 	0.2471	0.2471	0.0207	0.152
Mof_H 	H 	0.2528	0.2717	0.9863	-0.02
Mof_C 	C 	0.1853	0.1656	0.0449	-0.234
Mof_C 	C 	0.1764	0.1308	0.0959	0.098
Mof_H 	H 	0.1371	0.0749	0.1118	-0.002
Mof_C 	C 	0.2246	0.1771	0.1242	-0.124
Mof_C 	C 	0.2869	0.258	0.1001	0.101
Mof_H 	H 	0.3197	0.2897	0.1185	0
Mof_C 	C 	0.209	0.1417	0.1796	0.13
Mof_C 	C 	0.2862	0.1492	0.2065	-0.179
Mof_H 	H 	0.3498	0.1762	0.1895	0.097
Mof_C 	C 	0.271	0.1177	0.2581	0.085
Mof_H 	H 	0.3239	0.1243	0.2752	0.009
Mof_C 	C 	0.1779	0.0765	0.2844	-0.149
Mof_C 	C 	0.1	0.069	0.2586	0.081
Mof_H 	H 	0.0365	0.0421	0.2759	0.017
Mof_C 	C 	0.1152	0.1012	0.2068	-0.173
Mof_H 	H 	0.0615	0.0956	0.19	0.098
Mof_C 	C 	0.3692	0.3761	0.0208	0.558
Mof_C 	C 	0.1269	0.12	0.0149	0.522
Mof_C 	C 	0.1608	0.0386	0.3404	0.368
_end
