# CIF file generated by openbabel 3.1.0, see https://openbabel.org
data_I
_chemical_name_common 'image0'
_cell_length_a 21.2498
_cell_length_b 21.2498
_cell_length_c 22.0147
_cell_angle_alpha 90
_cell_angle_beta 90
_cell_angle_gamma 120
_space_group_name_H-M_alt 'P 1'
_space_group_name_Hall 'P 1'
loop_
    _symmetry_equiv_pos_as_xyz
    x,y,z
loop_
    _atom_site_label
    _atom_site_type_symbol
    _atom_site_fract_x
    _atom_site_fract_y
    _atom_site_fract_z
    _atom_site_occupancy
    Cu1      Cu       0.46007    0.53039    0.00980    1.000
    O1       O        0.54193    0.59921    0.06200    1.000
    O2       O        0.61133    0.55070    0.04179    1.000
    O3       O        0.73930    0.82089    0.27028    1.000
    O4       O        0.62026    0.75359    0.25260    1.000
    O5       O        0.84570    0.65270    0.04850    1.000
    N1       N        0.85960    0.73910    0.12040    1.000
    C1       C        0.59920    0.59600    0.06683    1.000
    C2       C        0.68480    0.77380    0.24077    1.000
    C3       C        0.70000    0.73910    0.18790    1.000
    C4       C        0.64330    0.68760    0.15200    1.000
    H1       H        0.59580    0.67680    0.15900    1.000
    C5       C        0.65860    0.65320    0.10610    1.000
    C6       C        0.72990    0.66830    0.09620    1.000
    H2       H        0.73940    0.64310    0.06640    1.000
    C7       C        0.78670    0.72090    0.13090    1.000
    C8       C        0.77120    0.75680    0.17670    1.000
    H3       H        0.80870    0.79260    0.19970    1.000
    C9       C        0.88150    0.70470    0.07840    1.000
    C10      C        0.92030    0.79560    0.15390    1.000
    H4       H        0.91620    0.78430    0.19690    1.000
    H5       H        0.92330    0.84230    0.14830    1.000
    C11      C        0.98420    0.79530    0.12680    1.000
    C12      C        0.96210    0.74300    0.08310    1.000
    C13      C        0.01010    0.72800    0.05200    1.000
    H6       H        0.99380    0.69130    0.02300    1.000
    C14      C        0.08280    0.77000    0.06600    1.000
    H7       H        0.11670    0.76240    0.04540    1.000
    C15      C        0.10590    0.82300    0.10990    1.000
    H8       H        0.15520    0.85020    0.11870    1.000
    C16      C        0.05820    0.83710    0.14140    1.000
    H9       H        0.07440    0.87300    0.17110    1.000
    Cu2      Cu       0.12674    0.86372    0.34313    1.000
    O6       O        0.20860    0.93254    0.39533    1.000
    O7       O        0.27800    0.88403    0.37512    1.000
    O8       O        0.40597    0.15422    0.60361    1.000
    O9       O        0.28693    0.08692    0.58593    1.000
    O10      O        0.51237    0.98603    0.38183    1.000
    N2       N        0.52627    0.07243    0.45373    1.000
    C17      C        0.26587    0.92933    0.40016    1.000
    C18      C        0.35147    0.10713    0.57410    1.000
    C19      C        0.36667    0.07243    0.52123    1.000
    C20      C        0.30997    0.02093    0.48533    1.000
    H10      H        0.26247    0.01013    0.49233    1.000
    C21      C        0.32527    0.98653    0.43943    1.000
    C22      C        0.39657    0.00163    0.42953    1.000
    H11      H        0.40607    0.97643    0.39973    1.000
    C23      C        0.45337    0.05423    0.46423    1.000
    C24      C        0.43787    0.09013    0.51003    1.000
    H12      H        0.47537    0.12593    0.53303    1.000
    C25      C        0.54817    0.03803    0.41173    1.000
    C26      C        0.58697    0.12893    0.48723    1.000
    H13      H        0.58287    0.11763    0.53023    1.000
    H14      H        0.58997    0.17563    0.48163    1.000
    C27      C        0.65087    0.12863    0.46013    1.000
    C28      C        0.62877    0.07633    0.41643    1.000
    C29      C        0.67677    0.06133    0.38533    1.000
    H15      H        0.66047    0.02463    0.35633    1.000
    C30      C        0.74947    0.10333    0.39933    1.000
    H16      H        0.78337    0.09573    0.37873    1.000
    C31      C        0.77257    0.15633    0.44323    1.000
    H17      H        0.82187    0.18353    0.45203    1.000
    C32      C        0.72487    0.17043    0.47473    1.000
    H18      H        0.74107    0.20633    0.50443    1.000
    Cu3      Cu       0.79340    0.19706    0.67647    1.000
    O11      O        0.87526    0.26588    0.72867    1.000
    O12      O        0.94466    0.21737    0.70846    1.000
    O13      O        0.07263    0.48756    0.93695    1.000
    O14      O        0.95359    0.42026    0.91927    1.000
    O15      O        0.17903    0.31937    0.71517    1.000
    N3       N        0.19293    0.40577    0.78707    1.000
    C33      C        0.93253    0.26267    0.73350    1.000
    C34      C        0.01813    0.44047    0.90744    1.000
    C35      C        0.03333    0.40577    0.85457    1.000
    C36      C        0.97663    0.35427    0.81867    1.000
    H19      H        0.92913    0.34347    0.82567    1.000
    C37      C        0.99193    0.31987    0.77277    1.000
    C38      C        0.06323    0.33497    0.76287    1.000
    H20      H        0.07273    0.30977    0.73307    1.000
    C39      C        0.12003    0.38757    0.79757    1.000
    C40      C        0.10453    0.42347    0.84337    1.000
    H21      H        0.14203    0.45927    0.86637    1.000
    C41      C        0.21483    0.37137    0.74507    1.000
    C42      C        0.25363    0.46227    0.82057    1.000
    H22      H        0.24953    0.45097    0.86357    1.000
    H23      H        0.25663    0.50897    0.81497    1.000
    C43      C        0.31753    0.46197    0.79347    1.000
    C44      C        0.29543    0.40967    0.74977    1.000
    C45      C        0.34343    0.39467    0.71867    1.000
    H24      H        0.32713    0.35797    0.68967    1.000
    C46      C        0.41613    0.43667    0.73267    1.000
    H25      H        0.45003    0.42907    0.71207    1.000
    C47      C        0.43923    0.48967    0.77657    1.000
    H26      H        0.48853    0.51687    0.78537    1.000
    C48      C        0.39153    0.50377    0.80807    1.000
    H27      H        0.40773    0.53967    0.83777    1.000
    Cu4      Cu       0.46961    0.92968    0.00980    1.000
    O16      O        0.40079    0.94272    0.06200    1.000
    O17      O        0.44930    0.06063    0.04179    1.000
    O18      O        0.17911    0.91841    0.27028    1.000
    O19      O        0.24641    0.86667    0.25260    1.000
    O20      O        0.34730    0.19300    0.04850    1.000
    N4       N        0.26090    0.12050    0.12040    1.000
    C49      C        0.40400    0.00320    0.06683    1.000
    C50      C        0.22620    0.91100    0.24077    1.000
    C51      C        0.26090    0.96090    0.18790    1.000
    C52      C        0.31240    0.95570    0.15200    1.000
    H28      H        0.32320    0.91900    0.15900    1.000
    C53      C        0.34680    0.00540    0.10610    1.000
    C54      C        0.33170    0.06160    0.09620    1.000
    H29      H        0.35690    0.09630    0.06640    1.000
    C55      C        0.27910    0.06580    0.13090    1.000
    C56      C        0.24320    0.01440    0.17670    1.000
    H30      H        0.20740    0.01610    0.19970    1.000
    C57      C        0.29530    0.17680    0.07840    1.000
    C58      C        0.20440    0.12470    0.15390    1.000
    H31      H        0.21570    0.13190    0.19690    1.000
    H32      H        0.15770    0.08100    0.14830    1.000
    C59      C        0.20470    0.18890    0.12680    1.000
    C60      C        0.25700    0.21910    0.08310    1.000
    C61      C        0.27200    0.28210    0.05200    1.000
    H33      H        0.30870    0.30250    0.02300    1.000
    C62      C        0.23000    0.31280    0.06600    1.000
    H34      H        0.23760    0.35430    0.04540    1.000
    C63      C        0.17700    0.28290    0.10990    1.000
    H35      H        0.14980    0.30500    0.11870    1.000
    C64      C        0.16290    0.22110    0.14140    1.000
    H36      H        0.12700    0.20140    0.17110    1.000
    Cu5      Cu       0.13628    0.26301    0.34313    1.000
    O21      O        0.06746    0.27605    0.39533    1.000
    O22      O        0.11597    0.39396    0.37512    1.000
    O23      O        0.84578    0.25174    0.60361    1.000
    O24      O        0.91308    0.20000    0.58593    1.000
    O25      O        0.01397    0.52633    0.38183    1.000
    N5       N        0.92757    0.45383    0.45373    1.000
    C65      C        0.07067    0.33653    0.40016    1.000
    C66      C        0.89287    0.24433    0.57410    1.000
    C67      C        0.92757    0.29423    0.52123    1.000
    C68      C        0.97907    0.28903    0.48533    1.000
    H37      H        0.98987    0.25233    0.49233    1.000
    C69      C        0.01347    0.33873    0.43943    1.000
    C70      C        0.99837    0.39493    0.42953    1.000
    H38      H        0.02357    0.42963    0.39973    1.000
    C71      C        0.94577    0.39913    0.46423    1.000
    C72      C        0.90987    0.34773    0.51003    1.000
    H39      H        0.87407    0.34943    0.53303    1.000
    C73      C        0.96197    0.51013    0.41173    1.000
    C74      C        0.87107    0.45803    0.48723    1.000
    H40      H        0.88237    0.46523    0.53023    1.000
    H41      H        0.82437    0.41433    0.48163    1.000
    C75      C        0.87137    0.52223    0.46013    1.000
    C76      C        0.92367    0.55243    0.41643    1.000
    C77      C        0.93867    0.61543    0.38533    1.000
    H42      H        0.97537    0.63583    0.35633    1.000
    C78      C        0.89667    0.64613    0.39933    1.000
    H43      H        0.90427    0.68763    0.37873    1.000
    C79      C        0.84367    0.61623    0.44323    1.000
    H44      H        0.81647    0.63833    0.45203    1.000
    C80      C        0.82957    0.55443    0.47473    1.000
    H45      H        0.79367    0.53473    0.50443    1.000
    Cu6      Cu       0.80294    0.59635    0.67647    1.000
    O26      O        0.73412    0.60939    0.72867    1.000
    O27      O        0.78263    0.72730    0.70846    1.000
    O28      O        0.51244    0.58508    0.93695    1.000
    O29      O        0.57974    0.53334    0.91927    1.000
    O30      O        0.68063    0.85967    0.71517    1.000
    N6       N        0.59423    0.78717    0.78707    1.000
    C81      C        0.73733    0.66987    0.73350    1.000
    C82      C        0.55953    0.57767    0.90744    1.000
    C83      C        0.59423    0.62757    0.85457    1.000
    C84      C        0.64573    0.62237    0.81867    1.000
    H46      H        0.65653    0.58567    0.82567    1.000
    C85      C        0.68013    0.67207    0.77277    1.000
    C86      C        0.66503    0.72827    0.76287    1.000
    H47      H        0.69023    0.76297    0.73307    1.000
    C87      C        0.61243    0.73247    0.79757    1.000
    C88      C        0.57653    0.68107    0.84337    1.000
    H48      H        0.54073    0.68277    0.86637    1.000
    C89      C        0.62863    0.84347    0.74507    1.000
    C90      C        0.53773    0.79137    0.82057    1.000
    H49      H        0.54903    0.79857    0.86357    1.000
    H50      H        0.49103    0.74767    0.81497    1.000
    C91      C        0.53803    0.85557    0.79347    1.000
    C92      C        0.59033    0.88577    0.74977    1.000
    C93      C        0.60533    0.94877    0.71867    1.000
    H51      H        0.64203    0.96917    0.68967    1.000
    C94      C        0.56333    0.97947    0.73267    1.000
    H52      H        0.57093    0.02097    0.71207    1.000
    C95      C        0.51033    0.94957    0.77657    1.000
    H53      H        0.48313    0.97167    0.78537    1.000
    C96      C        0.49623    0.88777    0.80807    1.000
    H54      H        0.46033    0.86807    0.83777    1.000
    Cu7      Cu       0.07032    0.53993    0.00980    1.000
    O31      O        0.05728    0.45807    0.06200    1.000
    O32      O        0.93937    0.38867    0.04179    1.000
    O33      O        0.08159    0.26070    0.27028    1.000
    O34      O        0.13333    0.37974    0.25260    1.000
    O35      O        0.80700    0.15430    0.04850    1.000
    N7       N        0.87950    0.14040    0.12040    1.000
    C97      C        0.99680    0.40080    0.06683    1.000
    C98      C        0.08900    0.31520    0.24077    1.000
    C99      C        0.03910    0.30000    0.18790    1.000
    C100     C        0.04430    0.35670    0.15200    1.000
    H55      H        0.08100    0.40420    0.15900    1.000
    C101     C        0.99460    0.34140    0.10610    1.000
    C102     C        0.93840    0.27010    0.09620    1.000
    H56      H        0.90370    0.26060    0.06640    1.000
    C103     C        0.93420    0.21330    0.13090    1.000
    C104     C        0.98560    0.22880    0.17670    1.000
    H57      H        0.98390    0.19130    0.19970    1.000
    C105     C        0.82320    0.11850    0.07840    1.000
    C106     C        0.87530    0.07970    0.15390    1.000
    H58      H        0.86810    0.08380    0.19690    1.000
    H59      H        0.91900    0.07670    0.14830    1.000
    C107     C        0.81110    0.01580    0.12680    1.000
    C108     C        0.78090    0.03790    0.08310    1.000
    C109     C        0.71790    0.98990    0.05200    1.000
    H60      H        0.69750    0.00620    0.02300    1.000
    C110     C        0.68720    0.91720    0.06600    1.000
    H61      H        0.64570    0.88330    0.04540    1.000
    C111     C        0.71710    0.89410    0.10990    1.000
    H62      H        0.69500    0.84480    0.11870    1.000
    C112     C        0.77890    0.94180    0.14140    1.000
    H63      H        0.79860    0.92560    0.17110    1.000
    Cu8      Cu       0.73699    0.87326    0.34313    1.000
    O36      O        0.72395    0.79140    0.39533    1.000
    O37      O        0.60604    0.72200    0.37512    1.000
    O38      O        0.74826    0.59403    0.60361    1.000
    O39      O        0.80000    0.71307    0.58593    1.000
    O40      O        0.47367    0.48763    0.38183    1.000
    N8       N        0.54617    0.47373    0.45373    1.000
    C113     C        0.66347    0.73413    0.40016    1.000
    C114     C        0.75567    0.64853    0.57410    1.000
    C115     C        0.70577    0.63333    0.52123    1.000
    C116     C        0.71097    0.69003    0.48533    1.000
    H64      H        0.74767    0.73753    0.49233    1.000
    C117     C        0.66127    0.67473    0.43943    1.000
    C118     C        0.60507    0.60343    0.42953    1.000
    H65      H        0.57037    0.59393    0.39973    1.000
    C119     C        0.60087    0.54663    0.46423    1.000
    C120     C        0.65227    0.56213    0.51003    1.000
    H66      H        0.65057    0.52463    0.53303    1.000
    C121     C        0.48987    0.45183    0.41173    1.000
    C122     C        0.54197    0.41303    0.48723    1.000
    H67      H        0.53477    0.41713    0.53023    1.000
    H68      H        0.58567    0.41003    0.48163    1.000
    C123     C        0.47777    0.34913    0.46013    1.000
    C124     C        0.44757    0.37123    0.41643    1.000
    C125     C        0.38457    0.32323    0.38533    1.000
    H69      H        0.36417    0.33953    0.35633    1.000
    C126     C        0.35387    0.25053    0.39933    1.000
    H70      H        0.31237    0.21663    0.37873    1.000
    C127     C        0.38377    0.22743    0.44323    1.000
    H71      H        0.36167    0.17813    0.45203    1.000
    C128     C        0.44557    0.27513    0.47473    1.000
    H72      H        0.46527    0.25893    0.50443    1.000
    Cu9      Cu       0.40365    0.20660    0.67647    1.000
    O41      O        0.39061    0.12474    0.72867    1.000
    O42      O        0.27270    0.05534    0.70846    1.000
    O43      O        0.41492    0.92737    0.93695    1.000
    O44      O        0.46666    0.04641    0.91927    1.000
    O45      O        0.14033    0.82097    0.71517    1.000
    N9       N        0.21283    0.80707    0.78707    1.000
    C129     C        0.33013    0.06747    0.73350    1.000
    C130     C        0.42233    0.98187    0.90744    1.000
    C131     C        0.37243    0.96667    0.85457    1.000
    C132     C        0.37763    0.02337    0.81867    1.000
    H73      H        0.41433    0.07087    0.82567    1.000
    C133     C        0.32793    0.00807    0.77277    1.000
    C134     C        0.27173    0.93677    0.76287    1.000
    H74      H        0.23703    0.92727    0.73307    1.000
    C135     C        0.26753    0.87997    0.79757    1.000
    C136     C        0.31893    0.89547    0.84337    1.000
    H75      H        0.31723    0.85797    0.86637    1.000
    C137     C        0.15653    0.78517    0.74507    1.000
    C138     C        0.20863    0.74637    0.82057    1.000
    H76      H        0.20143    0.75047    0.86357    1.000
    H77      H        0.25233    0.74337    0.81497    1.000
    C139     C        0.14443    0.68247    0.79347    1.000
    C140     C        0.11423    0.70457    0.74977    1.000
    C141     C        0.05123    0.65657    0.71867    1.000
    H78      H        0.03083    0.67287    0.68967    1.000
    C142     C        0.02053    0.58387    0.73267    1.000
    H79      H        0.97903    0.54997    0.71207    1.000
    C143     C        0.05043    0.56077    0.77657    1.000
    H80      H        0.02833    0.51147    0.78537    1.000
    C144     C        0.11223    0.60847    0.80807    1.000
    H81      H        0.13193    0.59227    0.83777    1.000
    Cu10     Cu       0.53993    0.46961    0.99020    1.000
    O46      O        0.45807    0.40079    0.93800    1.000
    O47      O        0.38867    0.44930    0.95821    1.000
    O48      O        0.26070    0.17911    0.72972    1.000
    O49      O        0.37974    0.24641    0.74740    1.000
    O50      O        0.15430    0.34730    0.95150    1.000
    N10      N        0.14040    0.26090    0.87960    1.000
    C145     C        0.40080    0.40400    0.93317    1.000
    C146     C        0.31520    0.22620    0.75923    1.000
    C147     C        0.30000    0.26090    0.81210    1.000
    C148     C        0.35670    0.31240    0.84800    1.000
    H82      H        0.40420    0.32320    0.84100    1.000
    C149     C        0.34140    0.34680    0.89390    1.000
    C150     C        0.27010    0.33170    0.90380    1.000
    H83      H        0.26060    0.35690    0.93360    1.000
    C151     C        0.21330    0.27910    0.86910    1.000
    C152     C        0.22880    0.24320    0.82330    1.000
    H84      H        0.19130    0.20740    0.80030    1.000
    C153     C        0.11850    0.29530    0.92160    1.000
    C154     C        0.07970    0.20440    0.84610    1.000
    H85      H        0.08380    0.21570    0.80310    1.000
    H86      H        0.07670    0.15770    0.85170    1.000
    C155     C        0.01580    0.20470    0.87320    1.000
    C156     C        0.03790    0.25700    0.91690    1.000
    C157     C        0.98990    0.27200    0.94800    1.000
    H87      H        0.00620    0.30870    0.97700    1.000
    C158     C        0.91720    0.23000    0.93400    1.000
    H88      H        0.88330    0.23760    0.95460    1.000
    C159     C        0.89410    0.17700    0.89010    1.000
    H89      H        0.84480    0.14980    0.88130    1.000
    C160     C        0.94180    0.16290    0.85860    1.000
    H90      H        0.92560    0.12700    0.82890    1.000
    Cu11     Cu       0.20660    0.80294    0.32353    1.000
    O51      O        0.12474    0.73412    0.27133    1.000
    O52      O        0.05534    0.78263    0.29154    1.000
    O53      O        0.92737    0.51244    0.06305    1.000
    O54      O        0.04641    0.57974    0.08073    1.000
    O55      O        0.82097    0.68063    0.28483    1.000
    N11      N        0.80707    0.59423    0.21293    1.000
    C161     C        0.06747    0.73733    0.26650    1.000
    C162     C        0.98187    0.55953    0.09256    1.000
    C163     C        0.96667    0.59423    0.14543    1.000
    C164     C        0.02337    0.64573    0.18133    1.000
    H91      H        0.07087    0.65653    0.17433    1.000
    C165     C        0.00807    0.68013    0.22723    1.000
    C166     C        0.93677    0.66503    0.23713    1.000
    H92      H        0.92727    0.69023    0.26693    1.000
    C167     C        0.87997    0.61243    0.20243    1.000
    C168     C        0.89547    0.57653    0.15663    1.000
    H93      H        0.85797    0.54073    0.13363    1.000
    C169     C        0.78517    0.62863    0.25493    1.000
    C170     C        0.74637    0.53773    0.17943    1.000
    H94      H        0.75047    0.54903    0.13643    1.000
    H95      H        0.74337    0.49103    0.18503    1.000
    C171     C        0.68247    0.53803    0.20653    1.000
    C172     C        0.70457    0.59033    0.25023    1.000
    C173     C        0.65657    0.60533    0.28133    1.000
    H96      H        0.67287    0.64203    0.31033    1.000
    C174     C        0.58387    0.56333    0.26733    1.000
    H97      H        0.54997    0.57093    0.28793    1.000
    C175     C        0.56077    0.51033    0.22343    1.000
    H98      H        0.51147    0.48313    0.21463    1.000
    C176     C        0.60847    0.49623    0.19193    1.000
    H99      H        0.59227    0.46033    0.16223    1.000
    Cu12     Cu       0.87326    0.13628    0.65687    1.000
    O56      O        0.79140    0.06746    0.60467    1.000
    O57      O        0.72200    0.11597    0.62488    1.000
    O58      O        0.59403    0.84578    0.39639    1.000
    O59      O        0.71307    0.91308    0.41407    1.000
    O60      O        0.48763    0.01397    0.61817    1.000
    N12      N        0.47373    0.92757    0.54627    1.000
    C177     C        0.73413    0.07067    0.59984    1.000
    C178     C        0.64853    0.89287    0.42590    1.000
    C179     C        0.63333    0.92757    0.47877    1.000
    C180     C        0.69003    0.97907    0.51467    1.000
    H100     H        0.73753    0.98987    0.50767    1.000
    C181     C        0.67473    0.01347    0.56057    1.000
    C182     C        0.60343    0.99837    0.57047    1.000
    H101     H        0.59393    0.02357    0.60027    1.000
    C183     C        0.54663    0.94577    0.53577    1.000
    C184     C        0.56213    0.90987    0.48997    1.000
    H102     H        0.52463    0.87407    0.46697    1.000
    C185     C        0.45183    0.96197    0.58827    1.000
    C186     C        0.41303    0.87107    0.51277    1.000
    H103     H        0.41713    0.88237    0.46977    1.000
    H104     H        0.41003    0.82437    0.51837    1.000
    C187     C        0.34913    0.87137    0.53987    1.000
    C188     C        0.37123    0.92367    0.58357    1.000
    C189     C        0.32323    0.93867    0.61467    1.000
    H105     H        0.33953    0.97537    0.64367    1.000
    C190     C        0.25053    0.89667    0.60067    1.000
    H106     H        0.21663    0.90427    0.62127    1.000
    C191     C        0.22743    0.84367    0.55677    1.000
    H107     H        0.17813    0.81647    0.54797    1.000
    C192     C        0.27513    0.82957    0.52527    1.000
    H108     H        0.25893    0.79367    0.49557    1.000
    Cu13     Cu       0.53039    0.07032    0.99020    1.000
    O61      O        0.59921    0.05728    0.93800    1.000
    O62      O        0.55070    0.93937    0.95821    1.000
    O63      O        0.82089    0.08159    0.72972    1.000
    O64      O        0.75359    0.13333    0.74740    1.000
    O65      O        0.65270    0.80700    0.95150    1.000
    N13      N        0.73910    0.87950    0.87960    1.000
    C193     C        0.59600    0.99680    0.93317    1.000
    C194     C        0.77380    0.08900    0.75923    1.000
    C195     C        0.73910    0.03910    0.81210    1.000
    C196     C        0.68760    0.04430    0.84800    1.000
    H109     H        0.67680    0.08100    0.84100    1.000
    C197     C        0.65320    0.99460    0.89390    1.000
    C198     C        0.66830    0.93840    0.90380    1.000
    H110     H        0.64310    0.90370    0.93360    1.000
    C199     C        0.72090    0.93420    0.86910    1.000
    C200     C        0.75680    0.98560    0.82330    1.000
    H111     H        0.79260    0.98390    0.80030    1.000
    C201     C        0.70470    0.82320    0.92160    1.000
    C202     C        0.79560    0.87530    0.84610    1.000
    H112     H        0.78430    0.86810    0.80310    1.000
    H113     H        0.84230    0.91900    0.85170    1.000
    C203     C        0.79530    0.81110    0.87320    1.000
    C204     C        0.74300    0.78090    0.91690    1.000
    C205     C        0.72800    0.71790    0.94800    1.000
    H114     H        0.69130    0.69750    0.97700    1.000
    C206     C        0.77000    0.68720    0.93400    1.000
    H115     H        0.76240    0.64570    0.95460    1.000
    C207     C        0.82300    0.71710    0.89010    1.000
    H116     H        0.85020    0.69500    0.88130    1.000
    C208     C        0.83710    0.77890    0.85860    1.000
    H117     H        0.87300    0.79860    0.82890    1.000
    Cu14     Cu       0.19706    0.40365    0.32353    1.000
    O66      O        0.26588    0.39061    0.27133    1.000
    O67      O        0.21737    0.27270    0.29154    1.000
    O68      O        0.48756    0.41492    0.06305    1.000
    O69      O        0.42026    0.46666    0.08073    1.000
    O70      O        0.31937    0.14033    0.28483    1.000
    N14      N        0.40577    0.21283    0.21293    1.000
    C209     C        0.26267    0.33013    0.26650    1.000
    C210     C        0.44047    0.42233    0.09256    1.000
    C211     C        0.40577    0.37243    0.14543    1.000
    C212     C        0.35427    0.37763    0.18133    1.000
    H118     H        0.34347    0.41433    0.17433    1.000
    C213     C        0.31987    0.32793    0.22723    1.000
    C214     C        0.33497    0.27173    0.23713    1.000
    H119     H        0.30977    0.23703    0.26693    1.000
    C215     C        0.38757    0.26753    0.20243    1.000
    C216     C        0.42347    0.31893    0.15663    1.000
    H120     H        0.45927    0.31723    0.13363    1.000
    C217     C        0.37137    0.15653    0.25493    1.000
    C218     C        0.46227    0.20863    0.17943    1.000
    H121     H        0.45097    0.20143    0.13643    1.000
    H122     H        0.50897    0.25233    0.18503    1.000
    C219     C        0.46197    0.14443    0.20653    1.000
    C220     C        0.40967    0.11423    0.25023    1.000
    C221     C        0.39467    0.05123    0.28133    1.000
    H123     H        0.35797    0.03083    0.31033    1.000
    C222     C        0.43667    0.02053    0.26733    1.000
    H124     H        0.42907    0.97903    0.28793    1.000
    C223     C        0.48967    0.05043    0.22343    1.000
    H125     H        0.51687    0.02833    0.21463    1.000
    C224     C        0.50377    0.11223    0.19193    1.000
    H126     H        0.53967    0.13193    0.16223    1.000
    Cu15     Cu       0.86372    0.73699    0.65687    1.000
    O71      O        0.93254    0.72395    0.60467    1.000
    O72      O        0.88403    0.60604    0.62488    1.000
    O73      O        0.15422    0.74826    0.39639    1.000
    O74      O        0.08692    0.80000    0.41407    1.000
    O75      O        0.98603    0.47367    0.61817    1.000
    N15      N        0.07243    0.54617    0.54627    1.000
    C225     C        0.92933    0.66347    0.59984    1.000
    C226     C        0.10713    0.75567    0.42590    1.000
    C227     C        0.07243    0.70577    0.47877    1.000
    C228     C        0.02093    0.71097    0.51467    1.000
    H127     H        0.01013    0.74767    0.50767    1.000
    C229     C        0.98653    0.66127    0.56057    1.000
    C230     C        0.00163    0.60507    0.57047    1.000
    H128     H        0.97643    0.57037    0.60027    1.000
    C231     C        0.05423    0.60087    0.53577    1.000
    C232     C        0.09013    0.65227    0.48997    1.000
    H129     H        0.12593    0.65057    0.46697    1.000
    C233     C        0.03803    0.48987    0.58827    1.000
    C234     C        0.12893    0.54197    0.51277    1.000
    H130     H        0.11763    0.53477    0.46977    1.000
    H131     H        0.17563    0.58567    0.51837    1.000
    C235     C        0.12863    0.47777    0.53987    1.000
    C236     C        0.07633    0.44757    0.58357    1.000
    C237     C        0.06133    0.38457    0.61467    1.000
    H132     H        0.02463    0.36417    0.64367    1.000
    C238     C        0.10333    0.35387    0.60067    1.000
    H133     H        0.09573    0.31237    0.62127    1.000
    C239     C        0.15633    0.38377    0.55677    1.000
    H134     H        0.18353    0.36167    0.54797    1.000
    C240     C        0.17043    0.44557    0.52527    1.000
    H135     H        0.20633    0.46527    0.49557    1.000
    Cu16     Cu       0.92968    0.46007    0.99020    1.000
    O76      O        0.94272    0.54193    0.93800    1.000
    O77      O        0.06063    0.61133    0.95821    1.000
    O78      O        0.91841    0.73930    0.72972    1.000
    O79      O        0.86667    0.62026    0.74740    1.000
    O80      O        0.19300    0.84570    0.95150    1.000
    N16      N        0.12050    0.85960    0.87960    1.000
    C241     C        0.00320    0.59920    0.93317    1.000
    C242     C        0.91100    0.68480    0.75923    1.000
    C243     C        0.96090    0.70000    0.81210    1.000
    C244     C        0.95570    0.64330    0.84800    1.000
    H136     H        0.91900    0.59580    0.84100    1.000
    C245     C        0.00540    0.65860    0.89390    1.000
    C246     C        0.06160    0.72990    0.90380    1.000
    H137     H        0.09630    0.73940    0.93360    1.000
    C247     C        0.06580    0.78670    0.86910    1.000
    C248     C        0.01440    0.77120    0.82330    1.000
    H138     H        0.01610    0.80870    0.80030    1.000
    C249     C        0.17680    0.88150    0.92160    1.000
    C250     C        0.12470    0.92030    0.84610    1.000
    H139     H        0.13190    0.91620    0.80310    1.000
    H140     H        0.08100    0.92330    0.85170    1.000
    C251     C        0.18890    0.98420    0.87320    1.000
    C252     C        0.21910    0.96210    0.91690    1.000
    C253     C        0.28210    0.01010    0.94800    1.000
    H141     H        0.30250    0.99380    0.97700    1.000
    C254     C        0.31280    0.08280    0.93400    1.000
    H142     H        0.35430    0.11670    0.95460    1.000
    C255     C        0.28290    0.10590    0.89010    1.000
    H143     H        0.30500    0.15520    0.88130    1.000
    C256     C        0.22110    0.05820    0.85860    1.000
    H144     H        0.20140    0.07440    0.82890    1.000
    Cu17     Cu       0.59635    0.79340    0.32353    1.000
    O81      O        0.60939    0.87526    0.27133    1.000
    O82      O        0.72730    0.94466    0.29154    1.000
    O83      O        0.58508    0.07263    0.06305    1.000
    O84      O        0.53334    0.95359    0.08073    1.000
    O85      O        0.85967    0.17903    0.28483    1.000
    N17      N        0.78717    0.19293    0.21293    1.000
    C257     C        0.66987    0.93253    0.26650    1.000
    C258     C        0.57767    0.01813    0.09256    1.000
    C259     C        0.62757    0.03333    0.14543    1.000
    C260     C        0.62237    0.97663    0.18133    1.000
    H145     H        0.58567    0.92913    0.17433    1.000
    C261     C        0.67207    0.99193    0.22723    1.000
    C262     C        0.72827    0.06323    0.23713    1.000
    H146     H        0.76297    0.07273    0.26693    1.000
    C263     C        0.73247    0.12003    0.20243    1.000
    C264     C        0.68107    0.10453    0.15663    1.000
    H147     H        0.68277    0.14203    0.13363    1.000
    C265     C        0.84347    0.21483    0.25493    1.000
    C266     C        0.79137    0.25363    0.17943    1.000
    H148     H        0.79857    0.24953    0.13643    1.000
    H149     H        0.74767    0.25663    0.18503    1.000
    C267     C        0.85557    0.31753    0.20653    1.000
    C268     C        0.88577    0.29543    0.25023    1.000
    C269     C        0.94877    0.34343    0.28133    1.000
    H150     H        0.96917    0.32713    0.31033    1.000
    C270     C        0.97947    0.41613    0.26733    1.000
    H151     H        0.02097    0.45003    0.28793    1.000
    C271     C        0.94957    0.43923    0.22343    1.000
    H152     H        0.97167    0.48853    0.21463    1.000
    C272     C        0.88777    0.39153    0.19193    1.000
    H153     H        0.86807    0.40773    0.16223    1.000
    Cu18     Cu       0.26301    0.12674    0.65687    1.000
    O86      O        0.27605    0.20860    0.60467    1.000
    O87      O        0.39396    0.27800    0.62488    1.000
    O88      O        0.25174    0.40597    0.39639    1.000
    O89      O        0.20000    0.28693    0.41407    1.000
    O90      O        0.52633    0.51237    0.61817    1.000
    N18      N        0.45383    0.52627    0.54627    1.000
    C273     C        0.33653    0.26587    0.59984    1.000
    C274     C        0.24433    0.35147    0.42590    1.000
    C275     C        0.29423    0.36667    0.47877    1.000
    C276     C        0.28903    0.30997    0.51467    1.000
    H154     H        0.25233    0.26247    0.50767    1.000
    C277     C        0.33873    0.32527    0.56057    1.000
    C278     C        0.39493    0.39657    0.57047    1.000
    H155     H        0.42963    0.40607    0.60027    1.000
    C279     C        0.39913    0.45337    0.53577    1.000
    C280     C        0.34773    0.43787    0.48997    1.000
    H156     H        0.34943    0.47537    0.46697    1.000
    C281     C        0.51013    0.54817    0.58827    1.000
    C282     C        0.45803    0.58697    0.51277    1.000
    H157     H        0.46523    0.58287    0.46977    1.000
    H158     H        0.41433    0.58997    0.51837    1.000
    C283     C        0.52223    0.65087    0.53987    1.000
    C284     C        0.55243    0.62877    0.58357    1.000
    C285     C        0.61543    0.67677    0.61467    1.000
    H159     H        0.63583    0.66047    0.64367    1.000
    C286     C        0.64613    0.74947    0.60067    1.000
    H160     H        0.68763    0.78337    0.62127    1.000
    C287     C        0.61623    0.77257    0.55677    1.000
    H161     H        0.63833    0.82187    0.54797    1.000
    C288     C        0.55443    0.72487    0.52527    1.000
    H162     H        0.53473    0.74107    0.49557    1.000
