# CIF file generated by openbabel 3.1.0, see https://openbabel.org
data_I
_chemical_name_common 'image0'
_cell_length_a 26.0087
_cell_length_b 26.0087
_cell_length_c 6.8131
_cell_angle_alpha 90
_cell_angle_beta 90
_cell_angle_gamma 120
_space_group_name_H-M_alt 'P 1'
_space_group_name_Hall 'P 1'
loop_
    _symmetry_equiv_pos_as_xyz
    x,y,z
loop_
    _atom_site_label
    _atom_site_type_symbol
    _atom_site_fract_x
    _atom_site_fract_y
    _atom_site_fract_z
    _atom_site_occupancy
    Fe1      Fe       0.38040    0.34790    0.14100    1.000
    O1       O        0.32660    0.29680    0.34910    1.000
    O2       O        0.29970    0.22060    0.60800    1.000
    O3       O        0.35680    0.27300    0.00730    1.000
    C1       C        0.31750    0.24650    0.41450    1.000
    C2       C        0.33360    0.20910    0.30050    1.000
    C3       C        0.34600    0.22590    0.09710    1.000
    C4       C        0.35370    0.18230    0.98390    1.000
    H1       H        0.37010    0.19220    0.82000    1.000
    Fe2      Fe       0.04707    0.68123    0.47433    1.000
    O4       O        0.99327    0.63013    0.68243    1.000
    O5       O        0.96637    0.55393    0.94133    1.000
    O6       O        0.02347    0.60633    0.34063    1.000
    C5       C        0.98417    0.57983    0.74783    1.000
    C6       C        0.00027    0.54243    0.63383    1.000
    C7       C        0.01267    0.55923    0.43043    1.000
    C8       C        0.02037    0.51563    0.31723    1.000
    H2       H        0.03677    0.52553    0.15333    1.000
    Fe3      Fe       0.71373    0.01457    0.80767    1.000
    O7       O        0.65993    0.96347    0.01577    1.000
    O8       O        0.63303    0.88727    0.27467    1.000
    O9       O        0.69013    0.93967    0.67397    1.000
    C9       C        0.65083    0.91317    0.08117    1.000
    C10      C        0.66693    0.87577    0.96717    1.000
    C11      C        0.67933    0.89257    0.76377    1.000
    C12      C        0.68703    0.84897    0.65057    1.000
    H3       H        0.70343    0.85887    0.48667    1.000
    Fe4      Fe       0.65210    0.03250    0.14100    1.000
    O10      O        0.70320    0.02980    0.34910    1.000
    O11      O        0.77940    0.07910    0.60800    1.000
    O12      O        0.72700    0.08380    0.00730    1.000
    C13      C        0.75350    0.07100    0.41450    1.000
    C14      C        0.79090    0.12450    0.30050    1.000
    C15      C        0.77410    0.12010    0.09710    1.000
    C16      C        0.81770    0.17140    0.98390    1.000
    H4       H        0.80780    0.17790    0.82000    1.000
    Fe5      Fe       0.31877    0.36583    0.47433    1.000
    O13      O        0.36987    0.36313    0.68243    1.000
    O14      O        0.44607    0.41243    0.94133    1.000
    O15      O        0.39367    0.41713    0.34063    1.000
    C17      C        0.42017    0.40433    0.74783    1.000
    C18      C        0.45757    0.45783    0.63383    1.000
    C19      C        0.44077    0.45343    0.43043    1.000
    C20      C        0.48437    0.50473    0.31723    1.000
    H5       H        0.47447    0.51123    0.15333    1.000
    Fe6      Fe       0.98543    0.69917    0.80767    1.000
    O16      O        0.03653    0.69647    0.01577    1.000
    O17      O        0.11273    0.74577    0.27467    1.000
    O18      O        0.06033    0.75047    0.67397    1.000
    C21      C        0.08683    0.73767    0.08117    1.000
    C22      C        0.12423    0.79117    0.96717    1.000
    C23      C        0.10743    0.78677    0.76377    1.000
    C24      C        0.15103    0.83807    0.65057    1.000
    H6       H        0.14113    0.84457    0.48667    1.000
    Fe7      Fe       0.96750    0.61960    0.14100    1.000
    O19      O        0.97020    0.67340    0.34910    1.000
    O20      O        0.92090    0.70030    0.60800    1.000
    O21      O        0.91620    0.64320    0.00730    1.000
    C25      C        0.92900    0.68250    0.41450    1.000
    C26      C        0.87550    0.66640    0.30050    1.000
    C27      C        0.87990    0.65400    0.09710    1.000
    C28      C        0.82860    0.64630    0.98390    1.000
    H7       H        0.82210    0.62990    0.82000    1.000
    Fe8      Fe       0.63417    0.95293    0.47433    1.000
    O22      O        0.63687    0.00673    0.68243    1.000
    O23      O        0.58757    0.03363    0.94133    1.000
    O24      O        0.58287    0.97653    0.34063    1.000
    C29      C        0.59567    0.01583    0.74783    1.000
    C30      C        0.54217    0.99973    0.63383    1.000
    C31      C        0.54657    0.98733    0.43043    1.000
    C32      C        0.49527    0.97963    0.31723    1.000
    H8       H        0.48877    0.96323    0.15333    1.000
    Fe9      Fe       0.30083    0.28627    0.80767    1.000
    O25      O        0.30353    0.34007    0.01577    1.000
    O26      O        0.25423    0.36697    0.27467    1.000
    O27      O        0.24953    0.30987    0.67397    1.000
    C33      C        0.26233    0.34917    0.08117    1.000
    C34      C        0.20883    0.33307    0.96717    1.000
    C35      C        0.21323    0.32067    0.76377    1.000
    C36      C        0.16193    0.31297    0.65057    1.000
    H9       H        0.15543    0.29657    0.48667    1.000
    Fe10     Fe       0.61960    0.65210    0.85900    1.000
    O28      O        0.67340    0.70320    0.65090    1.000
    O29      O        0.70030    0.77940    0.39200    1.000
    O30      O        0.64320    0.72700    0.99270    1.000
    C37      C        0.68250    0.75350    0.58550    1.000
    C38      C        0.66640    0.79090    0.69950    1.000
    C39      C        0.65400    0.77410    0.90290    1.000
    C40      C        0.64630    0.81770    0.01610    1.000
    H10      H        0.62990    0.80780    0.18000    1.000
    Fe11     Fe       0.28627    0.98543    0.19233    1.000
    O31      O        0.34007    0.03653    0.98423    1.000
    O32      O        0.36697    0.11273    0.72533    1.000
    O33      O        0.30987    0.06033    0.32603    1.000
    C41      C        0.34917    0.08683    0.91883    1.000
    C42      C        0.33307    0.12423    0.03283    1.000
    C43      C        0.32067    0.10743    0.23623    1.000
    C44      C        0.31297    0.15103    0.34943    1.000
    H11      H        0.29657    0.14113    0.51333    1.000
    Fe12     Fe       0.95293    0.31877    0.52567    1.000
    O34      O        0.00673    0.36987    0.31757    1.000
    O35      O        0.03363    0.44607    0.05867    1.000
    O36      O        0.97653    0.39367    0.65937    1.000
    C45      C        0.01583    0.42017    0.25217    1.000
    C46      C        0.99973    0.45757    0.36617    1.000
    C47      C        0.98733    0.44077    0.56957    1.000
    C48      C        0.97963    0.48437    0.68277    1.000
    H12      H        0.96323    0.47447    0.84667    1.000
    Fe13     Fe       0.34790    0.96750    0.85900    1.000
    O37      O        0.29680    0.97020    0.65090    1.000
    O38      O        0.22060    0.92090    0.39200    1.000
    O39      O        0.27300    0.91620    0.99270    1.000
    C49      C        0.24650    0.92900    0.58550    1.000
    C50      C        0.20910    0.87550    0.69950    1.000
    C51      C        0.22590    0.87990    0.90290    1.000
    C52      C        0.18230    0.82860    0.01610    1.000
    H13      H        0.19220    0.82210    0.18000    1.000
    Fe14     Fe       0.01457    0.30083    0.19233    1.000
    O40      O        0.96347    0.30353    0.98423    1.000
    O41      O        0.88727    0.25423    0.72533    1.000
    O42      O        0.93967    0.24953    0.32603    1.000
    C53      C        0.91317    0.26233    0.91883    1.000
    C54      C        0.87577    0.20883    0.03283    1.000
    C55      C        0.89257    0.21323    0.23623    1.000
    C56      C        0.84897    0.16193    0.34943    1.000
    H14      H        0.85887    0.15543    0.51333    1.000
    Fe15     Fe       0.68123    0.63417    0.52567    1.000
    O43      O        0.63013    0.63687    0.31757    1.000
    O44      O        0.55393    0.58757    0.05867    1.000
    O45      O        0.60633    0.58287    0.65937    1.000
    C57      C        0.57983    0.59567    0.25217    1.000
    C58      C        0.54243    0.54217    0.36617    1.000
    C59      C        0.55923    0.54657    0.56957    1.000
    C60      C        0.51563    0.49527    0.68277    1.000
    H15      H        0.52553    0.48877    0.84667    1.000
    Fe16     Fe       0.03250    0.38040    0.85900    1.000
    O46      O        0.02980    0.32660    0.65090    1.000
    O47      O        0.07910    0.29970    0.39200    1.000
    O48      O        0.08380    0.35680    0.99270    1.000
    C61      C        0.07100    0.31750    0.58550    1.000
    C62      C        0.12450    0.33360    0.69950    1.000
    C63      C        0.12010    0.34600    0.90290    1.000
    C64      C        0.17140    0.35370    0.01610    1.000
    H16      H        0.17790    0.37010    0.18000    1.000
    Fe17     Fe       0.69917    0.71373    0.19233    1.000
    O49      O        0.69647    0.65993    0.98423    1.000
    O50      O        0.74577    0.63303    0.72533    1.000
    O51      O        0.75047    0.69013    0.32603    1.000
    C65      C        0.73767    0.65083    0.91883    1.000
    C66      C        0.79117    0.66693    0.03283    1.000
    C67      C        0.78677    0.67933    0.23623    1.000
    C68      C        0.83807    0.68703    0.34943    1.000
    H17      H        0.84457    0.70343    0.51333    1.000
    Fe18     Fe       0.36583    0.04707    0.52567    1.000
    O52      O        0.36313    0.99327    0.31757    1.000
    O53      O        0.41243    0.96637    0.05867    1.000
    O54      O        0.41713    0.02347    0.65937    1.000
    C69      C        0.40433    0.98417    0.25217    1.000
    C70      C        0.45783    0.00027    0.36617    1.000
    C71      C        0.45343    0.01267    0.56957    1.000
    C72      C        0.50473    0.02037    0.68277    1.000
    H18      H        0.51123    0.03677    0.84667    1.000
