# CIF file generated by openbabel 3.1.0, see https://openbabel.org
data_I
_chemical_name_common 'image0'
_cell_length_a 37.475
_cell_length_b 13.327
_cell_length_c 15.9941
_cell_angle_alpha 90
_cell_angle_beta 90
_cell_angle_gamma 90
_space_group_name_H-M_alt 'P 1'
_space_group_name_Hall 'P 1'
loop_
    _symmetry_equiv_pos_as_xyz
    x,y,z
loop_
    _atom_site_label
    _atom_site_type_symbol
    _atom_site_fract_x
    _atom_site_fract_y
    _atom_site_fract_z
    _atom_site_occupancy
    Mn1      Mn       0.97164    0.13597    0.13880    1.000
    C1       C        0.74608    0.87710    0.93520    1.000
    C2       C        0.68552    0.87250    0.83410    1.000
    C3       C        0.80996    0.23280    0.17690    1.000
    C4       C        0.83798    0.62890    0.05000    1.000
    C5       C        0.80019    0.14640    0.12480    1.000
    C6       C        0.73760    0.95910    0.88500    1.000
    H1       H        0.75230    0.01540    0.88400    1.000
    C7       C        0.69410    0.79190    0.88280    1.000
    H2       H        0.67950    0.73540    0.88240    1.000
    C8       C        0.80355    0.72770    0.95050    1.000
    H3       H        0.79460    0.73490    0.89660    1.000
    C9       C        0.87470    0.36720    0.04740    1.000
    H4       H        0.86930    0.30560    0.02320    1.000
    C10      C        0.85966    0.54170    0.06960    1.000
    C11      C        0.58485    0.89340    0.70610    1.000
    C12      C        0.64999    0.87740    0.78580    1.000
    C13      C        0.90511    0.37640    0.09790    1.000
    C14      C        0.72439    0.79360    0.93270    1.000
    H5       H        0.73010    0.73780    0.96490    1.000
    C15      C        0.79637    0.79800    0.00970    1.000
    C16      C        0.91154    0.46790    0.13750    1.000
    H6       H        0.93070    0.47420    0.17400    1.000
    C17      C        0.80070    0.39900    0.23150    1.000
    H7       H        0.78600    0.45510    0.23510    1.000
    C18      C        0.78927    0.31580    0.18760    1.000
    H8       H        0.76650    0.31650    0.16440    1.000
    C19      C        0.70691    0.95540    0.83630    1.000
    H9       H        0.70080    0.01100    0.80430    1.000
    C20      C        0.76569    0.10960    0.12280    1.000
    H10      H        0.74800    0.14160    0.15370    1.000
    C21      C        0.85240    0.45040    0.03290    1.000
    H11      H        0.83260    0.44370    0.99820    1.000
    C22      C        0.88947    0.54940    0.12250    1.000
    H12      H        0.89450    0.61040    0.14810    1.000
    C23      C        0.59130    0.81680    0.76150    1.000
    H13      H        0.57360    0.77030    0.77360    1.000
    C24      C        0.82975    0.70200    0.11040    1.000
    H14      H        0.83830    0.69450    0.16460    1.000
    C25      C        0.78226    0.97500    0.03310    1.000
    C26      C        0.80930    0.78440    0.09100    1.000
    H15      H        0.80400    0.83140    0.13220    1.000
    C27      C        0.54810    0.90820    0.66920    1.000
    C28      C        0.92860    0.28740    0.11290    1.000
    C29      C        0.84270    0.23510    0.21810    1.000
    H16      H        0.85740    0.17910    0.21440    1.000
    C30      C        0.83350    0.39990    0.26990    1.000
    C31      C        0.82506    0.64220    0.97150    1.000
    H17      H        0.83020    0.59500    0.93050    1.000
    C32      C        0.62429    0.80950    0.79890    1.000
    H18      H        0.62880    0.75580    0.83440    1.000
    C33      C        0.85410    0.31470    0.26320    1.000
    H19      H        0.87610    0.31190    0.28990    1.000
    C34      C        0.81787    0.01430    0.03270    1.000
    H20      H        0.83580    0.98290    0.00230    1.000
    C35      C        0.82462    0.09700    0.07690    1.000
    H21      H        0.84770    0.12280    0.07490    1.000
    C36      C        0.61090    0.96050    0.68930    1.000
    H22      H        0.60730    0.01180    0.65080    1.000
    C37      C        0.84410    0.49260    0.31450    1.000
    C38      C        0.75702    0.02630    0.07590    1.000
    H23      H        0.73340    0.00510    0.07360    1.000
    C39      C        0.64323    0.95090    0.73080    1.000
    H24      H        0.66110    0.99770    0.72000    1.000
    O1       O        0.91899    0.20180    0.09060    1.000
    O2       O        0.95823    0.30160    0.15110    1.000
    O3       O        0.54299    0.98380    0.62240    1.000
    O4       O        0.52473    0.84110    0.68110    1.000
    O5       O        0.87538    0.47630    0.35250    1.000
    H25      H        0.88200    0.52800    0.37550    1.000
    O6       O        0.82884    0.56820    0.31730    1.000
    N1       N        0.77557    0.88320    0.98940    1.000
    Mn2      Mn       0.02836    0.86403    0.13880    1.000
    C40      C        0.25392    0.12290    0.93520    1.000
    C41      C        0.31448    0.12750    0.83410    1.000
    C42      C        0.19004    0.76720    0.17690    1.000
    C43      C        0.16202    0.37110    0.05000    1.000
    C44      C        0.19981    0.85360    0.12480    1.000
    C45      C        0.26240    0.04090    0.88500    1.000
    H26      H        0.24770    0.98460    0.88400    1.000
    C46      C        0.30590    0.20810    0.88280    1.000
    H27      H        0.32050    0.26460    0.88240    1.000
    C47      C        0.19645    0.27230    0.95050    1.000
    H28      H        0.20540    0.26510    0.89660    1.000
    C48      C        0.12530    0.63280    0.04740    1.000
    H29      H        0.13070    0.69440    0.02320    1.000
    C49      C        0.14034    0.45830    0.06960    1.000
    C50      C        0.41515    0.10660    0.70610    1.000
    C51      C        0.35001    0.12260    0.78580    1.000
    C52      C        0.09489    0.62360    0.09790    1.000
    C53      C        0.27561    0.20640    0.93270    1.000
    H30      H        0.26990    0.26220    0.96490    1.000
    C54      C        0.20363    0.20200    0.00970    1.000
    C55      C        0.08846    0.53210    0.13750    1.000
    H31      H        0.06930    0.52580    0.17400    1.000
    C56      C        0.19930    0.60100    0.23150    1.000
    H32      H        0.21400    0.54490    0.23510    1.000
    C57      C        0.21073    0.68420    0.18760    1.000
    H33      H        0.23350    0.68350    0.16440    1.000
    C58      C        0.29309    0.04460    0.83630    1.000
    H34      H        0.29920    0.98900    0.80430    1.000
    C59      C        0.23431    0.89040    0.12280    1.000
    H35      H        0.25200    0.85840    0.15370    1.000
    C60      C        0.14760    0.54960    0.03290    1.000
    H36      H        0.16740    0.55630    0.99820    1.000
    C61      C        0.11053    0.45060    0.12250    1.000
    H37      H        0.10550    0.38960    0.14810    1.000
    C62      C        0.40870    0.18320    0.76150    1.000
    H38      H        0.42640    0.22970    0.77360    1.000
    C63      C        0.17025    0.29800    0.11040    1.000
    H39      H        0.16170    0.30550    0.16460    1.000
    C64      C        0.21774    0.02500    0.03310    1.000
    C65      C        0.19070    0.21560    0.09100    1.000
    H40      H        0.19600    0.16860    0.13220    1.000
    C66      C        0.45190    0.09180    0.66920    1.000
    C67      C        0.07140    0.71260    0.11290    1.000
    C68      C        0.15730    0.76490    0.21810    1.000
    H41      H        0.14260    0.82090    0.21440    1.000
    C69      C        0.16650    0.60010    0.26990    1.000
    C70      C        0.17494    0.35780    0.97150    1.000
    H42      H        0.16980    0.40500    0.93050    1.000
    C71      C        0.37571    0.19050    0.79890    1.000
    H43      H        0.37120    0.24420    0.83440    1.000
    C72      C        0.14590    0.68530    0.26320    1.000
    H44      H        0.12390    0.68810    0.28990    1.000
    C73      C        0.18213    0.98570    0.03270    1.000
    H45      H        0.16420    0.01710    0.00230    1.000
    C74      C        0.17538    0.90300    0.07690    1.000
    H46      H        0.15230    0.87720    0.07490    1.000
    C75      C        0.38910    0.03950    0.68930    1.000
    H47      H        0.39270    0.98820    0.65080    1.000
    C76      C        0.15590    0.50740    0.31450    1.000
    C77      C        0.24298    0.97370    0.07590    1.000
    H48      H        0.26660    0.99490    0.07360    1.000
    C78      C        0.35677    0.04910    0.73080    1.000
    H49      H        0.33890    0.00230    0.72000    1.000
    O7       O        0.08101    0.79820    0.09060    1.000
    O8       O        0.04177    0.69840    0.15110    1.000
    O9       O        0.45701    0.01620    0.62240    1.000
    O10      O        0.47527    0.15890    0.68110    1.000
    O11      O        0.12462    0.52370    0.35250    1.000
    H50      H        0.11800    0.47200    0.37550    1.000
    O12      O        0.17116    0.43180    0.31730    1.000
    N2       N        0.22443    0.11680    0.98940    1.000
    Mn3      Mn       0.47164    0.86403    0.63880    1.000
    C79      C        0.24608    0.12290    0.43520    1.000
    C80      C        0.18552    0.12750    0.33410    1.000
    C81      C        0.30996    0.76720    0.67690    1.000
    C82      C        0.33798    0.37110    0.55000    1.000
    C83      C        0.30019    0.85360    0.62480    1.000
    C84      C        0.23760    0.04090    0.38500    1.000
    H51      H        0.25230    0.98460    0.38400    1.000
    C85      C        0.19410    0.20810    0.38280    1.000
    H52      H        0.17950    0.26460    0.38240    1.000
    C86      C        0.30355    0.27230    0.45050    1.000
    H53      H        0.29460    0.26510    0.39660    1.000
    C87      C        0.37470    0.63280    0.54740    1.000
    H54      H        0.36930    0.69440    0.52320    1.000
    C88      C        0.35966    0.45830    0.56960    1.000
    C89      C        0.08485    0.10660    0.20610    1.000
    C90      C        0.14999    0.12260    0.28580    1.000
    C91      C        0.40511    0.62360    0.59790    1.000
    C92      C        0.22439    0.20640    0.43270    1.000
    H55      H        0.23010    0.26220    0.46490    1.000
    C93      C        0.29637    0.20200    0.50970    1.000
    C94      C        0.41154    0.53210    0.63750    1.000
    H56      H        0.43070    0.52580    0.67400    1.000
    C95      C        0.30070    0.60100    0.73150    1.000
    H57      H        0.28600    0.54490    0.73510    1.000
    C96      C        0.28927    0.68420    0.68760    1.000
    H58      H        0.26650    0.68350    0.66440    1.000
    C97      C        0.20691    0.04460    0.33630    1.000
    H59      H        0.20080    0.98900    0.30430    1.000
    C98      C        0.26569    0.89040    0.62280    1.000
    H60      H        0.24800    0.85840    0.65370    1.000
    C99      C        0.35240    0.54960    0.53290    1.000
    H61      H        0.33260    0.55630    0.49820    1.000
    C100     C        0.38947    0.45060    0.62250    1.000
    H62      H        0.39450    0.38960    0.64810    1.000
    C101     C        0.09130    0.18320    0.26150    1.000
    H63      H        0.07360    0.22970    0.27360    1.000
    C102     C        0.32975    0.29800    0.61040    1.000
    H64      H        0.33830    0.30550    0.66460    1.000
    C103     C        0.28226    0.02500    0.53310    1.000
    C104     C        0.30930    0.21560    0.59100    1.000
    H65      H        0.30400    0.16860    0.63220    1.000
    C105     C        0.04810    0.09180    0.16920    1.000
    C106     C        0.42860    0.71260    0.61290    1.000
    C107     C        0.34270    0.76490    0.71810    1.000
    H66      H        0.35740    0.82090    0.71440    1.000
    C108     C        0.33350    0.60010    0.76990    1.000
    C109     C        0.32506    0.35780    0.47150    1.000
    H67      H        0.33020    0.40500    0.43050    1.000
    C110     C        0.12429    0.19050    0.29890    1.000
    H68      H        0.12880    0.24420    0.33440    1.000
    C111     C        0.35410    0.68530    0.76320    1.000
    H69      H        0.37610    0.68810    0.78990    1.000
    C112     C        0.31787    0.98570    0.53270    1.000
    H70      H        0.33580    0.01710    0.50230    1.000
    C113     C        0.32462    0.90300    0.57690    1.000
    H71      H        0.34770    0.87720    0.57490    1.000
    C114     C        0.11090    0.03950    0.18930    1.000
    H72      H        0.10730    0.98820    0.15080    1.000
    C115     C        0.34410    0.50740    0.81450    1.000
    C116     C        0.25702    0.97370    0.57590    1.000
    H73      H        0.23340    0.99490    0.57360    1.000
    C117     C        0.14323    0.04910    0.23080    1.000
    H74      H        0.16110    0.00230    0.22000    1.000
    O13      O        0.41899    0.79820    0.59060    1.000
    O14      O        0.45823    0.69840    0.65110    1.000
    O15      O        0.04299    0.01620    0.12240    1.000
    O16      O        0.02473    0.15890    0.18110    1.000
    O17      O        0.37538    0.52370    0.85250    1.000
    H75      H        0.38200    0.47200    0.87550    1.000
    O18      O        0.32884    0.43180    0.81730    1.000
    N3       N        0.27557    0.11680    0.48940    1.000
    Mn4      Mn       0.52836    0.13597    0.63880    1.000
    C118     C        0.75392    0.87710    0.43520    1.000
    C119     C        0.81448    0.87250    0.33410    1.000
    C120     C        0.69004    0.23280    0.67690    1.000
    C121     C        0.66202    0.62890    0.55000    1.000
    C122     C        0.69981    0.14640    0.62480    1.000
    C123     C        0.76240    0.95910    0.38500    1.000
    H76      H        0.74770    0.01540    0.38400    1.000
    C124     C        0.80590    0.79190    0.38280    1.000
    H77      H        0.82050    0.73540    0.38240    1.000
    C125     C        0.69645    0.72770    0.45050    1.000
    H78      H        0.70540    0.73490    0.39660    1.000
    C126     C        0.62530    0.36720    0.54740    1.000
    H79      H        0.63070    0.30560    0.52320    1.000
    C127     C        0.64034    0.54170    0.56960    1.000
    C128     C        0.91515    0.89340    0.20610    1.000
    C129     C        0.85001    0.87740    0.28580    1.000
    C130     C        0.59489    0.37640    0.59790    1.000
    C131     C        0.77561    0.79360    0.43270    1.000
    H80      H        0.76990    0.73780    0.46490    1.000
    C132     C        0.70363    0.79800    0.50970    1.000
    C133     C        0.58846    0.46790    0.63750    1.000
    H81      H        0.56930    0.47420    0.67400    1.000
    C134     C        0.69930    0.39900    0.73150    1.000
    H82      H        0.71400    0.45510    0.73510    1.000
    C135     C        0.71073    0.31580    0.68760    1.000
    H83      H        0.73350    0.31650    0.66440    1.000
    C136     C        0.79309    0.95540    0.33630    1.000
    H84      H        0.79920    0.01100    0.30430    1.000
    C137     C        0.73431    0.10960    0.62280    1.000
    H85      H        0.75200    0.14160    0.65370    1.000
    C138     C        0.64760    0.45040    0.53290    1.000
    H86      H        0.66740    0.44370    0.49820    1.000
    C139     C        0.61053    0.54940    0.62250    1.000
    H87      H        0.60550    0.61040    0.64810    1.000
    C140     C        0.90870    0.81680    0.26150    1.000
    H88      H        0.92640    0.77030    0.27360    1.000
    C141     C        0.67025    0.70200    0.61040    1.000
    H89      H        0.66170    0.69450    0.66460    1.000
    C142     C        0.71774    0.97500    0.53310    1.000
    C143     C        0.69070    0.78440    0.59100    1.000
    H90      H        0.69600    0.83140    0.63220    1.000
    C144     C        0.95190    0.90820    0.16920    1.000
    C145     C        0.57140    0.28740    0.61290    1.000
    C146     C        0.65730    0.23510    0.71810    1.000
    H91      H        0.64260    0.17910    0.71440    1.000
    C147     C        0.66650    0.39990    0.76990    1.000
    C148     C        0.67494    0.64220    0.47150    1.000
    H92      H        0.66980    0.59500    0.43050    1.000
    C149     C        0.87571    0.80950    0.29890    1.000
    H93      H        0.87120    0.75580    0.33440    1.000
    C150     C        0.64590    0.31470    0.76320    1.000
    H94      H        0.62390    0.31190    0.78990    1.000
    C151     C        0.68213    0.01430    0.53270    1.000
    H95      H        0.66420    0.98290    0.50230    1.000
    C152     C        0.67538    0.09700    0.57690    1.000
    H96      H        0.65230    0.12280    0.57490    1.000
    C153     C        0.88910    0.96050    0.18930    1.000
    H97      H        0.89270    0.01180    0.15080    1.000
    C154     C        0.65590    0.49260    0.81450    1.000
    C155     C        0.74298    0.02630    0.57590    1.000
    H98      H        0.76660    0.00510    0.57360    1.000
    C156     C        0.85677    0.95090    0.23080    1.000
    H99      H        0.83890    0.99770    0.22000    1.000
    O19      O        0.58101    0.20180    0.59060    1.000
    O20      O        0.54177    0.30160    0.65110    1.000
    O21      O        0.95701    0.98380    0.12240    1.000
    O22      O        0.97527    0.84110    0.18110    1.000
    O23      O        0.62462    0.47630    0.85250    1.000
    H100     H        0.61800    0.52800    0.87550    1.000
    O24      O        0.67116    0.56820    0.81730    1.000
    N4       N        0.72443    0.88320    0.48940    1.000
    Mn5      Mn       0.97164    0.63597    0.63880    1.000
    C157     C        0.74608    0.37710    0.43520    1.000
    C158     C        0.68552    0.37250    0.33410    1.000
    C159     C        0.80996    0.73280    0.67690    1.000
    C160     C        0.83798    0.12890    0.55000    1.000
    C161     C        0.80019    0.64640    0.62480    1.000
    C162     C        0.73760    0.45910    0.38500    1.000
    H101     H        0.75230    0.51540    0.38400    1.000
    C163     C        0.69410    0.29190    0.38280    1.000
    H102     H        0.67950    0.23540    0.38240    1.000
    C164     C        0.80355    0.22770    0.45050    1.000
    H103     H        0.79460    0.23490    0.39660    1.000
    C165     C        0.87470    0.86720    0.54740    1.000
    H104     H        0.86930    0.80560    0.52320    1.000
    C166     C        0.85966    0.04170    0.56960    1.000
    C167     C        0.58485    0.39340    0.20610    1.000
    C168     C        0.64999    0.37740    0.28580    1.000
    C169     C        0.90511    0.87640    0.59790    1.000
    C170     C        0.72439    0.29360    0.43270    1.000
    H105     H        0.73010    0.23780    0.46490    1.000
    C171     C        0.79637    0.29800    0.50970    1.000
    C172     C        0.91154    0.96790    0.63750    1.000
    H106     H        0.93070    0.97420    0.67400    1.000
    C173     C        0.80070    0.89900    0.73150    1.000
    H107     H        0.78600    0.95510    0.73510    1.000
    C174     C        0.78927    0.81580    0.68760    1.000
    H108     H        0.76650    0.81650    0.66440    1.000
    C175     C        0.70691    0.45540    0.33630    1.000
    H109     H        0.70080    0.51100    0.30430    1.000
    C176     C        0.76569    0.60960    0.62280    1.000
    H110     H        0.74800    0.64160    0.65370    1.000
    C177     C        0.85240    0.95040    0.53290    1.000
    H111     H        0.83260    0.94370    0.49820    1.000
    C178     C        0.88947    0.04940    0.62250    1.000
    H112     H        0.89450    0.11040    0.64810    1.000
    C179     C        0.59130    0.31680    0.26150    1.000
    H113     H        0.57360    0.27030    0.27360    1.000
    C180     C        0.82975    0.20200    0.61040    1.000
    H114     H        0.83830    0.19450    0.66460    1.000
    C181     C        0.78226    0.47500    0.53310    1.000
    C182     C        0.80930    0.28440    0.59100    1.000
    H115     H        0.80400    0.33140    0.63220    1.000
    C183     C        0.54810    0.40820    0.16920    1.000
    C184     C        0.92860    0.78740    0.61290    1.000
    C185     C        0.84270    0.73510    0.71810    1.000
    H116     H        0.85740    0.67910    0.71440    1.000
    C186     C        0.83350    0.89990    0.76990    1.000
    C187     C        0.82506    0.14220    0.47150    1.000
    H117     H        0.83020    0.09500    0.43050    1.000
    C188     C        0.62429    0.30950    0.29890    1.000
    H118     H        0.62880    0.25580    0.33440    1.000
    C189     C        0.85410    0.81470    0.76320    1.000
    H119     H        0.87610    0.81190    0.78990    1.000
    C190     C        0.81787    0.51430    0.53270    1.000
    H120     H        0.83580    0.48290    0.50230    1.000
    C191     C        0.82462    0.59700    0.57690    1.000
    H121     H        0.84770    0.62280    0.57490    1.000
    C192     C        0.61090    0.46050    0.18930    1.000
    H122     H        0.60730    0.51180    0.15080    1.000
    C193     C        0.84410    0.99260    0.81450    1.000
    C194     C        0.75702    0.52630    0.57590    1.000
    H123     H        0.73340    0.50510    0.57360    1.000
    C195     C        0.64323    0.45090    0.23080    1.000
    H124     H        0.66110    0.49770    0.22000    1.000
    O25      O        0.91899    0.70180    0.59060    1.000
    O26      O        0.95823    0.80160    0.65110    1.000
    O27      O        0.54299    0.48380    0.12240    1.000
    O28      O        0.52473    0.34110    0.18110    1.000
    O29      O        0.87538    0.97630    0.85250    1.000
    H125     H        0.88200    0.02800    0.87550    1.000
    O30      O        0.82884    0.06820    0.81730    1.000
    N5       N        0.77557    0.38320    0.48940    1.000
    Mn6      Mn       0.02836    0.36403    0.63880    1.000
    C196     C        0.25392    0.62290    0.43520    1.000
    C197     C        0.31448    0.62750    0.33410    1.000
    C198     C        0.19004    0.26720    0.67690    1.000
    C199     C        0.16202    0.87110    0.55000    1.000
    C200     C        0.19981    0.35360    0.62480    1.000
    C201     C        0.26240    0.54090    0.38500    1.000
    H126     H        0.24770    0.48460    0.38400    1.000
    C202     C        0.30590    0.70810    0.38280    1.000
    H127     H        0.32050    0.76460    0.38240    1.000
    C203     C        0.19645    0.77230    0.45050    1.000
    H128     H        0.20540    0.76510    0.39660    1.000
    C204     C        0.12530    0.13280    0.54740    1.000
    H129     H        0.13070    0.19440    0.52320    1.000
    C205     C        0.14034    0.95830    0.56960    1.000
    C206     C        0.41515    0.60660    0.20610    1.000
    C207     C        0.35001    0.62260    0.28580    1.000
    C208     C        0.09489    0.12360    0.59790    1.000
    C209     C        0.27561    0.70640    0.43270    1.000
    H130     H        0.26990    0.76220    0.46490    1.000
    C210     C        0.20363    0.70200    0.50970    1.000
    C211     C        0.08846    0.03210    0.63750    1.000
    H131     H        0.06930    0.02580    0.67400    1.000
    C212     C        0.19930    0.10100    0.73150    1.000
    H132     H        0.21400    0.04490    0.73510    1.000
    C213     C        0.21073    0.18420    0.68760    1.000
    H133     H        0.23350    0.18350    0.66440    1.000
    C214     C        0.29309    0.54460    0.33630    1.000
    H134     H        0.29920    0.48900    0.30430    1.000
    C215     C        0.23431    0.39040    0.62280    1.000
    H135     H        0.25200    0.35840    0.65370    1.000
    C216     C        0.14760    0.04960    0.53290    1.000
    H136     H        0.16740    0.05630    0.49820    1.000
    C217     C        0.11053    0.95060    0.62250    1.000
    H137     H        0.10550    0.88960    0.64810    1.000
    C218     C        0.40870    0.68320    0.26150    1.000
    H138     H        0.42640    0.72970    0.27360    1.000
    C219     C        0.17025    0.79800    0.61040    1.000
    H139     H        0.16170    0.80550    0.66460    1.000
    C220     C        0.21774    0.52500    0.53310    1.000
    C221     C        0.19070    0.71560    0.59100    1.000
    H140     H        0.19600    0.66860    0.63220    1.000
    C222     C        0.45190    0.59180    0.16920    1.000
    C223     C        0.07140    0.21260    0.61290    1.000
    C224     C        0.15730    0.26490    0.71810    1.000
    H141     H        0.14260    0.32090    0.71440    1.000
    C225     C        0.16650    0.10010    0.76990    1.000
    C226     C        0.17494    0.85780    0.47150    1.000
    H142     H        0.16980    0.90500    0.43050    1.000
    C227     C        0.37571    0.69050    0.29890    1.000
    H143     H        0.37120    0.74420    0.33440    1.000
    C228     C        0.14590    0.18530    0.76320    1.000
    H144     H        0.12390    0.18810    0.78990    1.000
    C229     C        0.18213    0.48570    0.53270    1.000
    H145     H        0.16420    0.51710    0.50230    1.000
    C230     C        0.17538    0.40300    0.57690    1.000
    H146     H        0.15230    0.37720    0.57490    1.000
    C231     C        0.38910    0.53950    0.18930    1.000
    H147     H        0.39270    0.48820    0.15080    1.000
    C232     C        0.15590    0.00740    0.81450    1.000
    C233     C        0.24298    0.47370    0.57590    1.000
    H148     H        0.26660    0.49490    0.57360    1.000
    C234     C        0.35677    0.54910    0.23080    1.000
    H149     H        0.33890    0.50230    0.22000    1.000
    O31      O        0.08101    0.29820    0.59060    1.000
    O32      O        0.04177    0.19840    0.65110    1.000
    O33      O        0.45701    0.51620    0.12240    1.000
    O34      O        0.47527    0.65890    0.18110    1.000
    O35      O        0.12462    0.02370    0.85250    1.000
    H150     H        0.11800    0.97200    0.87550    1.000
    O36      O        0.17116    0.93180    0.81730    1.000
    N6       N        0.22443    0.61680    0.48940    1.000
    Mn7      Mn       0.47164    0.36403    0.13880    1.000
    C235     C        0.24608    0.62290    0.93520    1.000
    C236     C        0.18552    0.62750    0.83410    1.000
    C237     C        0.30996    0.26720    0.17690    1.000
    C238     C        0.33798    0.87110    0.05000    1.000
    C239     C        0.30019    0.35360    0.12480    1.000
    C240     C        0.23760    0.54090    0.88500    1.000
    H151     H        0.25230    0.48460    0.88400    1.000
    C241     C        0.19410    0.70810    0.88280    1.000
    H152     H        0.17950    0.76460    0.88240    1.000
    C242     C        0.30355    0.77230    0.95050    1.000
    H153     H        0.29460    0.76510    0.89660    1.000
    C243     C        0.37470    0.13280    0.04740    1.000
    H154     H        0.36930    0.19440    0.02320    1.000
    C244     C        0.35966    0.95830    0.06960    1.000
    C245     C        0.08485    0.60660    0.70610    1.000
    C246     C        0.14999    0.62260    0.78580    1.000
    C247     C        0.40511    0.12360    0.09790    1.000
    C248     C        0.22439    0.70640    0.93270    1.000
    H155     H        0.23010    0.76220    0.96490    1.000
    C249     C        0.29637    0.70200    0.00970    1.000
    C250     C        0.41154    0.03210    0.13750    1.000
    H156     H        0.43070    0.02580    0.17400    1.000
    C251     C        0.30070    0.10100    0.23150    1.000
    H157     H        0.28600    0.04490    0.23510    1.000
    C252     C        0.28927    0.18420    0.18760    1.000
    H158     H        0.26650    0.18350    0.16440    1.000
    C253     C        0.20691    0.54460    0.83630    1.000
    H159     H        0.20080    0.48900    0.80430    1.000
    C254     C        0.26569    0.39040    0.12280    1.000
    H160     H        0.24800    0.35840    0.15370    1.000
    C255     C        0.35240    0.04960    0.03290    1.000
    H161     H        0.33260    0.05630    0.99820    1.000
    C256     C        0.38947    0.95060    0.12250    1.000
    H162     H        0.39450    0.88960    0.14810    1.000
    C257     C        0.09130    0.68320    0.76150    1.000
    H163     H        0.07360    0.72970    0.77360    1.000
    C258     C        0.32975    0.79800    0.11040    1.000
    H164     H        0.33830    0.80550    0.16460    1.000
    C259     C        0.28226    0.52500    0.03310    1.000
    C260     C        0.30930    0.71560    0.09100    1.000
    H165     H        0.30400    0.66860    0.13220    1.000
    C261     C        0.04810    0.59180    0.66920    1.000
    C262     C        0.42860    0.21260    0.11290    1.000
    C263     C        0.34270    0.26490    0.21810    1.000
    H166     H        0.35740    0.32090    0.21440    1.000
    C264     C        0.33350    0.10010    0.26990    1.000
    C265     C        0.32506    0.85780    0.97150    1.000
    H167     H        0.33020    0.90500    0.93050    1.000
    C266     C        0.12429    0.69050    0.79890    1.000
    H168     H        0.12880    0.74420    0.83440    1.000
    C267     C        0.35410    0.18530    0.26320    1.000
    H169     H        0.37610    0.18810    0.28990    1.000
    C268     C        0.31787    0.48570    0.03270    1.000
    H170     H        0.33580    0.51710    0.00230    1.000
    C269     C        0.32462    0.40300    0.07690    1.000
    H171     H        0.34770    0.37720    0.07490    1.000
    C270     C        0.11090    0.53950    0.68930    1.000
    H172     H        0.10730    0.48820    0.65080    1.000
    C271     C        0.34410    0.00740    0.31450    1.000
    C272     C        0.25702    0.47370    0.07590    1.000
    H173     H        0.23340    0.49490    0.07360    1.000
    C273     C        0.14323    0.54910    0.73080    1.000
    H174     H        0.16110    0.50230    0.72000    1.000
    O37      O        0.41899    0.29820    0.09060    1.000
    O38      O        0.45823    0.19840    0.15110    1.000
    O39      O        0.04299    0.51620    0.62240    1.000
    O40      O        0.02473    0.65890    0.68110    1.000
    O41      O        0.37538    0.02370    0.35250    1.000
    H175     H        0.38200    0.97200    0.37550    1.000
    O42      O        0.32884    0.93180    0.31730    1.000
    N7       N        0.27557    0.61680    0.98940    1.000
    Mn8      Mn       0.52836    0.63597    0.13880    1.000
    C274     C        0.75392    0.37710    0.93520    1.000
    C275     C        0.81448    0.37250    0.83410    1.000
    C276     C        0.69004    0.73280    0.17690    1.000
    C277     C        0.66202    0.12890    0.05000    1.000
    C278     C        0.69981    0.64640    0.12480    1.000
    C279     C        0.76240    0.45910    0.88500    1.000
    H176     H        0.74770    0.51540    0.88400    1.000
    C280     C        0.80590    0.29190    0.88280    1.000
    H177     H        0.82050    0.23540    0.88240    1.000
    C281     C        0.69645    0.22770    0.95050    1.000
    H178     H        0.70540    0.23490    0.89660    1.000
    C282     C        0.62530    0.86720    0.04740    1.000
    H179     H        0.63070    0.80560    0.02320    1.000
    C283     C        0.64034    0.04170    0.06960    1.000
    C284     C        0.91515    0.39340    0.70610    1.000
    C285     C        0.85001    0.37740    0.78580    1.000
    C286     C        0.59489    0.87640    0.09790    1.000
    C287     C        0.77561    0.29360    0.93270    1.000
    H180     H        0.76990    0.23780    0.96490    1.000
    C288     C        0.70363    0.29800    0.00970    1.000
    C289     C        0.58846    0.96790    0.13750    1.000
    H181     H        0.56930    0.97420    0.17400    1.000
    C290     C        0.69930    0.89900    0.23150    1.000
    H182     H        0.71400    0.95510    0.23510    1.000
    C291     C        0.71073    0.81580    0.18760    1.000
    H183     H        0.73350    0.81650    0.16440    1.000
    C292     C        0.79309    0.45540    0.83630    1.000
    H184     H        0.79920    0.51100    0.80430    1.000
    C293     C        0.73431    0.60960    0.12280    1.000
    H185     H        0.75200    0.64160    0.15370    1.000
    C294     C        0.64760    0.95040    0.03290    1.000
    H186     H        0.66740    0.94370    0.99820    1.000
    C295     C        0.61053    0.04940    0.12250    1.000
    H187     H        0.60550    0.11040    0.14810    1.000
    C296     C        0.90870    0.31680    0.76150    1.000
    H188     H        0.92640    0.27030    0.77360    1.000
    C297     C        0.67025    0.20200    0.11040    1.000
    H189     H        0.66170    0.19450    0.16460    1.000
    C298     C        0.71774    0.47500    0.03310    1.000
    C299     C        0.69070    0.28440    0.09100    1.000
    H190     H        0.69600    0.33140    0.13220    1.000
    C300     C        0.95190    0.40820    0.66920    1.000
    C301     C        0.57140    0.78740    0.11290    1.000
    C302     C        0.65730    0.73510    0.21810    1.000
    H191     H        0.64260    0.67910    0.21440    1.000
    C303     C        0.66650    0.89990    0.26990    1.000
    C304     C        0.67494    0.14220    0.97150    1.000
    H192     H        0.66980    0.09500    0.93050    1.000
    C305     C        0.87571    0.30950    0.79890    1.000
    H193     H        0.87120    0.25580    0.83440    1.000
    C306     C        0.64590    0.81470    0.26320    1.000
    H194     H        0.62390    0.81190    0.28990    1.000
    C307     C        0.68213    0.51430    0.03270    1.000
    H195     H        0.66420    0.48290    0.00230    1.000
    C308     C        0.67538    0.59700    0.07690    1.000
    H196     H        0.65230    0.62280    0.07490    1.000
    C309     C        0.88910    0.46050    0.68930    1.000
    H197     H        0.89270    0.51180    0.65080    1.000
    C310     C        0.65590    0.99260    0.31450    1.000
    C311     C        0.74298    0.52630    0.07590    1.000
    H198     H        0.76660    0.50510    0.07360    1.000
    C312     C        0.85677    0.45090    0.73080    1.000
    H199     H        0.83890    0.49770    0.72000    1.000
    O43      O        0.58101    0.70180    0.09060    1.000
    O44      O        0.54177    0.80160    0.15110    1.000
    O45      O        0.95701    0.48380    0.62240    1.000
    O46      O        0.97527    0.34110    0.68110    1.000
    O47      O        0.62462    0.97630    0.35250    1.000
    H200     H        0.61800    0.02800    0.37550    1.000
    O48      O        0.67116    0.06820    0.31730    1.000
    N8       N        0.72443    0.38320    0.98940    1.000
