data_functionalizedCrystal
_audit_creation_method	'EQeq! by Chris Wilmer'
_symmetry_space_group_name_H-M	'P1'
_symmetry_Int_Tables_number	1
_symmetry_cell_setting	triclinic
loop_
_symmetry_equiv_pos_as_xyz
  x,y,z
_cell_length_a	11.4539
_cell_length_b	11.727
_cell_length_c	14.1389
_cell_angle_alpha	112.657
_cell_angle_beta	90
_cell_angle_gamma	119.232
loop_
_atom_site_label
_atom_site_type_symbol
_atom_site_fract_x
_atom_site_fract_y
_atom_site_fract_z
_atom_site_charge
Mof_Co	Co	0.01439	-7.64502e-17	0.75	1.129
Mof_Co	Co	0.98561	0	0.25	1.127
Mof_H 	H 	0.1631	0.7006	0.6482	0.052
Mof_H 	H 	0.2078	0.5246	0.5475	0.053
Mof_H 	H 	0.9484	0.161	0.9645	0.039
Mof_H 	H 	0.8028	0.743	0.8044	0.028
Mof_H 	H 	0.6983	0.775	0.9556	0.049
Mof_H 	H 	0.7611	0.0246	0.1345	0.052
Mof_H 	H 	0.8331	0.1676	0.1188	0.066
Mof_H 	H 	0.5133	0.854	0.0658	0.002
Mof_H 	H 	0.301	0.7986	0.9935	0.116
Mof_H 	H 	0.4625	0.2994	0.8518	0.044
Mof_H 	H 	0.6832	0.4754	0.9525	0.052
Mof_H 	H 	0.7874	0.839	0.5355	-0.028
Mof_H 	H 	0.0598	0.257	0.6956	0.031
Mof_H 	H 	0.9233	0.225	0.5444	0.04
Mof_H 	H 	0.7365	0.9754	0.3655	0.112
Mof_H 	H 	0.6655	0.8324	0.3812	0.09
Mof_H 	H 	0.6593	0.146	0.4342	0.123
Mof_H 	H 	0.5024	0.2014	0.5065	0.002
Mof_H 	H 	0.8369	0.2994	0.3518	0.046
Mof_H 	H 	0.7922	0.4754	0.4525	0.051
Mof_H 	H 	0.0516	0.839	0.0355	-0.026
Mof_H 	H 	0.1972	0.257	0.1956	0.027
Mof_H 	H 	0.3017	0.225	0.0444	0.041
Mof_H 	H 	0.2389	0.9754	0.8655	0.112
Mof_H 	H 	0.1669	0.8324	0.8812	0.09
Mof_H 	H 	0.4867	0.146	0.9342	0.121
Mof_H 	H 	0.699	0.2014	0.0065	0.004
Mof_H 	H 	0.5375	0.7006	0.1482	0.054
Mof_H 	H 	0.3168	0.5246	0.0475	0.053
Mof_H 	H 	0.2126	0.161	0.4645	0.041
Mof_H 	H 	0.9402	0.743	0.3044	0.021
Mof_H 	H 	0.0767	0.775	0.4556	0.051
Mof_H 	H 	0.2635	0.0246	0.6345	0.05
Mof_H 	H 	0.3345	0.1676	0.6188	0.066
Mof_H 	H 	0.3407	0.854	0.5658	-0.001
Mof_H 	H 	0.4976	0.7986	0.4935	0.119
Mof_C 	C 	0.94702	0.72424	0.62391	0.304
Mof_C 	C 	0.97316	0.60632	0.56092	-0.063
Mof_C 	C 	0.09737	0.61974	0.58849	-0.019
Mof_C 	C 	0.12446	0.51452	0.52829	-0.029
Mof_C 	C 	0.89966	0.06096	0.94304	-0.032
Mof_C 	C 	0.81918	0.83136	0.85548	0.013
Mof_C 	C 	0.76132	0.84824	0.93897	-0.003
Mof_C 	C 	0.76725	0.0633	0.08389	-0.111
Mof_C 	C 	0.62796	0.03332	0.04424	-0.098
Mof_C 	C 	0.50821	0.91322	0.0394	0.13
Mof_C 	C 	0.38071	0.87962	0.9958	-0.222
Mof_C 	C 	0.22278	0.27576	0.87609	0.315
Mof_C 	C 	0.36684	0.39368	0.93908	-0.065
Mof_C 	C 	0.47763	0.38026	0.91151	-0.024
Mof_C 	C 	0.60994	0.48548	0.97171	-0.029
Mof_C 	C 	0.8387	0.93904	0.55696	0.199
Mof_C 	C 	0.98782	0.16864	0.64452	-0.002
Mof_C 	C 	0.91308	0.15176	0.56103	-0.017
Mof_C 	C 	0.70395	0.9367	0.41611	-0.176
Mof_C 	C 	0.59464	0.96668	0.45576	0.249
Mof_C 	C 	0.59499	0.08678	0.4606	-0.286
Mof_C 	C 	0.50109	0.12038	0.5042	0.088
Mof_C 	C 	0.05298	0.27576	0.37609	0.318
Mof_C 	C 	0.02684	0.39368	0.43908	-0.06
Mof_C 	C 	0.90263	0.38026	0.41151	-0.031
Mof_C 	C 	0.87554	0.48548	0.47171	-0.028
Mof_C 	C 	0.10034	0.93904	0.05696	0.197
Mof_C 	C 	0.18082	0.16864	0.14452	0.004
Mof_C 	C 	0.23868	0.15176	0.06103	-0.019
Mof_C 	C 	0.23275	0.9367	0.91611	-0.173
Mof_C 	C 	0.37204	0.96668	0.95576	0.243
Mof_C 	C 	0.49179	0.08678	0.9606	-0.278
Mof_C 	C 	0.61929	0.12038	0.0042	0.08
Mof_C 	C 	0.77722	0.72424	0.12391	0.307
Mof_C 	C 	0.63316	0.60632	0.06092	-0.06
Mof_C 	C 	0.52237	0.61974	0.08849	-0.026
Mof_C 	C 	0.39006	0.51452	0.02829	-0.027
Mof_C 	C 	0.1613	0.06096	0.44304	-0.032
Mof_C 	C 	0.01218	0.83136	0.35548	0.025
Mof_C 	C 	0.08692	0.84824	0.43897	-0.008
Mof_C 	C 	0.29605	0.0633	0.58389	-0.105
Mof_C 	C 	0.40536	0.03332	0.54424	-0.105
Mof_C 	C 	0.40501	0.91322	0.5394	0.142
Mof_C 	C 	0.49891	0.87962	0.4958	-0.231
Mof_N 	N 	0.90621	0.96534	0.85771	-0.198
Mof_N 	N 	0.81343	0.99416	0.99424	-0.047
Mof_N 	N 	0.94087	0.03466	0.64229	-0.295
Mof_N 	N 	0.81927	0.00584	0.50576	-0.159
Mof_N 	N 	0.09379	0.03466	0.14229	-0.293
Mof_N 	N 	0.18657	0.00584	0.00576	-0.157
Mof_N 	N 	0.05913	0.96534	0.35771	-0.198
Mof_N 	N 	0.18073	0.99416	0.49424	-0.047
Mof_O 	O 	0.05311	0.84476	0.6869	-0.406
Mof_O 	O 	0.83009	0.70252	0.61086	-0.304
Mof_O 	O 	0.20835	0.15524	0.8131	-0.447
Mof_O 	O 	0.12757	0.29748	0.88914	-0.317
Mof_O 	O 	0.94689	0.15524	0.3131	-0.451
Mof_O 	O 	0.16991	0.29748	0.38914	-0.318
Mof_O 	O 	0.79165	0.84476	0.1869	-0.41
Mof_O 	O 	0.87243	0.70252	0.11086	-0.307
_end
