data_functionalizedCrystal
_audit_creation_method	'EQeq! by Chris Wilmer'
_symmetry_space_group_name_H-M	'P1'
_symmetry_Int_Tables_number	1
_symmetry_cell_setting	triclinic
loop_
_symmetry_equiv_pos_as_xyz
  x,y,z
_cell_length_a	9.4491
_cell_length_b	10.0762
_cell_length_c	11.5763
_cell_angle_alpha	73.093
_cell_angle_beta	89.597
_cell_angle_gamma	80.097
loop_
_atom_site_label
_atom_site_type_symbol
_atom_site_fract_x
_atom_site_fract_y
_atom_site_fract_z
_atom_site_charge
Mof_Mn	Mn	0.00947	0.08932	0.16786	0.904
Mof_O 	O 	0.0326	0.21219	0.41233	-0.361
Mof_O 	O 	0.9812	0.285	0.21232	-0.254
Mof_O 	O 	0.0697	0.8989	0.12465	-0.337
Mof_O 	O 	0.9913	0.777	0.01132	-0.272
Mof_O 	O 	0.0211	0.54476	0.19814	-0.158
Mof_O 	O 	0.10431	0.0118	0.66595	-0.47
Mof_O 	O 	0.2381	0.9186	0.8341	-0.308
Mof_O 	O 	0.772	0.9507	0.75945	-0.313
Mof_O 	O 	0.80125	0.0827	0.5707	-0.342
Mof_O 	O 	0.4806	0.9978	0.71107	-0.102
Mof_C 	C 	0.019	0.3012	0.3111	0.281
Mof_C 	C 	0.0493	0.442	0.3062	0.04
Mof_C 	C 	0.096	0.4953	0.3898	-0.049
Mof_H 	H 	0.1234	0.4457	0.4719	0.056
Mof_C 	C 	0.0962	0.6407	0.331	-0.042
Mof_H 	H 	0.1231	0.7071	0.3666	0.064
Mof_C 	C 	0.0513	0.6658	0.2156	0.035
Mof_C 	C 	0.0345	0.7909	0.1095	0.301
Mof_C 	C 	0.2235	0.9864	0.7249	0.386
Mof_C 	C 	0.3441	0.0456	0.658	-0.044
Mof_C 	C 	0.3456	0.1415	0.5503	-0.009
Mof_H 	H 	0.2652	0.1903	0.4968	0.049
Mof_C 	C 	0.4906	0.1552	0.5323	-0.045
Mof_H 	H 	0.5264	0.2157	0.4636	0.069
Mof_C 	C 	0.5691	0.0677	0.6291	0.009
Mof_C 	C 	0.7271	0.03	0.6565	0.315
Mof_Mn	Mn	0.99053	0.91068	0.83214	1.054
Mof_O 	O 	0.9674	0.78781	0.58767	-0.352
Mof_O 	O 	0.0188	0.715	0.78768	-0.367
Mof_O 	O 	0.9303	0.1011	0.87535	-0.384
Mof_O 	O 	0.0087	0.223	0.98868	-0.358
Mof_O 	O 	0.9789	0.45524	0.80186	-0.118
Mof_O 	O 	0.89569	0.9882	0.33405	-0.336
Mof_O 	O 	0.7619	0.0814	0.1659	-0.254
Mof_O 	O 	0.228	0.0493	0.24055	-0.361
Mof_O 	O 	0.19875	0.9173	0.4293	-0.356
Mof_O 	O 	0.5194	0.0022	0.28893	-0.191
Mof_C 	C 	0.981	0.6988	0.6889	0.386
Mof_C 	C 	0.9507	0.558	0.6938	0.018
Mof_C 	C 	0.904	0.5047	0.6102	-0.031
Mof_H 	H 	0.8766	0.5543	0.5281	0.066
Mof_C 	C 	0.9038	0.3593	0.669	-0.018
Mof_H 	H 	0.8769	0.2929	0.6334	0.067
Mof_C 	C 	0.9487	0.3342	0.7844	0.006
Mof_C 	C 	0.9655	0.2091	0.8905	0.407
Mof_C 	C 	0.7765	0.0136	0.2751	0.232
Mof_C 	C 	0.6559	0.9544	0.342	0.115
Mof_C 	C 	0.6544	0.8585	0.4497	-0.079
Mof_H 	H 	0.7348	0.8097	0.5032	0.083
Mof_C 	C 	0.5094	0.8448	0.4677	-0.016
Mof_H 	H 	0.4736	0.7843	0.5364	0.062
Mof_C 	C 	0.4309	0.9323	0.3709	0.046
Mof_C 	C 	0.2729	0.97	0.3435	0.376
Mof_Mn	Mn	-0	0	0.5	0.9
_end
