data_functionalizedCrystal
_audit_creation_method	'EQeq! by Chris Wilmer'
_symmetry_space_group_name_H-M	'P1'
_symmetry_Int_Tables_number	1
_symmetry_cell_setting	triclinic
loop_
_symmetry_equiv_pos_as_xyz
  x,y,z
_cell_length_a	7.3495
_cell_length_b	13.1996
_cell_length_c	13.1996
_cell_angle_alpha	63.3634
_cell_angle_beta	79.304
_cell_angle_gamma	100.696
loop_
_atom_site_label
_atom_site_type_symbol
_atom_site_fract_x
_atom_site_fract_y
_atom_site_fract_z
_atom_site_charge
Mof_Fe	Fe	-0	0	-0	0.49
Mof_Fe	Fe	0.5	0	-0	0.625
Mof_H 	H 	0.9049	0.7442	0.0004	0.11
Mof_H 	H 	0.2965	0.5509	0.1149	0.08
Mof_H 	H 	0.8199	0.6275	0.8882	0.088
Mof_H 	H 	0.9053	0.0004	0.2554	0.105
Mof_H 	H 	0.4114	0.1149	0.3342	0.077
Mof_H 	H 	0.7081	0.8882	0.4843	0.082
Mof_H 	H 	0.1607	0.2554	0.7442	0.112
Mof_H 	H 	0.7456	0.3342	0.5509	0.066
Mof_H 	H 	0.1924	0.4843	0.6275	0.068
Mof_H 	H 	0.0951	0.2558	0.9996	0.118
Mof_H 	H 	0.7035	0.4491	0.8851	0.024
Mof_H 	H 	0.1801	0.3725	0.1118	0.003
Mof_H 	H 	0.0947	0.9996	0.7446	0.123
Mof_H 	H 	0.5886	0.8851	0.6658	0.027
Mof_H 	H 	0.2919	0.1118	0.5157	0.009
Mof_H 	H 	0.8393	0.7446	0.2558	0.116
Mof_H 	H 	0.2544	0.6658	0.4491	0.04
Mof_H 	H 	0.8076	0.5157	0.3725	0.025
Mof_C 	C 	0.62734	0.71867	0.99995	0.176
Mof_C 	C 	0.5647	0.60586	0.99976	0.09
Mof_C 	C 	0.38	0.5304	0.0668	-0.169
Mof_C 	C 	0.6889	0.5763	0.933	-0.121
Mof_C 	C 	0.62729	0.99995	0.28138	0.181
Mof_C 	C 	0.56446	0.99976	0.39438	0.082
Mof_C 	C 	0.4468	0.0668	0.4028	-0.163
Mof_C 	C 	0.6219	0.933	0.4907	-0.115
Mof_C 	C 	0.90867	0.28138	0.71867	0.133
Mof_C 	C 	0.95884	0.39438	0.60586	0.042
Mof_C 	C 	0.8496	0.4028	0.5304	-0.084
Mof_C 	C 	0.1126	0.4907	0.5763	-0.11
Mof_C 	C 	0.37266	0.28133	5e-05	0.066
Mof_C 	C 	0.4353	0.39414	0.00024	-0.12
Mof_C 	C 	0.62	0.4696	0.9332	0.096
Mof_C 	C 	0.3111	0.4237	0.067	0.039
Mof_C 	C 	0.37271	5e-05	0.71862	0.084
Mof_C 	C 	0.43554	0.00024	0.60562	-0.114
Mof_C 	C 	0.5532	0.9332	0.5972	0.086
Mof_C 	C 	0.3781	0.067	0.5093	0.035
Mof_C 	C 	0.09133	0.71862	0.28133	0.124
Mof_C 	C 	0.04116	0.60562	0.39414	-0.075
Mof_C 	C 	0.1504	0.5972	0.4696	0.01
Mof_C 	C 	0.8874	0.5093	0.4237	0.029
Mof_N 	N 	0.50387	0.78194	0.00013	-0.132
Mof_N 	N 	0.60919	0.87621	0.99984	-0.051
Mof_N 	N 	0.78612	0.87017	1e-05	-0.095
Mof_N 	N 	0.80035	0.77052	0.00017	-0.188
Mof_N 	N 	0.504	0.00013	0.21793	-0.145
Mof_N 	N 	0.60903	0.99984	0.12395	-0.064
Mof_N 	N 	0.78613	1e-05	0.12982	-0.119
Mof_N 	N 	0.80052	0.00017	0.22931	-0.193
Mof_N 	N 	0.72193	0.21793	0.78194	-0.087
Mof_N 	N 	0.73298	0.12395	0.87621	-0.099
Mof_N 	N 	0.91595	0.12982	0.87017	-0.068
Mof_N 	N 	0.02983	0.22931	0.77052	-0.183
Mof_N 	N 	0.49613	0.21806	0.99987	-0.034
Mof_N 	N 	0.39081	0.12379	0.00016	-0.162
Mof_N 	N 	0.21388	0.12983	0.99999	-0.061
Mof_N 	N 	0.19965	0.22948	0.99983	-0.131
Mof_N 	N 	0.496	0.99987	0.78207	-0.04
Mof_N 	N 	0.39097	0.00016	0.87605	-0.131
Mof_N 	N 	0.21387	0.99999	0.87018	-0.049
Mof_N 	N 	0.19948	0.99983	0.77069	-0.136
Mof_N 	N 	0.27807	0.78207	0.21806	-0.088
Mof_N 	N 	0.26702	0.87605	0.12379	-0.1
Mof_N 	N 	0.08405	0.87018	0.12983	-0.091
Mof_N 	N 	0.97017	0.77069	0.22948	-0.143
_end
