data_functionalizedCrystal
_audit_creation_method	'EQeq! by Chris Wilmer'
_symmetry_space_group_name_H-M	'P1'
_symmetry_Int_Tables_number	1
_symmetry_cell_setting	triclinic
loop_
_symmetry_equiv_pos_as_xyz
  x,y,z
_cell_length_a	29.8537
_cell_length_b	29.8537
_cell_length_c	29.8537
_cell_angle_alpha	32.9365
_cell_angle_beta	32.9365
_cell_angle_gamma	32.9365
loop_
_atom_site_label
_atom_site_type_symbol
_atom_site_fract_x
_atom_site_fract_y
_atom_site_fract_z
_atom_site_charge
Mof_Co	Co	0.34899	0.27999	0.54811	1.148
Mof_Co	Co	0.25788	0.24804	0.56383	1.175
Mof_O 	O 	0.29538	0.33638	0.48698	-0.615
Mof_O 	O 	0.16764	0.25764	0.67774	-0.525
Mof_O 	O 	0.24225	0.25235	0.68285	-0.798
Mof_O 	O 	0.93084	0.25394	0.07544	-0.877
Mof_O 	O 	0.07573	0.21553	0.99713	-0.55
Mof_C 	C 	0.17671	0.25201	0.71651	0.573
Mof_C 	C 	0.10043	0.24403	0.81133	-0.45
Mof_C 	C 	0.02042	0.23712	0.95042	-0.491
Mof_C 	C 	0.09351	0.24551	0.86201	0.373
Mof_H 	H 	0.1376	0.2521	0.8371	-0.222
Mof_C 	C 	0.01056	0.23566	0.00896	0.614
Mof_C 	C 	0.03482	0.23312	0.85002	0.334
Mof_H 	H 	0.039	0.2322	0.8161	-0.084
Mof_C 	C 	0.9639	0.2232	0.938	-0.465
Mof_H 	H 	0.9212	0.2139	0.9642	0.165
Mof_C 	C 	0.95606	0.22736	0.98626	0.379
Mof_H 	H 	0.9062	0.2237	0.0447	-0.203
Mof_O 	O 	0.83918	0.46048	0.55988	-0.527
Mof_O 	O 	0.87776	0.39446	0.64996	-0.503
Mof_O 	O 	0.23394	0.42234	0.37834	-0.527
Mof_O 	O 	0.17894	0.32084	0.52014	-0.481
Mof_C 	C 	0.89265	0.43185	0.57215	0.389
Mof_C 	C 	0.97685	0.44525	0.49045	-0.218
Mof_C 	C 	0.11447	0.42807	0.42647	-0.206
Mof_C 	C 	0.0392	0.4104	0.5018	0.125
Mof_H 	H 	0.0306	0.3743	0.5612	0.004
Mof_C 	C 	0.18082	0.38782	0.44252	0.447
Mof_C 	C 	0.9892	0.4988	0.4025	0.097
Mof_H 	H 	0.9473	0.5225	0.3943	-0.024
Mof_C 	C 	0.06502	0.51702	0.32622	-0.188
Mof_H 	H 	0.0741	0.5527	0.2667	0.067
Mof_C 	C 	0.12673	0.48213	0.33873	0.104
Mof_H 	H 	0.1767	0.4952	0.2876	-0.017
Mof_Co	Co	0.54811	0.34899	0.27999	1.149
Mof_Co	Co	0.56383	0.25788	0.24804	1.176
Mof_O 	O 	0.48698	0.29538	0.33638	-0.615
Mof_O 	O 	0.67774	0.16764	0.25764	-0.525
Mof_O 	O 	0.68285	0.24225	0.25235	-0.798
Mof_O 	O 	0.07544	0.93084	0.25394	-0.877
Mof_O 	O 	0.99713	0.07573	0.21553	-0.55
Mof_C 	C 	0.71651	0.17671	0.25201	0.573
Mof_C 	C 	0.81133	0.10043	0.24403	-0.45
Mof_C 	C 	0.95042	0.02042	0.23712	-0.491
Mof_C 	C 	0.86201	0.09351	0.24551	0.373
Mof_H 	H 	0.8371	0.1376	0.2521	-0.222
Mof_C 	C 	0.00896	0.01056	0.23566	0.614
Mof_C 	C 	0.85002	0.03482	0.23312	0.334
Mof_H 	H 	0.8161	0.039	0.2322	-0.084
Mof_C 	C 	0.938	0.9639	0.2232	-0.465
Mof_H 	H 	0.9642	0.9212	0.2139	0.165
Mof_C 	C 	0.98626	0.95606	0.22736	0.379
Mof_H 	H 	0.0447	0.9062	0.2237	-0.203
Mof_O 	O 	0.55988	0.83918	0.46048	-0.527
Mof_O 	O 	0.64996	0.87776	0.39446	-0.503
Mof_O 	O 	0.37834	0.23394	0.42234	-0.527
Mof_O 	O 	0.52014	0.17894	0.32084	-0.481
Mof_C 	C 	0.57215	0.89265	0.43185	0.389
Mof_C 	C 	0.49045	0.97685	0.44525	-0.218
Mof_C 	C 	0.42647	0.11447	0.42807	-0.206
Mof_C 	C 	0.5018	0.0392	0.4104	0.125
Mof_H 	H 	0.5612	0.0306	0.3743	0.004
Mof_C 	C 	0.44252	0.18082	0.38782	0.447
Mof_C 	C 	0.4025	0.9892	0.4988	0.097
Mof_H 	H 	0.3943	0.9473	0.5225	-0.024
Mof_C 	C 	0.32622	0.06502	0.51702	-0.188
Mof_H 	H 	0.2667	0.0741	0.5527	0.067
Mof_C 	C 	0.33873	0.12673	0.48213	0.104
Mof_H 	H 	0.2876	0.1767	0.4952	-0.017
Mof_Co	Co	0.27999	0.54811	0.34899	1.149
Mof_Co	Co	0.24804	0.56383	0.25788	1.176
Mof_O 	O 	0.33638	0.48698	0.29538	-0.615
Mof_O 	O 	0.25764	0.67774	0.16764	-0.525
Mof_O 	O 	0.25235	0.68285	0.24225	-0.798
Mof_O 	O 	0.25394	0.07544	0.93084	-0.877
Mof_O 	O 	0.21553	0.99713	0.07573	-0.55
Mof_C 	C 	0.25201	0.71651	0.17671	0.573
Mof_C 	C 	0.24403	0.81133	0.10043	-0.45
Mof_C 	C 	0.23712	0.95042	0.02042	-0.491
Mof_C 	C 	0.24551	0.86201	0.09351	0.373
Mof_H 	H 	0.2521	0.8371	0.1376	-0.222
Mof_C 	C 	0.23566	0.00896	0.01056	0.614
Mof_C 	C 	0.23312	0.85002	0.03482	0.334
Mof_H 	H 	0.2322	0.8161	0.039	-0.084
Mof_C 	C 	0.2232	0.938	0.9639	-0.465
Mof_H 	H 	0.2139	0.9642	0.9212	0.165
Mof_C 	C 	0.22736	0.98626	0.95606	0.379
Mof_H 	H 	0.2237	0.0447	0.9062	-0.203
Mof_O 	O 	0.46048	0.55988	0.83918	-0.527
Mof_O 	O 	0.39446	0.64996	0.87776	-0.503
Mof_O 	O 	0.42234	0.37834	0.23394	-0.527
Mof_O 	O 	0.32084	0.52014	0.17894	-0.481
Mof_C 	C 	0.43185	0.57215	0.89265	0.389
Mof_C 	C 	0.44525	0.49045	0.97685	-0.218
Mof_C 	C 	0.42807	0.42647	0.11447	-0.206
Mof_C 	C 	0.4104	0.5018	0.0392	0.125
Mof_H 	H 	0.3743	0.5612	0.0306	0.004
Mof_C 	C 	0.38782	0.44252	0.18082	0.447
Mof_C 	C 	0.4988	0.4025	0.9892	0.097
Mof_H 	H 	0.5225	0.3943	0.9473	-0.024
Mof_C 	C 	0.51702	0.32622	0.06502	-0.188
Mof_H 	H 	0.5527	0.2667	0.0741	0.067
Mof_C 	C 	0.48213	0.33873	0.12673	0.104
Mof_H 	H 	0.4952	0.2876	0.1767	-0.017
Mof_Co	Co	0.22001	0.15101	0.95189	1.149
Mof_Co	Co	0.25196	0.24212	0.93617	1.177
Mof_O 	O 	0.16362	0.20462	0.01302	-0.619
Mof_O 	O 	0.24236	0.33236	0.82226	-0.525
Mof_O 	O 	0.24765	0.25775	0.81715	-0.799
Mof_O 	O 	0.24606	0.56916	0.42456	-0.884
Mof_O 	O 	0.28447	0.42427	0.50287	-0.558
Mof_C 	C 	0.24799	0.32329	0.78349	0.576
Mof_C 	C 	0.25597	0.39957	0.68867	-0.457
Mof_C 	C 	0.26288	0.47958	0.54958	-0.507
Mof_C 	C 	0.25449	0.40649	0.63799	0.384
Mof_H 	H 	0.2479	0.3624	0.6629	-0.225
Mof_C 	C 	0.26434	0.48944	0.49104	0.634
Mof_C 	C 	0.26688	0.46518	0.64998	0.341
Mof_H 	H 	0.2678	0.461	0.6839	-0.087
Mof_C 	C 	0.2768	0.5361	0.562	-0.476
Mof_H 	H 	0.2861	0.5788	0.5358	0.169
Mof_C 	C 	0.27264	0.54394	0.51374	0.395
Mof_H 	H 	0.2763	0.5938	0.4553	-0.209
Mof_O 	O 	0.03952	0.66082	0.94012	-0.527
Mof_O 	O 	0.10554	0.62224	0.85004	-0.503
Mof_O 	O 	0.07766	0.26606	0.12166	-0.527
Mof_O 	O 	0.17916	0.32106	0.97986	-0.478
Mof_C 	C 	0.06815	0.60735	0.92785	0.391
Mof_C 	C 	0.05475	0.52315	0.00955	-0.221
Mof_C 	C 	0.07193	0.38553	0.07353	-0.206
Mof_C 	C 	0.0896	0.4608	0.9982	0.131
Mof_H 	H 	0.1257	0.4694	0.9388	0.003
Mof_C 	C 	0.11218	0.31918	0.05748	0.444
Mof_C 	C 	0.0012	0.5108	0.0975	0.087
Mof_H 	H 	0.9775	0.5527	0.1057	-0.019
Mof_C 	C 	0.98298	0.43498	0.17378	-0.176
Mof_H 	H 	0.9473	0.4259	0.2333	0.063
Mof_C 	C 	0.01787	0.37327	0.16127	0.096
Mof_H 	H 	0.0048	0.3233	0.2124	-0.015
Mof_Co	Co	0.15101	0.95189	0.22001	1.149
Mof_Co	Co	0.24212	0.93617	0.25196	1.177
Mof_O 	O 	0.20462	0.01302	0.16362	-0.619
Mof_O 	O 	0.33236	0.82226	0.24236	-0.525
Mof_O 	O 	0.25775	0.81715	0.24765	-0.799
Mof_O 	O 	0.56916	0.42456	0.24606	-0.884
Mof_O 	O 	0.42427	0.50287	0.28447	-0.558
Mof_C 	C 	0.32329	0.78349	0.24799	0.576
Mof_C 	C 	0.39957	0.68867	0.25597	-0.457
Mof_C 	C 	0.47958	0.54958	0.26288	-0.507
Mof_C 	C 	0.40649	0.63799	0.25449	0.384
Mof_H 	H 	0.3624	0.6629	0.2479	-0.225
Mof_C 	C 	0.48944	0.49104	0.26434	0.634
Mof_C 	C 	0.46518	0.64998	0.26688	0.341
Mof_H 	H 	0.461	0.6839	0.2678	-0.087
Mof_C 	C 	0.5361	0.562	0.2768	-0.476
Mof_H 	H 	0.5788	0.5358	0.2861	0.169
Mof_C 	C 	0.54394	0.51374	0.27264	0.395
Mof_H 	H 	0.5938	0.4553	0.2763	-0.209
Mof_O 	O 	0.66082	0.94012	0.03952	-0.527
Mof_O 	O 	0.62224	0.85004	0.10554	-0.503
Mof_O 	O 	0.26606	0.12166	0.07766	-0.527
Mof_O 	O 	0.32106	0.97986	0.17916	-0.478
Mof_C 	C 	0.60735	0.92785	0.06815	0.391
Mof_C 	C 	0.52315	0.00955	0.05475	-0.221
Mof_C 	C 	0.38553	0.07353	0.07193	-0.206
Mof_C 	C 	0.4608	0.9982	0.0896	0.131
Mof_H 	H 	0.4694	0.9388	0.1257	0.003
Mof_C 	C 	0.31918	0.05748	0.11218	0.444
Mof_C 	C 	0.5108	0.0975	0.0012	0.087
Mof_H 	H 	0.5527	0.1057	0.9775	-0.019
Mof_C 	C 	0.43498	0.17378	0.98298	-0.176
Mof_H 	H 	0.4259	0.2333	0.9473	0.063
Mof_C 	C 	0.37327	0.16127	0.01787	0.096
Mof_H 	H 	0.3233	0.2124	0.0048	-0.015
Mof_Co	Co	0.95189	0.22001	0.15101	1.149
Mof_Co	Co	0.93617	0.25196	0.24212	1.177
Mof_O 	O 	0.01302	0.16362	0.20462	-0.619
Mof_O 	O 	0.82226	0.24236	0.33236	-0.525
Mof_O 	O 	0.81715	0.24765	0.25775	-0.799
Mof_O 	O 	0.42456	0.24606	0.56916	-0.884
Mof_O 	O 	0.50287	0.28447	0.42427	-0.558
Mof_C 	C 	0.78349	0.24799	0.32329	0.576
Mof_C 	C 	0.68867	0.25597	0.39957	-0.457
Mof_C 	C 	0.54958	0.26288	0.47958	-0.507
Mof_C 	C 	0.63799	0.25449	0.40649	0.384
Mof_H 	H 	0.6629	0.2479	0.3624	-0.225
Mof_C 	C 	0.49104	0.26434	0.48944	0.634
Mof_C 	C 	0.64998	0.26688	0.46518	0.341
Mof_H 	H 	0.6839	0.2678	0.461	-0.087
Mof_C 	C 	0.562	0.2768	0.5361	-0.476
Mof_H 	H 	0.5358	0.2861	0.5788	0.169
Mof_C 	C 	0.51374	0.27264	0.54394	0.395
Mof_H 	H 	0.4553	0.2763	0.5938	-0.209
Mof_O 	O 	0.94012	0.03952	0.66082	-0.527
Mof_O 	O 	0.85004	0.10554	0.62224	-0.503
Mof_O 	O 	0.12166	0.07766	0.26606	-0.527
Mof_O 	O 	0.97986	0.17916	0.32106	-0.478
Mof_C 	C 	0.92785	0.06815	0.60735	0.391
Mof_C 	C 	0.00955	0.05475	0.52315	-0.221
Mof_C 	C 	0.07353	0.07193	0.38553	-0.206
Mof_C 	C 	0.9982	0.0896	0.4608	0.131
Mof_H 	H 	0.9388	0.1257	0.4694	0.003
Mof_C 	C 	0.05748	0.11218	0.31918	0.444
Mof_C 	C 	0.0975	0.0012	0.5108	0.087
Mof_H 	H 	0.1057	0.9775	0.5527	-0.019
Mof_C 	C 	0.17378	0.98298	0.43498	-0.176
Mof_H 	H 	0.2333	0.9473	0.4259	0.063
Mof_C 	C 	0.16127	0.01787	0.37327	0.096
Mof_H 	H 	0.2124	0.0048	0.3233	-0.015
Mof_Co	Co	0.65101	0.72001	0.45189	1.149
Mof_Co	Co	0.74212	0.75196	0.43617	1.176
Mof_O 	O 	0.70462	0.66362	0.51302	-0.615
Mof_O 	O 	0.83236	0.74236	0.32226	-0.525
Mof_O 	O 	0.75775	0.74765	0.31715	-0.798
Mof_O 	O 	0.06916	0.74606	0.92456	-0.877
Mof_O 	O 	0.92427	0.78447	0.00287	-0.55
Mof_C 	C 	0.82329	0.74799	0.28349	0.573
Mof_C 	C 	0.89957	0.75597	0.18867	-0.45
Mof_C 	C 	0.97958	0.76288	0.04958	-0.491
Mof_C 	C 	0.90649	0.75449	0.13799	0.373
Mof_H 	H 	0.8624	0.7479	0.1629	-0.222
Mof_C 	C 	0.98944	0.76434	0.99104	0.614
Mof_C 	C 	0.96518	0.76688	0.14998	0.334
Mof_H 	H 	0.961	0.7678	0.1839	-0.084
Mof_C 	C 	0.0361	0.7768	0.062	-0.465
Mof_H 	H 	0.0788	0.7861	0.0358	0.165
Mof_C 	C 	0.04394	0.77264	0.01374	0.379
Mof_H 	H 	0.0938	0.7763	0.9553	-0.203
Mof_O 	O 	0.16082	0.53952	0.44012	-0.527
Mof_O 	O 	0.12224	0.60554	0.35004	-0.503
Mof_O 	O 	0.76606	0.57766	0.62166	-0.527
Mof_O 	O 	0.82106	0.67916	0.47986	-0.481
Mof_C 	C 	0.10735	0.56815	0.42785	0.389
Mof_C 	C 	0.02315	0.55475	0.50955	-0.218
Mof_C 	C 	0.88553	0.57193	0.57353	-0.206
Mof_C 	C 	0.9608	0.5896	0.4982	0.125
Mof_H 	H 	0.9694	0.6257	0.4388	0.004
Mof_C 	C 	0.81918	0.61218	0.55748	0.447
Mof_C 	C 	0.0108	0.5012	0.5975	0.097
Mof_H 	H 	0.0527	0.4775	0.6057	-0.024
Mof_C 	C 	0.93498	0.48298	0.67378	-0.188
Mof_H 	H 	0.9259	0.4473	0.7333	0.067
Mof_C 	C 	0.87327	0.51787	0.66127	0.104
Mof_H 	H 	0.8233	0.5048	0.7124	-0.017
Mof_Co	Co	0.45189	0.65101	0.72001	1.149
Mof_Co	Co	0.43617	0.74212	0.75196	1.176
Mof_O 	O 	0.51302	0.70462	0.66362	-0.615
Mof_O 	O 	0.32226	0.83236	0.74236	-0.525
Mof_O 	O 	0.31715	0.75775	0.74765	-0.798
Mof_O 	O 	0.92456	0.06916	0.74606	-0.877
Mof_O 	O 	0.00287	0.92427	0.78447	-0.55
Mof_C 	C 	0.28349	0.82329	0.74799	0.573
Mof_C 	C 	0.18867	0.89957	0.75597	-0.45
Mof_C 	C 	0.04958	0.97958	0.76288	-0.491
Mof_C 	C 	0.13799	0.90649	0.75449	0.373
Mof_H 	H 	0.1629	0.8624	0.7479	-0.222
Mof_C 	C 	0.99104	0.98944	0.76434	0.614
Mof_C 	C 	0.14998	0.96518	0.76688	0.334
Mof_H 	H 	0.1839	0.961	0.7678	-0.084
Mof_C 	C 	0.062	0.0361	0.7768	-0.465
Mof_H 	H 	0.0358	0.0788	0.7861	0.165
Mof_C 	C 	0.01374	0.04394	0.77264	0.379
Mof_H 	H 	0.9553	0.0938	0.7763	-0.203
Mof_O 	O 	0.44012	0.16082	0.53952	-0.527
Mof_O 	O 	0.35004	0.12224	0.60554	-0.503
Mof_O 	O 	0.62166	0.76606	0.57766	-0.527
Mof_O 	O 	0.47986	0.82106	0.67916	-0.481
Mof_C 	C 	0.42785	0.10735	0.56815	0.389
Mof_C 	C 	0.50955	0.02315	0.55475	-0.218
Mof_C 	C 	0.57353	0.88553	0.57193	-0.206
Mof_C 	C 	0.4982	0.9608	0.5896	0.125
Mof_H 	H 	0.4388	0.9694	0.6257	0.004
Mof_C 	C 	0.55748	0.81918	0.61218	0.447
Mof_C 	C 	0.5975	0.0108	0.5012	0.097
Mof_H 	H 	0.6057	0.0527	0.4775	-0.024
Mof_C 	C 	0.67378	0.93498	0.48298	-0.188
Mof_H 	H 	0.7333	0.9259	0.4473	0.067
Mof_C 	C 	0.66127	0.87327	0.51787	0.104
Mof_H 	H 	0.7124	0.8233	0.5048	-0.017
Mof_Co	Co	0.72001	0.45189	0.65101	1.149
Mof_Co	Co	0.75196	0.43617	0.74212	1.176
Mof_O 	O 	0.66362	0.51302	0.70462	-0.615
Mof_O 	O 	0.74236	0.32226	0.83236	-0.525
Mof_O 	O 	0.74765	0.31715	0.75775	-0.798
Mof_O 	O 	0.74606	0.92456	0.06916	-0.877
Mof_O 	O 	0.78447	0.00287	0.92427	-0.55
Mof_C 	C 	0.74799	0.28349	0.82329	0.573
Mof_C 	C 	0.75597	0.18867	0.89957	-0.45
Mof_C 	C 	0.76288	0.04958	0.97958	-0.491
Mof_C 	C 	0.75449	0.13799	0.90649	0.373
Mof_H 	H 	0.7479	0.1629	0.8624	-0.222
Mof_C 	C 	0.76434	0.99104	0.98944	0.614
Mof_C 	C 	0.76688	0.14998	0.96518	0.334
Mof_H 	H 	0.7678	0.1839	0.961	-0.084
Mof_C 	C 	0.7768	0.062	0.0361	-0.465
Mof_H 	H 	0.7861	0.0358	0.0788	0.165
Mof_C 	C 	0.77264	0.01374	0.04394	0.379
Mof_H 	H 	0.7763	0.9553	0.0938	-0.203
Mof_O 	O 	0.53952	0.44012	0.16082	-0.527
Mof_O 	O 	0.60554	0.35004	0.12224	-0.503
Mof_O 	O 	0.57766	0.62166	0.76606	-0.527
Mof_O 	O 	0.67916	0.47986	0.82106	-0.481
Mof_C 	C 	0.56815	0.42785	0.10735	0.389
Mof_C 	C 	0.55475	0.50955	0.02315	-0.218
Mof_C 	C 	0.57193	0.57353	0.88553	-0.206
Mof_C 	C 	0.5896	0.4982	0.9608	0.125
Mof_H 	H 	0.6257	0.4388	0.9694	0.004
Mof_C 	C 	0.61218	0.55748	0.81918	0.447
Mof_C 	C 	0.5012	0.5975	0.0108	0.097
Mof_H 	H 	0.4775	0.6057	0.0527	-0.024
Mof_C 	C 	0.48298	0.67378	0.93498	-0.188
Mof_H 	H 	0.4473	0.7333	0.9259	0.067
Mof_C 	C 	0.51787	0.66127	0.87327	0.104
Mof_H 	H 	0.5048	0.7124	0.8233	-0.017
Mof_Co	Co	0.77999	0.84899	0.04811	1.149
Mof_Co	Co	0.74804	0.75788	0.06383	1.177
Mof_O 	O 	0.83638	0.79538	0.98698	-0.619
Mof_O 	O 	0.75764	0.66764	0.17774	-0.525
Mof_O 	O 	0.75235	0.74225	0.18285	-0.799
Mof_O 	O 	0.75394	0.43084	0.57544	-0.884
Mof_O 	O 	0.71553	0.57573	0.49713	-0.558
Mof_C 	C 	0.75201	0.67671	0.21651	0.576
Mof_C 	C 	0.74403	0.60043	0.31133	-0.457
Mof_C 	C 	0.73712	0.52042	0.45042	-0.507
Mof_C 	C 	0.74551	0.59351	0.36201	0.384
Mof_H 	H 	0.7521	0.6376	0.3371	-0.225
Mof_C 	C 	0.73566	0.51056	0.50896	0.634
Mof_C 	C 	0.73312	0.53482	0.35002	0.341
Mof_H 	H 	0.7322	0.539	0.3161	-0.087
Mof_C 	C 	0.7232	0.4639	0.438	-0.476
Mof_H 	H 	0.7139	0.4212	0.4642	0.169
Mof_C 	C 	0.72736	0.45606	0.48626	0.395
Mof_H 	H 	0.7237	0.4062	0.5447	-0.209
Mof_O 	O 	0.96048	0.33918	0.05988	-0.527
Mof_O 	O 	0.89446	0.37776	0.14996	-0.503
Mof_O 	O 	0.92234	0.73394	0.87834	-0.527
Mof_O 	O 	0.82084	0.67894	0.02014	-0.478
Mof_C 	C 	0.93185	0.39265	0.07215	0.391
Mof_C 	C 	0.94525	0.47685	0.99045	-0.221
Mof_C 	C 	0.92807	0.61447	0.92647	-0.206
Mof_C 	C 	0.9104	0.5392	0.0018	0.131
Mof_H 	H 	0.8743	0.5306	0.0612	0.003
Mof_C 	C 	0.88782	0.68082	0.94252	0.444
Mof_C 	C 	0.9988	0.4892	0.9025	0.087
Mof_H 	H 	0.0225	0.4473	0.8943	-0.019
Mof_C 	C 	0.01702	0.56502	0.82622	-0.176
Mof_H 	H 	0.0527	0.5741	0.7667	0.063
Mof_C 	C 	0.98213	0.62673	0.83873	0.096
Mof_H 	H 	0.9952	0.6767	0.7876	-0.015
Mof_Co	Co	0.84899	0.04811	0.77999	1.149
Mof_Co	Co	0.75788	0.06383	0.74804	1.177
Mof_O 	O 	0.79538	0.98698	0.83638	-0.619
Mof_O 	O 	0.66764	0.17774	0.75764	-0.525
Mof_O 	O 	0.74225	0.18285	0.75235	-0.799
Mof_O 	O 	0.43084	0.57544	0.75394	-0.884
Mof_O 	O 	0.57573	0.49713	0.71553	-0.558
Mof_C 	C 	0.67671	0.21651	0.75201	0.576
Mof_C 	C 	0.60043	0.31133	0.74403	-0.457
Mof_C 	C 	0.52042	0.45042	0.73712	-0.507
Mof_C 	C 	0.59351	0.36201	0.74551	0.384
Mof_H 	H 	0.6376	0.3371	0.7521	-0.225
Mof_C 	C 	0.51056	0.50896	0.73566	0.634
Mof_C 	C 	0.53482	0.35002	0.73312	0.341
Mof_H 	H 	0.539	0.3161	0.7322	-0.087
Mof_C 	C 	0.4639	0.438	0.7232	-0.476
Mof_H 	H 	0.4212	0.4642	0.7139	0.169
Mof_C 	C 	0.45606	0.48626	0.72736	0.395
Mof_H 	H 	0.4062	0.5447	0.7237	-0.209
Mof_O 	O 	0.33918	0.05988	0.96048	-0.527
Mof_O 	O 	0.37776	0.14996	0.89446	-0.503
Mof_O 	O 	0.73394	0.87834	0.92234	-0.527
Mof_O 	O 	0.67894	0.02014	0.82084	-0.478
Mof_C 	C 	0.39265	0.07215	0.93185	0.391
Mof_C 	C 	0.47685	0.99045	0.94525	-0.221
Mof_C 	C 	0.61447	0.92647	0.92807	-0.206
Mof_C 	C 	0.5392	0.0018	0.9104	0.131
Mof_H 	H 	0.5306	0.0612	0.8743	0.003
Mof_C 	C 	0.68082	0.94252	0.88782	0.444
Mof_C 	C 	0.4892	0.9025	0.9988	0.087
Mof_H 	H 	0.4473	0.8943	0.0225	-0.019
Mof_C 	C 	0.56502	0.82622	0.01702	-0.176
Mof_H 	H 	0.5741	0.7667	0.0527	0.063
Mof_C 	C 	0.62673	0.83873	0.98213	0.096
Mof_H 	H 	0.6767	0.7876	0.9952	-0.015
Mof_Co	Co	0.04811	0.77999	0.84899	1.149
Mof_Co	Co	0.06383	0.74804	0.75788	1.177
Mof_O 	O 	0.98698	0.83638	0.79538	-0.619
Mof_O 	O 	0.17774	0.75764	0.66764	-0.525
Mof_O 	O 	0.18285	0.75235	0.74225	-0.799
Mof_O 	O 	0.57544	0.75394	0.43084	-0.884
Mof_O 	O 	0.49713	0.71553	0.57573	-0.558
Mof_C 	C 	0.21651	0.75201	0.67671	0.576
Mof_C 	C 	0.31133	0.74403	0.60043	-0.457
Mof_C 	C 	0.45042	0.73712	0.52042	-0.507
Mof_C 	C 	0.36201	0.74551	0.59351	0.384
Mof_H 	H 	0.3371	0.7521	0.6376	-0.225
Mof_C 	C 	0.50896	0.73566	0.51056	0.634
Mof_C 	C 	0.35002	0.73312	0.53482	0.341
Mof_H 	H 	0.3161	0.7322	0.539	-0.087
Mof_C 	C 	0.438	0.7232	0.4639	-0.476
Mof_H 	H 	0.4642	0.7139	0.4212	0.169
Mof_C 	C 	0.48626	0.72736	0.45606	0.395
Mof_H 	H 	0.5447	0.7237	0.4062	-0.209
Mof_O 	O 	0.05988	0.96048	0.33918	-0.527
Mof_O 	O 	0.14996	0.89446	0.37776	-0.503
Mof_O 	O 	0.87834	0.92234	0.73394	-0.527
Mof_O 	O 	0.02014	0.82084	0.67894	-0.478
Mof_C 	C 	0.07215	0.93185	0.39265	0.391
Mof_C 	C 	0.99045	0.94525	0.47685	-0.221
Mof_C 	C 	0.92647	0.92807	0.61447	-0.206
Mof_C 	C 	0.0018	0.9104	0.5392	0.131
Mof_H 	H 	0.0612	0.8743	0.5306	0.003
Mof_C 	C 	0.94252	0.88782	0.68082	0.444
Mof_C 	C 	0.9025	0.9988	0.4892	0.087
Mof_H 	H 	0.8943	0.0225	0.4473	-0.019
Mof_C 	C 	0.82622	0.01702	0.56502	-0.176
Mof_H 	H 	0.7667	0.0527	0.5741	0.063
Mof_C 	C 	0.83873	0.98213	0.62673	0.096
Mof_H 	H 	0.7876	0.9952	0.6767	-0.015
Mof_Co	Co	0.35957	0.35957	0.35957	1.168
Mof_Co	Co	0.14043	0.14043	0.14043	1.167
Mof_Co	Co	0.64043	0.64043	0.64043	1.168
Mof_Co	Co	0.85957	0.85957	0.85957	1.167
Mof_K 	K 	0.34953	0.15047	0.75	3.175
Mof_K 	K 	0.75	0.34953	0.15047	3.175
Mof_K 	K 	0.15047	0.75	0.34953	3.175
Mof_K 	K 	0.65047	0.84953	0.25	3.175
Mof_K 	K 	0.25	0.65047	0.84953	3.175
Mof_K 	K 	0.84953	0.25	0.65047	3.175
_end
