data_functionalizedCrystal
_audit_creation_method	'EQeq! by Chris Wilmer'
_symmetry_space_group_name_H-M	'P1'
_symmetry_Int_Tables_number	1
_symmetry_cell_setting	triclinic
loop_
_symmetry_equiv_pos_as_xyz
  x,y,z
_cell_length_a	10.3753
_cell_length_b	12.4036
_cell_length_c	15.764
_cell_angle_alpha	90
_cell_angle_beta	90
_cell_angle_gamma	90
loop_
_atom_site_label
_atom_site_type_symbol
_atom_site_fract_x
_atom_site_fract_y
_atom_site_fract_z
_atom_site_charge
Mof_Zn	Zn	0.05568	0.73625	0.40018	1.23
Mof_Zn	Zn	0.75326	0.08277	0.0886	1.23
Mof_Zn	Zn	0.75932	0.40015	0.21151	1.232
Mof_P 	P 	0.5392	0.93819	0.00697	0.371
Mof_P 	P 	0.7102	0.32692	0.01973	0.411
Mof_P 	P 	0.76456	0.16754	0.2792	0.441
Mof_P 	P 	0.97952	0.53337	0.2966	0.449
Mof_O 	O 	0.6357	0.9574	0.07844	-0.407
Mof_O 	O 	0.404	0.97023	0.03112	-0.471
Mof_O 	O 	0.5513	0.8243	0.97332	-0.389
Mof_O 	O 	0.704	0.3996	0.0959	-0.455
Mof_O 	O 	0.6829	0.2104	0.039	-0.506
Mof_O 	O 	0.8247	0.3483	0.9661	-0.424
Mof_O 	O 	0.833	0.27198	0.2582	-0.477
Mof_O 	O 	0.7783	0.08467	0.2096	-0.437
Mof_O 	O 	0.626	0.18343	0.3062	-0.474
Mof_O 	O 	0.8928	0.51441	0.22022	-0.416
Mof_O 	O 	0.1203	0.53551	0.27621	-0.46
Mof_O 	O 	0.9367	0.63234	0.34652	-0.415
Mof_H 	H 	0.5593	0.0142	0.9556	-0.01
Mof_H 	H 	0.6254	0.3613	0.9753	0.002
Mof_H 	H 	0.8321	0.1268	0.3487	-0.028
Mof_H 	H 	0.9575	0.451	0.3537	-0.03
Mof_Zn	Zn	0.94432	0.26375	0.90018	1.231
Mof_Zn	Zn	0.24674	0.91723	0.5886	1.234
Mof_Zn	Zn	0.24068	0.59985	0.71151	1.234
Mof_P 	P 	0.4608	0.06181	0.50697	0.463
Mof_P 	P 	0.2898	0.67308	0.51973	0.508
Mof_P 	P 	0.23544	0.83246	0.7792	0.442
Mof_P 	P 	0.02048	0.46663	0.7966	0.449
Mof_O 	O 	0.3643	0.0426	0.57844	-0.405
Mof_O 	O 	0.596	0.02977	0.53112	-0.46
Mof_O 	O 	0.4487	0.1757	0.47332	-0.444
Mof_O 	O 	0.296	0.6004	0.5959	-0.451
Mof_O 	O 	0.3171	0.7896	0.539	-0.497
Mof_O 	O 	0.1753	0.6517	0.4661	-0.475
Mof_O 	O 	0.167	0.72802	0.7582	-0.473
Mof_O 	O 	0.2217	0.91533	0.7096	-0.432
Mof_O 	O 	0.374	0.81657	0.8062	-0.467
Mof_O 	O 	0.1072	0.48559	0.72022	-0.408
Mof_O 	O 	0.8797	0.46449	0.77621	-0.454
Mof_O 	O 	0.0633	0.36766	0.84652	-0.408
Mof_H 	H 	0.4407	0.9858	0.4556	-0.06
Mof_H 	H 	0.3746	0.6387	0.4753	-0.048
Mof_H 	H 	0.1679	0.8732	0.8487	-0.019
Mof_H 	H 	0.0425	0.549	0.8537	-0.025
Mof_Zn	Zn	0.55568	0.26375	0.40018	1.23
Mof_Zn	Zn	0.25326	0.91723	0.0886	1.228
Mof_Zn	Zn	0.25932	0.59985	0.21151	1.232
Mof_P 	P 	0.0392	0.06181	0.00697	0.37
Mof_P 	P 	0.2102	0.67308	0.01973	0.406
Mof_P 	P 	0.26456	0.83246	0.2792	0.441
Mof_P 	P 	0.47952	0.46663	0.2966	0.447
Mof_O 	O 	0.1357	0.0426	0.07844	-0.408
Mof_O 	O 	0.904	0.02977	0.03112	-0.47
Mof_O 	O 	0.0513	0.1757	0.97332	-0.386
Mof_O 	O 	0.204	0.6004	0.0959	-0.455
Mof_O 	O 	0.1829	0.7896	0.039	-0.506
Mof_O 	O 	0.3247	0.6517	0.9661	-0.421
Mof_O 	O 	0.333	0.72802	0.2582	-0.477
Mof_O 	O 	0.2783	0.91533	0.2096	-0.438
Mof_O 	O 	0.126	0.81657	0.3062	-0.475
Mof_O 	O 	0.3928	0.48559	0.22022	-0.417
Mof_O 	O 	0.6203	0.46449	0.27621	-0.458
Mof_O 	O 	0.4367	0.36766	0.34652	-0.416
Mof_H 	H 	0.0593	0.9858	0.9556	-0.01
Mof_H 	H 	0.1254	0.6387	0.9753	0.005
Mof_H 	H 	0.3321	0.8732	0.3487	-0.028
Mof_H 	H 	0.4575	0.549	0.3537	-0.03
Mof_Zn	Zn	0.44432	0.73625	0.90018	1.232
Mof_Zn	Zn	0.74674	0.08277	0.5886	1.233
Mof_Zn	Zn	0.74068	0.40015	0.71151	1.234
Mof_P 	P 	0.9608	0.93819	0.50697	0.469
Mof_P 	P 	0.7898	0.32692	0.51973	0.508
Mof_P 	P 	0.73544	0.16754	0.7792	0.442
Mof_P 	P 	0.52048	0.53337	0.7966	0.448
Mof_O 	O 	0.8643	0.9574	0.57844	-0.405
Mof_O 	O 	0.096	0.97023	0.53112	-0.463
Mof_O 	O 	0.9487	0.8243	0.47332	-0.444
Mof_O 	O 	0.796	0.3996	0.5959	-0.451
Mof_O 	O 	0.8171	0.2104	0.539	-0.498
Mof_O 	O 	0.6753	0.3483	0.4661	-0.474
Mof_O 	O 	0.667	0.27198	0.7582	-0.472
Mof_O 	O 	0.7217	0.08467	0.7096	-0.432
Mof_O 	O 	0.874	0.18343	0.8062	-0.469
Mof_O 	O 	0.6072	0.51441	0.72022	-0.408
Mof_O 	O 	0.3797	0.53551	0.77621	-0.453
Mof_O 	O 	0.5633	0.63234	0.84652	-0.409
Mof_H 	H 	0.9407	0.0142	0.4556	-0.062
Mof_H 	H 	0.8746	0.3613	0.4753	-0.048
Mof_H 	H 	0.6679	0.1268	0.8487	-0.019
Mof_H 	H 	0.5425	0.451	0.8537	-0.025
_end
