data_functionalizedCrystal
_audit_creation_method	'EQeq! by Chris Wilmer'
_symmetry_space_group_name_H-M	'P1'
_symmetry_Int_Tables_number	1
_symmetry_cell_setting	triclinic
loop_
_symmetry_equiv_pos_as_xyz
  x,y,z
_cell_length_a	9.5213
_cell_length_b	10.5817
_cell_length_c	18.3319
_cell_angle_alpha	95.927
_cell_angle_beta	99.681
_cell_angle_gamma	114.194
loop_
_atom_site_label
_atom_site_type_symbol
_atom_site_fract_x
_atom_site_fract_y
_atom_site_fract_z
_atom_site_charge
Mof_U 	U 	0.29407	0.81252	0.25744	-0.014
Mof_U 	U 	0.64642	0.69363	0.24719	-0.037
Mof_U 	U 	0.00028	0.24162	0.24751	-0.019
Mof_Ba	Ba	0.56914	0.31604	0.27747	1.612
Mof_P 	P 	0.64802	0.03902	0.3264	0.362
Mof_P 	P 	0.9467	0.03636	0.66519	0.381
Mof_P 	P 	0.30371	0.48399	0.15877	0.384
Mof_P 	P 	0.11606	0.48527	0.80697	0.376
Mof_O 	O 	0.5897	0.8873	0.2825	-0.164
Mof_O 	O 	0.4941	0.0566	0.3192	-0.343
Mof_O 	O 	0.7699	0.153	0.2967	-0.289
Mof_O 	O 	0.1174	0.1465	0.6846	-0.187
Mof_O 	O 	0.8519	0.0677	0.7184	-0.182
Mof_O 	O 	0.9317	0.8875	0.6671	-0.203
Mof_O 	O 	0.362	0.6369	0.2028	-0.175
Mof_O 	O 	0.4504	0.4564	0.1797	-0.332
Mof_O 	O 	0.1543	0.3783	0.1749	-0.202
Mof_O 	O 	0.1413	0.6338	0.7961	-0.275
Mof_O 	O 	0.2239	0.4463	0.765	-0.326
Mof_O 	O 	0.9447	0.3751	0.7819	-0.183
Mof_O 	O 	0.2261	0.1701	0.2201	-0.216
Mof_C 	C 	0.7328	0.0467	0.4232	-0.033
Mof_C 	C 	0.6408	0.955	0.4644	-0.058
Mof_H 	H 	0.5355	0.8939	0.4422	0.056
Mof_C 	C 	0.7047	0.9544	0.5374	-0.006
Mof_H 	H 	0.6417	0.8942	0.5645	0.015
Mof_C 	C 	0.8618	0.0427	0.5709	-0.052
Mof_C 	C 	0.9521	0.1378	0.5321	-0.022
Mof_H 	H 	0.0565	0.2004	0.5551	0.038
Mof_C 	C 	0.8866	0.1402	0.4581	-0.052
Mof_H 	H 	0.9474	0.2054	0.4324	0.05
Mof_C 	C 	0.2593	0.4853	0.0597	-0.033
Mof_C 	C 	0.3758	0.5369	0.0186	-0.028
Mof_H 	H 	0.4819	0.5706	0.0427	0.047
Mof_C 	C 	0.3356	0.5384	0.9438	-0.02
Mof_H 	H 	0.4147	0.5735	0.9176	0.031
Mof_C 	C 	0.1782	0.4882	0.9063	-0.037
Mof_C 	C 	0.1114	0.3631	0.9328	-0.01
Mof_H 	H 	0.0806	0.2709	0.9089	0.057
Mof_C 	C 	0.1008	0.4254	0.0229	-0.021
Mof_H 	H 	0.0133	0.4199	0.0411	0.048
Mof_C 	C 	0.0597	0.4282	0.9457	-0.037
Mof_C 	C 	0.1533	0.3659	0.0098	-0.029
Mof_C 	C 	0.3296	0.6119	0.0311	-0.037
Mof_C 	C 	0.2926	0.6137	0.9554	-0.019
Mof_H 	H 	0.9587	0.4238	0.9387	0.054
Mof_H 	H 	0.1361	0.273	0.0106	0.049
Mof_H 	H 	0.4018	0.6947	0.0643	0.059
Mof_H 	H 	0.3417	0.6956	0.937	0.023
Mof_U 	U 	0.70593	0.18748	0.74256	-0.015
Mof_U 	U 	0.35358	0.30637	0.75281	-0.038
Mof_U 	U 	0.99972	0.75838	0.75249	-0.019
Mof_Ba	Ba	0.43086	0.68396	0.72253	1.612
Mof_P 	P 	0.35198	0.96098	0.6736	0.362
Mof_P 	P 	0.0533	0.96364	0.33481	0.381
Mof_P 	P 	0.69629	0.51601	0.84123	0.384
Mof_P 	P 	0.88394	0.51473	0.19303	0.376
Mof_O 	O 	0.4103	0.1127	0.7175	-0.164
Mof_O 	O 	0.5059	0.9434	0.6808	-0.343
Mof_O 	O 	0.2301	0.847	0.7033	-0.289
Mof_O 	O 	0.8826	0.8535	0.3154	-0.187
Mof_O 	O 	0.1481	0.9323	0.2816	-0.182
Mof_O 	O 	0.0683	0.1125	0.3329	-0.203
Mof_O 	O 	0.638	0.3631	0.7972	-0.175
Mof_O 	O 	0.5496	0.5436	0.8203	-0.332
Mof_O 	O 	0.8457	0.6217	0.8251	-0.202
Mof_O 	O 	0.8587	0.3662	0.2039	-0.275
Mof_O 	O 	0.7761	0.5537	0.235	-0.326
Mof_O 	O 	0.0553	0.6249	0.2181	-0.183
Mof_O 	O 	0.7739	0.8299	0.7799	-0.216
Mof_C 	C 	0.2672	0.9533	0.5768	-0.033
Mof_C 	C 	0.3592	0.045	0.5356	-0.058
Mof_H 	H 	0.4645	0.1061	0.5578	0.056
Mof_C 	C 	0.2953	0.0456	0.4626	-0.006
Mof_H 	H 	0.3583	0.1058	0.4355	0.015
Mof_C 	C 	0.1382	0.9573	0.4291	-0.052
Mof_C 	C 	0.0479	0.8622	0.4679	-0.022
Mof_H 	H 	0.9435	0.7996	0.4449	0.038
Mof_C 	C 	0.1134	0.8598	0.5419	-0.052
Mof_H 	H 	0.0526	0.7946	0.5676	0.05
Mof_C 	C 	0.7407	0.5147	0.9403	-0.033
Mof_C 	C 	0.6242	0.4631	0.9814	-0.028
Mof_H 	H 	0.5181	0.4294	0.9573	0.047
Mof_C 	C 	0.6644	0.4616	0.0562	-0.02
Mof_H 	H 	0.5853	0.4265	0.0824	0.031
Mof_C 	C 	0.8218	0.5118	0.0937	-0.037
Mof_C 	C 	0.8886	0.6369	0.0672	-0.01
Mof_H 	H 	0.9194	0.7291	0.0911	0.057
Mof_C 	C 	0.8992	0.5746	0.9771	-0.021
Mof_H 	H 	0.9867	0.5801	0.9589	0.048
Mof_C 	C 	0.9403	0.5718	0.0543	-0.037
Mof_C 	C 	0.8467	0.6341	0.9902	-0.029
Mof_C 	C 	0.6704	0.3881	0.9689	-0.037
Mof_C 	C 	0.7074	0.3863	0.0446	-0.019
Mof_H 	H 	0.0413	0.5762	0.0613	0.054
Mof_H 	H 	0.8639	0.727	0.9894	0.049
Mof_H 	H 	0.5982	0.3053	0.9357	0.059
Mof_H 	H 	0.6583	0.3044	0.063	0.023
_end
