# CIF file generated by openbabel 3.1.0, see https://openbabel.org
data_I
_chemical_name_common 'LAVSUY_clean'
_cell_length_a 10.29
_cell_length_b 10.29
_cell_length_c 14.5
_cell_angle_alpha 90
_cell_angle_beta 90
_cell_angle_gamma 90
_space_group_name_H-M_alt 'P 1'
_space_group_name_Hall 'P 1'
loop_
    _symmetry_equiv_pos_as_xyz
    x,y,z
loop_
    _atom_site_label
    _atom_site_type_symbol
    _atom_site_fract_x
    _atom_site_fract_y
    _atom_site_fract_z
    _atom_site_occupancy
    Y1       Y        0.85085    0.14915    0.62500    1.000
    Y2       Y        0.14915    0.85085    0.12500    1.000
    Y3       Y        0.85085    0.85085    0.87500    1.000
    Y4       Y        0.14915    0.14915    0.37500    1.000
    H1       H        0.55850    0.07620    0.37680    1.000
    H2       H        0.44150    0.92380    0.87680    1.000
    H3       H        0.92380    0.55850    0.62680    1.000
    H4       H        0.07620    0.44150    0.12680    1.000
    H5       H        0.44150    0.07620    0.62320    1.000
    H6       H        0.55850    0.92380    0.12320    1.000
    H7       H        0.07620    0.55850    0.37320    1.000
    H8       H        0.92380    0.44150    0.87320    1.000
    H9       H        0.89970    0.00000    0.25000    1.000
    H10      H        0.10030    0.00000    0.75000    1.000
    H11      H        0.00000    0.89970    0.50000    1.000
    H12      H        0.00000    0.10030    0.00000    1.000
    C1       C        0.60460    0.04490    0.32630    1.000
    C2       C        0.73920    0.04320    0.32760    1.000
    C3       C        0.81620    0.08850    0.40980    1.000
    C4       C        0.39540    0.95510    0.82630    1.000
    C5       C        0.26080    0.95680    0.82760    1.000
    C6       C        0.18380    0.91150    0.90980    1.000
    C7       C        0.95510    0.60460    0.57630    1.000
    C8       C        0.95680    0.73920    0.57760    1.000
    C9       C        0.91150    0.81620    0.65980    1.000
    C10      C        0.04490    0.39540    0.07630    1.000
    C11      C        0.04320    0.26080    0.07760    1.000
    C12      C        0.08850    0.18380    0.15980    1.000
    C13      C        0.39540    0.04490    0.67370    1.000
    C14      C        0.26080    0.04320    0.67240    1.000
    C15      C        0.18380    0.08850    0.59020    1.000
    C16      C        0.60460    0.95510    0.17370    1.000
    C17      C        0.73920    0.95680    0.17240    1.000
    C18      C        0.81620    0.91150    0.09020    1.000
    C19      C        0.04490    0.60460    0.42370    1.000
    C20      C        0.04320    0.73920    0.42240    1.000
    C21      C        0.08850    0.81620    0.34020    1.000
    C22      C        0.95510    0.39540    0.92370    1.000
    C23      C        0.95680    0.26080    0.92240    1.000
    C24      C        0.91150    0.18380    0.84020    1.000
    C25      C        0.53980    0.00000    0.25000    1.000
    C26      C        0.39110    0.00000    0.25000    1.000
    C27      C        0.80930    0.00000    0.25000    1.000
    C28      C        0.46020    0.00000    0.75000    1.000
    C29      C        0.60890    0.00000    0.75000    1.000
    C30      C        0.19070    0.00000    0.75000    1.000
    C31      C        0.00000    0.53980    0.50000    1.000
    C32      C        0.00000    0.39110    0.50000    1.000
    C33      C        0.00000    0.80930    0.50000    1.000
    C34      C        0.00000    0.46020    0.00000    1.000
    C35      C        0.00000    0.60890    0.00000    1.000
    C36      C        0.00000    0.19070    0.00000    1.000
    O1       O        0.75850    0.09550    0.48640    1.000
    O2       O        0.33620    0.07250    0.30760    1.000
    O3       O        0.93350    0.11270    0.39970    1.000
    O4       O        0.24150    0.90450    0.98640    1.000
    O5       O        0.66380    0.92750    0.80760    1.000
    O6       O        0.06650    0.88730    0.89970    1.000
    O7       O        0.90450    0.75850    0.73640    1.000
    O8       O        0.92750    0.33620    0.55760    1.000
    O9       O        0.88730    0.93350    0.64970    1.000
    O10      O        0.09550    0.24150    0.23640    1.000
    O11      O        0.07250    0.66380    0.05760    1.000
    O12      O        0.11270    0.06650    0.14970    1.000
    O13      O        0.24150    0.09550    0.51360    1.000
    O14      O        0.66380    0.07250    0.69240    1.000
    O15      O        0.06650    0.11270    0.60030    1.000
    O16      O        0.75850    0.90450    0.01360    1.000
    O17      O        0.33620    0.92750    0.19240    1.000
    O18      O        0.93350    0.88730    0.10030    1.000
    O19      O        0.09550    0.75850    0.26360    1.000
    O20      O        0.07250    0.33620    0.44240    1.000
    O21      O        0.11270    0.93350    0.35030    1.000
    O22      O        0.90450    0.24150    0.76360    1.000
    O23      O        0.92750    0.66380    0.94240    1.000
    O24      O        0.88730    0.06650    0.85030    1.000
