data_functionalizedCrystal
_audit_creation_method	'EQeq! by Chris Wilmer'
_symmetry_space_group_name_H-M	'P1'
_symmetry_Int_Tables_number	1
_symmetry_cell_setting	triclinic
loop_
_symmetry_equiv_pos_as_xyz
  x,y,z
_cell_length_a	19.739
_cell_length_b	19.739
_cell_length_c	7.4768
_cell_angle_alpha	90
_cell_angle_beta	90
_cell_angle_gamma	90
loop_
_atom_site_label
_atom_site_type_symbol
_atom_site_fract_x
_atom_site_fract_y
_atom_site_fract_z
_atom_site_charge
Mof_Zn	Zn	-0	0	-0	1.24
Mof_Si	Si	2.87643e-33	0	0.5	2.91
Mof_F 	F 	3.85587e-34	-1.08316e-33	0.2715	-0.913
Mof_F 	F 	1.03462e-33	-2.16633e-33	0.7285	-0.905
Mof_F 	F 	0.05982	0.05982	0.5	-0.744
Mof_F 	F 	0.94018	0.94018	0.5	-0.624
Mof_F 	F 	0.94018	0.05982	0.5	-0.68
Mof_F 	F 	0.05982	0.94018	0.5	-0.68
Mof_O 	O 	0.3217	0.1149	-0	-0.203
Mof_C 	C 	0.3546	0.0625	-0	0.199
Mof_C 	C 	0.4297	0.0628	-0	-0.039
Mof_C 	C 	0.4642	0.1211	-0	-0.026
Mof_H 	H 	0.4404	0.1629	-0	0.066
Mof_O 	O 	0.6783	0.8851	-0	-0.182
Mof_C 	C 	0.6454	0.9375	-0	0.27
Mof_C 	C 	0.5703	0.9372	-0	0.036
Mof_C 	C 	0.5358	0.8789	-0	-0.029
Mof_H 	H 	0.5596	0.8371	-0	0.077
Mof_O 	O 	0.8851	0.3217	-0	-0.189
Mof_C 	C 	0.9375	0.3546	-0	0.274
Mof_C 	C 	0.9372	0.4297	-0	0.033
Mof_C 	C 	0.8789	0.4642	-0	-0.027
Mof_H 	H 	0.8371	0.4404	-0	0.075
Mof_O 	O 	0.1149	0.6783	-0	-0.196
Mof_C 	C 	0.0625	0.6454	-0	0.198
Mof_C 	C 	0.0628	0.5703	-0	-0.036
Mof_C 	C 	0.1211	0.5358	-0	-0.029
Mof_H 	H 	0.1629	0.5596	-0	0.069
Mof_O 	O 	0.6783	0.1149	-0	-0.196
Mof_C 	C 	0.6454	0.0625	-0	0.198
Mof_C 	C 	0.5703	0.0628	-0	-0.036
Mof_C 	C 	0.5358	0.1211	-0	-0.029
Mof_H 	H 	0.5596	0.1629	-0	0.069
Mof_O 	O 	0.3217	0.8851	-0	-0.189
Mof_C 	C 	0.3546	0.9375	-0	0.274
Mof_C 	C 	0.4297	0.9372	-0	0.033
Mof_C 	C 	0.4642	0.8789	-0	-0.027
Mof_H 	H 	0.4404	0.8371	-0	0.075
Mof_O 	O 	0.1149	0.3217	-0	-0.203
Mof_C 	C 	0.0625	0.3546	-0	0.199
Mof_C 	C 	0.0628	0.4297	-0	-0.039
Mof_C 	C 	0.1211	0.4642	-0	-0.026
Mof_H 	H 	0.1629	0.4404	-0	0.066
Mof_O 	O 	0.8851	0.6783	-0	-0.182
Mof_C 	C 	0.9375	0.6454	-0	0.27
Mof_C 	C 	0.9372	0.5703	-0	0.036
Mof_C 	C 	0.8789	0.5358	-0	-0.029
Mof_H 	H 	0.8371	0.5596	-0	0.077
Mof_N 	N 	0.1096	0	-0	-0.265
Mof_N 	N 	0.3226	0	-0	-0.232
Mof_C 	C 	0.2491	0	-0	0.203
Mof_C 	C 	0.4643	0	-0	-0.044
Mof_N 	N 	0.8904	0	-0	-0.237
Mof_N 	N 	0.6774	0	-0	-0.23
Mof_C 	C 	0.7509	0	-0	0.205
Mof_C 	C 	0.5357	0	-0	-0.045
Mof_N 	N 	1.08316e-33	0.1096	-0	-0.265
Mof_N 	N 	4.33266e-33	0.3226	-0	-0.232
Mof_C 	C 	-0	0.2491	-0	0.203
Mof_C 	C 	-0	0.4643	-0	-0.044
Mof_N 	N 	8.66531e-33	0.8904	-0	-0.237
Mof_N 	N 	-0	0.6774	-0	-0.23
Mof_C 	C 	-8.66531e-33	0.7509	-0	0.205
Mof_C 	C 	-0	0.5357	-0	-0.045
Mof_C 	C 	0.1445	0	0.8538	0.17
Mof_H 	H 	0.1205	-2.16633e-33	0.7437	0.033
Mof_C 	C 	0.2141	0	0.8472	-0.196
Mof_H 	H 	0.2369	0	0.7354	0.122
Mof_C 	C 	0.8555	0	0.8538	0.179
Mof_H 	H 	0.8795	-2.16633e-33	0.7437	0.051
Mof_C 	C 	0.7859	0	0.8472	-0.19
Mof_H 	H 	0.7631	0	0.7354	0.125
Mof_C 	C 	5.54523e-33	0.1445	0.8538	0.17
Mof_H 	H 	-1.11012e-33	0.1205	0.7437	0.033
Mof_C 	C 	9.86852e-33	0.2141	0.8472	-0.196
Mof_H 	H 	5.37708e-33	0.2369	0.7354	0.122
Mof_C 	C 	5.54523e-33	0.8555	0.8538	0.179
Mof_H 	H 	1.62205e-32	0.8795	0.7437	0.051
Mof_C 	C 	5.53586e-33	0.7859	0.8472	-0.19
Mof_H 	H 	5.37708e-33	0.7631	0.7354	0.125
Mof_C 	C 	0.8555	0	0.1462	0.152
Mof_H 	H 	0.8795	0	0.2563	0.056
Mof_C 	C 	0.7859	-5.41582e-34	0.1528	-0.214
Mof_H 	H 	0.7631	0	0.2646	0.128
Mof_C 	C 	0.1445	0	0.1462	0.143
Mof_H 	H 	0.1205	0	0.2563	0.038
Mof_C 	C 	0.2141	-5.41582e-34	0.1528	-0.219
Mof_H 	H 	0.2369	0	0.2646	0.124
Mof_C 	C 	2.37396e-33	0.1445	0.1462	0.143
Mof_H 	H 	3.64e-34	0.1205	0.2563	0.038
Mof_C 	C 	7.5859e-34	0.2141	0.1528	-0.219
Mof_H 	H 	3.75787e-34	0.2369	0.2646	0.124
Mof_C 	C 	1.42888e-32	0.8555	0.1462	0.152
Mof_H 	H 	9.02931e-33	0.8795	0.2563	0.056
Mof_C 	C 	-1.40774e-33	0.7859	0.1528	-0.214
Mof_H 	H 	1.33738e-32	0.7631	0.2646	0.128
_end
