# CIF file generated by openbabel 3.1.0, see https://openbabel.org
data_I
_chemical_name_common 'image0'
_cell_length_a 18.45
_cell_length_b 20.71
_cell_length_c 14.174
_cell_angle_alpha 90
_cell_angle_beta 90
_cell_angle_gamma 90
_space_group_name_H-M_alt 'P 1'
_space_group_name_Hall 'P 1'
loop_
    _symmetry_equiv_pos_as_xyz
    x,y,z
loop_
    _atom_site_label
    _atom_site_type_symbol
    _atom_site_fract_x
    _atom_site_fract_y
    _atom_site_fract_z
    _atom_site_occupancy
    Mo1      Mo       0.16142    0.73027    0.09552    1.000
    Mo2      Mo       0.24589    0.83360    0.09257    1.000
    Mo3      Mo       0.73623    0.17917    0.09983    1.000
    Mo4      Mo       0.82494    0.28003    0.09992    1.000
    S1       S        0.16657    0.80780    0.21406    1.000
    S2       S        0.80938    0.20944    0.22625    1.000
    Na1      Na       0.99669    0.50115    0.25850    1.000
    O1       O        0.21050    0.56750    0.79990    1.000
    H1       H        0.19690    0.53860    0.76220    1.000
    O2       O        0.09300    0.57210    0.83360    1.000
    O3       O        0.99040    0.60570    0.15080    1.000
    O4       O        0.07430    0.68150    0.16430    1.000
    O5       O        0.98750    0.78750    0.92230    1.000
    O6       O        0.06370    0.77640    0.04190    1.000
    O7       O        0.21210    0.77497    0.99710    1.000
    O8       O        0.16770    0.89990    0.02640    1.000
    O9       O        0.13420    0.94980    0.89450    1.000
    O10      O        0.26770    0.92450    0.15800    1.000
    O11      O        0.33290    0.01330    0.14750    1.000
    O12      O        0.42580    0.83390    0.78780    1.000
    H2       H        0.45180    0.85270    0.74770    1.000
    O13      O        0.41570    0.93320    0.84650    1.000
    O14      O        0.56880    0.17180    0.78670    1.000
    H3       H        0.54040    0.15260    0.74970    1.000
    O15      O        0.59730    0.07220    0.83190    1.000
    O16      O        0.64660    0.99980    0.15380    1.000
    O17      O        0.70500    0.09291    0.17030    1.000
    O18      O        0.86590    0.05320    0.93590    1.000
    O19      O        0.81800    0.10778    0.05540    1.000
    O20      O        0.77877    0.23091    0.00200    1.000
    O21      O        0.92340    0.22709    0.05780    1.000
    O22      O        0.99550    0.20010    0.94000    1.000
    O23      O        0.91070    0.32780    0.17080    1.000
    O24      O        0.00230    0.39660    0.15670    1.000
    O25      O        0.80110    0.44070    0.79610    1.000
    H4       H        0.81940    0.46380    0.75360    1.000
    O26      O        0.91710    0.42110    0.82930    1.000
    N1       N        0.68810    0.12090    0.97750    1.000
    N2       N        0.87820    0.33590    0.97760    1.000
    N3       N        0.11830    0.66530    0.97780    1.000
    N4       N        0.30680    0.88720    0.97450    1.000
    C1       C        0.15480    0.58800    0.84870    1.000
    C2       C        0.17920    0.63420    0.92520    1.000
    H5       H        0.21000    0.61040    0.97060    1.000
    H6       H        0.20940    0.66840    0.89620    1.000
    C3       C        0.07320    0.61670    0.02560    1.000
    H7       H        0.10250    0.57710    0.03490    1.000
    H8       H        0.03220    0.60530    0.98350    1.000
    C4       C        0.04320    0.63700    0.11880    1.000
    C5       C        0.07710    0.70650    0.91160    1.000
    H9       H        0.04120    0.67960    0.87760    1.000
    H10      H        0.11070    0.72490    0.86430    1.000
    C6       C        0.03840    0.76040    0.96150    1.000
    C7       C        0.40190    0.87560    0.84840    1.000
    C8       C        0.35660    0.84380    0.92370    1.000
    H11      H        0.32770    0.80900    0.89410    1.000
    H12      H        0.38950    0.82340    0.97010    1.000
    C9       C        0.31290    0.96010    0.11740    1.000
    C10      C        0.34670    0.93880    0.02550    1.000
    H13      H        0.35060    0.97690    0.98350    1.000
    H14      H        0.39650    0.92340    0.03840    1.000
    C11      C        0.17910    0.92180    0.94490    1.000
    C12      C        0.25400    0.91430    0.90620    1.000
    H15      H        0.25200    0.88580    0.85020    1.000
    H16      H        0.27160    0.95710    0.88500    1.000
    C13      C        0.60050    0.12960    0.84170    1.000
    C14      C        0.64060    0.16380    0.92210    1.000
    H17      H        0.67020    0.19910    0.89510    1.000
    H18      H        0.60450    0.18360    0.96490    1.000
    C15      C        0.66860    0.05200    0.12300    1.000
    C16      C        0.64580    0.06860    0.02320    1.000
    H19      H        0.64970    0.02930    0.98390    1.000
    H20      H        0.59410    0.08150    0.02420    1.000
    C17      C        0.81550    0.08300    0.97230    1.000
    C18      C        0.74710    0.09720    0.91750    1.000
    H21      H        0.75790    0.12990    0.86850    1.000
    H22      H        0.73110    0.05730    0.88510    1.000
    C19      C        0.85330    0.41260    0.84510    1.000
    C20      C        0.82250    0.37040    0.92260    1.000
    H23      H        0.79370    0.39770    0.96600    1.000
    H24      H        0.78930    0.33830    0.89400    1.000
    C21      C        0.94930    0.36730    0.12370    1.000
    C22      C        0.93050    0.38120    0.02310    1.000
    H25      H        0.91000    0.42540    0.01960    1.000
    H26      H        0.97580    0.38110    0.98570    1.000
    C23      C        0.94910    0.23450    0.97440    1.000
    C24      C        0.91480    0.28770    0.91720    1.000
    H27      H        0.95260    0.30950    0.87920    1.000
    H28      H        0.87900    0.26870    0.87310    1.000
    Mo5      Mo       0.83858    0.26973    0.59552    1.000
    Mo6      Mo       0.75411    0.16640    0.59257    1.000
    Mo7      Mo       0.26377    0.82083    0.59983    1.000
    Mo8      Mo       0.17506    0.71997    0.59992    1.000
    S3       S        0.83343    0.19220    0.71406    1.000
    S4       S        0.19062    0.79056    0.72625    1.000
    Na2      Na       0.00331    0.49885    0.75850    1.000
    O27      O        0.78950    0.43250    0.29990    1.000
    H29      H        0.80310    0.46140    0.26220    1.000
    O28      O        0.90700    0.42790    0.33360    1.000
    O29      O        0.00960    0.39430    0.65080    1.000
    O30      O        0.92570    0.31850    0.66430    1.000
    O31      O        0.01250    0.21250    0.42230    1.000
    O32      O        0.93630    0.22360    0.54190    1.000
    O33      O        0.78790    0.22503    0.49710    1.000
    O34      O        0.83230    0.10010    0.52640    1.000
    O35      O        0.86580    0.05020    0.39450    1.000
    O36      O        0.73230    0.07550    0.65800    1.000
    O37      O        0.66710    0.98670    0.64750    1.000
    O38      O        0.57420    0.16610    0.28780    1.000
    H30      H        0.54820    0.14730    0.24770    1.000
    O39      O        0.58430    0.06680    0.34650    1.000
    O40      O        0.43120    0.82820    0.28670    1.000
    H31      H        0.45960    0.84740    0.24970    1.000
    O41      O        0.40270    0.92780    0.33190    1.000
    O42      O        0.35340    0.00020    0.65380    1.000
    O43      O        0.29500    0.90709    0.67030    1.000
    O44      O        0.13410    0.94680    0.43590    1.000
    O45      O        0.18200    0.89222    0.55540    1.000
    O46      O        0.22123    0.76909    0.50200    1.000
    O47      O        0.07660    0.77291    0.55780    1.000
    O48      O        0.00450    0.79990    0.44000    1.000
    O49      O        0.08930    0.67220    0.67080    1.000
    O50      O        0.99770    0.60340    0.65670    1.000
    O51      O        0.19890    0.55930    0.29610    1.000
    H32      H        0.18060    0.53620    0.25360    1.000
    O52      O        0.08290    0.57890    0.32930    1.000
    N5       N        0.31190    0.87910    0.47750    1.000
    N6       N        0.12180    0.66410    0.47760    1.000
    N7       N        0.88170    0.33470    0.47780    1.000
    N8       N        0.69320    0.11280    0.47450    1.000
    C25      C        0.84520    0.41200    0.34870    1.000
    C26      C        0.82080    0.36580    0.42520    1.000
    H33      H        0.79000    0.38960    0.47060    1.000
    H34      H        0.79060    0.33160    0.39620    1.000
    C27      C        0.92680    0.38330    0.52560    1.000
    H35      H        0.89750    0.42290    0.53490    1.000
    H36      H        0.96780    0.39470    0.48350    1.000
    C28      C        0.95680    0.36300    0.61880    1.000
    C29      C        0.92290    0.29350    0.41160    1.000
    H37      H        0.95880    0.32040    0.37760    1.000
    H38      H        0.88930    0.27510    0.36430    1.000
    C30      C        0.96160    0.23960    0.46150    1.000
    C31      C        0.59810    0.12440    0.34840    1.000
    C32      C        0.64340    0.15620    0.42370    1.000
    H39      H        0.67230    0.19100    0.39410    1.000
    H40      H        0.61050    0.17660    0.47010    1.000
    C33      C        0.68710    0.03990    0.61740    1.000
    C34      C        0.65330    0.06120    0.52550    1.000
    H41      H        0.64940    0.02310    0.48350    1.000
    H42      H        0.60350    0.07660    0.53840    1.000
    C35      C        0.82090    0.07820    0.44490    1.000
    C36      C        0.74600    0.08570    0.40620    1.000
    H43      H        0.74800    0.11420    0.35020    1.000
    H44      H        0.72840    0.04290    0.38500    1.000
    C37      C        0.39950    0.87040    0.34170    1.000
    C38      C        0.35940    0.83620    0.42210    1.000
    H45      H        0.32980    0.80090    0.39510    1.000
    H46      H        0.39550    0.81640    0.46490    1.000
    C39      C        0.33140    0.94800    0.62300    1.000
    C40      C        0.35420    0.93140    0.52320    1.000
    H47      H        0.35030    0.97070    0.48390    1.000
    H48      H        0.40590    0.91850    0.52420    1.000
    C41      C        0.18450    0.91700    0.47230    1.000
    C42      C        0.25290    0.90280    0.41750    1.000
    H49      H        0.24210    0.87010    0.36850    1.000
    H50      H        0.26890    0.94270    0.38510    1.000
    C43      C        0.14670    0.58740    0.34510    1.000
    C44      C        0.17750    0.62960    0.42260    1.000
    H51      H        0.20630    0.60230    0.46600    1.000
    H52      H        0.21070    0.66170    0.39400    1.000
    C45      C        0.05070    0.63270    0.62370    1.000
    C46      C        0.06950    0.61880    0.52310    1.000
    H53      H        0.09000    0.57460    0.51960    1.000
    H54      H        0.02420    0.61890    0.48570    1.000
    C47      C        0.05090    0.76550    0.47440    1.000
    C48      C        0.08520    0.71230    0.41720    1.000
    H55      H        0.04740    0.69050    0.37920    1.000
    H56      H        0.12100    0.73130    0.37310    1.000
    Mo9      Mo       0.66142    0.76973    0.09552    1.000
    Mo10     Mo       0.74589    0.66640    0.09257    1.000
    Mo11     Mo       0.23623    0.32083    0.09983    1.000
    Mo12     Mo       0.32494    0.21997    0.09992    1.000
    S5       S        0.66657    0.69220    0.21406    1.000
    S6       S        0.30938    0.29056    0.22625    1.000
    Na3      Na       0.49669    0.99885    0.25850    1.000
    O53      O        0.71050    0.93250    0.79990    1.000
    H57      H        0.69690    0.96140    0.76220    1.000
    O54      O        0.59300    0.92790    0.83360    1.000
    O55      O        0.49040    0.89430    0.15080    1.000
    O56      O        0.57430    0.81850    0.16430    1.000
    O57      O        0.48750    0.71250    0.92230    1.000
    O58      O        0.56370    0.72360    0.04190    1.000
    O59      O        0.71210    0.72503    0.99710    1.000
    O60      O        0.66770    0.60010    0.02640    1.000
    O61      O        0.63420    0.55020    0.89450    1.000
    O62      O        0.76770    0.57550    0.15800    1.000
    O63      O        0.83290    0.48670    0.14750    1.000
    O64      O        0.92580    0.66610    0.78780    1.000
    H58      H        0.95180    0.64730    0.74770    1.000
    O65      O        0.91570    0.56680    0.84650    1.000
    O66      O        0.06880    0.32820    0.78670    1.000
    H59      H        0.04040    0.34740    0.74970    1.000
    O67      O        0.09730    0.42780    0.83190    1.000
    O68      O        0.14660    0.50020    0.15380    1.000
    O69      O        0.20500    0.40709    0.17030    1.000
    O70      O        0.36590    0.44680    0.93590    1.000
    O71      O        0.31800    0.39222    0.05540    1.000
    O72      O        0.27877    0.26909    0.00200    1.000
    O73      O        0.42340    0.27291    0.05780    1.000
    O74      O        0.49550    0.29990    0.94000    1.000
    O75      O        0.41070    0.17220    0.17080    1.000
    O76      O        0.50230    0.10340    0.15670    1.000
    O77      O        0.30110    0.05930    0.79610    1.000
    H60      H        0.31940    0.03620    0.75360    1.000
    O78      O        0.41710    0.07890    0.82930    1.000
    N9       N        0.18810    0.37910    0.97750    1.000
    N10      N        0.37820    0.16410    0.97760    1.000
    N11      N        0.61830    0.83470    0.97780    1.000
    N12      N        0.80680    0.61280    0.97450    1.000
    C49      C        0.65480    0.91200    0.84870    1.000
    C50      C        0.67920    0.86580    0.92520    1.000
    H61      H        0.71000    0.88960    0.97060    1.000
    H62      H        0.70940    0.83160    0.89620    1.000
    C51      C        0.57320    0.88330    0.02560    1.000
    H63      H        0.60250    0.92290    0.03490    1.000
    H64      H        0.53220    0.89470    0.98350    1.000
    C52      C        0.54320    0.86300    0.11880    1.000
    C53      C        0.57710    0.79350    0.91160    1.000
    H65      H        0.54120    0.82040    0.87760    1.000
    H66      H        0.61070    0.77510    0.86430    1.000
    C54      C        0.53840    0.73960    0.96150    1.000
    C55      C        0.90190    0.62440    0.84840    1.000
    C56      C        0.85660    0.65620    0.92370    1.000
    H67      H        0.82770    0.69100    0.89410    1.000
    H68      H        0.88950    0.67660    0.97010    1.000
    C57      C        0.81290    0.53990    0.11740    1.000
    C58      C        0.84670    0.56120    0.02550    1.000
    H69      H        0.85060    0.52310    0.98350    1.000
    H70      H        0.89650    0.57660    0.03840    1.000
    C59      C        0.67910    0.57820    0.94490    1.000
    C60      C        0.75400    0.58570    0.90620    1.000
    H71      H        0.75200    0.61420    0.85020    1.000
    H72      H        0.77160    0.54290    0.88500    1.000
    C61      C        0.10050    0.37040    0.84170    1.000
    C62      C        0.14060    0.33620    0.92210    1.000
    H73      H        0.17020    0.30090    0.89510    1.000
    H74      H        0.10450    0.31640    0.96490    1.000
    C63      C        0.16860    0.44800    0.12300    1.000
    C64      C        0.14580    0.43140    0.02320    1.000
    H75      H        0.14970    0.47070    0.98390    1.000
    H76      H        0.09410    0.41850    0.02420    1.000
    C65      C        0.31550    0.41700    0.97230    1.000
    C66      C        0.24710    0.40280    0.91750    1.000
    H77      H        0.25790    0.37010    0.86850    1.000
    H78      H        0.23110    0.44270    0.88510    1.000
    C67      C        0.35330    0.08740    0.84510    1.000
    C68      C        0.32250    0.12960    0.92260    1.000
    H79      H        0.29370    0.10230    0.96600    1.000
    H80      H        0.28930    0.16170    0.89400    1.000
    C69      C        0.44930    0.13270    0.12370    1.000
    C70      C        0.43050    0.11880    0.02310    1.000
    H81      H        0.41000    0.07460    0.01960    1.000
    H82      H        0.47580    0.11890    0.98570    1.000
    C71      C        0.44910    0.26550    0.97440    1.000
    C72      C        0.41480    0.21230    0.91720    1.000
    H83      H        0.45260    0.19050    0.87920    1.000
    H84      H        0.37900    0.23130    0.87310    1.000
    Mo13     Mo       0.33858    0.23027    0.59552    1.000
    Mo14     Mo       0.25411    0.33360    0.59257    1.000
    Mo15     Mo       0.76377    0.67917    0.59983    1.000
    Mo16     Mo       0.67506    0.78003    0.59992    1.000
    S7       S        0.33343    0.30780    0.71406    1.000
    S8       S        0.69062    0.70944    0.72625    1.000
    Na4      Na       0.50331    0.00115    0.75850    1.000
    O79      O        0.28950    0.06750    0.29990    1.000
    H85      H        0.30310    0.03860    0.26220    1.000
    O80      O        0.40700    0.07210    0.33360    1.000
    O81      O        0.50960    0.10570    0.65080    1.000
    O82      O        0.42570    0.18150    0.66430    1.000
    O83      O        0.51250    0.28750    0.42230    1.000
    O84      O        0.43630    0.27640    0.54190    1.000
    O85      O        0.28790    0.27497    0.49710    1.000
    O86      O        0.33230    0.39990    0.52640    1.000
    O87      O        0.36580    0.44980    0.39450    1.000
    O88      O        0.23230    0.42450    0.65800    1.000
    O89      O        0.16710    0.51330    0.64750    1.000
    O90      O        0.07420    0.33390    0.28780    1.000
    H86      H        0.04820    0.35270    0.24770    1.000
    O91      O        0.08430    0.43320    0.34650    1.000
    O92      O        0.93120    0.67180    0.28670    1.000
    H87      H        0.95960    0.65260    0.24970    1.000
    O93      O        0.90270    0.57220    0.33190    1.000
    O94      O        0.85340    0.49980    0.65380    1.000
    O95      O        0.79500    0.59291    0.67030    1.000
    O96      O        0.63410    0.55320    0.43590    1.000
    O97      O        0.68200    0.60778    0.55540    1.000
    O98      O        0.72123    0.73091    0.50200    1.000
    O99      O        0.57660    0.72709    0.55780    1.000
    O100     O        0.50450    0.70010    0.44000    1.000
    O101     O        0.58930    0.82780    0.67080    1.000
    O102     O        0.49770    0.89660    0.65670    1.000
    O103     O        0.69890    0.94070    0.29610    1.000
    H88      H        0.68060    0.96380    0.25360    1.000
    O104     O        0.58290    0.92110    0.32930    1.000
    N13      N        0.81190    0.62090    0.47750    1.000
    N14      N        0.62180    0.83590    0.47760    1.000
    N15      N        0.38170    0.16530    0.47780    1.000
    N16      N        0.19320    0.38720    0.47450    1.000
    C73      C        0.34520    0.08800    0.34870    1.000
    C74      C        0.32080    0.13420    0.42520    1.000
    H89      H        0.29000    0.11040    0.47060    1.000
    H90      H        0.29060    0.16840    0.39620    1.000
    C75      C        0.42680    0.11670    0.52560    1.000
    H91      H        0.39750    0.07710    0.53490    1.000
    H92      H        0.46780    0.10530    0.48350    1.000
    C76      C        0.45680    0.13700    0.61880    1.000
    C77      C        0.42290    0.20650    0.41160    1.000
    H93      H        0.45880    0.17960    0.37760    1.000
    H94      H        0.38930    0.22490    0.36430    1.000
    C78      C        0.46160    0.26040    0.46150    1.000
    C79      C        0.09810    0.37560    0.34840    1.000
    C80      C        0.14340    0.34380    0.42370    1.000
    H95      H        0.17230    0.30900    0.39410    1.000
    H96      H        0.11050    0.32340    0.47010    1.000
    C81      C        0.18710    0.46010    0.61740    1.000
    C82      C        0.15330    0.43880    0.52550    1.000
    H97      H        0.14940    0.47690    0.48350    1.000
    H98      H        0.10350    0.42340    0.53840    1.000
    C83      C        0.32090    0.42180    0.44490    1.000
    C84      C        0.24600    0.41430    0.40620    1.000
    H99      H        0.24800    0.38580    0.35020    1.000
    H100     H        0.22840    0.45710    0.38500    1.000
    C85      C        0.89950    0.62960    0.34170    1.000
    C86      C        0.85940    0.66380    0.42210    1.000
    H101     H        0.82980    0.69910    0.39510    1.000
    H102     H        0.89550    0.68360    0.46490    1.000
    C87      C        0.83140    0.55200    0.62300    1.000
    C88      C        0.85420    0.56860    0.52320    1.000
    H103     H        0.85030    0.52930    0.48390    1.000
    H104     H        0.90590    0.58150    0.52420    1.000
    C89      C        0.68450    0.58300    0.47230    1.000
    C90      C        0.75290    0.59720    0.41750    1.000
    H105     H        0.74210    0.62990    0.36850    1.000
    H106     H        0.76890    0.55730    0.38510    1.000
    C91      C        0.64670    0.91260    0.34510    1.000
    C92      C        0.67750    0.87040    0.42260    1.000
    H107     H        0.70630    0.89770    0.46600    1.000
    H108     H        0.71070    0.83830    0.39400    1.000
    C93      C        0.55070    0.86730    0.62370    1.000
    C94      C        0.56950    0.88120    0.52310    1.000
    H109     H        0.59000    0.92540    0.51960    1.000
    H110     H        0.52420    0.88110    0.48570    1.000
    C95      C        0.55090    0.73450    0.47440    1.000
    C96      C        0.58520    0.78770    0.41720    1.000
    H111     H        0.54740    0.80950    0.37920    1.000
    H112     H        0.62100    0.76870    0.37310    1.000
