data_functionalizedCrystal
_audit_creation_method	'EQeq! by Chris Wilmer'
_symmetry_space_group_name_H-M	'P1'
_symmetry_Int_Tables_number	1
_symmetry_cell_setting	triclinic
loop_
_symmetry_equiv_pos_as_xyz
  x,y,z
_cell_length_a	9.533
_cell_length_b	12.9239
_cell_length_c	12.9239
_cell_angle_alpha	92.4457
_cell_angle_beta	90
_cell_angle_gamma	90
loop_
_atom_site_label
_atom_site_type_symbol
_atom_site_fract_x
_atom_site_fract_y
_atom_site_fract_z
_atom_site_charge
Mof_Cs	Cs	0.0666	0.0147	0.0147	2.739
Mof_Cs	Cs	0.5666	0.9853	0.9853	3.211
Mof_U 	U 	0.14282	0.90229	0.31855	-0.031
Mof_U 	U 	0.64282	0.09771	0.68145	0.026
Mof_U 	U 	0.64282	0.68145	0.09771	0.026
Mof_U 	U 	0.14282	0.31855	0.90229	-0.031
Mof_U 	U 	0.3152	0.79256	0.79256	0.014
Mof_U 	U 	0.8152	0.20744	0.20744	0.024
Mof_P 	P 	0.2707	0.0706	0.7716	0.346
Mof_P 	P 	0.3366	0.9628	0.5704	0.311
Mof_P 	P 	0.7707	0.9294	0.2284	0.306
Mof_P 	P 	0.8366	0.0372	0.4296	0.373
Mof_P 	P 	0.7707	0.2284	0.9294	0.306
Mof_P 	P 	0.8366	0.4296	0.0372	0.373
Mof_P 	P 	0.2707	0.7716	0.0706	0.346
Mof_P 	P 	0.3366	0.5704	0.9628	0.311
Mof_H 	H 	0.314	0.1905	0.5871	0.283
Mof_H 	H 	0.192	0.1519	0.5139	0.255
Mof_H 	H 	0.1575	0.2084	0.6206	0.268
Mof_H 	H 	0.0552	0.0047	0.5727	0.254
Mof_H 	H 	0.814	0.8095	0.4129	0.344
Mof_H 	H 	0.692	0.8481	0.4861	0.318
Mof_H 	H 	0.6575	0.7916	0.3794	0.335
Mof_H 	H 	0.5552	0.9953	0.4273	0.286
Mof_H 	H 	0.814	0.4129	0.8095	0.344
Mof_H 	H 	0.692	0.4861	0.8481	0.318
Mof_H 	H 	0.6575	0.3794	0.7916	0.335
Mof_H 	H 	0.5552	0.4273	0.9953	0.286
Mof_H 	H 	0.314	0.5871	0.1905	0.283
Mof_H 	H 	0.192	0.5139	0.1519	0.255
Mof_H 	H 	0.1575	0.6206	0.2084	0.268
Mof_H 	H 	0.0552	0.5727	0.0047	0.254
Mof_C 	C 	0.2209	0.0586	0.6362	0.217
Mof_C 	C 	0.2211	0.1618	0.5848	-0.735
Mof_C 	C 	0.7209	0.9414	0.3638	0.229
Mof_C 	C 	0.7211	0.8382	0.4152	-0.841
Mof_C 	C 	0.7209	0.3638	0.9414	0.229
Mof_C 	C 	0.7211	0.4152	0.8382	-0.841
Mof_C 	C 	0.2209	0.6362	0.0586	0.217
Mof_C 	C 	0.2211	0.5848	0.1618	-0.735
Mof_O 	O 	0.1891	0.0219	0.2675	-0.301
Mof_O 	O 	0.2755	0.9414	0.4646	-0.184
Mof_O 	O 	0.1802	0.1533	0.8261	-0.395
Mof_O 	O 	0.2504	0.9663	0.8197	-0.531
Mof_O 	O 	0.1018	0.779	0.3678	-0.142
Mof_O 	O 	0.3912	0.8413	0.3033	-0.105
Mof_O 	O 	0.4837	0.0149	0.5651	-0.171
Mof_O 	O 	0.3408	0.8653	0.6307	-0.161
Mof_O 	O 	0.4248	0.1023	0.7701	-0.317
Mof_O 	O 	0.079	0.0158	0.633	-0.44
Mof_O 	O 	0.6891	0.9781	0.7325	-0.282
Mof_O 	O 	0.7755	0.0586	0.5354	-0.142
Mof_O 	O 	0.6802	0.8467	0.1739	-0.368
Mof_O 	O 	0.7504	0.0337	0.1803	-0.476
Mof_O 	O 	0.6018	0.221	0.6322	-0.078
Mof_O 	O 	0.8912	0.1587	0.6967	-0.031
Mof_O 	O 	0.9837	0.9851	0.4349	-0.132
Mof_O 	O 	0.8408	0.1347	0.3693	-0.133
Mof_O 	O 	0.9248	0.8977	0.2299	-0.24
Mof_O 	O 	0.579	0.9842	0.367	-0.427
Mof_O 	O 	0.6891	0.7325	0.9781	-0.282
Mof_O 	O 	0.7755	0.5354	0.0586	-0.142
Mof_O 	O 	0.6802	0.1739	0.8467	-0.368
Mof_O 	O 	0.7504	0.1803	0.0337	-0.476
Mof_O 	O 	0.6018	0.6322	0.221	-0.078
Mof_O 	O 	0.8912	0.6967	0.1587	-0.031
Mof_O 	O 	0.9837	0.4349	0.9851	-0.132
Mof_O 	O 	0.8408	0.3693	0.1347	-0.133
Mof_O 	O 	0.9248	0.2299	0.8977	-0.24
Mof_O 	O 	0.579	0.367	0.9842	-0.427
Mof_O 	O 	0.1891	0.2675	0.0219	-0.301
Mof_O 	O 	0.2755	0.4646	0.9414	-0.184
Mof_O 	O 	0.1802	0.8261	0.1533	-0.395
Mof_O 	O 	0.2504	0.8197	0.9663	-0.531
Mof_O 	O 	0.1018	0.3678	0.779	-0.142
Mof_O 	O 	0.3912	0.3033	0.8413	-0.105
Mof_O 	O 	0.4837	0.5651	0.0149	-0.171
Mof_O 	O 	0.3408	0.6307	0.8653	-0.161
Mof_O 	O 	0.4248	0.7701	0.1023	-0.317
Mof_O 	O 	0.079	0.633	0.0158	-0.44
Mof_O 	O 	0.144	0.7569	0.7569	-0.153
Mof_O 	O 	0.404	0.6606	0.6606	-0.065
Mof_O 	O 	0.4961	0.8242	0.8242	-0.37
Mof_O 	O 	0.644	0.2431	0.2431	-0.115
Mof_O 	O 	0.904	0.3394	0.3394	-0.011
Mof_O 	O 	0.9961	0.1758	0.1758	-0.25
_end
