# CIF file generated by openbabel 3.1.0, see https://openbabel.org
data_I
_chemical_name_common 'image0'
_cell_length_a 29.846
_cell_length_b 15.6718
_cell_length_c 9.6937
_cell_angle_alpha 90
_cell_angle_beta 90
_cell_angle_gamma 90
_space_group_name_H-M_alt 'P 1'
_space_group_name_Hall 'P 1'
loop_
    _symmetry_equiv_pos_as_xyz
    x,y,z
loop_
    _atom_site_label
    _atom_site_type_symbol
    _atom_site_fract_x
    _atom_site_fract_y
    _atom_site_fract_z
    _atom_site_occupancy
    N1       N        0.68790    0.18170    0.14480    1.000
    N2       N        0.77649    0.24940    0.85720    1.000
    C1       C        0.67830    0.23530    0.73370    1.000
    C2       C        0.66900    0.10540    0.84070    1.000
    H1       H        0.69490    0.28510    0.72300    1.000
    C3       C        0.64720    0.21730    0.63670    1.000
    C4       C        0.63650    0.08670    0.75150    1.000
    H2       H        0.67930    0.06170    0.89730    1.000
    C5       C        0.62100    0.14150    0.66290    1.000
    H3       H        0.64300    0.25110    0.55890    1.000
    H4       H        0.62450    0.03200    0.75250    1.000
    C6       C        0.58360    0.12370    0.56870    1.000
    S1       S        0.53192    0.10067    0.65217    1.000
    S2       S        0.42384    0.12120    0.65178    1.000
    C7       C        0.37610    0.16440    0.56830    1.000
    C8       C        0.34040    0.19230    0.66380    1.000
    C9       C        0.29750    0.17420    0.65160    1.000
    C10      C        0.35160    0.25120    0.78020    1.000
    H5       H        0.28840    0.14290    0.57510    1.000
    C11      C        0.26360    0.20000    0.75080    1.000
    C12      C        0.31940    0.27730    0.86630    1.000
    H6       H        0.38100    0.26970    0.79260    1.000
    H7       H        0.23400    0.18250    0.74160    1.000
    H8       H        0.32700    0.31560    0.93570    1.000
    C13      C        0.64410    0.21150    0.11550    1.000
    H9       H        0.63840    0.24160    0.03470    1.000
    C14      C        0.61130    0.19610    0.20510    1.000
    H10      H        0.58280    0.21770    0.18930    1.000
    C15      C        0.66150    0.10850    0.33330    1.000
    H11      H        0.66880    0.06820    0.39990    1.000
    C16      C        0.69380    0.12930    0.23840    1.000
    H12      H        0.72160    0.10260    0.24480    1.000
    C17      C        0.31780    0.26740    0.34880    1.000
    H13      H        0.32400    0.30140    0.42510    1.000
    C18      C        0.28880    0.29400    0.26360    1.000
    H14      H        0.27480    0.34570    0.28230    1.000
    C19      C        0.29890    0.17160    0.13600    1.000
    H15      H        0.29070    0.13690    0.06240    1.000
    C20      C        0.32970    0.13950    0.21830    1.000
    H16      H        0.34340    0.08710    0.20200    1.000
    N3       N        0.31210    0.81830    0.14480    1.000
    N4       N        0.22351    0.75060    0.85720    1.000
    C21      C        0.32170    0.76470    0.73370    1.000
    C22      C        0.33100    0.89460    0.84070    1.000
    H17      H        0.30510    0.71490    0.72300    1.000
    C23      C        0.35280    0.78270    0.63670    1.000
    C24      C        0.36350    0.91330    0.75150    1.000
    H18      H        0.32070    0.93830    0.89730    1.000
    C25      C        0.37900    0.85850    0.66290    1.000
    H19      H        0.35700    0.74890    0.55890    1.000
    H20      H        0.37550    0.96800    0.75250    1.000
    C26      C        0.41640    0.87630    0.56870    1.000
    S3       S        0.46808    0.89933    0.65217    1.000
    S4       S        0.57616    0.87880    0.65178    1.000
    C27      C        0.62390    0.83560    0.56830    1.000
    C28      C        0.65960    0.80770    0.66380    1.000
    C29      C        0.70250    0.82580    0.65160    1.000
    C30      C        0.64840    0.74880    0.78020    1.000
    H21      H        0.71160    0.85710    0.57510    1.000
    C31      C        0.73640    0.80000    0.75080    1.000
    C32      C        0.68060    0.72270    0.86630    1.000
    H22      H        0.61900    0.73030    0.79260    1.000
    H23      H        0.76600    0.81750    0.74160    1.000
    H24      H        0.67300    0.68440    0.93570    1.000
    C33      C        0.35590    0.78850    0.11550    1.000
    H25      H        0.36160    0.75840    0.03470    1.000
    C34      C        0.38870    0.80390    0.20510    1.000
    H26      H        0.41720    0.78230    0.18930    1.000
    C35      C        0.33850    0.89150    0.33330    1.000
    H27      H        0.33120    0.93180    0.39990    1.000
    C36      C        0.30620    0.87070    0.23840    1.000
    H28      H        0.27840    0.89740    0.24480    1.000
    C37      C        0.68220    0.73260    0.34880    1.000
    H29      H        0.67600    0.69860    0.42510    1.000
    C38      C        0.71120    0.70600    0.26360    1.000
    H30      H        0.72520    0.65430    0.28230    1.000
    C39      C        0.70110    0.82840    0.13600    1.000
    H31      H        0.70930    0.86310    0.06240    1.000
    C40      C        0.67030    0.86050    0.21830    1.000
    H32      H        0.65660    0.91290    0.20200    1.000
    N5       N        0.81210    0.68170    0.85520    1.000
    N6       N        0.72351    0.74940    0.14280    1.000
    C41      C        0.82170    0.73530    0.26630    1.000
    C42      C        0.83100    0.60540    0.15930    1.000
    H33      H        0.80510    0.78510    0.27700    1.000
    C43      C        0.85280    0.71730    0.36330    1.000
    C44      C        0.86350    0.58670    0.24850    1.000
    H34      H        0.82070    0.56170    0.10270    1.000
    C45      C        0.87900    0.64150    0.33710    1.000
    H35      H        0.85700    0.75110    0.44110    1.000
    H36      H        0.87550    0.53200    0.24750    1.000
    C46      C        0.91640    0.62370    0.43130    1.000
    S5       S        0.96808    0.60067    0.34783    1.000
    S6       S        0.07616    0.62120    0.34822    1.000
    C47      C        0.12390    0.66440    0.43170    1.000
    C48      C        0.15960    0.69230    0.33620    1.000
    C49      C        0.20250    0.67420    0.34840    1.000
    C50      C        0.14840    0.75120    0.21980    1.000
    H37      H        0.21160    0.64290    0.42490    1.000
    C51      C        0.23640    0.70000    0.24920    1.000
    C52      C        0.18060    0.77730    0.13370    1.000
    H38      H        0.11900    0.76970    0.20740    1.000
    H39      H        0.26600    0.68250    0.25840    1.000
    H40      H        0.17300    0.81560    0.06430    1.000
    C53      C        0.85590    0.71150    0.88450    1.000
    H41      H        0.86160    0.74160    0.96530    1.000
    C54      C        0.88870    0.69610    0.79490    1.000
    H42      H        0.91720    0.71770    0.81070    1.000
    C55      C        0.83850    0.60850    0.66670    1.000
    H43      H        0.83120    0.56820    0.60010    1.000
    C56      C        0.80620    0.62930    0.76160    1.000
    H44      H        0.77840    0.60260    0.75520    1.000
    C57      C        0.18220    0.76740    0.65120    1.000
    H45      H        0.17600    0.80140    0.57490    1.000
    C58      C        0.21120    0.79400    0.73640    1.000
    H46      H        0.22520    0.84570    0.71770    1.000
    C59      C        0.20110    0.67160    0.86400    1.000
    H47      H        0.20930    0.63690    0.93760    1.000
    C60      C        0.17030    0.63950    0.78170    1.000
    H48      H        0.15660    0.58710    0.79800    1.000
    N7       N        0.18790    0.31830    0.85520    1.000
    N8       N        0.27649    0.25060    0.14280    1.000
    C61      C        0.17830    0.26470    0.26630    1.000
    C62      C        0.16900    0.39460    0.15930    1.000
    H49      H        0.19490    0.21490    0.27700    1.000
    C63      C        0.14720    0.28270    0.36330    1.000
    C64      C        0.13650    0.41330    0.24850    1.000
    H50      H        0.17930    0.43830    0.10270    1.000
    C65      C        0.12100    0.35850    0.33710    1.000
    H51      H        0.14300    0.24890    0.44110    1.000
    H52      H        0.12450    0.46800    0.24750    1.000
    C66      C        0.08360    0.37630    0.43130    1.000
    S7       S        0.03192    0.39933    0.34783    1.000
    S8       S        0.92384    0.37880    0.34822    1.000
    C67      C        0.87610    0.33560    0.43170    1.000
    C68      C        0.84040    0.30770    0.33620    1.000
    C69      C        0.79750    0.32580    0.34840    1.000
    C70      C        0.85160    0.24880    0.21980    1.000
    H53      H        0.78840    0.35710    0.42490    1.000
    C71      C        0.76360    0.30000    0.24920    1.000
    C72      C        0.81940    0.22270    0.13370    1.000
    H54      H        0.88100    0.23030    0.20740    1.000
    H55      H        0.73400    0.31750    0.25840    1.000
    H56      H        0.82700    0.18440    0.06430    1.000
    C73      C        0.14410    0.28850    0.88450    1.000
    H57      H        0.13840    0.25840    0.96530    1.000
    C74      C        0.11130    0.30390    0.79490    1.000
    H58      H        0.08280    0.28230    0.81070    1.000
    C75      C        0.16150    0.39150    0.66670    1.000
    H59      H        0.16880    0.43180    0.60010    1.000
    C76      C        0.19380    0.37070    0.76160    1.000
    H60      H        0.22160    0.39740    0.75520    1.000
    C77      C        0.81780    0.23260    0.65120    1.000
    H61      H        0.82400    0.19860    0.57490    1.000
    C78      C        0.78880    0.20600    0.73640    1.000
    H62      H        0.77480    0.15430    0.71770    1.000
    C79      C        0.79890    0.32840    0.86400    1.000
    H63      H        0.79070    0.36310    0.93760    1.000
    C80      C        0.82970    0.36050    0.78170    1.000
    H64      H        0.84340    0.41290    0.79800    1.000
    N9       N        0.31210    0.81830    0.85520    1.000
    N10      N        0.22351    0.75060    0.14280    1.000
    C81      C        0.32170    0.76470    0.26630    1.000
    C82      C        0.33100    0.89460    0.15930    1.000
    H65      H        0.30510    0.71490    0.27700    1.000
    C83      C        0.35280    0.78270    0.36330    1.000
    C84      C        0.36350    0.91330    0.24850    1.000
    H66      H        0.32070    0.93830    0.10270    1.000
    C85      C        0.37900    0.85850    0.33710    1.000
    H67      H        0.35700    0.74890    0.44110    1.000
    H68      H        0.37550    0.96800    0.24750    1.000
    C86      C        0.41640    0.87630    0.43130    1.000
    S9       S        0.46808    0.89933    0.34783    1.000
    S10      S        0.57616    0.87880    0.34822    1.000
    C87      C        0.62390    0.83560    0.43170    1.000
    C88      C        0.65960    0.80770    0.33620    1.000
    C89      C        0.70250    0.82580    0.34840    1.000
    C90      C        0.64840    0.74880    0.21980    1.000
    H69      H        0.71160    0.85710    0.42490    1.000
    C91      C        0.73640    0.80000    0.24920    1.000
    C92      C        0.68060    0.72270    0.13370    1.000
    H70      H        0.61900    0.73030    0.20740    1.000
    H71      H        0.76600    0.81750    0.25840    1.000
    H72      H        0.67300    0.68440    0.06430    1.000
    C93      C        0.35590    0.78850    0.88450    1.000
    H73      H        0.36160    0.75840    0.96530    1.000
    C94      C        0.38870    0.80390    0.79490    1.000
    H74      H        0.41720    0.78230    0.81070    1.000
    C95      C        0.33850    0.89150    0.66670    1.000
    H75      H        0.33120    0.93180    0.60010    1.000
    C96      C        0.30620    0.87070    0.76160    1.000
    H76      H        0.27840    0.89740    0.75520    1.000
    C97      C        0.68220    0.73260    0.65120    1.000
    H77      H        0.67600    0.69860    0.57490    1.000
    C98      C        0.71120    0.70600    0.73640    1.000
    H78      H        0.72520    0.65430    0.71770    1.000
    C99      C        0.70110    0.82840    0.86400    1.000
    H79      H        0.70930    0.86310    0.93760    1.000
    C100     C        0.67030    0.86050    0.78170    1.000
    H80      H        0.65660    0.91290    0.79800    1.000
    N11      N        0.68790    0.18170    0.85520    1.000
    N12      N        0.77649    0.24940    0.14280    1.000
    C101     C        0.67830    0.23530    0.26630    1.000
    C102     C        0.66900    0.10540    0.15930    1.000
    H81      H        0.69490    0.28510    0.27700    1.000
    C103     C        0.64720    0.21730    0.36330    1.000
    C104     C        0.63650    0.08670    0.24850    1.000
    H82      H        0.67930    0.06170    0.10270    1.000
    C105     C        0.62100    0.14150    0.33710    1.000
    H83      H        0.64300    0.25110    0.44110    1.000
    H84      H        0.62450    0.03200    0.24750    1.000
    C106     C        0.58360    0.12370    0.43130    1.000
    S11      S        0.53192    0.10067    0.34783    1.000
    S12      S        0.42384    0.12120    0.34822    1.000
    C107     C        0.37610    0.16440    0.43170    1.000
    C108     C        0.34040    0.19230    0.33620    1.000
    C109     C        0.29750    0.17420    0.34840    1.000
    C110     C        0.35160    0.25120    0.21980    1.000
    H85      H        0.28840    0.14290    0.42490    1.000
    C111     C        0.26360    0.20000    0.24920    1.000
    C112     C        0.31940    0.27730    0.13370    1.000
    H86      H        0.38100    0.26970    0.20740    1.000
    H87      H        0.23400    0.18250    0.25840    1.000
    H88      H        0.32700    0.31560    0.06430    1.000
    C113     C        0.64410    0.21150    0.88450    1.000
    H89      H        0.63840    0.24160    0.96530    1.000
    C114     C        0.61130    0.19610    0.79490    1.000
    H90      H        0.58280    0.21770    0.81070    1.000
    C115     C        0.66150    0.10850    0.66670    1.000
    H91      H        0.66880    0.06820    0.60010    1.000
    C116     C        0.69380    0.12930    0.76160    1.000
    H92      H        0.72160    0.10260    0.75520    1.000
    C117     C        0.31780    0.26740    0.65120    1.000
    H93      H        0.32400    0.30140    0.57490    1.000
    C118     C        0.28880    0.29400    0.73640    1.000
    H94      H        0.27480    0.34570    0.71770    1.000
    C119     C        0.29890    0.17160    0.86400    1.000
    H95      H        0.29070    0.13690    0.93760    1.000
    C120     C        0.32970    0.13950    0.78170    1.000
    H96      H        0.34340    0.08710    0.79800    1.000
    N13      N        0.18790    0.31830    0.14480    1.000
    N14      N        0.27649    0.25060    0.85720    1.000
    C121     C        0.17830    0.26470    0.73370    1.000
    C122     C        0.16900    0.39460    0.84070    1.000
    H97      H        0.19490    0.21490    0.72300    1.000
    C123     C        0.14720    0.28270    0.63670    1.000
    C124     C        0.13650    0.41330    0.75150    1.000
    H98      H        0.17930    0.43830    0.89730    1.000
    C125     C        0.12100    0.35850    0.66290    1.000
    H99      H        0.14300    0.24890    0.55890    1.000
    H100     H        0.12450    0.46800    0.75250    1.000
    C126     C        0.08360    0.37630    0.56870    1.000
    S13      S        0.03192    0.39933    0.65217    1.000
    S14      S        0.92384    0.37880    0.65178    1.000
    C127     C        0.87610    0.33560    0.56830    1.000
    C128     C        0.84040    0.30770    0.66380    1.000
    C129     C        0.79750    0.32580    0.65160    1.000
    C130     C        0.85160    0.24880    0.78020    1.000
    H101     H        0.78840    0.35710    0.57510    1.000
    C131     C        0.76360    0.30000    0.75080    1.000
    C132     C        0.81940    0.22270    0.86630    1.000
    H102     H        0.88100    0.23030    0.79260    1.000
    H103     H        0.73400    0.31750    0.74160    1.000
    H104     H        0.82700    0.18440    0.93570    1.000
    C133     C        0.14410    0.28850    0.11550    1.000
    H105     H        0.13840    0.25840    0.03470    1.000
    C134     C        0.11130    0.30390    0.20510    1.000
    H106     H        0.08280    0.28230    0.18930    1.000
    C135     C        0.16150    0.39150    0.33330    1.000
    H107     H        0.16880    0.43180    0.39990    1.000
    C136     C        0.19380    0.37070    0.23840    1.000
    H108     H        0.22160    0.39740    0.24480    1.000
    C137     C        0.81780    0.23260    0.34880    1.000
    H109     H        0.82400    0.19860    0.42510    1.000
    C138     C        0.78880    0.20600    0.26360    1.000
    H110     H        0.77480    0.15430    0.28230    1.000
    C139     C        0.79890    0.32840    0.13600    1.000
    H111     H        0.79070    0.36310    0.06240    1.000
    C140     C        0.82970    0.36050    0.21830    1.000
    H112     H        0.84340    0.41290    0.20200    1.000
    N15      N        0.81210    0.68170    0.14480    1.000
    N16      N        0.72351    0.74940    0.85720    1.000
    C141     C        0.82170    0.73530    0.73370    1.000
    C142     C        0.83100    0.60540    0.84070    1.000
    H113     H        0.80510    0.78510    0.72300    1.000
    C143     C        0.85280    0.71730    0.63670    1.000
    C144     C        0.86350    0.58670    0.75150    1.000
    H114     H        0.82070    0.56170    0.89730    1.000
    C145     C        0.87900    0.64150    0.66290    1.000
    H115     H        0.85700    0.75110    0.55890    1.000
    H116     H        0.87550    0.53200    0.75250    1.000
    C146     C        0.91640    0.62370    0.56870    1.000
    S15      S        0.96808    0.60067    0.65217    1.000
    S16      S        0.07616    0.62120    0.65178    1.000
    C147     C        0.12390    0.66440    0.56830    1.000
    C148     C        0.15960    0.69230    0.66380    1.000
    C149     C        0.20250    0.67420    0.65160    1.000
    C150     C        0.14840    0.75120    0.78020    1.000
    H117     H        0.21160    0.64290    0.57510    1.000
    C151     C        0.23640    0.70000    0.75080    1.000
    C152     C        0.18060    0.77730    0.86630    1.000
    H118     H        0.11900    0.76970    0.79260    1.000
    H119     H        0.26600    0.68250    0.74160    1.000
    H120     H        0.17300    0.81560    0.93570    1.000
    C153     C        0.85590    0.71150    0.11550    1.000
    H121     H        0.86160    0.74160    0.03470    1.000
    C154     C        0.88870    0.69610    0.20510    1.000
    H122     H        0.91720    0.71770    0.18930    1.000
    C155     C        0.83850    0.60850    0.33330    1.000
    H123     H        0.83120    0.56820    0.39990    1.000
    C156     C        0.80620    0.62930    0.23840    1.000
    H124     H        0.77840    0.60260    0.24480    1.000
    C157     C        0.18220    0.76740    0.34880    1.000
    H125     H        0.17600    0.80140    0.42510    1.000
    C158     C        0.21120    0.79400    0.26360    1.000
    H126     H        0.22520    0.84570    0.28230    1.000
    C159     C        0.20110    0.67160    0.13600    1.000
    H127     H        0.20930    0.63690    0.06240    1.000
    C160     C        0.17030    0.63950    0.21830    1.000
    H128     H        0.15660    0.58710    0.20200    1.000
    Fe1      Fe       0.73235    0.21474    0.00000    1.000
    N17      N        0.75910    0.10170    0.00000    1.000
    N18      N        0.70860    0.33120    0.00000    1.000
    C161     C        0.78080    0.04380    0.00000    1.000
    N19      N        0.81150    0.98110    0.00000    1.000
    C162     C        0.79830    0.90280    0.00000    1.000
    Fe2      Fe       0.26765    0.78526    0.00000    1.000
    N20      N        0.24090    0.89830    0.00000    1.000
    N21      N        0.29140    0.66880    0.00000    1.000
    C163     C        0.21920    0.95620    0.00000    1.000
    N22      N        0.18850    0.01890    0.00000    1.000
    C164     C        0.20170    0.09720    0.00000    1.000
    Fe3      Fe       0.76765    0.71474    0.00000    1.000
    N23      N        0.74090    0.60170    0.00000    1.000
    N24      N        0.79140    0.83120    0.00000    1.000
    C165     C        0.71920    0.54380    0.00000    1.000
    N25      N        0.68850    0.48110    0.00000    1.000
    C166     C        0.70170    0.40280    0.00000    1.000
    Fe4      Fe       0.23235    0.28526    0.00000    1.000
    N26      N        0.25910    0.39830    0.00000    1.000
    N27      N        0.20860    0.16880    0.00000    1.000
    C167     C        0.28080    0.45620    0.00000    1.000
    N28      N        0.31150    0.51890    0.00000    1.000
    C168     C        0.29830    0.59720    0.00000    1.000
    C169     C        0.50020    0.10650    0.50000    1.000
    C170     C        0.45500    0.11410    0.50000    1.000
    C171     C        0.49980    0.89350    0.50000    1.000
    C172     C        0.54500    0.88590    0.50000    1.000
    C173     C        0.99980    0.60650    0.50000    1.000
    C174     C        0.04500    0.61410    0.50000    1.000
    C175     C        0.00020    0.39350    0.50000    1.000
    C176     C        0.95500    0.38590    0.50000    1.000
