# CIF file generated by openbabel 3.1.0, see https://openbabel.org
data_I
_chemical_name_common 'QALGUH_clean'
_cell_length_a 14.8731
_cell_length_b 6.8365
_cell_length_c 15.2449
_cell_angle_alpha 90
_cell_angle_beta 90
_cell_angle_gamma 90
_space_group_name_H-M_alt 'P 1'
_space_group_name_Hall 'P 1'
loop_
    _symmetry_equiv_pos_as_xyz
    x,y,z
loop_
    _atom_site_label
    _atom_site_type_symbol
    _atom_site_fract_x
    _atom_site_fract_y
    _atom_site_fract_z
    _atom_site_occupancy
    H1       H        0.19680    0.45230    0.69300    1.000
    C2       C        0.21900    0.57650    0.71680    1.000
    O3       O        0.09300    0.59180    0.58210    1.000
    H4       H        0.50000    0.75000    0.11710    1.000
    H5       H        0.69680    0.95230    0.19300    1.000
    C6       C        0.71900    0.07650    0.21680    1.000
    O7       O        0.59300    0.09180    0.08210    1.000
    H9       H        0.80320    0.04770    0.69300    1.000
    C10      C        0.78100    0.92350    0.71680    1.000
    O11      O        0.90700    0.90820    0.58210    1.000
    H13      H        0.30320    0.54770    0.19300    1.000
    C14      C        0.28100    0.42350    0.21680    1.000
    O15      O        0.40700    0.40820    0.08210    1.000
    H16      H        0.00000    0.25000    0.61710    1.000
    H17      H        0.80320    0.95230    0.30700    1.000
    C18      C        0.78100    0.07650    0.28320    1.000
    O19      O        0.90700    0.09180    0.41790    1.000
    H20      H        0.50000    0.25000    0.88290    1.000
    H21      H        0.30320    0.45230    0.80700    1.000
    C22      C        0.28100    0.57650    0.78320    1.000
    O23      O        0.40700    0.59180    0.91790    1.000
    H24      H        0.00000    0.75000    0.38290    1.000
    H25      H        0.19680    0.54770    0.30700    1.000
    C26      C        0.21900    0.42350    0.28320    1.000
    O27      O        0.09300    0.40820    0.41790    1.000
    H29      H        0.69680    0.04770    0.80700    1.000
    C30      C        0.71900    0.92350    0.78320    1.000
    O31      O        0.59300    0.90820    0.91790    1.000
    H33      H        0.80320    0.54770    0.30700    1.000
    C34      C        0.78100    0.42350    0.28320    1.000
    O35      O        0.90700    0.40820    0.41790    1.000
    H37      H        0.30320    0.04770    0.80700    1.000
    C38      C        0.28100    0.92350    0.78320    1.000
    O39      O        0.40700    0.90820    0.91790    1.000
    H41      H        0.19680    0.95230    0.30700    1.000
    C42      C        0.21900    0.07650    0.28320    1.000
    O43      O        0.09300    0.09180    0.41790    1.000
    H45      H        0.69680    0.45230    0.80700    1.000
    C46      C        0.71900    0.57650    0.78320    1.000
    O47      O        0.59300    0.59180    0.91790    1.000
    H49      H        0.19680    0.04770    0.69300    1.000
    C50      C        0.21900    0.92350    0.71680    1.000
    O51      O        0.09300    0.90820    0.58210    1.000
    H53      H        0.69680    0.54770    0.19300    1.000
    C54      C        0.71900    0.42350    0.21680    1.000
    O55      O        0.59300    0.40820    0.08210    1.000
    H57      H        0.80320    0.45230    0.69300    1.000
    C58      C        0.78100    0.57650    0.71680    1.000
    O59      O        0.90700    0.59180    0.58210    1.000
    H61      H        0.30320    0.95230    0.19300    1.000
    C62      C        0.28100    0.07650    0.21680    1.000
    O63      O        0.40700    0.09180    0.08210    1.000
    Cr65     Cr       0.00000    0.50000    0.50000    1.000
    Cr66     Cr       0.50000    0.00000    0.00000    1.000
    Cr67     Cr       0.00000    0.00000    0.50000    1.000
    Cr68     Cr       0.50000    0.50000    0.00000    1.000
    C69      C        0.18790    0.75000    0.68360    1.000
    C70      C        0.12130    0.75000    0.61230    1.000
    C71      C        0.68790    0.25000    0.18360    1.000
    C72      C        0.62130    0.25000    0.11230    1.000
    C73      C        0.81210    0.75000    0.68360    1.000
    C74      C        0.87870    0.75000    0.61230    1.000
    C75      C        0.31210    0.25000    0.18360    1.000
    C76      C        0.37870    0.25000    0.11230    1.000
    C77      C        0.81210    0.25000    0.31640    1.000
    C78      C        0.87870    0.25000    0.38770    1.000
    C79      C        0.31210    0.75000    0.81640    1.000
    C80      C        0.37870    0.75000    0.88770    1.000
    C81      C        0.18790    0.25000    0.31640    1.000
    C82      C        0.12130    0.25000    0.38770    1.000
    C83      C        0.68790    0.75000    0.81640    1.000
    C84      C        0.62130    0.75000    0.88770    1.000
    O85      O        0.00000    0.75000    0.44850    1.000
    O86      O        0.50000    0.25000    0.94850    1.000
    O87      O        0.00000    0.25000    0.55150    1.000
    O88      O        0.50000    0.75000    0.05150    1.000
