data_functionalizedCrystal
_audit_creation_method	'EQeq! by Chris Wilmer'
_symmetry_space_group_name_H-M	'P1'
_symmetry_Int_Tables_number	1
_symmetry_cell_setting	triclinic
loop_
_symmetry_equiv_pos_as_xyz
  x,y,z
_cell_length_a	16.6307
_cell_length_b	16.6307
_cell_length_c	16.3071
_cell_angle_alpha	90
_cell_angle_beta	90
_cell_angle_gamma	90
loop_
_atom_site_label
_atom_site_type_symbol
_atom_site_fract_x
_atom_site_fract_y
_atom_site_fract_z
_atom_site_charge
Mof_C 	C 	0.9234	0.4282	0.63769	0.401
Mof_C 	C 	0.8793	0.3902	0.56739	-0.205
Mof_C 	C 	0.901	0.3161	0.5369	0.14
Mof_H 	H 	0.9442	0.289	0.5603	0.001
Mof_C 	C 	0.8599	0.2811	0.4723	-0.249
Mof_H 	H 	0.8749	0.2309	0.4525	0.123
Mof_C 	C 	0.7954	0.3228	0.4372	0.212
Mof_C 	C 	0.7742	0.3964	0.4686	-0.266
Mof_H 	H 	0.7311	0.4241	0.4457	0.125
Mof_C 	C 	0.8146	0.429	0.5318	0.156
Mof_H 	H 	0.7986	0.4787	0.5521	-0.01
Mof_H 	H 	0.7152	0.2499	0.4014	0.134
Mof_O 	O 	0.89522	0.49304	0.6636	-0.429
Mof_O 	O 	0.98429	0.39378	0.66603	-0.415
Mof_C 	C 	0.4234	0.9282	0.13769	0.365
Mof_C 	C 	0.3793	0.8902	0.06739	-0.112
Mof_C 	C 	0.401	0.8161	0.0369	0
Mof_H 	H 	0.4442	0.789	0.0603	0.041
Mof_C 	C 	0.3599	0.7811	0.9723	-0.113
Mof_H 	H 	0.3749	0.7309	0.9525	0.084
Mof_C 	C 	0.2954	0.8228	0.9372	0.13
Mof_C 	C 	0.2742	0.8964	0.9686	-0.116
Mof_H 	H 	0.2311	0.9241	0.9457	0.082
Mof_C 	C 	0.3146	0.929	0.0318	0.004
Mof_H 	H 	0.2986	0.9787	0.0521	0.034
Mof_H 	H 	0.2152	0.7499	0.9014	0.137
Mof_O 	O 	0.39522	0.99304	0.1636	-0.424
Mof_O 	O 	0.48429	0.89378	0.16603	-0.41
Mof_C 	C 	0.5766	0.0718	0.13769	0.365
Mof_C 	C 	0.6207	0.1098	0.06739	-0.112
Mof_C 	C 	0.599	0.1839	0.0369	0
Mof_H 	H 	0.5558	0.211	0.0603	0.041
Mof_C 	C 	0.6401	0.2189	0.9723	-0.113
Mof_H 	H 	0.6251	0.2691	0.9525	0.084
Mof_C 	C 	0.7046	0.1772	0.9372	0.13
Mof_C 	C 	0.7258	0.1036	0.9686	-0.116
Mof_H 	H 	0.7689	0.0759	0.9457	0.082
Mof_C 	C 	0.6854	0.071	0.0318	0.004
Mof_H 	H 	0.7014	0.0213	0.0521	0.034
Mof_H 	H 	0.7848	0.2501	0.9014	0.137
Mof_O 	O 	0.60478	0.00696	0.1636	-0.424
Mof_O 	O 	0.51571	0.10622	0.16603	-0.41
Mof_C 	C 	0.0766	0.5718	0.63769	0.4
Mof_C 	C 	0.1207	0.6098	0.56739	-0.206
Mof_C 	C 	0.099	0.6839	0.5369	0.139
Mof_H 	H 	0.0558	0.711	0.5603	0
Mof_C 	C 	0.1401	0.7189	0.4723	-0.25
Mof_H 	H 	0.1251	0.7691	0.4525	0.122
Mof_C 	C 	0.2046	0.6772	0.4372	0.211
Mof_C 	C 	0.2258	0.6036	0.4686	-0.267
Mof_H 	H 	0.2689	0.5759	0.4457	0.124
Mof_C 	C 	0.1854	0.571	0.5318	0.155
Mof_H 	H 	0.2014	0.5213	0.5521	-0.01
Mof_H 	H 	0.2848	0.7501	0.4014	0.134
Mof_O 	O 	0.10478	0.50696	0.6636	-0.429
Mof_O 	O 	0.01571	0.60622	0.66603	-0.415
Mof_C 	C 	0.5718	0.4234	0.88769	0.398
Mof_C 	C 	0.6098	0.3793	0.81739	-0.199
Mof_C 	C 	0.6839	0.401	0.7869	0.135
Mof_H 	H 	0.711	0.4442	0.8103	0.004
Mof_C 	C 	0.7189	0.3599	0.7223	-0.247
Mof_H 	H 	0.7691	0.3749	0.7025	0.121
Mof_C 	C 	0.6772	0.2954	0.6872	0.209
Mof_C 	C 	0.6036	0.2742	0.7186	-0.263
Mof_H 	H 	0.5759	0.2311	0.6957	0.124
Mof_C 	C 	0.571	0.3146	0.7818	0.152
Mof_H 	H 	0.5213	0.2986	0.8021	-0.006
Mof_H 	H 	0.7501	0.2152	0.6514	0.134
Mof_O 	O 	0.50696	0.39522	0.9136	-0.414
Mof_O 	O 	0.60622	0.48429	0.91603	-0.401
Mof_C 	C 	0.0718	0.9234	0.38769	0.401
Mof_C 	C 	0.1098	0.8793	0.31739	-0.208
Mof_C 	C 	0.1839	0.901	0.2869	0.14
Mof_H 	H 	0.211	0.9442	0.3103	-0.001
Mof_C 	C 	0.2189	0.8599	0.2223	-0.254
Mof_H 	H 	0.2691	0.8749	0.2025	0.123
Mof_C 	C 	0.1772	0.7954	0.1872	0.212
Mof_C 	C 	0.1036	0.7742	0.2186	-0.271
Mof_H 	H 	0.0759	0.7311	0.1957	0.122
Mof_C 	C 	0.071	0.8146	0.2818	0.157
Mof_H 	H 	0.0213	0.7986	0.3021	-0.012
Mof_H 	H 	0.2501	0.7152	0.1514	0.135
Mof_O 	O 	0.00696	0.89522	0.4136	-0.429
Mof_O 	O 	0.10622	0.98429	0.41603	-0.415
Mof_C 	C 	0.9282	0.0766	0.38769	0.401
Mof_C 	C 	0.8902	0.1207	0.31739	-0.208
Mof_C 	C 	0.8161	0.099	0.2869	0.14
Mof_H 	H 	0.789	0.0558	0.3103	-0.001
Mof_C 	C 	0.7811	0.1401	0.2223	-0.254
Mof_H 	H 	0.7309	0.1251	0.2025	0.123
Mof_C 	C 	0.8228	0.2046	0.1872	0.212
Mof_C 	C 	0.8964	0.2258	0.2186	-0.271
Mof_H 	H 	0.9241	0.2689	0.1957	0.122
Mof_C 	C 	0.929	0.1854	0.2818	0.157
Mof_H 	H 	0.9787	0.2014	0.3021	-0.012
Mof_H 	H 	0.7499	0.2848	0.1514	0.135
Mof_O 	O 	0.99304	0.10478	0.4136	-0.429
Mof_O 	O 	0.89378	0.01571	0.41603	-0.415
Mof_C 	C 	0.4282	0.5766	0.88769	0.398
Mof_C 	C 	0.3902	0.6207	0.81739	-0.199
Mof_C 	C 	0.3161	0.599	0.7869	0.135
Mof_H 	H 	0.289	0.5558	0.8103	0.004
Mof_C 	C 	0.2811	0.6401	0.7223	-0.247
Mof_H 	H 	0.2309	0.6251	0.7025	0.121
Mof_C 	C 	0.3228	0.7046	0.6872	0.209
Mof_C 	C 	0.3964	0.7258	0.7186	-0.263
Mof_H 	H 	0.4241	0.7689	0.6957	0.124
Mof_C 	C 	0.429	0.6854	0.7818	0.152
Mof_H 	H 	0.4787	0.7014	0.8021	-0.006
Mof_H 	H 	0.2499	0.7848	0.6514	0.134
Mof_O 	O 	0.49304	0.60478	0.9136	-0.414
Mof_O 	O 	0.39378	0.51571	0.91603	-0.401
Mof_C 	C 	0.5766	0.4282	0.11231	0.402
Mof_C 	C 	0.6207	0.3902	0.18261	-0.212
Mof_C 	C 	0.599	0.3161	0.2131	0.143
Mof_H 	H 	0.5558	0.289	0.1897	-0.004
Mof_C 	C 	0.6401	0.2811	0.2777	-0.254
Mof_H 	H 	0.6251	0.2309	0.2975	0.123
Mof_C 	C 	0.7046	0.3228	0.3128	0.213
Mof_C 	C 	0.7258	0.3964	0.2814	-0.27
Mof_H 	H 	0.7689	0.4241	0.3043	0.124
Mof_C 	C 	0.6854	0.429	0.2182	0.159
Mof_H 	H 	0.7014	0.4787	0.1979	-0.014
Mof_H 	H 	0.7848	0.2499	0.3486	0.134
Mof_O 	O 	0.60478	0.49304	0.0864	-0.438
Mof_O 	O 	0.51571	0.39378	0.08397	-0.425
Mof_C 	C 	0.0766	0.9282	0.61231	0.4
Mof_C 	C 	0.1207	0.8902	0.68261	-0.203
Mof_C 	C 	0.099	0.8161	0.7131	0.138
Mof_H 	H 	0.0558	0.789	0.6897	0.001
Mof_C 	C 	0.1401	0.7811	0.7777	-0.246
Mof_H 	H 	0.1251	0.7309	0.7975	0.122
Mof_C 	C 	0.2046	0.8228	0.8128	0.21
Mof_C 	C 	0.2258	0.8964	0.7814	-0.261
Mof_H 	H 	0.2689	0.9241	0.8043	0.126
Mof_C 	C 	0.1854	0.929	0.7182	0.154
Mof_H 	H 	0.2014	0.9787	0.6979	-0.008
Mof_H 	H 	0.2848	0.7499	0.8486	0.133
Mof_O 	O 	0.10478	0.99304	0.5864	-0.427
Mof_O 	O 	0.01571	0.89378	0.58397	-0.414
Mof_C 	C 	0.9234	0.0718	0.61231	0.4
Mof_C 	C 	0.8793	0.1098	0.68261	-0.203
Mof_C 	C 	0.901	0.1839	0.7131	0.138
Mof_H 	H 	0.9442	0.211	0.6897	0.001
Mof_C 	C 	0.8599	0.2189	0.7777	-0.246
Mof_H 	H 	0.8749	0.2691	0.7975	0.122
Mof_C 	C 	0.7954	0.1772	0.8128	0.21
Mof_C 	C 	0.7742	0.1036	0.7814	-0.261
Mof_H 	H 	0.7311	0.0759	0.8043	0.126
Mof_C 	C 	0.8146	0.071	0.7182	0.154
Mof_H 	H 	0.7986	0.0213	0.6979	-0.008
Mof_H 	H 	0.7152	0.2501	0.8486	0.133
Mof_O 	O 	0.89522	0.00696	0.5864	-0.427
Mof_O 	O 	0.98429	0.10622	0.58397	-0.414
Mof_C 	C 	0.4234	0.5718	0.11231	0.402
Mof_C 	C 	0.3793	0.6098	0.18261	-0.212
Mof_C 	C 	0.401	0.6839	0.2131	0.143
Mof_H 	H 	0.4442	0.711	0.1897	-0.004
Mof_C 	C 	0.3599	0.7189	0.2777	-0.254
Mof_H 	H 	0.3749	0.7691	0.2975	0.123
Mof_C 	C 	0.2954	0.6772	0.3128	0.213
Mof_C 	C 	0.2742	0.6036	0.2814	-0.27
Mof_H 	H 	0.2311	0.5759	0.3043	0.124
Mof_C 	C 	0.3146	0.571	0.2182	0.159
Mof_H 	H 	0.2986	0.5213	0.1979	-0.014
Mof_H 	H 	0.2152	0.7501	0.3486	0.134
Mof_O 	O 	0.39522	0.50696	0.0864	-0.438
Mof_O 	O 	0.48429	0.60622	0.08397	-0.425
Mof_C 	C 	0.9282	0.4234	0.86231	0.437
Mof_C 	C 	0.8902	0.3793	0.93261	-0.3
Mof_C 	C 	0.8161	0.401	0.9631	0.279
Mof_H 	H 	0.789	0.4442	0.9397	-0.041
Mof_C 	C 	0.7811	0.3599	0.0277	-0.388
Mof_H 	H 	0.7309	0.3749	0.0475	0.162
Mof_C 	C 	0.8228	0.2954	0.0628	0.293
Mof_C 	C 	0.8964	0.2742	0.0314	-0.417
Mof_H 	H 	0.9241	0.2311	0.0543	0.167
Mof_C 	C 	0.929	0.3146	0.9682	0.307
Mof_H 	H 	0.9787	0.2986	0.9479	-0.054
Mof_H 	H 	0.7499	0.2152	0.0986	0.131
Mof_O 	O 	0.99304	0.39522	0.8364	-0.435
Mof_O 	O 	0.89378	0.48429	0.83397	-0.423
Mof_C 	C 	0.4282	0.9234	0.36231	0.402
Mof_C 	C 	0.3902	0.8793	0.43261	-0.207
Mof_C 	C 	0.3161	0.901	0.4631	0.14
Mof_H 	H 	0.289	0.9442	0.4397	-0
Mof_C 	C 	0.2811	0.8599	0.5277	-0.251
Mof_H 	H 	0.2309	0.8749	0.5475	0.123
Mof_C 	C 	0.3228	0.7954	0.5628	0.212
Mof_C 	C 	0.3964	0.7742	0.5314	-0.267
Mof_H 	H 	0.4241	0.7311	0.5543	0.124
Mof_C 	C 	0.429	0.8146	0.4682	0.156
Mof_H 	H 	0.4787	0.7986	0.4479	-0.011
Mof_H 	H 	0.2499	0.7152	0.5986	0.134
Mof_O 	O 	0.49304	0.89522	0.3364	-0.431
Mof_O 	O 	0.39378	0.98429	0.33397	-0.417
Mof_C 	C 	0.5718	0.0766	0.36231	0.402
Mof_C 	C 	0.6098	0.1207	0.43261	-0.207
Mof_C 	C 	0.6839	0.099	0.4631	0.14
Mof_H 	H 	0.711	0.0558	0.4397	-0
Mof_C 	C 	0.7189	0.1401	0.5277	-0.251
Mof_H 	H 	0.7691	0.1251	0.5475	0.123
Mof_C 	C 	0.6772	0.2046	0.5628	0.212
Mof_C 	C 	0.6036	0.2258	0.5314	-0.267
Mof_H 	H 	0.5759	0.2689	0.5543	0.124
Mof_C 	C 	0.571	0.1854	0.4682	0.156
Mof_H 	H 	0.5213	0.2014	0.4479	-0.011
Mof_H 	H 	0.7501	0.2848	0.5986	0.134
Mof_O 	O 	0.50696	0.10478	0.3364	-0.431
Mof_O 	O 	0.60622	0.01571	0.33397	-0.417
Mof_C 	C 	0.0718	0.5766	0.86231	0.437
Mof_C 	C 	0.1098	0.6207	0.93261	-0.3
Mof_C 	C 	0.1839	0.599	0.9631	0.279
Mof_H 	H 	0.211	0.5558	0.9397	-0.041
Mof_C 	C 	0.2189	0.6401	0.0277	-0.388
Mof_H 	H 	0.2691	0.6251	0.0475	0.162
Mof_C 	C 	0.1772	0.7046	0.0628	0.293
Mof_C 	C 	0.1036	0.7258	0.0314	-0.417
Mof_H 	H 	0.0759	0.7689	0.0543	0.167
Mof_C 	C 	0.071	0.6854	0.9682	0.307
Mof_H 	H 	0.0213	0.7014	0.9479	-0.054
Mof_H 	H 	0.2501	0.7848	0.0986	0.131
Mof_O 	O 	0.00696	0.60478	0.8364	-0.435
Mof_O 	O 	0.10622	0.51571	0.83397	-0.423
Mof_Cu	Cu	0.94413	0.55587	0.75	0.905
Mof_Cu	Cu	0.55587	0.94413	0.25	0.902
Mof_Cu	Cu	0.44413	0.44413	-0	0.89
Mof_Cu	Cu	0.05587	0.05587	0.5	0.9
Mof_Cu	Cu	0.55587	0.55587	-0	0.89
Mof_Cu	Cu	0.94413	0.94413	0.5	0.9
Mof_Cu	Cu	0.05587	0.44413	0.75	0.905
Mof_Cu	Cu	0.44413	0.05587	0.25	0.902
Mof_N 	N 	0.75	0.2824	0.375	-0.323
Mof_N 	N 	0.25	0.7824	0.875	-0.308
Mof_N 	N 	0.75	0.2176	0.875	-0.308
Mof_N 	N 	0.25	0.7176	0.375	-0.323
Mof_N 	N 	0.7176	0.25	0.625	-0.322
Mof_N 	N 	0.2176	0.75	0.125	-0.337
Mof_N 	N 	0.7824	0.25	0.125	-0.337
Mof_N 	N 	0.2824	0.75	0.625	-0.322
_end
