data_functionalizedCrystal
_audit_creation_method	'EQeq! by Chris Wilmer'
_symmetry_space_group_name_H-M	'P1'
_symmetry_Int_Tables_number	1
_symmetry_cell_setting	triclinic
loop_
_symmetry_equiv_pos_as_xyz
  x,y,z
_cell_length_a	13.166
_cell_length_b	34.112
_cell_length_c	10.078
_cell_angle_alpha	90
_cell_angle_beta	90
_cell_angle_gamma	90
loop_
_atom_site_label
_atom_site_type_symbol
_atom_site_fract_x
_atom_site_fract_y
_atom_site_fract_z
_atom_site_charge
Mof_O 	O 	0.1853	0.79177	0.1952	-0.651
Mof_O 	O 	0.9038	0.2178	0.3665	-0.487
Mof_O 	O 	0.0282	0.2176	0.5106	-0.299
Mof_O 	O 	0.2073	0.8056	0.4063	-0.624
Mof_N 	N 	0.1375	0.9794	0.1871	-0.227
Mof_H 	H 	0.1335	0.993	0.2589	0.113
Mof_N 	N 	0.1303	0.9856	0.9559	-0.13
Mof_N 	N 	0.1091	0.0666	0.9919	-0.221
Mof_H 	H 	0.1037	0.0921	0.0027	0.132
Mof_N 	N 	0.133	0.0561	0.219	-0.527
Mof_H 	H 	0.1732	0.0428	0.273	0.177
Mof_C 	C 	0.1909	0.8146	0.2886	0.619
Mof_C 	C 	0.1713	0.8579	0.26	-0.286
Mof_C 	C 	0.1208	0.0109	0.8501	0.036
Mof_C 	C 	0.1651	0.8719	0.1323	0.195
Mof_H 	H 	0.1678	0.8538	0.0608	-0.047
Mof_C 	C 	0.1497	0.9378	0.2078	0.222
Mof_C 	C 	0.1553	0.9242	0.3369	-0.266
Mof_H 	H 	0.1517	0.9424	0.4082	0.116
Mof_C 	C 	0.1549	0.9114	0.1042	-0.266
Mof_H 	H 	0.1516	0.9203	0.0149	0.124
Mof_C 	C 	0.1096	0.0507	0.8645	0.075
Mof_C 	C 	0.1307	0.0005	0.0737	0.079
Mof_C 	C 	0.9887	0.106	0.2347	-0.18
Mof_H 	H 	0.9451	0.0903	0.1814	0.086
Mof_C 	C 	0.9541	0.1413	0.2798	0.092
Mof_H 	H 	0.888	0.1503	0.2569	-0.004
Mof_C 	C 	0.1114	0.0205	0.6126	-0.034
Mof_H 	H 	0.1124	0.0103	0.525	0.029
Mof_C 	C 	0.166	0.8855	0.3639	0.186
Mof_H 	H 	0.1698	0.8768	0.4534	-0.026
Mof_C 	C 	0.0178	0.1642	0.3605	-0.153
Mof_C 	C 	0.1237	0.9952	0.7197	-0.077
Mof_H 	H 	0.1337	0.9679	0.7058	0.055
Mof_C 	C 	0.9811	0.2031	0.4161	0.412
Mof_C 	C 	0.117	0.0431	0.098	0.149
Mof_C 	C 	0.0961	0.0761	0.7606	-0.098
Mof_H 	H 	0.0859	0.1033	0.7757	0.068
Mof_C 	C 	0.0978	0.0609	0.6318	-0.017
Mof_H 	H 	0.0897	0.0779	0.5577	0.037
Mof_C 	C 	0.0858	0.092	0.2643	0.125
Mof_C 	C 	0.1511	0.1158	0.3451	-0.153
Mof_H 	H 	0.2186	0.1076	0.3637	0.087
Mof_C 	C 	0.1149	0.1506	0.3953	0.073
Mof_H 	H 	0.1558	0.1655	0.4542	0.022
Mof_N 	N 	0.098	0.0532	0.234	0.276
Mof_O 	O 	0.3147	0.70823	0.1952	-0.652
Mof_O 	O 	0.5962	0.2822	0.3665	-0.489
Mof_O 	O 	0.4718	0.2824	0.5106	-0.302
Mof_O 	O 	0.2927	0.6944	0.4063	-0.623
Mof_N 	N 	0.3625	0.5206	0.1871	-0.227
Mof_H 	H 	0.3665	0.507	0.2589	0.113
Mof_N 	N 	0.3697	0.5144	0.9559	-0.132
Mof_N 	N 	0.3909	0.4334	0.9919	-0.224
Mof_H 	H 	0.3963	0.4079	0.0027	0.134
Mof_N 	N 	0.367	0.4439	0.219	-0.531
Mof_H 	H 	0.3268	0.4572	0.273	0.177
Mof_C 	C 	0.3091	0.6854	0.2886	0.619
Mof_C 	C 	0.3287	0.6421	0.26	-0.285
Mof_C 	C 	0.3792	0.4891	0.8501	0.036
Mof_C 	C 	0.3349	0.6281	0.1323	0.196
Mof_H 	H 	0.3322	0.6462	0.0608	-0.047
Mof_C 	C 	0.3503	0.5622	0.2078	0.223
Mof_C 	C 	0.3447	0.5758	0.3369	-0.266
Mof_H 	H 	0.3483	0.5576	0.4082	0.116
Mof_C 	C 	0.3451	0.5886	0.1042	-0.266
Mof_H 	H 	0.3484	0.5797	0.0149	0.125
Mof_C 	C 	0.3904	0.4493	0.8645	0.075
Mof_C 	C 	0.3693	0.4995	0.0737	0.08
Mof_C 	C 	0.5113	0.394	0.2347	-0.182
Mof_H 	H 	0.5549	0.4097	0.1814	0.087
Mof_C 	C 	0.5459	0.3587	0.2798	0.096
Mof_H 	H 	0.612	0.3497	0.2569	-0.005
Mof_C 	C 	0.3886	0.4795	0.6126	-0.034
Mof_H 	H 	0.3876	0.4897	0.525	0.029
Mof_C 	C 	0.334	0.6145	0.3639	0.186
Mof_H 	H 	0.3302	0.6232	0.4534	-0.026
Mof_C 	C 	0.4822	0.3358	0.3605	-0.157
Mof_C 	C 	0.3763	0.5048	0.7197	-0.077
Mof_H 	H 	0.3663	0.5321	0.7058	0.055
Mof_C 	C 	0.5189	0.2969	0.4161	0.417
Mof_C 	C 	0.383	0.4569	0.098	0.151
Mof_C 	C 	0.4039	0.4239	0.7606	-0.099
Mof_H 	H 	0.4141	0.3967	0.7757	0.067
Mof_C 	C 	0.4022	0.4391	0.6318	-0.017
Mof_H 	H 	0.4103	0.4221	0.5577	0.037
Mof_C 	C 	0.4142	0.408	0.2643	0.127
Mof_C 	C 	0.3489	0.3842	0.3451	-0.154
Mof_H 	H 	0.2814	0.3924	0.3637	0.088
Mof_C 	C 	0.3851	0.3494	0.3953	0.076
Mof_H 	H 	0.3442	0.3345	0.4542	0.021
Mof_N 	N 	0.402	0.4468	0.234	0.279
Mof_O 	O 	0.8147	0.29177	0.3048	-0.652
Mof_O 	O 	0.0962	0.7178	0.1335	-0.483
Mof_O 	O 	0.9718	0.7176	0.9894	-0.284
Mof_O 	O 	0.7927	0.3056	0.0937	-0.612
Mof_N 	N 	0.8625	0.4794	0.3129	-0.227
Mof_H 	H 	0.8665	0.493	0.2411	0.113
Mof_N 	N 	0.8697	0.4856	0.5441	-0.134
Mof_N 	N 	0.8909	0.5666	0.5081	-0.218
Mof_H 	H 	0.8963	0.5921	0.4973	0.129
Mof_N 	N 	0.867	0.5561	0.281	-0.532
Mof_H 	H 	0.8268	0.5428	0.227	0.178
Mof_C 	C 	0.8091	0.3146	0.2114	0.617
Mof_C 	C 	0.8287	0.3579	0.24	-0.282
Mof_C 	C 	0.8792	0.5109	0.6499	0.037
Mof_C 	C 	0.8349	0.3719	0.3677	0.195
Mof_H 	H 	0.8322	0.3538	0.4392	-0.043
Mof_C 	C 	0.8503	0.4378	0.2922	0.223
Mof_C 	C 	0.8447	0.4242	0.1631	-0.264
Mof_H 	H 	0.8483	0.4424	0.0918	0.117
Mof_C 	C 	0.8451	0.4114	0.3958	-0.264
Mof_H 	H 	0.8484	0.4203	0.4851	0.127
Mof_C 	C 	0.8904	0.5507	0.6355	0.074
Mof_C 	C 	0.8693	0.5005	0.4263	0.083
Mof_C 	C 	0.0113	0.606	0.2653	-0.18
Mof_H 	H 	0.0549	0.5903	0.3186	0.084
Mof_C 	C 	0.0459	0.6413	0.2202	0.08
Mof_H 	H 	0.112	0.6503	0.2431	-0.002
Mof_C 	C 	0.8886	0.5205	0.8874	-0.033
Mof_H 	H 	0.8876	0.5103	0.975	0.028
Mof_C 	C 	0.834	0.3855	0.1361	0.185
Mof_H 	H 	0.8302	0.3768	0.0466	-0.021
Mof_C 	C 	0.9822	0.6642	0.1395	-0.14
Mof_C 	C 	0.8763	0.4952	0.7803	-0.079
Mof_H 	H 	0.8663	0.4679	0.7942	0.055
Mof_C 	C 	0.0189	0.7031	0.0839	0.388
Mof_C 	C 	0.883	0.5431	0.402	0.147
Mof_C 	C 	0.9039	0.5761	0.7394	-0.097
Mof_H 	H 	0.9141	0.6033	0.7243	0.068
Mof_C 	C 	0.9022	0.5609	0.8682	-0.019
Mof_H 	H 	0.9103	0.5779	0.9423	0.039
Mof_C 	C 	0.9142	0.592	0.2357	0.125
Mof_C 	C 	0.8489	0.6158	0.1549	-0.149
Mof_H 	H 	0.7814	0.6076	0.1363	0.085
Mof_C 	C 	0.8851	0.6506	0.1047	0.065
Mof_H 	H 	0.8442	0.6655	0.0458	0.022
Mof_N 	N 	0.902	0.5532	0.266	0.281
Mof_O 	O 	0.6853	0.20823	0.3048	-0.652
Mof_O 	O 	0.4038	0.7822	0.1335	-0.485
Mof_O 	O 	0.5282	0.7824	0.9894	-0.287
Mof_O 	O 	0.7073	0.1944	0.0937	-0.612
Mof_N 	N 	0.6375	0.0206	0.3129	-0.227
Mof_H 	H 	0.6335	0.007	0.2411	0.113
Mof_N 	N 	0.6303	0.0144	0.5441	-0.134
Mof_N 	N 	0.6091	0.9334	0.5081	-0.217
Mof_H 	H 	0.6037	0.9079	0.4973	0.128
Mof_N 	N 	0.633	0.9439	0.281	-0.525
Mof_H 	H 	0.6732	0.9572	0.227	0.176
Mof_C 	C 	0.6909	0.1854	0.2114	0.617
Mof_C 	C 	0.6713	0.1421	0.24	-0.282
Mof_C 	C 	0.6208	0.9891	0.6499	0.038
Mof_C 	C 	0.6651	0.1281	0.3677	0.195
Mof_H 	H 	0.6678	0.1462	0.4392	-0.043
Mof_C 	C 	0.6497	0.0622	0.2922	0.223
Mof_C 	C 	0.6553	0.0758	0.1631	-0.263
Mof_H 	H 	0.6517	0.0576	0.0918	0.117
Mof_C 	C 	0.6549	0.0886	0.3958	-0.264
Mof_H 	H 	0.6516	0.0797	0.4851	0.127
Mof_C 	C 	0.6096	0.9493	0.6355	0.073
Mof_C 	C 	0.6307	0.9995	0.4263	0.083
Mof_C 	C 	0.4887	0.894	0.2653	-0.181
Mof_H 	H 	0.4451	0.9097	0.3186	0.085
Mof_C 	C 	0.4541	0.8587	0.2202	0.091
Mof_H 	H 	0.388	0.8497	0.2431	-0.005
Mof_C 	C 	0.6114	0.9795	0.8874	-0.032
Mof_H 	H 	0.6124	0.9897	0.975	0.028
Mof_C 	C 	0.666	0.1145	0.1361	0.185
Mof_H 	H 	0.6698	0.1232	0.0466	-0.021
Mof_C 	C 	0.5178	0.8358	0.1395	-0.153
Mof_C 	C 	0.6237	0.0048	0.7803	-0.08
Mof_H 	H 	0.6337	0.0321	0.7942	0.056
Mof_C 	C 	0.4811	0.7969	0.0839	0.399
Mof_C 	C 	0.617	0.9569	0.402	0.146
Mof_C 	C 	0.5961	0.9239	0.7394	-0.096
Mof_H 	H 	0.5859	0.8967	0.7243	0.068
Mof_C 	C 	0.5978	0.9391	0.8682	-0.019
Mof_H 	H 	0.5897	0.9221	0.9423	0.04
Mof_C 	C 	0.5858	0.908	0.2357	0.124
Mof_C 	C 	0.6511	0.8842	0.1549	-0.153
Mof_H 	H 	0.7186	0.8924	0.1363	0.086
Mof_C 	C 	0.6149	0.8494	0.1047	0.071
Mof_H 	H 	0.6558	0.8345	0.0458	0.02
Mof_N 	N 	0.598	0.9468	0.266	0.275
Mof_O 	O 	0.8147	0.20823	0.8048	-0.652
Mof_O 	O 	0.0962	0.7822	0.6335	-0.488
Mof_O 	O 	0.9718	0.7824	0.4894	-0.299
Mof_O 	O 	0.7927	0.1944	0.5937	-0.624
Mof_N 	N 	0.8625	0.0206	0.8129	-0.227
Mof_H 	H 	0.8665	0.007	0.7411	0.113
Mof_N 	N 	0.8697	0.0144	0.0441	-0.13
Mof_N 	N 	0.8909	0.9334	0.0081	-0.221
Mof_H 	H 	0.8963	0.9079	0.9973	0.132
Mof_N 	N 	0.867	0.9439	0.781	-0.527
Mof_H 	H 	0.8268	0.9572	0.727	0.177
Mof_C 	C 	0.8091	0.1854	0.7114	0.619
Mof_C 	C 	0.8287	0.1421	0.74	-0.286
Mof_C 	C 	0.8792	0.9891	0.1499	0.036
Mof_C 	C 	0.8349	0.1281	0.8677	0.195
Mof_H 	H 	0.8322	0.1462	0.9392	-0.047
Mof_C 	C 	0.8503	0.0622	0.7922	0.222
Mof_C 	C 	0.8447	0.0758	0.6631	-0.266
Mof_H 	H 	0.8483	0.0576	0.5918	0.116
Mof_C 	C 	0.8451	0.0886	0.8958	-0.266
Mof_H 	H 	0.8484	0.0797	0.9851	0.124
Mof_C 	C 	0.8904	0.9493	0.1355	0.075
Mof_C 	C 	0.8693	0.9995	0.9263	0.079
Mof_C 	C 	0.0113	0.894	0.7653	-0.18
Mof_H 	H 	0.0549	0.9097	0.8186	0.086
Mof_C 	C 	0.0459	0.8587	0.7202	0.092
Mof_H 	H 	0.112	0.8497	0.7431	-0.004
Mof_C 	C 	0.8886	0.9795	0.3874	-0.034
Mof_H 	H 	0.8876	0.9897	0.475	0.029
Mof_C 	C 	0.834	0.1145	0.6361	0.186
Mof_H 	H 	0.8302	0.1232	0.5466	-0.026
Mof_C 	C 	0.9822	0.8358	0.6395	-0.153
Mof_C 	C 	0.8763	0.0048	0.2803	-0.077
Mof_H 	H 	0.8663	0.0321	0.2942	0.055
Mof_C 	C 	0.0189	0.7969	0.5839	0.412
Mof_C 	C 	0.883	0.9569	0.902	0.149
Mof_C 	C 	0.9039	0.9239	0.2394	-0.098
Mof_H 	H 	0.9141	0.8967	0.2243	0.068
Mof_C 	C 	0.9022	0.9391	0.3682	-0.017
Mof_H 	H 	0.9103	0.9221	0.4423	0.037
Mof_C 	C 	0.9142	0.908	0.7357	0.125
Mof_C 	C 	0.8489	0.8842	0.6549	-0.153
Mof_H 	H 	0.7814	0.8924	0.6363	0.087
Mof_C 	C 	0.8851	0.8494	0.6047	0.073
Mof_H 	H 	0.8442	0.8345	0.5458	0.022
Mof_N 	N 	0.902	0.9468	0.766	0.276
Mof_O 	O 	0.6853	0.29177	0.8048	-0.652
Mof_O 	O 	0.4038	0.7178	0.6335	-0.489
Mof_O 	O 	0.5282	0.7176	0.4894	-0.302
Mof_O 	O 	0.7073	0.3056	0.5937	-0.623
Mof_N 	N 	0.6375	0.4794	0.8129	-0.227
Mof_H 	H 	0.6335	0.493	0.7411	0.113
Mof_N 	N 	0.6303	0.4856	0.0441	-0.132
Mof_N 	N 	0.6091	0.5666	0.0081	-0.224
Mof_H 	H 	0.6037	0.5921	0.9973	0.134
Mof_N 	N 	0.633	0.5561	0.781	-0.531
Mof_H 	H 	0.6732	0.5428	0.727	0.177
Mof_C 	C 	0.6909	0.3146	0.7114	0.619
Mof_C 	C 	0.6713	0.3579	0.74	-0.285
Mof_C 	C 	0.6208	0.5109	0.1499	0.036
Mof_C 	C 	0.6651	0.3719	0.8677	0.196
Mof_H 	H 	0.6678	0.3538	0.9392	-0.047
Mof_C 	C 	0.6497	0.4378	0.7922	0.223
Mof_C 	C 	0.6553	0.4242	0.6631	-0.266
Mof_H 	H 	0.6517	0.4424	0.5918	0.116
Mof_C 	C 	0.6549	0.4114	0.8958	-0.266
Mof_H 	H 	0.6516	0.4203	0.9851	0.125
Mof_C 	C 	0.6096	0.5507	0.1355	0.075
Mof_C 	C 	0.6307	0.5005	0.9263	0.08
Mof_C 	C 	0.4887	0.606	0.7653	-0.182
Mof_H 	H 	0.4451	0.5903	0.8186	0.087
Mof_C 	C 	0.4541	0.6413	0.7202	0.096
Mof_H 	H 	0.388	0.6503	0.7431	-0.005
Mof_C 	C 	0.6114	0.5205	0.3874	-0.034
Mof_H 	H 	0.6124	0.5103	0.475	0.029
Mof_C 	C 	0.666	0.3855	0.6361	0.186
Mof_H 	H 	0.6698	0.3768	0.5466	-0.026
Mof_C 	C 	0.5178	0.6642	0.6395	-0.157
Mof_C 	C 	0.6237	0.4952	0.2803	-0.077
Mof_H 	H 	0.6337	0.4679	0.2942	0.055
Mof_C 	C 	0.4811	0.7031	0.5839	0.417
Mof_C 	C 	0.617	0.5431	0.902	0.151
Mof_C 	C 	0.5961	0.5761	0.2394	-0.099
Mof_H 	H 	0.5859	0.6033	0.2243	0.067
Mof_C 	C 	0.5978	0.5609	0.3682	-0.017
Mof_H 	H 	0.5897	0.5779	0.4423	0.037
Mof_C 	C 	0.5858	0.592	0.7357	0.127
Mof_C 	C 	0.6511	0.6158	0.6549	-0.154
Mof_H 	H 	0.7186	0.6076	0.6363	0.088
Mof_C 	C 	0.6149	0.6506	0.6047	0.076
Mof_H 	H 	0.6558	0.6655	0.5458	0.021
Mof_N 	N 	0.598	0.5532	0.766	0.279
Mof_O 	O 	0.1853	0.70823	0.6952	-0.652
Mof_O 	O 	0.9038	0.2822	0.8665	-0.483
Mof_O 	O 	0.0282	0.2824	0.0106	-0.284
Mof_O 	O 	0.2073	0.6944	0.9063	-0.612
Mof_N 	N 	0.1375	0.5206	0.6871	-0.227
Mof_H 	H 	0.1335	0.507	0.7589	0.113
Mof_N 	N 	0.1303	0.5144	0.4559	-0.134
Mof_N 	N 	0.1091	0.4334	0.4919	-0.218
Mof_H 	H 	0.1037	0.4079	0.5027	0.129
Mof_N 	N 	0.133	0.4439	0.719	-0.532
Mof_H 	H 	0.1732	0.4572	0.773	0.178
Mof_C 	C 	0.1909	0.6854	0.7886	0.617
Mof_C 	C 	0.1713	0.6421	0.76	-0.282
Mof_C 	C 	0.1208	0.4891	0.3501	0.037
Mof_C 	C 	0.1651	0.6281	0.6323	0.195
Mof_H 	H 	0.1678	0.6462	0.5608	-0.043
Mof_C 	C 	0.1497	0.5622	0.7078	0.223
Mof_C 	C 	0.1553	0.5758	0.8369	-0.264
Mof_H 	H 	0.1517	0.5576	0.9082	0.117
Mof_C 	C 	0.1549	0.5886	0.6042	-0.264
Mof_H 	H 	0.1516	0.5797	0.5149	0.127
Mof_C 	C 	0.1096	0.4493	0.3645	0.074
Mof_C 	C 	0.1307	0.4995	0.5737	0.083
Mof_C 	C 	0.9887	0.394	0.7347	-0.18
Mof_H 	H 	0.9451	0.4097	0.6814	0.084
Mof_C 	C 	0.9541	0.3587	0.7798	0.08
Mof_H 	H 	0.888	0.3497	0.7569	-0.002
Mof_C 	C 	0.1114	0.4795	0.1126	-0.033
Mof_H 	H 	0.1124	0.4897	0.025	0.028
Mof_C 	C 	0.166	0.6145	0.8639	0.185
Mof_H 	H 	0.1698	0.6232	0.9534	-0.021
Mof_C 	C 	0.0178	0.3358	0.8605	-0.14
Mof_C 	C 	0.1237	0.5048	0.2197	-0.079
Mof_H 	H 	0.1337	0.5321	0.2058	0.055
Mof_C 	C 	0.9811	0.2969	0.9161	0.388
Mof_C 	C 	0.117	0.4569	0.598	0.147
Mof_C 	C 	0.0961	0.4239	0.2606	-0.097
Mof_H 	H 	0.0859	0.3967	0.2757	0.068
Mof_C 	C 	0.0978	0.4391	0.1318	-0.019
Mof_H 	H 	0.0897	0.4221	0.0577	0.039
Mof_C 	C 	0.0858	0.408	0.7643	0.125
Mof_C 	C 	0.1511	0.3842	0.8451	-0.149
Mof_H 	H 	0.2186	0.3924	0.8637	0.085
Mof_C 	C 	0.1149	0.3494	0.8953	0.065
Mof_H 	H 	0.1558	0.3345	0.9542	0.022
Mof_N 	N 	0.098	0.4468	0.734	0.281
Mof_O 	O 	0.3147	0.79177	0.6952	-0.652
Mof_O 	O 	0.5962	0.2178	0.8665	-0.485
Mof_O 	O 	0.4718	0.2176	0.0106	-0.287
Mof_O 	O 	0.2927	0.8056	0.9063	-0.612
Mof_N 	N 	0.3625	0.9794	0.6871	-0.227
Mof_H 	H 	0.3665	0.993	0.7589	0.113
Mof_N 	N 	0.3697	0.9856	0.4559	-0.134
Mof_N 	N 	0.3909	0.0666	0.4919	-0.217
Mof_H 	H 	0.3963	0.0921	0.5027	0.128
Mof_N 	N 	0.367	0.0561	0.719	-0.525
Mof_H 	H 	0.3268	0.0428	0.773	0.176
Mof_C 	C 	0.3091	0.8146	0.7886	0.617
Mof_C 	C 	0.3287	0.8579	0.76	-0.282
Mof_C 	C 	0.3792	0.0109	0.3501	0.038
Mof_C 	C 	0.3349	0.8719	0.6323	0.195
Mof_H 	H 	0.3322	0.8538	0.5608	-0.043
Mof_C 	C 	0.3503	0.9378	0.7078	0.223
Mof_C 	C 	0.3447	0.9242	0.8369	-0.263
Mof_H 	H 	0.3483	0.9424	0.9082	0.117
Mof_C 	C 	0.3451	0.9114	0.6042	-0.264
Mof_H 	H 	0.3484	0.9203	0.5149	0.127
Mof_C 	C 	0.3904	0.0507	0.3645	0.073
Mof_C 	C 	0.3693	0.0005	0.5737	0.083
Mof_C 	C 	0.5113	0.106	0.7347	-0.181
Mof_H 	H 	0.5549	0.0903	0.6814	0.085
Mof_C 	C 	0.5459	0.1413	0.7798	0.091
Mof_H 	H 	0.612	0.1503	0.7569	-0.005
Mof_C 	C 	0.3886	0.0205	0.1126	-0.032
Mof_H 	H 	0.3876	0.0103	0.025	0.028
Mof_C 	C 	0.334	0.8855	0.8639	0.185
Mof_H 	H 	0.3302	0.8768	0.9534	-0.021
Mof_C 	C 	0.4822	0.1642	0.8605	-0.153
Mof_C 	C 	0.3763	0.9952	0.2197	-0.08
Mof_H 	H 	0.3663	0.9679	0.2058	0.056
Mof_C 	C 	0.5189	0.2031	0.9161	0.399
Mof_C 	C 	0.383	0.0431	0.598	0.146
Mof_C 	C 	0.4039	0.0761	0.2606	-0.096
Mof_H 	H 	0.4141	0.1033	0.2757	0.068
Mof_C 	C 	0.4022	0.0609	0.1318	-0.019
Mof_H 	H 	0.4103	0.0779	0.0577	0.04
Mof_C 	C 	0.4142	0.092	0.7643	0.124
Mof_C 	C 	0.3489	0.1158	0.8451	-0.153
Mof_H 	H 	0.2814	0.1076	0.8637	0.086
Mof_C 	C 	0.3851	0.1506	0.8953	0.071
Mof_H 	H 	0.3442	0.1655	0.9542	0.02
Mof_N 	N 	0.402	0.0532	0.734	0.275
Mof_Eu	Eu	0.25	0.75	0.0359	2.338
Mof_Eu	Eu	0.75	0.25	0.4641	2.373
Mof_Eu	Eu	0.75	0.25	0.9641	2.338
Mof_Eu	Eu	0.25	0.75	0.5359	2.373
_end
