# CIF file generated by openbabel 3.1.0, see https://openbabel.org
data_I
_chemical_name_common 'HOYTUL_clean'
_cell_length_a 12.902
_cell_length_b 13.03
_cell_length_c 13.101
_cell_angle_alpha 70.26
_cell_angle_beta 73.03
_cell_angle_gamma 71.98
_space_group_name_H-M_alt 'P 1'
_space_group_name_Hall 'P 1'
loop_
    _symmetry_equiv_pos_as_xyz
    x,y,z
loop_
    _atom_site_label
    _atom_site_type_symbol
    _atom_site_fract_x
    _atom_site_fract_y
    _atom_site_fract_z
    _atom_site_occupancy
    Yb1      Yb       0.66271    0.65707    0.66437    1.000
    Na1      Na       0.68350    0.15180    0.66390    1.000
    Na2      Na       0.67840    0.67320    0.15350    1.000
    Na3      Na       0.15760    0.65150    0.67890    1.000
    H1       H        0.70010    0.89900    0.24270    1.000
    H2       H        0.66290    0.07630    0.27100    1.000
    H3       H        0.62440    0.09040    0.45340    1.000
    H4       H        0.08810    0.44170    0.63050    1.000
    H5       H        0.06760    0.26020    0.67350    1.000
    H6       H        0.88960    0.22950    0.71320    1.000
    H7       H        0.23990    0.70020    0.88550    1.000
    H8       H        0.26960    0.66920    0.06130    1.000
    H9       H        0.45320    0.63030    0.08420    1.000
    H10      H        0.54170    0.31630    0.50480    1.000
    H11      H        0.77530    0.02320    0.84720    1.000
    H12      H        0.28850    0.60860    0.48370    1.000
    H13      H        0.06150    0.49480    0.87410    1.000
    C1       C        0.68090    0.81590    0.40540    1.000
    C2       C        0.68400    0.90730    0.31380    1.000
    C3       C        0.66230    0.01260    0.33090    1.000
    C4       C        0.63960    0.02130    0.43940    1.000
    C5       C        0.64060    0.92350    0.52490    1.000
    C6       C        0.62010    0.92360    0.64390    1.000
    C7       C        0.70770    0.69650    0.39710    1.000
    C8       C        0.92490    0.51540    0.64410    1.000
    C9       C        0.01760    0.42820    0.64620    1.000
    C10      C        0.00540    0.32000    0.67200    1.000
    C11      C        0.90000    0.30150    0.69540    1.000
    C12      C        0.81070    0.39370    0.69150    1.000
    C13      C        0.69100    0.38650    0.71720    1.000
    C14      C        0.92810    0.63580    0.62010    1.000
    C15      C        0.40220    0.68050    0.80900    1.000
    C16      C        0.31170    0.68490    0.89670    1.000
    C17      C        0.32930    0.66620    0.00120    1.000
    C18      C        0.43850    0.64280    0.01500    1.000
    C19      C        0.52380    0.63890    0.92250    1.000
    C20      C        0.64570    0.61620    0.92780    1.000
    C21      C        0.39320    0.70650    0.69090    1.000
    N1       N        0.65950    0.82460    0.50870    1.000
    N2       N        0.82380    0.49810    0.66600    1.000
    N3       N        0.50740    0.65660    0.82290    1.000
    O1       O        0.61570    0.82810    0.71390    1.000
    O2       O        0.61350    0.00990    0.66760    1.000
    O3       O        0.73300    0.67950    0.30560    1.000
    O4       O        0.70400    0.62110    0.49050    1.000
    O5       O        0.61980    0.47960    0.71180    1.000
    O6       O        0.67100    0.29270    0.74480    1.000
    O7       O        0.01720    0.65900    0.60740    1.000
    O8       O        0.83540    0.70630    0.61280    1.000
    O9       O        0.71440    0.60470    0.83540    1.000
    O10      O        0.66990    0.60980    0.01250    1.000
    O11      O        0.29910    0.73350    0.66900    1.000
    O12      O        0.48600    0.70270    0.62030    1.000
    O13      O        0.55740    0.29510    0.57470    1.000
    O14      O        0.79750    0.03070    0.78690    1.000
    O15      O        0.29600    0.57140    0.55200    1.000
    O16      O        0.13810    0.49340    0.84120    1.000
    Yb2      Yb       0.33729    0.34293    0.33563    1.000
    Na4      Na       0.31650    0.84820    0.33610    1.000
    Na5      Na       0.32160    0.32680    0.84650    1.000
    Na6      Na       0.84240    0.34850    0.32110    1.000
    H14      H        0.93850    0.50520    0.12590    1.000
    H15      H        0.29990    0.10100    0.75730    1.000
    H16      H        0.33710    0.92370    0.72900    1.000
    H17      H        0.37560    0.90960    0.54660    1.000
    H18      H        0.91190    0.55830    0.36950    1.000
    H19      H        0.93240    0.73980    0.32650    1.000
    H20      H        0.11040    0.77050    0.28680    1.000
    H21      H        0.76010    0.29980    0.11450    1.000
    H22      H        0.73040    0.33080    0.93870    1.000
    H23      H        0.54680    0.36970    0.91580    1.000
    H24      H        0.45830    0.68370    0.49520    1.000
    H25      H        0.22470    0.97680    0.15280    1.000
    H26      H        0.71150    0.39140    0.51630    1.000
    C22      C        0.31910    0.18410    0.59460    1.000
    C23      C        0.31600    0.09270    0.68620    1.000
    C24      C        0.33770    0.98740    0.66910    1.000
    C25      C        0.36040    0.97870    0.56060    1.000
    C26      C        0.35940    0.07650    0.47510    1.000
    C27      C        0.37990    0.07640    0.35610    1.000
    C28      C        0.29230    0.30350    0.60290    1.000
    C29      C        0.07510    0.48460    0.35590    1.000
    C30      C        0.98240    0.57180    0.35380    1.000
    C31      C        0.99460    0.68000    0.32800    1.000
    C32      C        0.10000    0.69850    0.30460    1.000
    C33      C        0.18930    0.60630    0.30850    1.000
    C34      C        0.30900    0.61350    0.28280    1.000
    C35      C        0.07190    0.36420    0.37990    1.000
    C36      C        0.59780    0.31950    0.19100    1.000
    C37      C        0.68830    0.31510    0.10330    1.000
    C38      C        0.67070    0.33380    0.99880    1.000
    C39      C        0.56150    0.35720    0.98500    1.000
    C40      C        0.47620    0.36110    0.07750    1.000
    C41      C        0.35430    0.38380    0.07220    1.000
    C42      C        0.60680    0.29350    0.30910    1.000
    N4       N        0.34050    0.17540    0.49130    1.000
    N5       N        0.17620    0.50190    0.33400    1.000
    N6       N        0.49260    0.34340    0.17710    1.000
    O17      O        0.86190    0.50660    0.15880    1.000
    O18      O        0.38430    0.17190    0.28610    1.000
    O19      O        0.38650    0.99010    0.33240    1.000
    O20      O        0.26700    0.32050    0.69440    1.000
    O21      O        0.29600    0.37890    0.50950    1.000
    O22      O        0.38020    0.52040    0.28820    1.000
    O23      O        0.32900    0.70730    0.25520    1.000
    O24      O        0.98280    0.34100    0.39260    1.000
    O25      O        0.16460    0.29370    0.38720    1.000
    O26      O        0.28560    0.39530    0.16460    1.000
    O27      O        0.33010    0.39020    0.98750    1.000
    O28      O        0.70090    0.26650    0.33100    1.000
    O29      O        0.51400    0.29730    0.37970    1.000
    O30      O        0.44260    0.70490    0.42530    1.000
    O31      O        0.20250    0.96930    0.21310    1.000
    O32      O        0.70400    0.42860    0.44800    1.000
