# CIF file generated by openbabel 3.1.0, see https://openbabel.org
data_I
_chemical_name_common 'image0'
_cell_length_a 8.5466
_cell_length_b 10.1703
_cell_length_c 11.1921
_cell_angle_alpha 65.531
_cell_angle_beta 71.886
_cell_angle_gamma 78.796
_space_group_name_H-M_alt 'P 1'
_space_group_name_Hall 'P 1'
loop_
    _symmetry_equiv_pos_as_xyz
    x,y,z
loop_
    _atom_site_label
    _atom_site_type_symbol
    _atom_site_fract_x
    _atom_site_fract_y
    _atom_site_fract_z
    _atom_site_occupancy
    Tb1      Tb       0.36688    0.06013    0.84597    1.000
    O1       O        0.32530    0.23480    0.63280    1.000
    O2       O        0.10170    0.19840    0.80570    1.000
    O3       O        0.55980    0.97510    0.67640    1.000
    O4       O        0.65480    0.11910    0.73660    1.000
    O5       O        0.36780    0.29090    0.85690    1.000
    O6       O        0.46820    0.13130    0.02250    1.000
    C1       C        0.91940    0.43110    0.63460    1.000
    H1       H        0.86400    0.38530    0.72510    1.000
    C2       C        0.08320    0.38950    0.58820    1.000
    C3       C        0.16240    0.45910    0.45330    1.000
    H2       H        0.27260    0.43190    0.42090    1.000
    C4       C        0.17520    0.26800    0.68100    1.000
    C5       C        0.86940    0.93060    0.50800    1.000
    H3       H        0.78230    0.88430    0.51330    1.000
    C6       C        0.84460    0.01760    0.58280    1.000
    C7       C        0.97590    0.08590    0.57370    1.000
    H4       H        0.95930    0.14370    0.62340    1.000
    C8       C        0.67690    0.03830    0.66950    1.000
    C9       C        0.45900    0.36930    0.10910    1.000
    H5       H        0.43130    0.28250    0.18200    1.000
    C10      C        0.46780    0.38330    0.97790    1.000
    C11      C        0.50810    0.51450    0.86920    1.000
    H6       H        0.51300    0.52430    0.78180    1.000
    C12      C        0.43350    0.26130    0.95140    1.000
    Tb2      Tb       0.63312    0.93987    0.15403    1.000
    O7       O        0.67470    0.76520    0.36720    1.000
    O8       O        0.89830    0.80160    0.19430    1.000
    O9       O        0.44020    0.02490    0.32360    1.000
    O10      O        0.34520    0.88090    0.26340    1.000
    O11      O        0.63220    0.70910    0.14310    1.000
    O12      O        0.53180    0.86870    0.97750    1.000
    C13      C        0.08060    0.56890    0.36540    1.000
    H7       H        0.13600    0.61470    0.27490    1.000
    C14      C        0.91680    0.61050    0.41180    1.000
    C15      C        0.83760    0.54090    0.54670    1.000
    H8       H        0.72740    0.56810    0.57910    1.000
    C16      C        0.82480    0.73200    0.31900    1.000
    C17      C        0.13060    0.06940    0.49200    1.000
    H9       H        0.21770    0.11570    0.48670    1.000
    C18      C        0.15540    0.98240    0.41720    1.000
    C19      C        0.02410    0.91410    0.42630    1.000
    H10      H        0.04070    0.85630    0.37660    1.000
    C20      C        0.32310    0.96170    0.33050    1.000
    C21      C        0.54100    0.63070    0.89090    1.000
    H11      H        0.56870    0.71750    0.81800    1.000
    C22      C        0.53220    0.61670    0.02210    1.000
    C23      C        0.49190    0.48550    0.13080    1.000
    H12      H        0.48700    0.47570    0.21820    1.000
    C24      C        0.56650    0.73870    0.04860    1.000
