# CIF file generated by openbabel 3.1.0, see https://openbabel.org
data_I
_chemical_name_common 'image0'
_cell_length_a 22.07
_cell_length_b 16.4328
_cell_length_c 25.6173
_cell_angle_alpha 90
_cell_angle_beta 115.315
_cell_angle_gamma 90
_space_group_name_H-M_alt 'P 1'
_space_group_name_Hall 'P 1'
loop_
    _symmetry_equiv_pos_as_xyz
    x,y,z
loop_
    _atom_site_label
    _atom_site_type_symbol
    _atom_site_fract_x
    _atom_site_fract_y
    _atom_site_fract_z
    _atom_site_occupancy
    Ag1      Ag       0.34417    0.95761    0.36780    1.000
    Ag2      Ag       0.32282    0.25282    0.86720    1.000
    C1       C        0.12390    0.25680    0.50186    1.000
    C2       C        0.03320    0.31230    0.41090    1.000
    H1       H        0.05490    0.29140    0.38970    1.000
    C3       C        0.44410    0.34350    0.96480    1.000
    H2       H        0.42410    0.31560    0.98490    1.000
    C4       C        0.59780    0.47020    0.00070    1.000
    C5       C        0.77800    0.63790    0.00920    1.000
    H3       H        0.79890    0.63420    0.04920    1.000
    C6       C        0.06000    0.30180    0.46980    1.000
    C7       C        0.23520    0.06460    0.38840    1.000
    H4       H        0.21320    0.05750    0.34860    1.000
    C8       C        0.50360    0.38370    0.99630    1.000
    H5       H        0.52320    0.38230    0.03650    1.000
    C9       C        0.72010    0.65210    0.89220    1.000
    H6       H        0.69990    0.65660    0.85220    1.000
    C10      C        0.20970    0.22640    0.58730    1.000
    C11      C        0.29790    0.08430    0.50470    1.000
    H7       H        0.32020    0.08880    0.54460    1.000
    C12      C        0.53360    0.42640    0.96667    1.000
    C13      C        0.02600    0.33530    0.49960    1.000
    H8       H        0.04340    0.33060    0.53960    1.000
    C14      C        0.96690    0.37530    0.46940    1.000
    H9       H        0.94460    0.39710    0.48980    1.000
    C15      C        0.24330    0.23710    0.65100    1.000
    C16      C        0.68250    0.55180    0.00660    1.000
    C17      C        0.71550    0.60150    0.97750    1.000
    C18      C        0.68030    0.50220    0.08790    1.000
    C19      C        0.67910    0.45590    0.18100    1.000
    H10      H        0.63500    0.43840    0.16090    1.000
    C20      C        0.20540    0.17210    0.50510    1.000
    C21      C        0.97340    0.35450    0.38390    1.000
    H11      H        0.95620    0.36230    0.34410    1.000
    C22      C        0.80740    0.50490    0.24250    1.000
    H12      H        0.85150    0.52160    0.26340    1.000
    C23      C        0.23590    0.12140    0.47440    1.000
    C24      C        0.32560    0.04040    0.47380    1.000
    H13      H        0.36760    0.01690    0.49410    1.000
    C25      C        0.20380    0.10990    0.41500    1.000
    H14      H        0.16180    0.13250    0.39340    1.000
    C26      C        0.71240    0.49150    0.15170    1.000
    C27      C        0.80790    0.67980    0.97900    1.000
    H15      H        0.84930    0.70430    0.00010    1.000
    C28      C        0.68650    0.61000    0.91830    1.000
    H16      H        0.64460    0.58750    0.89620    1.000
    C29      C        0.50240    0.42710    0.90700    1.000
    H17      H        0.52060    0.45630    0.88600    1.000
    C30      C        0.44360    0.38350    0.87900    1.000
    H18      H        0.42370    0.38270    0.83880    1.000
    C31      C        0.71190    0.44660    0.24040    1.000
    H19      H        0.68900    0.42270    0.25960    1.000
    C32      C        0.21550    0.28860    0.67780    1.000
    H20      H        0.17700    0.31830    0.65610    1.000
    C33      C        0.24580    0.29520    0.73720    1.000
    H21      H        0.22690    0.33020    0.75470    1.000
    C34      C        0.30230    0.19780    0.68490    1.000
    H22      H        0.32410    0.16580    0.66820    1.000
    C35      C        0.77830    0.51670    0.18330    1.000
    H23      H        0.80220    0.54090    0.16510    1.000
    C36      C        0.32840    0.20720    0.74410    1.000
    H24      H        0.36760    0.17920    0.76670    1.000
    N1       N        0.93922    0.38460    0.41173    1.000
    N2       N        0.29547    0.03020    0.41670    1.000
    N3       N        0.30080    0.25390    0.77089    1.000
    N4       N        0.15295    0.26800    0.55910    1.000
    N5       N        0.14800    0.21090    0.47237    1.000
    N6       N        0.23813    0.17760    0.56265    1.000
    N7       N        0.41350    0.34230    0.90683    1.000
    N8       N        0.78020    0.68680    0.92143    1.000
    N9       N        0.77580    0.47100    0.27145    1.000
    N10      N        0.62287    0.46240    0.05853    1.000
    N11      N        0.62625    0.51150    0.97295    1.000
    N12      N        0.71152    0.54950    0.06460    1.000
    Ag3      Ag       0.84417    0.45761    0.36780    1.000
    Ag4      Ag       0.82282    0.75282    0.86720    1.000
    C37      C        0.62390    0.75680    0.50186    1.000
    C38      C        0.53320    0.81230    0.41090    1.000
    H25      H        0.55490    0.79140    0.38970    1.000
    C39      C        0.94410    0.84350    0.96480    1.000
    H26      H        0.92410    0.81560    0.98490    1.000
    C40      C        0.09780    0.97020    0.00070    1.000
    C41      C        0.27800    0.13790    0.00920    1.000
    H27      H        0.29890    0.13420    0.04920    1.000
    C42      C        0.56000    0.80180    0.46980    1.000
    C43      C        0.73520    0.56460    0.38840    1.000
    H28      H        0.71320    0.55750    0.34860    1.000
    C44      C        0.00360    0.88370    0.99630    1.000
    H29      H        0.02320    0.88230    0.03650    1.000
    C45      C        0.22010    0.15210    0.89220    1.000
    H30      H        0.19990    0.15660    0.85220    1.000
    C46      C        0.70970    0.72640    0.58730    1.000
    C47      C        0.79790    0.58430    0.50470    1.000
    H31      H        0.82020    0.58880    0.54460    1.000
    C48      C        0.03360    0.92640    0.96667    1.000
    C49      C        0.52600    0.83530    0.49960    1.000
    H32      H        0.54340    0.83060    0.53960    1.000
    C50      C        0.46690    0.87530    0.46940    1.000
    H33      H        0.44460    0.89710    0.48980    1.000
    C51      C        0.74330    0.73710    0.65100    1.000
    C52      C        0.18250    0.05180    0.00660    1.000
    C53      C        0.21550    0.10150    0.97750    1.000
    C54      C        0.18030    0.00220    0.08790    1.000
    C55      C        0.17910    0.95590    0.18100    1.000
    H34      H        0.13500    0.93840    0.16090    1.000
    C56      C        0.70540    0.67210    0.50510    1.000
    C57      C        0.47340    0.85450    0.38390    1.000
    H35      H        0.45620    0.86230    0.34410    1.000
    C58      C        0.30740    0.00490    0.24250    1.000
    H36      H        0.35150    0.02160    0.26340    1.000
    C59      C        0.73590    0.62140    0.47440    1.000
    C60      C        0.82560    0.54040    0.47380    1.000
    H37      H        0.86760    0.51690    0.49410    1.000
    C61      C        0.70380    0.60990    0.41500    1.000
    H38      H        0.66180    0.63250    0.39340    1.000
    C62      C        0.21240    0.99150    0.15170    1.000
    C63      C        0.30790    0.17980    0.97900    1.000
    H39      H        0.34930    0.20430    0.00010    1.000
    C64      C        0.18650    0.11000    0.91830    1.000
    H40      H        0.14460    0.08750    0.89620    1.000
    C65      C        0.00240    0.92710    0.90700    1.000
    H41      H        0.02060    0.95630    0.88600    1.000
    C66      C        0.94360    0.88350    0.87900    1.000
    H42      H        0.92370    0.88270    0.83880    1.000
    C67      C        0.21190    0.94660    0.24040    1.000
    H43      H        0.18900    0.92270    0.25960    1.000
    C68      C        0.71550    0.78860    0.67780    1.000
    H44      H        0.67700    0.81830    0.65610    1.000
    C69      C        0.74580    0.79520    0.73720    1.000
    H45      H        0.72690    0.83020    0.75470    1.000
    C70      C        0.80230    0.69780    0.68490    1.000
    H46      H        0.82410    0.66580    0.66820    1.000
    C71      C        0.27830    0.01670    0.18330    1.000
    H47      H        0.30220    0.04090    0.16510    1.000
    C72      C        0.82840    0.70720    0.74410    1.000
    H48      H        0.86760    0.67920    0.76670    1.000
    N13      N        0.43922    0.88460    0.41173    1.000
    N14      N        0.79547    0.53020    0.41670    1.000
    N15      N        0.80080    0.75390    0.77089    1.000
    N16      N        0.65295    0.76800    0.55910    1.000
    N17      N        0.64800    0.71090    0.47237    1.000
    N18      N        0.73813    0.67760    0.56265    1.000
    N19      N        0.91350    0.84230    0.90683    1.000
    N20      N        0.28020    0.18680    0.92143    1.000
    N21      N        0.27580    0.97100    0.27145    1.000
    N22      N        0.12287    0.96240    0.05853    1.000
    N23      N        0.12625    0.01150    0.97295    1.000
    N24      N        0.21152    0.04950    0.06460    1.000
    Ag5      Ag       0.65583    0.95761    0.13220    1.000
    Ag6      Ag       0.67718    0.25282    0.63280    1.000
    C73      C        0.87610    0.25680    0.99814    1.000
    C74      C        0.96680    0.31230    0.08910    1.000
    H49      H        0.94510    0.29140    0.11030    1.000
    C75      C        0.55590    0.34350    0.53520    1.000
    H50      H        0.57590    0.31560    0.51510    1.000
    C76      C        0.40220    0.47020    0.49930    1.000
    C77      C        0.22200    0.63790    0.49080    1.000
    H51      H        0.20110    0.63420    0.45080    1.000
    C78      C        0.94000    0.30180    0.03020    1.000
    C79      C        0.76480    0.06460    0.11160    1.000
    H52      H        0.78680    0.05750    0.15140    1.000
    C80      C        0.49640    0.38370    0.50370    1.000
    H53      H        0.47680    0.38230    0.46350    1.000
    C81      C        0.27990    0.65210    0.60780    1.000
    H54      H        0.30010    0.65660    0.64780    1.000
    C82      C        0.79030    0.22640    0.91270    1.000
    C83      C        0.70210    0.08430    0.99530    1.000
    H55      H        0.67980    0.08880    0.95540    1.000
    C84      C        0.46640    0.42640    0.53333    1.000
    C85      C        0.97400    0.33530    0.00040    1.000
    H56      H        0.95660    0.33060    0.96040    1.000
    C86      C        0.03310    0.37530    0.03060    1.000
    H57      H        0.05540    0.39710    0.01020    1.000
    C87      C        0.75670    0.23710    0.84900    1.000
    C88      C        0.31750    0.55180    0.49340    1.000
    C89      C        0.28450    0.60150    0.52250    1.000
    C90      C        0.31970    0.50220    0.41210    1.000
    C91      C        0.32090    0.45590    0.31900    1.000
    H58      H        0.36500    0.43840    0.33910    1.000
    C92      C        0.79460    0.17210    0.99490    1.000
    C93      C        0.02660    0.35450    0.11610    1.000
    H59      H        0.04380    0.36230    0.15590    1.000
    C94      C        0.19260    0.50490    0.25750    1.000
    H60      H        0.14850    0.52160    0.23660    1.000
    C95      C        0.76410    0.12140    0.02560    1.000
    C96      C        0.67440    0.04040    0.02620    1.000
    H61      H        0.63240    0.01690    0.00590    1.000
    C97      C        0.79620    0.10990    0.08500    1.000
    H62      H        0.83820    0.13250    0.10660    1.000
    C98      C        0.28760    0.49150    0.34830    1.000
    C99      C        0.19210    0.67980    0.52100    1.000
    H63      H        0.15070    0.70430    0.49990    1.000
    C100     C        0.31350    0.61000    0.58170    1.000
    H64      H        0.35540    0.58750    0.60380    1.000
    C101     C        0.49760    0.42710    0.59300    1.000
    H65      H        0.47940    0.45630    0.61400    1.000
    C102     C        0.55640    0.38350    0.62100    1.000
    H66      H        0.57630    0.38270    0.66120    1.000
    C103     C        0.28810    0.44660    0.25960    1.000
    H67      H        0.31100    0.42270    0.24040    1.000
    C104     C        0.78450    0.28860    0.82220    1.000
    H68      H        0.82300    0.31830    0.84390    1.000
    C105     C        0.75420    0.29520    0.76280    1.000
    H69      H        0.77310    0.33020    0.74530    1.000
    C106     C        0.69770    0.19780    0.81510    1.000
    H70      H        0.67590    0.16580    0.83180    1.000
    C107     C        0.22170    0.51670    0.31670    1.000
    H71      H        0.19780    0.54090    0.33490    1.000
    C108     C        0.67160    0.20720    0.75590    1.000
    H72      H        0.63240    0.17920    0.73330    1.000
    N25      N        0.06078    0.38460    0.08827    1.000
    N26      N        0.70453    0.03020    0.08330    1.000
    N27      N        0.69920    0.25390    0.72911    1.000
    N28      N        0.84705    0.26800    0.94090    1.000
    N29      N        0.85200    0.21090    0.02763    1.000
    N30      N        0.76187    0.17760    0.93735    1.000
    N31      N        0.58650    0.34230    0.59317    1.000
    N32      N        0.21980    0.68680    0.57857    1.000
    N33      N        0.22420    0.47100    0.22855    1.000
    N34      N        0.37713    0.46240    0.44147    1.000
    N35      N        0.37375    0.51150    0.52705    1.000
    N36      N        0.28848    0.54950    0.43540    1.000
    Ag7      Ag       0.15583    0.45761    0.13220    1.000
    Ag8      Ag       0.17718    0.75282    0.63280    1.000
    C109     C        0.37610    0.75680    0.99814    1.000
    C110     C        0.46680    0.81230    0.08910    1.000
    H73      H        0.44510    0.79140    0.11030    1.000
    C111     C        0.05590    0.84350    0.53520    1.000
    H74      H        0.07590    0.81560    0.51510    1.000
    C112     C        0.90220    0.97020    0.49930    1.000
    C113     C        0.72200    0.13790    0.49080    1.000
    H75      H        0.70110    0.13420    0.45080    1.000
    C114     C        0.44000    0.80180    0.03020    1.000
    C115     C        0.26480    0.56460    0.11160    1.000
    H76      H        0.28680    0.55750    0.15140    1.000
    C116     C        0.99640    0.88370    0.50370    1.000
    H77      H        0.97680    0.88230    0.46350    1.000
    C117     C        0.77990    0.15210    0.60780    1.000
    H78      H        0.80010    0.15660    0.64780    1.000
    C118     C        0.29030    0.72640    0.91270    1.000
    C119     C        0.20210    0.58430    0.99530    1.000
    H79      H        0.17980    0.58880    0.95540    1.000
    C120     C        0.96640    0.92640    0.53333    1.000
    C121     C        0.47400    0.83530    0.00040    1.000
    H80      H        0.45660    0.83060    0.96040    1.000
    C122     C        0.53310    0.87530    0.03060    1.000
    H81      H        0.55540    0.89710    0.01020    1.000
    C123     C        0.25670    0.73710    0.84900    1.000
    C124     C        0.81750    0.05180    0.49340    1.000
    C125     C        0.78450    0.10150    0.52250    1.000
    C126     C        0.81970    0.00220    0.41210    1.000
    C127     C        0.82090    0.95590    0.31900    1.000
    H82      H        0.86500    0.93840    0.33910    1.000
    C128     C        0.29460    0.67210    0.99490    1.000
    C129     C        0.52660    0.85450    0.11610    1.000
    H83      H        0.54380    0.86230    0.15590    1.000
    C130     C        0.69260    0.00490    0.25750    1.000
    H84      H        0.64850    0.02160    0.23660    1.000
    C131     C        0.26410    0.62140    0.02560    1.000
    C132     C        0.17440    0.54040    0.02620    1.000
    H85      H        0.13240    0.51690    0.00590    1.000
    C133     C        0.29620    0.60990    0.08500    1.000
    H86      H        0.33820    0.63250    0.10660    1.000
    C134     C        0.78760    0.99150    0.34830    1.000
    C135     C        0.69210    0.17980    0.52100    1.000
    H87      H        0.65070    0.20430    0.49990    1.000
    C136     C        0.81350    0.11000    0.58170    1.000
    H88      H        0.85540    0.08750    0.60380    1.000
    C137     C        0.99760    0.92710    0.59300    1.000
    H89      H        0.97940    0.95630    0.61400    1.000
    C138     C        0.05640    0.88350    0.62100    1.000
    H90      H        0.07630    0.88270    0.66120    1.000
    C139     C        0.78810    0.94660    0.25960    1.000
    H91      H        0.81100    0.92270    0.24040    1.000
    C140     C        0.28450    0.78860    0.82220    1.000
    H92      H        0.32300    0.81830    0.84390    1.000
    C141     C        0.25420    0.79520    0.76280    1.000
    H93      H        0.27310    0.83020    0.74530    1.000
    C142     C        0.19770    0.69780    0.81510    1.000
    H94      H        0.17590    0.66580    0.83180    1.000
    C143     C        0.72170    0.01670    0.31670    1.000
    H95      H        0.69780    0.04090    0.33490    1.000
    C144     C        0.17160    0.70720    0.75590    1.000
    H96      H        0.13240    0.67920    0.73330    1.000
    N37      N        0.56078    0.88460    0.08827    1.000
    N38      N        0.20453    0.53020    0.08330    1.000
    N39      N        0.19920    0.75390    0.72911    1.000
    N40      N        0.34705    0.76800    0.94090    1.000
    N41      N        0.35200    0.71090    0.02763    1.000
    N42      N        0.26187    0.67760    0.93735    1.000
    N43      N        0.08650    0.84230    0.59317    1.000
    N44      N        0.71980    0.18680    0.57857    1.000
    N45      N        0.72420    0.97100    0.22855    1.000
    N46      N        0.87713    0.96240    0.44147    1.000
    N47      N        0.87375    0.01150    0.52705    1.000
    N48      N        0.78848    0.04950    0.43540    1.000
    Ag9      Ag       0.65583    0.04239    0.63220    1.000
    Ag10     Ag       0.67718    0.74718    0.13280    1.000
    C145     C        0.87610    0.74320    0.49814    1.000
    C146     C        0.96680    0.68770    0.58910    1.000
    H97      H        0.94510    0.70860    0.61030    1.000
    C147     C        0.55590    0.65650    0.03520    1.000
    H98      H        0.57590    0.68440    0.01510    1.000
    C148     C        0.40220    0.52980    0.99930    1.000
    C149     C        0.22200    0.36210    0.99080    1.000
    H99      H        0.20110    0.36580    0.95080    1.000
    C150     C        0.94000    0.69820    0.53020    1.000
    C151     C        0.76480    0.93540    0.61160    1.000
    H100     H        0.78680    0.94250    0.65140    1.000
    C152     C        0.49640    0.61630    0.00370    1.000
    H101     H        0.47680    0.61770    0.96350    1.000
    C153     C        0.27990    0.34790    0.10780    1.000
    H102     H        0.30010    0.34340    0.14780    1.000
    C154     C        0.79030    0.77360    0.41270    1.000
    C155     C        0.70210    0.91570    0.49530    1.000
    H103     H        0.67980    0.91120    0.45540    1.000
    C156     C        0.46640    0.57360    0.03333    1.000
    C157     C        0.97400    0.66470    0.50040    1.000
    H104     H        0.95660    0.66940    0.46040    1.000
    C158     C        0.03310    0.62470    0.53060    1.000
    H105     H        0.05540    0.60290    0.51020    1.000
    C159     C        0.75670    0.76290    0.34900    1.000
    C160     C        0.31750    0.44820    0.99340    1.000
    C161     C        0.28450    0.39850    0.02250    1.000
    C162     C        0.31970    0.49780    0.91210    1.000
    C163     C        0.32090    0.54410    0.81900    1.000
    H106     H        0.36500    0.56160    0.83910    1.000
    C164     C        0.79460    0.82790    0.49490    1.000
    C165     C        0.02660    0.64550    0.61610    1.000
    H107     H        0.04380    0.63770    0.65590    1.000
    C166     C        0.19260    0.49510    0.75750    1.000
    H108     H        0.14850    0.47840    0.73660    1.000
    C167     C        0.76410    0.87860    0.52560    1.000
    C168     C        0.67440    0.95960    0.52620    1.000
    H109     H        0.63240    0.98310    0.50590    1.000
    C169     C        0.79620    0.89010    0.58500    1.000
    H110     H        0.83820    0.86750    0.60660    1.000
    C170     C        0.28760    0.50850    0.84830    1.000
    C171     C        0.19210    0.32020    0.02100    1.000
    H111     H        0.15070    0.29570    0.99990    1.000
    C172     C        0.31350    0.39000    0.08170    1.000
    H112     H        0.35540    0.41250    0.10380    1.000
    C173     C        0.49760    0.57290    0.09300    1.000
    H113     H        0.47940    0.54370    0.11400    1.000
    C174     C        0.55640    0.61650    0.12100    1.000
    H114     H        0.57630    0.61730    0.16120    1.000
    C175     C        0.28810    0.55340    0.75960    1.000
    H115     H        0.31100    0.57730    0.74040    1.000
    C176     C        0.78450    0.71140    0.32220    1.000
    H116     H        0.82300    0.68170    0.34390    1.000
    C177     C        0.75420    0.70480    0.26280    1.000
    H117     H        0.77310    0.66980    0.24530    1.000
    C178     C        0.69770    0.80220    0.31510    1.000
    H118     H        0.67590    0.83420    0.33180    1.000
    C179     C        0.22170    0.48330    0.81670    1.000
    H119     H        0.19780    0.45910    0.83490    1.000
    C180     C        0.67160    0.79280    0.25590    1.000
    H120     H        0.63240    0.82080    0.23330    1.000
    N49      N        0.06078    0.61540    0.58827    1.000
    N50      N        0.70453    0.96980    0.58330    1.000
    N51      N        0.69920    0.74610    0.22911    1.000
    N52      N        0.84705    0.73200    0.44090    1.000
    N53      N        0.85200    0.78910    0.52763    1.000
    N54      N        0.76187    0.82240    0.43735    1.000
    N55      N        0.58650    0.65770    0.09317    1.000
    N56      N        0.21980    0.31320    0.07857    1.000
    N57      N        0.22420    0.52900    0.72855    1.000
    N58      N        0.37713    0.53760    0.94147    1.000
    N59      N        0.37375    0.48850    0.02705    1.000
    N60      N        0.28848    0.45050    0.93540    1.000
    Ag11     Ag       0.15583    0.54239    0.63220    1.000
    Ag12     Ag       0.17718    0.24718    0.13280    1.000
    C181     C        0.37610    0.24320    0.49814    1.000
    C182     C        0.46680    0.18770    0.58910    1.000
    H121     H        0.44510    0.20860    0.61030    1.000
    C183     C        0.05590    0.15650    0.03520    1.000
    H122     H        0.07590    0.18440    0.01510    1.000
    C184     C        0.90220    0.02980    0.99930    1.000
    C185     C        0.72200    0.86210    0.99080    1.000
    H123     H        0.70110    0.86580    0.95080    1.000
    C186     C        0.44000    0.19820    0.53020    1.000
    C187     C        0.26480    0.43540    0.61160    1.000
    H124     H        0.28680    0.44250    0.65140    1.000
    C188     C        0.99640    0.11630    0.00370    1.000
    H125     H        0.97680    0.11770    0.96350    1.000
    C189     C        0.77990    0.84790    0.10780    1.000
    H126     H        0.80010    0.84340    0.14780    1.000
    C190     C        0.29030    0.27360    0.41270    1.000
    C191     C        0.20210    0.41570    0.49530    1.000
    H127     H        0.17980    0.41120    0.45540    1.000
    C192     C        0.96640    0.07360    0.03333    1.000
    C193     C        0.47400    0.16470    0.50040    1.000
    H128     H        0.45660    0.16940    0.46040    1.000
    C194     C        0.53310    0.12470    0.53060    1.000
    H129     H        0.55540    0.10290    0.51020    1.000
    C195     C        0.25670    0.26290    0.34900    1.000
    C196     C        0.81750    0.94820    0.99340    1.000
    C197     C        0.78450    0.89850    0.02250    1.000
    C198     C        0.81970    0.99780    0.91210    1.000
    C199     C        0.82090    0.04410    0.81900    1.000
    H130     H        0.86500    0.06160    0.83910    1.000
    C200     C        0.29460    0.32790    0.49490    1.000
    C201     C        0.52660    0.14550    0.61610    1.000
    H131     H        0.54380    0.13770    0.65590    1.000
    C202     C        0.69260    0.99510    0.75750    1.000
    H132     H        0.64850    0.97840    0.73660    1.000
    C203     C        0.26410    0.37860    0.52560    1.000
    C204     C        0.17440    0.45960    0.52620    1.000
    H133     H        0.13240    0.48310    0.50590    1.000
    C205     C        0.29620    0.39010    0.58500    1.000
    H134     H        0.33820    0.36750    0.60660    1.000
    C206     C        0.78760    0.00850    0.84830    1.000
    C207     C        0.69210    0.82020    0.02100    1.000
    H135     H        0.65070    0.79570    0.99990    1.000
    C208     C        0.81350    0.89000    0.08170    1.000
    H136     H        0.85540    0.91250    0.10380    1.000
    C209     C        0.99760    0.07290    0.09300    1.000
    H137     H        0.97940    0.04370    0.11400    1.000
    C210     C        0.05640    0.11650    0.12100    1.000
    H138     H        0.07630    0.11730    0.16120    1.000
    C211     C        0.78810    0.05340    0.75960    1.000
    H139     H        0.81100    0.07730    0.74040    1.000
    C212     C        0.28450    0.21140    0.32220    1.000
    H140     H        0.32300    0.18170    0.34390    1.000
    C213     C        0.25420    0.20480    0.26280    1.000
    H141     H        0.27310    0.16980    0.24530    1.000
    C214     C        0.19770    0.30220    0.31510    1.000
    H142     H        0.17590    0.33420    0.33180    1.000
    C215     C        0.72170    0.98330    0.81670    1.000
    H143     H        0.69780    0.95910    0.83490    1.000
    C216     C        0.17160    0.29280    0.25590    1.000
    H144     H        0.13240    0.32080    0.23330    1.000
    N61      N        0.56078    0.11540    0.58827    1.000
    N62      N        0.20453    0.46980    0.58330    1.000
    N63      N        0.19920    0.24610    0.22911    1.000
    N64      N        0.34705    0.23200    0.44090    1.000
    N65      N        0.35200    0.28910    0.52763    1.000
    N66      N        0.26187    0.32240    0.43735    1.000
    N67      N        0.08650    0.15770    0.09317    1.000
    N68      N        0.71980    0.81320    0.07857    1.000
    N69      N        0.72420    0.02900    0.72855    1.000
    N70      N        0.87713    0.03760    0.94147    1.000
    N71      N        0.87375    0.98850    0.02705    1.000
    N72      N        0.78848    0.95050    0.93540    1.000
    Ag13     Ag       0.34417    0.04239    0.86780    1.000
    Ag14     Ag       0.32282    0.74718    0.36720    1.000
    C217     C        0.12390    0.74320    0.00186    1.000
    C218     C        0.03320    0.68770    0.91090    1.000
    H145     H        0.05490    0.70860    0.88970    1.000
    C219     C        0.44410    0.65650    0.46480    1.000
    H146     H        0.42410    0.68440    0.48490    1.000
    C220     C        0.59780    0.52980    0.50070    1.000
    C221     C        0.77800    0.36210    0.50920    1.000
    H147     H        0.79890    0.36580    0.54920    1.000
    C222     C        0.06000    0.69820    0.96980    1.000
    C223     C        0.23520    0.93540    0.88840    1.000
    H148     H        0.21320    0.94250    0.84860    1.000
    C224     C        0.50360    0.61630    0.49630    1.000
    H149     H        0.52320    0.61770    0.53650    1.000
    C225     C        0.72010    0.34790    0.39220    1.000
    H150     H        0.69990    0.34340    0.35220    1.000
    C226     C        0.20970    0.77360    0.08730    1.000
    C227     C        0.29790    0.91570    0.00470    1.000
    H151     H        0.32020    0.91120    0.04460    1.000
    C228     C        0.53360    0.57360    0.46667    1.000
    C229     C        0.02600    0.66470    0.99960    1.000
    H152     H        0.04340    0.66940    0.03960    1.000
    C230     C        0.96690    0.62470    0.96940    1.000
    H153     H        0.94460    0.60290    0.98980    1.000
    C231     C        0.24330    0.76290    0.15100    1.000
    C232     C        0.68250    0.44820    0.50660    1.000
    C233     C        0.71550    0.39850    0.47750    1.000
    C234     C        0.68030    0.49780    0.58790    1.000
    C235     C        0.67910    0.54410    0.68100    1.000
    H154     H        0.63500    0.56160    0.66090    1.000
    C236     C        0.20540    0.82790    0.00510    1.000
    C237     C        0.97340    0.64550    0.88390    1.000
    H155     H        0.95620    0.63770    0.84410    1.000
    C238     C        0.80740    0.49510    0.74250    1.000
    H156     H        0.85150    0.47840    0.76340    1.000
    C239     C        0.23590    0.87860    0.97440    1.000
    C240     C        0.32560    0.95960    0.97380    1.000
    H157     H        0.36760    0.98310    0.99410    1.000
    C241     C        0.20380    0.89010    0.91500    1.000
    H158     H        0.16180    0.86750    0.89340    1.000
    C242     C        0.71240    0.50850    0.65170    1.000
    C243     C        0.80790    0.32020    0.47900    1.000
    H159     H        0.84930    0.29570    0.50010    1.000
    C244     C        0.68650    0.39000    0.41830    1.000
    H160     H        0.64460    0.41250    0.39620    1.000
    C245     C        0.50240    0.57290    0.40700    1.000
    H161     H        0.52060    0.54370    0.38600    1.000
    C246     C        0.44360    0.61650    0.37900    1.000
    H162     H        0.42370    0.61730    0.33880    1.000
    C247     C        0.71190    0.55340    0.74040    1.000
    H163     H        0.68900    0.57730    0.75960    1.000
    C248     C        0.21550    0.71140    0.17780    1.000
    H164     H        0.17700    0.68170    0.15610    1.000
    C249     C        0.24580    0.70480    0.23720    1.000
    H165     H        0.22690    0.66980    0.25470    1.000
    C250     C        0.30230    0.80220    0.18490    1.000
    H166     H        0.32410    0.83420    0.16820    1.000
    C251     C        0.77830    0.48330    0.68330    1.000
    H167     H        0.80220    0.45910    0.66510    1.000
    C252     C        0.32840    0.79280    0.24410    1.000
    H168     H        0.36760    0.82080    0.26670    1.000
    N73      N        0.93922    0.61540    0.91173    1.000
    N74      N        0.29547    0.96980    0.91670    1.000
    N75      N        0.30080    0.74610    0.27089    1.000
    N76      N        0.15295    0.73200    0.05910    1.000
    N77      N        0.14800    0.78910    0.97237    1.000
    N78      N        0.23813    0.82240    0.06265    1.000
    N79      N        0.41350    0.65770    0.40683    1.000
    N80      N        0.78020    0.31320    0.42143    1.000
    N81      N        0.77580    0.52900    0.77145    1.000
    N82      N        0.62287    0.53760    0.55853    1.000
    N83      N        0.62625    0.48850    0.47295    1.000
    N84      N        0.71152    0.45050    0.56460    1.000
    Ag15     Ag       0.84417    0.54239    0.86780    1.000
    Ag16     Ag       0.82282    0.24718    0.36720    1.000
    C253     C        0.62390    0.24320    0.00186    1.000
    C254     C        0.53320    0.18770    0.91090    1.000
    H169     H        0.55490    0.20860    0.88970    1.000
    C255     C        0.94410    0.15650    0.46480    1.000
    H170     H        0.92410    0.18440    0.48490    1.000
    C256     C        0.09780    0.02980    0.50070    1.000
    C257     C        0.27800    0.86210    0.50920    1.000
    H171     H        0.29890    0.86580    0.54920    1.000
    C258     C        0.56000    0.19820    0.96980    1.000
    C259     C        0.73520    0.43540    0.88840    1.000
    H172     H        0.71320    0.44250    0.84860    1.000
    C260     C        0.00360    0.11630    0.49630    1.000
    H173     H        0.02320    0.11770    0.53650    1.000
    C261     C        0.22010    0.84790    0.39220    1.000
    H174     H        0.19990    0.84340    0.35220    1.000
    C262     C        0.70970    0.27360    0.08730    1.000
    C263     C        0.79790    0.41570    0.00470    1.000
    H175     H        0.82020    0.41120    0.04460    1.000
    C264     C        0.03360    0.07360    0.46667    1.000
    C265     C        0.52600    0.16470    0.99960    1.000
    H176     H        0.54340    0.16940    0.03960    1.000
    C266     C        0.46690    0.12470    0.96940    1.000
    H177     H        0.44460    0.10290    0.98980    1.000
    C267     C        0.74330    0.26290    0.15100    1.000
    C268     C        0.18250    0.94820    0.50660    1.000
    C269     C        0.21550    0.89850    0.47750    1.000
    C270     C        0.18030    0.99780    0.58790    1.000
    C271     C        0.17910    0.04410    0.68100    1.000
    H178     H        0.13500    0.06160    0.66090    1.000
    C272     C        0.70540    0.32790    0.00510    1.000
    C273     C        0.47340    0.14550    0.88390    1.000
    H179     H        0.45620    0.13770    0.84410    1.000
    C274     C        0.30740    0.99510    0.74250    1.000
    H180     H        0.35150    0.97840    0.76340    1.000
    C275     C        0.73590    0.37860    0.97440    1.000
    C276     C        0.82560    0.45960    0.97380    1.000
    H181     H        0.86760    0.48310    0.99410    1.000
    C277     C        0.70380    0.39010    0.91500    1.000
    H182     H        0.66180    0.36750    0.89340    1.000
    C278     C        0.21240    0.00850    0.65170    1.000
    C279     C        0.30790    0.82020    0.47900    1.000
    H183     H        0.34930    0.79570    0.50010    1.000
    C280     C        0.18650    0.89000    0.41830    1.000
    H184     H        0.14460    0.91250    0.39620    1.000
    C281     C        0.00240    0.07290    0.40700    1.000
    H185     H        0.02060    0.04370    0.38600    1.000
    C282     C        0.94360    0.11650    0.37900    1.000
    H186     H        0.92370    0.11730    0.33880    1.000
    C283     C        0.21190    0.05340    0.74040    1.000
    H187     H        0.18900    0.07730    0.75960    1.000
    C284     C        0.71550    0.21140    0.17780    1.000
    H188     H        0.67700    0.18170    0.15610    1.000
    C285     C        0.74580    0.20480    0.23720    1.000
    H189     H        0.72690    0.16980    0.25470    1.000
    C286     C        0.80230    0.30220    0.18490    1.000
    H190     H        0.82410    0.33420    0.16820    1.000
    C287     C        0.27830    0.98330    0.68330    1.000
    H191     H        0.30220    0.95910    0.66510    1.000
    C288     C        0.82840    0.29280    0.24410    1.000
    H192     H        0.86760    0.32080    0.26670    1.000
    N85      N        0.43922    0.11540    0.91173    1.000
    N86      N        0.79547    0.46980    0.91670    1.000
    N87      N        0.80080    0.24610    0.27089    1.000
    N88      N        0.65295    0.23200    0.05910    1.000
    N89      N        0.64800    0.28910    0.97237    1.000
    N90      N        0.73813    0.32240    0.06265    1.000
    N91      N        0.91350    0.15770    0.40683    1.000
    N92      N        0.28020    0.81320    0.42143    1.000
    N93      N        0.27580    0.02900    0.77145    1.000
    N94      N        0.12287    0.03760    0.55853    1.000
    N95      N        0.12625    0.98850    0.47295    1.000
    N96      N        0.21152    0.95050    0.56460    1.000
