data_functionalizedCrystal
_audit_creation_method	'EQeq! by Chris Wilmer'
_symmetry_space_group_name_H-M	'P1'
_symmetry_Int_Tables_number	1
_symmetry_cell_setting	triclinic
loop_
_symmetry_equiv_pos_as_xyz
  x,y,z
_cell_length_a	10.9229
_cell_length_b	11.5371
_cell_length_c	13.4516
_cell_angle_alpha	69.502
_cell_angle_beta	80.049
_cell_angle_gamma	62.253
loop_
_atom_site_label
_atom_site_type_symbol
_atom_site_fract_x
_atom_site_fract_y
_atom_site_fract_z
_atom_site_charge
Mof_Ce	Ce	0.62209	0.21477	0.77533	1.796
Mof_Ce	Ce	0.37791	0.78523	0.22467	1.796
Mof_U 	U 	0.63202	0.7019	0.83325	-0.008
Mof_U 	U 	0.36798	0.2981	0.16675	-0.008
Mof_U 	U 	-2.02269e-17	0.5	0.5	0.001
Mof_H 	H 	0.18669	0.09736	0.73039	0.041
Mof_H 	H 	0.29301	0.00075	0.58045	0.049
Mof_H 	H 	0.09938	0.36268	0.95193	0.063
Mof_H 	H 	0.81331	0.90264	0.26961	0.041
Mof_H 	H 	0.70699	0.99925	0.41955	0.049
Mof_H 	H 	0.90062	0.63732	0.04807	0.063
Mof_C 	C 	0.4194	0.0276	0.8095	0.36
Mof_C 	C 	0.9209	0.2766	0.7168	0.382
Mof_C 	C 	0.035	0.2574	0.7795	-0.071
Mof_C 	C 	0.2781	0.1343	0.8284	-0.086
Mof_C 	C 	0.0099	0.3373	0.8451	-0.041
Mof_C 	C 	0.2514	0.2138	0.8958	-0.093
Mof_C 	C 	0.1695	0.1546	0.7734	0.015
Mof_C 	C 	0.7444	0.7455	0.504	0.28
Mof_C 	C 	0.4748	0.7464	0.6149	0.302
Mof_C 	C 	0.8736	0.455	0.8495	0.277
Mof_C 	C 	0.3569	0.1981	0.9624	0.358
Mof_C 	C 	0.3786	0.0002	0.5478	-0.008
Mof_C 	C 	0.6155	0.8754	0.5034	-0.042
Mof_C 	C 	0.4925	0.8744	0.5537	-0.045
Mof_C 	C 	0.1182	0.3111	0.904	-0.012
Mof_C 	C 	0.5806	0.9724	0.1905	0.36
Mof_C 	C 	0.0791	0.7234	0.2832	0.382
Mof_C 	C 	0.965	0.7426	0.2205	-0.071
Mof_C 	C 	0.7219	0.8657	0.1716	-0.086
Mof_C 	C 	0.9901	0.6627	0.1549	-0.041
Mof_C 	C 	0.7486	0.7862	0.1042	-0.093
Mof_C 	C 	0.8305	0.8454	0.2266	0.015
Mof_C 	C 	0.2556	0.2545	0.496	0.28
Mof_C 	C 	0.5252	0.2536	0.3851	0.302
Mof_C 	C 	0.1264	0.545	0.1505	0.277
Mof_C 	C 	0.6431	0.8019	0.0376	0.358
Mof_C 	C 	0.6214	0.9998	0.4522	-0.008
Mof_C 	C 	0.3845	0.1246	0.4966	-0.042
Mof_C 	C 	0.5075	0.1256	0.4463	-0.045
Mof_C 	C 	0.8818	0.6889	0.096	-0.013
Mof_O 	O 	0.9005	0.3567	0.6226	-0.24
Mof_O 	O 	0.5065	0.6921	0.7133	-0.215
Mof_O 	O 	0.3104	0.2167	0.0537	-0.232
Mof_O 	O 	0.428	0.9088	0.8271	-0.23
Mof_O 	O 	0.774	0.4827	0.7958	-0.225
Mof_O 	O 	0.7389	0.6317	0.5314	-0.209
Mof_O 	O 	0.8571	0.2062	0.7601	-0.506
Mof_O 	O 	0.857	0.7504	0.4776	-0.212
Mof_O 	O 	0.5167	0.06	0.774	-0.451
Mof_O 	O 	0.8583	0.5281	0.9055	-0.21
Mof_O 	O 	0.4238	0.7032	0.57	-0.302
Mof_O 	O 	0.4762	0.1728	0.9327	-0.485
Mof_O 	O 	0.0995	0.6433	0.3774	-0.24
Mof_O 	O 	0.4935	0.3079	0.2867	-0.215
Mof_O 	O 	0.6896	0.7833	0.9463	-0.232
Mof_O 	O 	0.572	0.0912	0.1729	-0.23
Mof_O 	O 	0.226	0.5173	0.2042	-0.225
Mof_O 	O 	0.2611	0.3683	0.4686	-0.209
Mof_O 	O 	0.1429	0.7938	0.2399	-0.506
Mof_O 	O 	0.143	0.2496	0.5224	-0.212
Mof_O 	O 	0.4833	0.94	0.226	-0.451
Mof_O 	O 	0.1417	0.4719	0.0945	-0.21
Mof_O 	O 	0.5762	0.2968	0.43	-0.302
Mof_O 	O 	0.5238	0.8272	0.0673	-0.485
_end
