data_functionalizedCrystal
_audit_creation_method	'EQeq! by Chris Wilmer'
_symmetry_space_group_name_H-M	'P1'
_symmetry_Int_Tables_number	1
_symmetry_cell_setting	triclinic
loop_
_symmetry_equiv_pos_as_xyz
  x,y,z
_cell_length_a	6.6627
_cell_length_b	9.674
_cell_length_c	10.7118
_cell_angle_alpha	116.844
_cell_angle_beta	104.874
_cell_angle_gamma	90
loop_
_atom_site_label
_atom_site_type_symbol
_atom_site_fract_x
_atom_site_fract_y
_atom_site_fract_z
_atom_site_charge
Mof_Pr	Pr	0.9756	0.29116	0.10326	2.105
Mof_Pr	Pr	0.4756	0.8121	0.10326	2.669
Mof_H 	H 	0.9632	0.5225	0.717	0.193
Mof_H 	H 	0.7842	0.3467	0.488	-0.178
Mof_H 	H 	0.8882	0.0073	0.5938	-0.123
Mof_H 	H 	0.0234	0.9497	0.7614	0.184
Mof_H 	H 	0.2359	0.0231	0.7634	0.202
Mof_H 	H 	0.4632	0.1945	0.717	-0.164
Mof_H 	H 	0.2842	0.1413	0.488	0.236
Mof_H 	H 	0.3882	0.5865	0.5938	0.224
Mof_H 	H 	0.5234	0.8117	0.7614	0.082
Mof_H 	H 	0.7359	0.7403	0.7634	0.057
Mof_C 	C 	0.9951	0.2201	0.759	-0.39
Mof_C 	C 	0.0153	0.3727	0.7974	0.361
Mof_C 	C 	0.9423	0.4173	0.6928	-0.619
Mof_C 	C 	0.842	0.3142	0.5574	0.515
Mof_C 	C 	0.8248	0.1625	0.5218	-0.535
Mof_C 	C 	0.9005	0.1133	0.6204	0.38
Mof_C 	C 	0.1394	0.0335	0.8202	-0.453
Mof_C 	C 	0.247	0.0262	0.9556	0.928
Mof_C 	C 	0.1231	0.4946	0.9448	0.596
Mof_C 	C 	0.7193	0.0437	0.3738	0.667
Mof_C 	C 	0.4951	0.5389	0.759	0.635
Mof_C 	C 	0.5153	0.4247	0.7974	-0.713
Mof_C 	C 	0.4423	0.2755	0.6928	0.594
Mof_C 	C 	0.342	0.2432	0.5574	-0.537
Mof_C 	C 	0.3248	0.3593	0.5218	0.354
Mof_C 	C 	0.4005	0.5071	0.6204	-0.558
Mof_C 	C 	0.6394	0.7867	0.8202	-0.227
Mof_C 	C 	0.747	0.9294	0.9556	0.702
Mof_C 	C 	0.6231	0.4502	0.9448	1.01
Mof_C 	C 	0.2193	0.3301	0.3738	0.228
Mof_O 	O 	0.0661	0.1788	0.862	-0.011
Mof_O 	O 	0.3179	0.9093	0.9406	-0.744
Mof_O 	O 	0.2603	0.1435	0.0684	-0.734
Mof_O 	O 	0.1346	0.4652	0.0466	-0.667
Mof_O 	O 	0.1943	0.6147	0.9584	-0.611
Mof_O 	O 	0.583	0.0822	0.2982	-0.609
Mof_O 	O 	0.7573	0.9133	0.3316	-0.735
Mof_O 	O 	0.5661	0.6832	0.862	-0.435
Mof_O 	O 	0.8179	0.0313	0.9406	-0.611
Mof_O 	O 	0.7603	0.9249	0.0684	-0.813
Mof_O 	O 	0.6346	0.5814	0.0466	-0.907
Mof_O 	O 	0.6943	0.3437	0.9584	-0.724
Mof_O 	O 	0.083	0.216	0.2982	-0.374
Mof_O 	O 	0.2573	0.4183	0.3316	-0.45
_end
