data_functionalizedCrystal
_audit_creation_method	'EQeq! by Chris Wilmer'
_symmetry_space_group_name_H-M	'P1'
_symmetry_Int_Tables_number	1
_symmetry_cell_setting	triclinic
loop_
_symmetry_equiv_pos_as_xyz
  x,y,z
_cell_length_a	10.28
_cell_length_b	32.067
_cell_length_c	6.9403
_cell_angle_alpha	90
_cell_angle_beta	90
_cell_angle_gamma	90
loop_
_atom_site_label
_atom_site_type_symbol
_atom_site_fract_x
_atom_site_fract_y
_atom_site_fract_z
_atom_site_charge
Mof_C 	C 	0.4303	0.2706	0.89	0.013
Mof_C 	C 	0.431	0.3144	0.891	0.033
Mof_C 	C 	0.9303	0.7706	0.89	0.054
Mof_C 	C 	0.931	0.8144	0.891	0.091
Mof_C 	C 	0.5697	0.7294	0.39	-0.002
Mof_C 	C 	0.569	0.6856	0.391	0.01
Mof_C 	C 	0.0697	0.2294	0.39	-0.023
Mof_C 	C 	0.069	0.1856	0.391	-0.004
Mof_C 	C 	0.5697	0.2706	0.61	-0.009
Mof_C 	C 	0.569	0.3144	0.609	0.016
Mof_C 	C 	0.0697	0.7706	0.61	-0.03
Mof_C 	C 	0.069	0.8144	0.609	0.002
Mof_C 	C 	0.4303	0.7294	0.11	-0.028
Mof_C 	C 	0.431	0.6856	0.109	-0.017
Mof_C 	C 	0.9303	0.2294	0.11	0.015
Mof_C 	C 	0.931	0.1856	0.109	0.045
Mof_C 	C 	0.5697	0.7294	0.11	-0.026
Mof_C 	C 	0.569	0.6856	0.109	-0.012
Mof_C 	C 	0.0697	0.2294	0.11	-0.048
Mof_C 	C 	0.069	0.1856	0.109	-0.027
Mof_C 	C 	0.4303	0.2706	0.61	-0.01
Mof_C 	C 	0.431	0.3144	0.609	0.011
Mof_C 	C 	0.9303	0.7706	0.61	0.032
Mof_C 	C 	0.931	0.8144	0.609	0.071
Mof_C 	C 	0.4303	0.7294	0.39	-0.003
Mof_C 	C 	0.431	0.6856	0.391	0.005
Mof_C 	C 	0.9303	0.2294	0.39	0.039
Mof_C 	C 	0.931	0.1856	0.391	0.066
Mof_C 	C 	0.5697	0.2706	0.89	0.015
Mof_C 	C 	0.569	0.3144	0.891	0.038
Mof_C 	C 	0.0697	0.7706	0.89	-0.005
Mof_C 	C 	0.069	0.8144	0.891	0.025
Mof_Zn	Zn	0.5	0.40383	0.25	1.204
Mof_O 	O 	0.5	0.4663	0.25	-0.743
Mof_Zn	Zn	4.77046e-33	0.90383	0.25	1.195
Mof_O 	O 	-1.72969e-32	0.9663	0.25	-0.737
Mof_Zn	Zn	0.5	0.59617	0.75	1.22
Mof_O 	O 	0.5	0.5337	0.75	-0.701
Mof_Zn	Zn	-9.1352e-33	0.09617	0.75	1.21
Mof_O 	O 	-3.61836e-33	0.0337	0.75	-0.723
Mof_Zn	Zn	0.5	0.5	-0	1.137
Mof_Zn	Zn	-0	0	-0	1.122
Mof_Zn	Zn	0.5	0.5	0.5	1.162
Mof_Zn	Zn	1.26566e-33	1.37921e-33	0.5	1.147
Mof_O 	O 	0.1623	0.1304	0.75	-0.452
Mof_O 	O 	0.261	0.0723	0.75	-0.353
Mof_C 	C 	0.388	0.1349	0.75	-0.095
Mof_C 	C 	0.265	0.1113	0.75	0.377
Mof_C 	C 	0.3859	0.1796	0.75	-0.023
Mof_H 	H 	0.3071	0.1938	0.75	0.07
Mof_O 	O 	0.6623	0.6304	0.75	-0.439
Mof_O 	O 	0.761	0.5723	0.75	-0.331
Mof_C 	C 	0.888	0.6349	0.75	-0.034
Mof_C 	C 	0.765	0.6113	0.75	0.358
Mof_C 	C 	0.8859	0.6796	0.75	0.017
Mof_H 	H 	0.8071	0.6938	0.75	0.062
Mof_O 	O 	0.8377	0.8696	0.25	-0.459
Mof_O 	O 	0.739	0.9277	0.25	-0.348
Mof_C 	C 	0.612	0.8651	0.25	-0.121
Mof_C 	C 	0.735	0.8887	0.25	0.375
Mof_C 	C 	0.6141	0.8204	0.25	-0.006
Mof_H 	H 	0.6929	0.8062	0.25	0.045
Mof_O 	O 	0.3377	0.3696	0.25	-0.484
Mof_O 	O 	0.239	0.4277	0.25	-0.383
Mof_C 	C 	0.112	0.3651	0.25	-0.114
Mof_C 	C 	0.235	0.3887	0.25	0.374
Mof_C 	C 	0.1141	0.3204	0.25	-0.004
Mof_H 	H 	0.1929	0.3062	0.25	0.044
Mof_O 	O 	0.8377	0.1304	0.75	-0.422
Mof_O 	O 	0.739	0.0723	0.75	-0.332
Mof_C 	C 	0.612	0.1349	0.75	-0.089
Mof_C 	C 	0.735	0.1113	0.75	0.367
Mof_C 	C 	0.6141	0.1796	0.75	-0.027
Mof_H 	H 	0.6929	0.1938	0.75	0.072
Mof_O 	O 	0.3377	0.6304	0.75	-0.443
Mof_O 	O 	0.239	0.5723	0.75	-0.351
Mof_C 	C 	0.112	0.6349	0.75	-0.073
Mof_C 	C 	0.235	0.6113	0.75	0.362
Mof_C 	C 	0.1141	0.6796	0.75	-0.03
Mof_H 	H 	0.1929	0.6938	0.75	0.073
Mof_O 	O 	0.1623	0.8696	0.25	-0.49
Mof_O 	O 	0.261	0.9277	0.25	-0.37
Mof_C 	C 	0.388	0.8651	0.25	-0.127
Mof_C 	C 	0.265	0.8887	0.25	0.384
Mof_C 	C 	0.3859	0.8204	0.25	-0.003
Mof_H 	H 	0.3071	0.8062	0.25	0.042
Mof_O 	O 	0.6623	0.3696	0.25	-0.48
Mof_O 	O 	0.761	0.4277	0.25	-0.363
Mof_C 	C 	0.888	0.3651	0.25	-0.073
Mof_C 	C 	0.765	0.3887	0.25	0.369
Mof_C 	C 	0.8859	0.3204	0.25	0.045
Mof_H 	H 	0.8071	0.3062	0.25	0.032
Mof_N 	N 	0.5	0.4047	0.5911	-0.187
Mof_N 	N 	0.5	0.4439	0.6613	-0.2
Mof_N 	N 	1.49626e-33	0.9047	0.5911	-0.198
Mof_N 	N 	-9.35973e-33	0.9439	0.6613	-0.197
Mof_N 	N 	0.5	0.5953	0.0911	-0.212
Mof_N 	N 	0.5	0.5561	0.1613	-0.219
Mof_N 	N 	-3.90703e-33	0.0953	0.0911	-0.224
Mof_N 	N 	-9.70909e-34	0.0561	0.1613	-0.228
Mof_N 	N 	0.5	0.4047	0.9089	-0.163
Mof_N 	N 	0.5	0.4439	0.8387	-0.182
Mof_N 	N 	2.30072e-33	0.9047	0.9089	-0.173
Mof_N 	N 	-4.75286e-32	0.9439	0.8387	-0.179
Mof_N 	N 	0.5	0.5953	0.4089	-0.188
Mof_N 	N 	0.5	0.5561	0.3387	-0.207
Mof_N 	N 	1.03506e-33	0.0953	0.4089	-0.2
Mof_N 	N 	8.57358e-34	0.0561	0.3387	-0.216
Mof_C 	C 	0.5	0.1132	0.75	0.037
Mof_H 	H 	0.5	0.0842	0.75	0.041
Mof_C 	C 	0.5	0.2009	0.75	0.027
Mof_C 	C 	0.5	0.2482	0.75	-0.01
Mof_C 	C 	0.5	0.3351	0.75	-0.081
Mof_C 	C 	0.5	0.3812	0.75	0.162
Mof_C 	C 	1.29322e-32	0.6132	0.75	-0.047
Mof_H 	H 	-9.1352e-33	0.5842	0.75	0.056
Mof_C 	C 	-9.1352e-33	0.7009	0.75	-0.015
Mof_C 	C 	-9.1352e-33	0.7482	0.75	-0.058
Mof_C 	C 	-9.1352e-33	0.8351	0.75	-0.16
Mof_C 	C 	-3.12026e-32	0.8812	0.75	0.171
Mof_C 	C 	0.5	0.8868	0.25	0.058
Mof_H 	H 	0.5	0.9158	0.25	0.028
Mof_C 	C 	0.5	0.7991	0.25	-0.01
Mof_C 	C 	0.5	0.7518	0.25	0.008
Mof_C 	C 	0.5	0.6649	0.25	-0.059
Mof_C 	C 	0.5	0.6188	0.25	0.132
Mof_C 	C 	-6.26323e-33	0.3868	0.25	-0.019
Mof_H 	H 	4.77046e-33	0.4158	0.25	0.032
Mof_C 	C 	-6.26323e-33	0.2991	0.25	-0.056
Mof_C 	C 	-7.46381e-34	0.2518	0.25	-0.04
Mof_C 	C 	4.77046e-33	0.1649	0.25	-0.141
Mof_C 	C 	-7.46381e-34	0.1188	0.25	0.138
_end
