data_functionalizedCrystal
_audit_creation_method	'EQeq! by Chris Wilmer'
_symmetry_space_group_name_H-M	'P1'
_symmetry_Int_Tables_number	1
_symmetry_cell_setting	triclinic
loop_
_symmetry_equiv_pos_as_xyz
  x,y,z
_cell_length_a	9.6196
_cell_length_b	9.6196
_cell_length_c	12.817
_cell_angle_alpha	90
_cell_angle_beta	90
_cell_angle_gamma	92.047
loop_
_atom_site_label
_atom_site_type_symbol
_atom_site_fract_x
_atom_site_fract_y
_atom_site_fract_z
_atom_site_charge
Mof_Li	Li	0.1177	0.0395	0.9034	4.121
Mof_Li	Li	0.8823	0.9605	0.4034	4.123
Mof_Li	Li	0.9605	0.8823	0.5966	4.123
Mof_Li	Li	0.0395	0.1177	0.0966	4.121
Mof_Li	Li	0.929	0.071	0.75	1.428
Mof_Li	Li	0.071	0.929	0.25	1.428
Mof_Li	Li	0.7306	0.2694	0.75	2.138
Mof_Li	Li	0.2694	0.7306	0.25	2.138
Mof_H 	H 	0.3714	0.0032	0.3609	0.21
Mof_H 	H 	0.1952	0.0198	0.482	-0.406
Mof_H 	H 	0.48	0.0674	0.7096	-0.353
Mof_H 	H 	0.5985	0.0099	0.4137	-0.428
Mof_H 	H 	0.6286	0.9968	0.8609	0.204
Mof_H 	H 	0.8048	0.9802	0.982	-0.395
Mof_H 	H 	0.52	0.9326	0.2096	-0.351
Mof_H 	H 	0.4015	0.9901	0.9137	-0.427
Mof_H 	H 	0.9968	0.6286	0.1391	0.204
Mof_H 	H 	0.9802	0.8048	0.018	-0.395
Mof_H 	H 	0.9326	0.52	0.7904	-0.351
Mof_H 	H 	0.9901	0.4015	0.0863	-0.427
Mof_H 	H 	0.0032	0.3714	0.6391	0.21
Mof_H 	H 	0.0198	0.1952	0.518	-0.406
Mof_H 	H 	0.0674	0.48	0.2904	-0.353
Mof_H 	H 	0.0099	0.5985	0.5863	-0.428
Mof_C 	C 	0.3928	0.014	0.43121	-0.915
Mof_C 	C 	0.2876	0.02456	0.5035	0.707
Mof_C 	C 	0.32	0.04246	0.6095	-0.893
Mof_C 	C 	0.45776	0.05204	0.63983	0.707
Mof_C 	C 	0.56358	0.03888	0.56688	-0.99
Mof_C 	C 	0.52839	0.01939	0.46283	0.749
Mof_C 	C 	0.20313	0.05053	0.68771	1.071
Mof_C 	C 	0.71338	0.0383	0.59995	1.164
Mof_C 	C 	0.6072	0.986	0.93121	-0.899
Mof_C 	C 	0.7124	0.97544	0.0035	0.682
Mof_C 	C 	0.68	0.95754	0.1095	-0.886
Mof_C 	C 	0.54224	0.94796	0.13983	0.703
Mof_C 	C 	0.43642	0.96112	0.06688	-0.995
Mof_C 	C 	0.47161	0.98061	0.96283	0.752
Mof_C 	C 	0.79687	0.94947	0.18771	1.068
Mof_C 	C 	0.28662	0.9617	0.09995	1.151
Mof_C 	C 	0.986	0.6072	0.06879	-0.899
Mof_C 	C 	0.97544	0.7124	0.9965	0.682
Mof_C 	C 	0.95754	0.68	0.8905	-0.886
Mof_C 	C 	0.94796	0.54224	0.86017	0.703
Mof_C 	C 	0.96112	0.43642	0.93312	-0.995
Mof_C 	C 	0.98061	0.47161	0.03717	0.752
Mof_C 	C 	0.94947	0.79687	0.81229	1.068
Mof_C 	C 	0.9617	0.28662	0.90005	1.151
Mof_C 	C 	0.014	0.3928	0.56879	-0.915
Mof_C 	C 	0.02456	0.2876	0.4965	0.707
Mof_C 	C 	0.04246	0.32	0.3905	-0.893
Mof_C 	C 	0.05204	0.45776	0.36017	0.707
Mof_C 	C 	0.03888	0.56358	0.43312	-0.99
Mof_C 	C 	0.01939	0.52839	0.53717	0.749
Mof_C 	C 	0.05053	0.20313	0.31229	1.071
Mof_C 	C 	0.0383	0.71338	0.40005	1.164
Mof_O 	O 	0.23312	0.07566	0.78084	-1.415
Mof_O 	O 	0.08218	0.03312	0.65319	-1.627
Mof_O 	O 	0.74469	0.08381	0.68899	-1.388
Mof_O 	O 	0.80009	0.98569	0.53895	-2.095
Mof_O 	O 	0.76688	0.92434	0.28084	-1.415
Mof_O 	O 	0.91782	0.96688	0.15319	-1.629
Mof_O 	O 	0.25531	0.91619	0.18899	-1.386
Mof_O 	O 	0.19991	0.01431	0.03895	-2.085
Mof_O 	O 	0.92434	0.76688	0.71916	-1.415
Mof_O 	O 	0.96688	0.91782	0.84681	-1.629
Mof_O 	O 	0.91619	0.25531	0.81101	-1.386
Mof_O 	O 	0.01431	0.19991	0.96105	-2.085
Mof_O 	O 	0.07566	0.23312	0.21916	-1.415
Mof_O 	O 	0.03312	0.08218	0.34681	-1.627
Mof_O 	O 	0.08381	0.74469	0.31101	-1.388
Mof_O 	O 	0.98569	0.80009	0.46105	-2.095
_end
