# CIF file generated by openbabel 3.1.0, see https://openbabel.org
data_I
_chemical_name_common 'image0'
_cell_length_a 22.0383
_cell_length_b 16.4151
_cell_length_c 25.679
_cell_angle_alpha 90
_cell_angle_beta 115.404
_cell_angle_gamma 90
_space_group_name_H-M_alt 'P 1'
_space_group_name_Hall 'P 1'
loop_
    _symmetry_equiv_pos_as_xyz
    x,y,z
loop_
    _atom_site_label
    _atom_site_type_symbol
    _atom_site_fract_x
    _atom_site_fract_y
    _atom_site_fract_z
    _atom_site_occupancy
    Ag1      Ag       0.34404    0.04164    0.36811    1.000
    Ag2      Ag       0.82305    0.24999    0.86765    1.000
    C1       C        0.62428    0.24250    0.50295    1.000
    C2       C        0.73570    0.43330    0.38904    1.000
    H1       H        0.71390    0.43910    0.34920    1.000
    C3       C        0.00281    0.11700    0.99680    1.000
    H2       H        0.02220    0.11730    0.03690    1.000
    C4       C        0.09731    0.03090    0.00158    1.000
    C5       C        0.56013    0.19750    0.47065    1.000
    C6       C        0.53320    0.18810    0.41130    1.000
    H3       H        0.55440    0.21010    0.39010    1.000
    C7       C        0.21976    0.84990    0.89295    1.000
    H4       H        0.19950    0.84560    0.85300    1.000
    C8       C        0.27780    0.86300    0.00976    1.000
    H5       H        0.29860    0.86600    0.04980    1.000
    C9       C        0.52672    0.16340    0.50030    1.000
    H6       H        0.54420    0.16770    0.54020    1.000
    C10      C        0.94347    0.15810    0.96589    1.000
    H7       H        0.92340    0.18580    0.98600    1.000
    C11      C        0.74307    0.26350    0.65187    1.000
    C12      C        0.17813    0.04310    0.18178    1.000
    H8       H        0.13420    0.06150    0.16170    1.000
    C13      C        0.71035    0.27340    0.58824    1.000
    C14      C        0.18211    0.94950    0.00736    1.000
    C15      C        0.79856    0.41580    0.50549    1.000
    H9       H        0.82110    0.41190    0.54540    1.000
    C16      C        0.17975    0.99740    0.08896    1.000
    C17      C        0.30641    0.99300    0.24341    1.000
    H10      H        0.35050    0.97600    0.26450    1.000
    C18      C        0.70578    0.32720    0.50573    1.000
    C19      C        0.21538    0.90000    0.97817    1.000
    C20      C        0.46693    0.12300    0.46955    1.000
    H11      H        0.44460    0.10060    0.48970    1.000
    C21      C        0.03298    0.07540    0.96759    1.000
    C22      C        0.30787    0.82180    0.97987    1.000
    H12      H        0.34950    0.79770    0.00090    1.000
    C23      C        0.82562    0.45920    0.47431    1.000
    H13      H        0.86740    0.48330    0.49460    1.000
    C24      C        0.74570    0.20670    0.73784    1.000
    H14      H        0.72710    0.17140    0.75540    1.000
    C25      C        0.47349    0.14480    0.38455    1.000
    H15      H        0.45630    0.13660    0.34490    1.000
    C26      C        0.21054    0.05140    0.24062    1.000
    H16      H        0.18740    0.07480    0.25980    1.000
    C27      C        0.00230    0.07550    0.90795    1.000
    H17      H        0.02090    0.04690    0.88700    1.000
    C28      C        0.21131    0.00740    0.15250    1.000
    C29      C        0.73623    0.37800    0.47519    1.000
    C30      C        0.82724    0.29690    0.74460    1.000
    H18      H        0.86590    0.32590    0.76720    1.000
    C31      C        0.27757    0.98170    0.18415    1.000
    H19      H        0.30160    0.95760    0.16600    1.000
    C32      C        0.18635    0.89170    0.91899    1.000
    H20      H        0.14440    0.91440    0.89690    1.000
    C33      C        0.70461    0.38890    0.41566    1.000
    H21      H        0.66260    0.36610    0.39410    1.000
    C34      C        0.80199    0.30530    0.68565    1.000
    H22      H        0.82350    0.33780    0.66900    1.000
    C35      C        0.71602    0.21160    0.67845    1.000
    H23      H        0.67840    0.18040    0.65670    1.000
    C36      C        0.94322    0.11910    0.88008    1.000
    H24      H        0.92340    0.12020    0.84000    1.000
    N1       N        0.43951    0.11428    0.41219    1.000
    N2       N        0.79617    0.46893    0.41734    1.000
    N3       N        0.80019    0.25020    0.77175    1.000
    N4       N        0.64811    0.28904    0.47305    1.000
    N5       N        0.73846    0.32270    0.56327    1.000
    N6       N        0.65352    0.23159    0.55984    1.000
    N7       N        0.91322    0.15980    0.90774    1.000
    N8       N        0.28014    0.81468    0.92206    1.000
    N9       N        0.27477    0.02680    0.27187    1.000
    N10      N        0.12590    0.99018    0.97340    1.000
    N11      N        0.21091    0.95088    0.06483    1.000
    N12      N        0.12201    0.03761    0.05936    1.000
    Ag3      Ag       0.84404    0.54164    0.36811    1.000
    Ag4      Ag       0.32305    0.74999    0.86765    1.000
    C37      C        0.12428    0.74250    0.50295    1.000
    C38      C        0.23570    0.93330    0.38904    1.000
    H25      H        0.21390    0.93910    0.34920    1.000
    C39      C        0.50281    0.61700    0.99680    1.000
    H26      H        0.52220    0.61730    0.03690    1.000
    C40      C        0.59731    0.53090    0.00158    1.000
    C41      C        0.06013    0.69750    0.47065    1.000
    C42      C        0.03320    0.68810    0.41130    1.000
    H27      H        0.05440    0.71010    0.39010    1.000
    C43      C        0.71976    0.34990    0.89295    1.000
    H28      H        0.69950    0.34560    0.85300    1.000
    C44      C        0.77780    0.36300    0.00976    1.000
    H29      H        0.79860    0.36600    0.04980    1.000
    C45      C        0.02672    0.66340    0.50030    1.000
    H30      H        0.04420    0.66770    0.54020    1.000
    C46      C        0.44347    0.65810    0.96589    1.000
    H31      H        0.42340    0.68580    0.98600    1.000
    C47      C        0.24307    0.76350    0.65187    1.000
    C48      C        0.67813    0.54310    0.18178    1.000
    H32      H        0.63420    0.56150    0.16170    1.000
    C49      C        0.21035    0.77340    0.58824    1.000
    C50      C        0.68211    0.44950    0.00736    1.000
    C51      C        0.29856    0.91580    0.50549    1.000
    H33      H        0.32110    0.91190    0.54540    1.000
    C52      C        0.67975    0.49740    0.08896    1.000
    C53      C        0.80641    0.49300    0.24341    1.000
    H34      H        0.85050    0.47600    0.26450    1.000
    C54      C        0.20578    0.82720    0.50573    1.000
    C55      C        0.71538    0.40000    0.97817    1.000
    C56      C        0.96693    0.62300    0.46955    1.000
    H35      H        0.94460    0.60060    0.48970    1.000
    C57      C        0.53298    0.57540    0.96759    1.000
    C58      C        0.80787    0.32180    0.97987    1.000
    H36      H        0.84950    0.29770    0.00090    1.000
    C59      C        0.32562    0.95920    0.47431    1.000
    H37      H        0.36740    0.98330    0.49460    1.000
    C60      C        0.24570    0.70670    0.73784    1.000
    H38      H        0.22710    0.67140    0.75540    1.000
    C61      C        0.97349    0.64480    0.38455    1.000
    H39      H        0.95630    0.63660    0.34490    1.000
    C62      C        0.71054    0.55140    0.24062    1.000
    H40      H        0.68740    0.57480    0.25980    1.000
    C63      C        0.50230    0.57550    0.90795    1.000
    H41      H        0.52090    0.54690    0.88700    1.000
    C64      C        0.71131    0.50740    0.15250    1.000
    C65      C        0.23623    0.87800    0.47519    1.000
    C66      C        0.32724    0.79690    0.74460    1.000
    H42      H        0.36590    0.82590    0.76720    1.000
    C67      C        0.77757    0.48170    0.18415    1.000
    H43      H        0.80160    0.45760    0.16600    1.000
    C68      C        0.68635    0.39170    0.91899    1.000
    H44      H        0.64440    0.41440    0.89690    1.000
    C69      C        0.20461    0.88890    0.41566    1.000
    H45      H        0.16260    0.86610    0.39410    1.000
    C70      C        0.30199    0.80530    0.68565    1.000
    H46      H        0.32350    0.83780    0.66900    1.000
    C71      C        0.21602    0.71160    0.67845    1.000
    H47      H        0.17840    0.68040    0.65670    1.000
    C72      C        0.44322    0.61910    0.88008    1.000
    H48      H        0.42340    0.62020    0.84000    1.000
    N13      N        0.93951    0.61428    0.41219    1.000
    N14      N        0.29617    0.96893    0.41734    1.000
    N15      N        0.30019    0.75020    0.77175    1.000
    N16      N        0.14811    0.78904    0.47305    1.000
    N17      N        0.23846    0.82270    0.56327    1.000
    N18      N        0.15352    0.73159    0.55984    1.000
    N19      N        0.41322    0.65980    0.90774    1.000
    N20      N        0.78014    0.31468    0.92206    1.000
    N21      N        0.77477    0.52680    0.27187    1.000
    N22      N        0.62590    0.49018    0.97340    1.000
    N23      N        0.71091    0.45088    0.06483    1.000
    N24      N        0.62201    0.53761    0.05936    1.000
    Ag5      Ag       0.65596    0.04164    0.13189    1.000
    Ag6      Ag       0.17695    0.24999    0.63235    1.000
    C73      C        0.37572    0.24250    0.99705    1.000
    C74      C        0.26430    0.43330    0.11096    1.000
    H49      H        0.28610    0.43910    0.15080    1.000
    C75      C        0.99719    0.11700    0.50320    1.000
    H50      H        0.97780    0.11730    0.46310    1.000
    C76      C        0.90269    0.03090    0.49842    1.000
    C77      C        0.43987    0.19750    0.02935    1.000
    C78      C        0.46680    0.18810    0.08870    1.000
    H51      H        0.44560    0.21010    0.10990    1.000
    C79      C        0.78024    0.84990    0.60705    1.000
    H52      H        0.80050    0.84560    0.64700    1.000
    C80      C        0.72220    0.86300    0.49024    1.000
    H53      H        0.70140    0.86600    0.45020    1.000
    C81      C        0.47328    0.16340    0.99970    1.000
    H54      H        0.45580    0.16770    0.95980    1.000
    C82      C        0.05653    0.15810    0.53411    1.000
    H55      H        0.07660    0.18580    0.51400    1.000
    C83      C        0.25693    0.26350    0.84813    1.000
    C84      C        0.82187    0.04310    0.31822    1.000
    H56      H        0.86580    0.06150    0.33830    1.000
    C85      C        0.28965    0.27340    0.91176    1.000
    C86      C        0.81789    0.94950    0.49264    1.000
    C87      C        0.20144    0.41580    0.99451    1.000
    H57      H        0.17890    0.41190    0.95460    1.000
    C88      C        0.82025    0.99740    0.41104    1.000
    C89      C        0.69359    0.99300    0.25659    1.000
    H58      H        0.64950    0.97600    0.23550    1.000
    C90      C        0.29422    0.32720    0.99427    1.000
    C91      C        0.78462    0.90000    0.52183    1.000
    C92      C        0.53307    0.12300    0.03045    1.000
    H59      H        0.55540    0.10060    0.01030    1.000
    C93      C        0.96702    0.07540    0.53241    1.000
    C94      C        0.69213    0.82180    0.52013    1.000
    H60      H        0.65050    0.79770    0.49910    1.000
    C95      C        0.17438    0.45920    0.02569    1.000
    H61      H        0.13260    0.48330    0.00540    1.000
    C96      C        0.25430    0.20670    0.76216    1.000
    H62      H        0.27290    0.17140    0.74460    1.000
    C97      C        0.52651    0.14480    0.11545    1.000
    H63      H        0.54370    0.13660    0.15510    1.000
    C98      C        0.78946    0.05140    0.25938    1.000
    H64      H        0.81260    0.07480    0.24020    1.000
    C99      C        0.99770    0.07550    0.59205    1.000
    H65      H        0.97910    0.04690    0.61300    1.000
    C100     C        0.78869    0.00740    0.34750    1.000
    C101     C        0.26377    0.37800    0.02481    1.000
    C102     C        0.17276    0.29690    0.75540    1.000
    H66      H        0.13410    0.32590    0.73280    1.000
    C103     C        0.72243    0.98170    0.31585    1.000
    H67      H        0.69840    0.95760    0.33400    1.000
    C104     C        0.81365    0.89170    0.58101    1.000
    H68      H        0.85560    0.91440    0.60310    1.000
    C105     C        0.29539    0.38890    0.08434    1.000
    H69      H        0.33740    0.36610    0.10590    1.000
    C106     C        0.19801    0.30530    0.81435    1.000
    H70      H        0.17650    0.33780    0.83100    1.000
    C107     C        0.28398    0.21160    0.82155    1.000
    H71      H        0.32160    0.18040    0.84330    1.000
    C108     C        0.05678    0.11910    0.61992    1.000
    H72      H        0.07660    0.12020    0.66000    1.000
    N25      N        0.56049    0.11428    0.08781    1.000
    N26      N        0.20383    0.46893    0.08266    1.000
    N27      N        0.19981    0.25020    0.72825    1.000
    N28      N        0.35189    0.28904    0.02695    1.000
    N29      N        0.26154    0.32270    0.93673    1.000
    N30      N        0.34648    0.23159    0.94016    1.000
    N31      N        0.08678    0.15980    0.59226    1.000
    N32      N        0.71986    0.81468    0.57794    1.000
    N33      N        0.72523    0.02680    0.22813    1.000
    N34      N        0.87410    0.99018    0.52660    1.000
    N35      N        0.78909    0.95088    0.43517    1.000
    N36      N        0.87799    0.03761    0.44064    1.000
    Ag7      Ag       0.15596    0.54164    0.13189    1.000
    Ag8      Ag       0.67695    0.74999    0.63235    1.000
    C109     C        0.87572    0.74250    0.99705    1.000
    C110     C        0.76430    0.93330    0.11096    1.000
    H73      H        0.78610    0.93910    0.15080    1.000
    C111     C        0.49719    0.61700    0.50320    1.000
    H74      H        0.47780    0.61730    0.46310    1.000
    C112     C        0.40269    0.53090    0.49842    1.000
    C113     C        0.93987    0.69750    0.02935    1.000
    C114     C        0.96680    0.68810    0.08870    1.000
    H75      H        0.94560    0.71010    0.10990    1.000
    C115     C        0.28024    0.34990    0.60705    1.000
    H76      H        0.30050    0.34560    0.64700    1.000
    C116     C        0.22220    0.36300    0.49024    1.000
    H77      H        0.20140    0.36600    0.45020    1.000
    C117     C        0.97328    0.66340    0.99970    1.000
    H78      H        0.95580    0.66770    0.95980    1.000
    C118     C        0.55653    0.65810    0.53411    1.000
    H79      H        0.57660    0.68580    0.51400    1.000
    C119     C        0.75693    0.76350    0.84813    1.000
    C120     C        0.32187    0.54310    0.31822    1.000
    H80      H        0.36580    0.56150    0.33830    1.000
    C121     C        0.78965    0.77340    0.91176    1.000
    C122     C        0.31789    0.44950    0.49264    1.000
    C123     C        0.70144    0.91580    0.99451    1.000
    H81      H        0.67890    0.91190    0.95460    1.000
    C124     C        0.32025    0.49740    0.41104    1.000
    C125     C        0.19359    0.49300    0.25659    1.000
    H82      H        0.14950    0.47600    0.23550    1.000
    C126     C        0.79422    0.82720    0.99427    1.000
    C127     C        0.28462    0.40000    0.52183    1.000
    C128     C        0.03307    0.62300    0.03045    1.000
    H83      H        0.05540    0.60060    0.01030    1.000
    C129     C        0.46702    0.57540    0.53241    1.000
    C130     C        0.19213    0.32180    0.52013    1.000
    H84      H        0.15050    0.29770    0.49910    1.000
    C131     C        0.67438    0.95920    0.02569    1.000
    H85      H        0.63260    0.98330    0.00540    1.000
    C132     C        0.75430    0.70670    0.76216    1.000
    H86      H        0.77290    0.67140    0.74460    1.000
    C133     C        0.02651    0.64480    0.11545    1.000
    H87      H        0.04370    0.63660    0.15510    1.000
    C134     C        0.28946    0.55140    0.25938    1.000
    H88      H        0.31260    0.57480    0.24020    1.000
    C135     C        0.49770    0.57550    0.59205    1.000
    H89      H        0.47910    0.54690    0.61300    1.000
    C136     C        0.28869    0.50740    0.34750    1.000
    C137     C        0.76377    0.87800    0.02481    1.000
    C138     C        0.67276    0.79690    0.75540    1.000
    H90      H        0.63410    0.82590    0.73280    1.000
    C139     C        0.22243    0.48170    0.31585    1.000
    H91      H        0.19840    0.45760    0.33400    1.000
    C140     C        0.31365    0.39170    0.58101    1.000
    H92      H        0.35560    0.41440    0.60310    1.000
    C141     C        0.79539    0.88890    0.08434    1.000
    H93      H        0.83740    0.86610    0.10590    1.000
    C142     C        0.69801    0.80530    0.81435    1.000
    H94      H        0.67650    0.83780    0.83100    1.000
    C143     C        0.78398    0.71160    0.82155    1.000
    H95      H        0.82160    0.68040    0.84330    1.000
    C144     C        0.55678    0.61910    0.61992    1.000
    H96      H        0.57660    0.62020    0.66000    1.000
    N37      N        0.06049    0.61428    0.08781    1.000
    N38      N        0.70383    0.96893    0.08266    1.000
    N39      N        0.69981    0.75020    0.72825    1.000
    N40      N        0.85189    0.78904    0.02695    1.000
    N41      N        0.76154    0.82270    0.93673    1.000
    N42      N        0.84648    0.73159    0.94016    1.000
    N43      N        0.58678    0.65980    0.59226    1.000
    N44      N        0.21986    0.31468    0.57794    1.000
    N45      N        0.22523    0.52680    0.22813    1.000
    N46      N        0.37410    0.49018    0.52660    1.000
    N47      N        0.28909    0.45088    0.43517    1.000
    N48      N        0.37799    0.53761    0.44064    1.000
    Ag9      Ag       0.65596    0.95836    0.63189    1.000
    Ag10     Ag       0.17695    0.75001    0.13235    1.000
    C145     C        0.37572    0.75750    0.49705    1.000
    C146     C        0.26430    0.56670    0.61096    1.000
    H97      H        0.28610    0.56090    0.65080    1.000
    C147     C        0.99719    0.88300    0.00320    1.000
    H98      H        0.97780    0.88270    0.96310    1.000
    C148     C        0.90269    0.96910    0.99842    1.000
    C149     C        0.43987    0.80250    0.52935    1.000
    C150     C        0.46680    0.81190    0.58870    1.000
    H99      H        0.44560    0.78990    0.60990    1.000
    C151     C        0.78024    0.15010    0.10705    1.000
    H100     H        0.80050    0.15440    0.14700    1.000
    C152     C        0.72220    0.13700    0.99024    1.000
    H101     H        0.70140    0.13400    0.95020    1.000
    C153     C        0.47328    0.83660    0.49970    1.000
    H102     H        0.45580    0.83230    0.45980    1.000
    C154     C        0.05653    0.84190    0.03411    1.000
    H103     H        0.07660    0.81420    0.01400    1.000
    C155     C        0.25693    0.73650    0.34813    1.000
    C156     C        0.82187    0.95690    0.81822    1.000
    H104     H        0.86580    0.93850    0.83830    1.000
    C157     C        0.28965    0.72660    0.41176    1.000
    C158     C        0.81789    0.05050    0.99264    1.000
    C159     C        0.20144    0.58420    0.49451    1.000
    H105     H        0.17890    0.58810    0.45460    1.000
    C160     C        0.82025    0.00260    0.91104    1.000
    C161     C        0.69359    0.00700    0.75659    1.000
    H106     H        0.64950    0.02400    0.73550    1.000
    C162     C        0.29422    0.67280    0.49427    1.000
    C163     C        0.78462    0.10000    0.02183    1.000
    C164     C        0.53307    0.87700    0.53045    1.000
    H107     H        0.55540    0.89940    0.51030    1.000
    C165     C        0.96702    0.92460    0.03241    1.000
    C166     C        0.69213    0.17820    0.02013    1.000
    H108     H        0.65050    0.20230    0.99910    1.000
    C167     C        0.17438    0.54080    0.52569    1.000
    H109     H        0.13260    0.51670    0.50540    1.000
    C168     C        0.25430    0.79330    0.26216    1.000
    H110     H        0.27290    0.82860    0.24460    1.000
    C169     C        0.52651    0.85520    0.61545    1.000
    H111     H        0.54370    0.86340    0.65510    1.000
    C170     C        0.78946    0.94860    0.75938    1.000
    H112     H        0.81260    0.92520    0.74020    1.000
    C171     C        0.99770    0.92450    0.09205    1.000
    H113     H        0.97910    0.95310    0.11300    1.000
    C172     C        0.78869    0.99260    0.84750    1.000
    C173     C        0.26377    0.62200    0.52481    1.000
    C174     C        0.17276    0.70310    0.25540    1.000
    H114     H        0.13410    0.67410    0.23280    1.000
    C175     C        0.72243    0.01830    0.81585    1.000
    H115     H        0.69840    0.04240    0.83400    1.000
    C176     C        0.81365    0.10830    0.08101    1.000
    H116     H        0.85560    0.08560    0.10310    1.000
    C177     C        0.29539    0.61110    0.58434    1.000
    H117     H        0.33740    0.63390    0.60590    1.000
    C178     C        0.19801    0.69470    0.31435    1.000
    H118     H        0.17650    0.66220    0.33100    1.000
    C179     C        0.28398    0.78840    0.32155    1.000
    H119     H        0.32160    0.81960    0.34330    1.000
    C180     C        0.05678    0.88090    0.11992    1.000
    H120     H        0.07660    0.87980    0.16000    1.000
    N49      N        0.56049    0.88572    0.58781    1.000
    N50      N        0.20383    0.53107    0.58266    1.000
    N51      N        0.19981    0.74980    0.22825    1.000
    N52      N        0.35189    0.71096    0.52695    1.000
    N53      N        0.26154    0.67730    0.43673    1.000
    N54      N        0.34648    0.76841    0.44016    1.000
    N55      N        0.08678    0.84020    0.09226    1.000
    N56      N        0.71986    0.18532    0.07794    1.000
    N57      N        0.72523    0.97320    0.72813    1.000
    N58      N        0.87410    0.00982    0.02660    1.000
    N59      N        0.78909    0.04912    0.93517    1.000
    N60      N        0.87799    0.96239    0.94064    1.000
    Ag11     Ag       0.15596    0.45836    0.63189    1.000
    Ag12     Ag       0.67695    0.25001    0.13235    1.000
    C181     C        0.87572    0.25750    0.49705    1.000
    C182     C        0.76430    0.06670    0.61096    1.000
    H121     H        0.78610    0.06090    0.65080    1.000
    C183     C        0.49719    0.38300    0.00320    1.000
    H122     H        0.47780    0.38270    0.96310    1.000
    C184     C        0.40269    0.46910    0.99842    1.000
    C185     C        0.93987    0.30250    0.52935    1.000
    C186     C        0.96680    0.31190    0.58870    1.000
    H123     H        0.94560    0.28990    0.60990    1.000
    C187     C        0.28024    0.65010    0.10705    1.000
    H124     H        0.30050    0.65440    0.14700    1.000
    C188     C        0.22220    0.63700    0.99024    1.000
    H125     H        0.20140    0.63400    0.95020    1.000
    C189     C        0.97328    0.33660    0.49970    1.000
    H126     H        0.95580    0.33230    0.45980    1.000
    C190     C        0.55653    0.34190    0.03411    1.000
    H127     H        0.57660    0.31420    0.01400    1.000
    C191     C        0.75693    0.23650    0.34813    1.000
    C192     C        0.32187    0.45690    0.81822    1.000
    H128     H        0.36580    0.43850    0.83830    1.000
    C193     C        0.78965    0.22660    0.41176    1.000
    C194     C        0.31789    0.55050    0.99264    1.000
    C195     C        0.70144    0.08420    0.49451    1.000
    H129     H        0.67890    0.08810    0.45460    1.000
    C196     C        0.32025    0.50260    0.91104    1.000
    C197     C        0.19359    0.50700    0.75659    1.000
    H130     H        0.14950    0.52400    0.73550    1.000
    C198     C        0.79422    0.17280    0.49427    1.000
    C199     C        0.28462    0.60000    0.02183    1.000
    C200     C        0.03307    0.37700    0.53045    1.000
    H131     H        0.05540    0.39940    0.51030    1.000
    C201     C        0.46702    0.42460    0.03241    1.000
    C202     C        0.19213    0.67820    0.02013    1.000
    H132     H        0.15050    0.70230    0.99910    1.000
    C203     C        0.67438    0.04080    0.52569    1.000
    H133     H        0.63260    0.01670    0.50540    1.000
    C204     C        0.75430    0.29330    0.26216    1.000
    H134     H        0.77290    0.32860    0.24460    1.000
    C205     C        0.02651    0.35520    0.61545    1.000
    H135     H        0.04370    0.36340    0.65510    1.000
    C206     C        0.28946    0.44860    0.75938    1.000
    H136     H        0.31260    0.42520    0.74020    1.000
    C207     C        0.49770    0.42450    0.09205    1.000
    H137     H        0.47910    0.45310    0.11300    1.000
    C208     C        0.28869    0.49260    0.84750    1.000
    C209     C        0.76377    0.12200    0.52481    1.000
    C210     C        0.67276    0.20310    0.25540    1.000
    H138     H        0.63410    0.17410    0.23280    1.000
    C211     C        0.22243    0.51830    0.81585    1.000
    H139     H        0.19840    0.54240    0.83400    1.000
    C212     C        0.31365    0.60830    0.08101    1.000
    H140     H        0.35560    0.58560    0.10310    1.000
    C213     C        0.79539    0.11110    0.58434    1.000
    H141     H        0.83740    0.13390    0.60590    1.000
    C214     C        0.69801    0.19470    0.31435    1.000
    H142     H        0.67650    0.16220    0.33100    1.000
    C215     C        0.78398    0.28840    0.32155    1.000
    H143     H        0.82160    0.31960    0.34330    1.000
    C216     C        0.55678    0.38090    0.11992    1.000
    H144     H        0.57660    0.37980    0.16000    1.000
    N61      N        0.06049    0.38572    0.58781    1.000
    N62      N        0.70383    0.03107    0.58266    1.000
    N63      N        0.69981    0.24980    0.22825    1.000
    N64      N        0.85189    0.21096    0.52695    1.000
    N65      N        0.76154    0.17730    0.43673    1.000
    N66      N        0.84648    0.26841    0.44016    1.000
    N67      N        0.58678    0.34020    0.09226    1.000
    N68      N        0.21986    0.68532    0.07794    1.000
    N69      N        0.22523    0.47320    0.72813    1.000
    N70      N        0.37410    0.50982    0.02660    1.000
    N71      N        0.28909    0.54912    0.93517    1.000
    N72      N        0.37799    0.46239    0.94064    1.000
    Ag13     Ag       0.34404    0.95836    0.86811    1.000
    Ag14     Ag       0.82305    0.75001    0.36765    1.000
    C217     C        0.62428    0.75750    0.00295    1.000
    C218     C        0.73570    0.56670    0.88904    1.000
    H145     H        0.71390    0.56090    0.84920    1.000
    C219     C        0.00281    0.88300    0.49680    1.000
    H146     H        0.02220    0.88270    0.53690    1.000
    C220     C        0.09731    0.96910    0.50158    1.000
    C221     C        0.56013    0.80250    0.97065    1.000
    C222     C        0.53320    0.81190    0.91130    1.000
    H147     H        0.55440    0.78990    0.89010    1.000
    C223     C        0.21976    0.15010    0.39295    1.000
    H148     H        0.19950    0.15440    0.35300    1.000
    C224     C        0.27780    0.13700    0.50976    1.000
    H149     H        0.29860    0.13400    0.54980    1.000
    C225     C        0.52672    0.83660    0.00030    1.000
    H150     H        0.54420    0.83230    0.04020    1.000
    C226     C        0.94347    0.84190    0.46589    1.000
    H151     H        0.92340    0.81420    0.48600    1.000
    C227     C        0.74307    0.73650    0.15187    1.000
    C228     C        0.17813    0.95690    0.68178    1.000
    H152     H        0.13420    0.93850    0.66170    1.000
    C229     C        0.71035    0.72660    0.08824    1.000
    C230     C        0.18211    0.05050    0.50736    1.000
    C231     C        0.79856    0.58420    0.00549    1.000
    H153     H        0.82110    0.58810    0.04540    1.000
    C232     C        0.17975    0.00260    0.58896    1.000
    C233     C        0.30641    0.00700    0.74341    1.000
    H154     H        0.35050    0.02400    0.76450    1.000
    C234     C        0.70578    0.67280    0.00573    1.000
    C235     C        0.21538    0.10000    0.47817    1.000
    C236     C        0.46693    0.87700    0.96955    1.000
    H155     H        0.44460    0.89940    0.98970    1.000
    C237     C        0.03298    0.92460    0.46759    1.000
    C238     C        0.30787    0.17820    0.47987    1.000
    H156     H        0.34950    0.20230    0.50090    1.000
    C239     C        0.82562    0.54080    0.97431    1.000
    H157     H        0.86740    0.51670    0.99460    1.000
    C240     C        0.74570    0.79330    0.23784    1.000
    H158     H        0.72710    0.82860    0.25540    1.000
    C241     C        0.47349    0.85520    0.88455    1.000
    H159     H        0.45630    0.86340    0.84490    1.000
    C242     C        0.21054    0.94860    0.74062    1.000
    H160     H        0.18740    0.92520    0.75980    1.000
    C243     C        0.00230    0.92450    0.40795    1.000
    H161     H        0.02090    0.95310    0.38700    1.000
    C244     C        0.21131    0.99260    0.65250    1.000
    C245     C        0.73623    0.62200    0.97519    1.000
    C246     C        0.82724    0.70310    0.24460    1.000
    H162     H        0.86590    0.67410    0.26720    1.000
    C247     C        0.27757    0.01830    0.68415    1.000
    H163     H        0.30160    0.04240    0.66600    1.000
    C248     C        0.18635    0.10830    0.41899    1.000
    H164     H        0.14440    0.08560    0.39690    1.000
    C249     C        0.70461    0.61110    0.91566    1.000
    H165     H        0.66260    0.63390    0.89410    1.000
    C250     C        0.80199    0.69470    0.18565    1.000
    H166     H        0.82350    0.66220    0.16900    1.000
    C251     C        0.71602    0.78840    0.17845    1.000
    H167     H        0.67840    0.81960    0.15670    1.000
    C252     C        0.94322    0.88090    0.38008    1.000
    H168     H        0.92340    0.87980    0.34000    1.000
    N73      N        0.43951    0.88572    0.91219    1.000
    N74      N        0.79617    0.53107    0.91734    1.000
    N75      N        0.80019    0.74980    0.27175    1.000
    N76      N        0.64811    0.71096    0.97305    1.000
    N77      N        0.73846    0.67730    0.06327    1.000
    N78      N        0.65352    0.76841    0.05984    1.000
    N79      N        0.91322    0.84020    0.40774    1.000
    N80      N        0.28014    0.18532    0.42206    1.000
    N81      N        0.27477    0.97320    0.77187    1.000
    N82      N        0.12590    0.00982    0.47340    1.000
    N83      N        0.21091    0.04912    0.56483    1.000
    N84      N        0.12201    0.96239    0.55936    1.000
    Ag15     Ag       0.84404    0.45836    0.86811    1.000
    Ag16     Ag       0.32305    0.25001    0.36765    1.000
    C253     C        0.12428    0.25750    0.00295    1.000
    C254     C        0.23570    0.06670    0.88904    1.000
    H169     H        0.21390    0.06090    0.84920    1.000
    C255     C        0.50281    0.38300    0.49680    1.000
    H170     H        0.52220    0.38270    0.53690    1.000
    C256     C        0.59731    0.46910    0.50158    1.000
    C257     C        0.06013    0.30250    0.97065    1.000
    C258     C        0.03320    0.31190    0.91130    1.000
    H171     H        0.05440    0.28990    0.89010    1.000
    C259     C        0.71976    0.65010    0.39295    1.000
    H172     H        0.69950    0.65440    0.35300    1.000
    C260     C        0.77780    0.63700    0.50976    1.000
    H173     H        0.79860    0.63400    0.54980    1.000
    C261     C        0.02672    0.33660    0.00030    1.000
    H174     H        0.04420    0.33230    0.04020    1.000
    C262     C        0.44347    0.34190    0.46589    1.000
    H175     H        0.42340    0.31420    0.48600    1.000
    C263     C        0.24307    0.23650    0.15187    1.000
    C264     C        0.67813    0.45690    0.68178    1.000
    H176     H        0.63420    0.43850    0.66170    1.000
    C265     C        0.21035    0.22660    0.08824    1.000
    C266     C        0.68211    0.55050    0.50736    1.000
    C267     C        0.29856    0.08420    0.00549    1.000
    H177     H        0.32110    0.08810    0.04540    1.000
    C268     C        0.67975    0.50260    0.58896    1.000
    C269     C        0.80641    0.50700    0.74341    1.000
    H178     H        0.85050    0.52400    0.76450    1.000
    C270     C        0.20578    0.17280    0.00573    1.000
    C271     C        0.71538    0.60000    0.47817    1.000
    C272     C        0.96693    0.37700    0.96955    1.000
    H179     H        0.94460    0.39940    0.98970    1.000
    C273     C        0.53298    0.42460    0.46759    1.000
    C274     C        0.80787    0.67820    0.47987    1.000
    H180     H        0.84950    0.70230    0.50090    1.000
    C275     C        0.32562    0.04080    0.97431    1.000
    H181     H        0.36740    0.01670    0.99460    1.000
    C276     C        0.24570    0.29330    0.23784    1.000
    H182     H        0.22710    0.32860    0.25540    1.000
    C277     C        0.97349    0.35520    0.88455    1.000
    H183     H        0.95630    0.36340    0.84490    1.000
    C278     C        0.71054    0.44860    0.74062    1.000
    H184     H        0.68740    0.42520    0.75980    1.000
    C279     C        0.50230    0.42450    0.40795    1.000
    H185     H        0.52090    0.45310    0.38700    1.000
    C280     C        0.71131    0.49260    0.65250    1.000
    C281     C        0.23623    0.12200    0.97519    1.000
    C282     C        0.32724    0.20310    0.24460    1.000
    H186     H        0.36590    0.17410    0.26720    1.000
    C283     C        0.77757    0.51830    0.68415    1.000
    H187     H        0.80160    0.54240    0.66600    1.000
    C284     C        0.68635    0.60830    0.41899    1.000
    H188     H        0.64440    0.58560    0.39690    1.000
    C285     C        0.20461    0.11110    0.91566    1.000
    H189     H        0.16260    0.13390    0.89410    1.000
    C286     C        0.30199    0.19470    0.18565    1.000
    H190     H        0.32350    0.16220    0.16900    1.000
    C287     C        0.21602    0.28840    0.17845    1.000
    H191     H        0.17840    0.31960    0.15670    1.000
    C288     C        0.44322    0.38090    0.38008    1.000
    H192     H        0.42340    0.37980    0.34000    1.000
    N85      N        0.93951    0.38572    0.91219    1.000
    N86      N        0.29617    0.03107    0.91734    1.000
    N87      N        0.30019    0.24980    0.27175    1.000
    N88      N        0.14811    0.21096    0.97305    1.000
    N89      N        0.23846    0.17730    0.06327    1.000
    N90      N        0.15352    0.26841    0.05984    1.000
    N91      N        0.41322    0.34020    0.40774    1.000
    N92      N        0.78014    0.68532    0.42206    1.000
    N93      N        0.77477    0.47320    0.77187    1.000
    N94      N        0.62590    0.50982    0.47340    1.000
    N95      N        0.71091    0.54912    0.56483    1.000
    N96      N        0.62201    0.46239    0.55936    1.000
