data_functionalizedCrystal
_audit_creation_method	'EQeq! by Chris Wilmer'
_symmetry_space_group_name_H-M	'P1'
_symmetry_Int_Tables_number	1
_symmetry_cell_setting	triclinic
loop_
_symmetry_equiv_pos_as_xyz
  x,y,z
_cell_length_a	15.1328
_cell_length_b	15.7292
_cell_length_c	27.2884
_cell_angle_alpha	90
_cell_angle_beta	101.398
_cell_angle_gamma	90
loop_
_atom_site_label
_atom_site_type_symbol
_atom_site_fract_x
_atom_site_fract_y
_atom_site_fract_z
_atom_site_charge
Mof_Eu	Eu	0.219	0.61652	0.6281	2.618
Mof_H 	H 	0.2731	0.6132	0.7668	-0.111
Mof_H 	H 	0.4597	0.7928	0.7921	0.062
Mof_H 	H 	0.4601	0.7331	0.7447	0.066
Mof_H 	H 	0.3839	0.8042	0.7426	0.068
Mof_H 	H 	0.4191	0.7379	0.8534	0.057
Mof_H 	H 	0.317	0.7061	0.8471	0.051
Mof_H 	H 	0.3964	0.6385	0.8484	0.047
Mof_H 	H 	0.1343	0.8062	0.6686	-0.095
Mof_H 	H 	0.2141	0.0122	0.6919	0.047
Mof_H 	H 	0.1162	0.9699	0.6777	0.056
Mof_H 	H 	0.1866	0.9372	0.7256	0.047
Mof_H 	H 	0.3076	0.9803	0.6473	0.029
Mof_H 	H 	0.341	0.8836	0.649	0.053
Mof_H 	H 	0.2716	0.9183	0.6012	0.063
Mof_H 	H 	0.4524	0.6279	0.675	-0.124
Mof_H 	H 	0.6414	0.7363	0.6522	0.06
Mof_H 	H 	0.5932	0.7271	0.6991	0.063
Mof_H 	H 	0.6235	0.644	0.673	0.061
Mof_H 	H 	0.5609	0.7733	0.5858	0.05
Mof_H 	H 	0.4844	0.7089	0.5593	0.07
Mof_H 	H 	0.4575	0.7914	0.5873	0.071
Mof_H 	H 	0.1883	0.7742	0.5344	-0.09
Mof_H 	H 	0.2876	0.8183	0.4322	0.048
Mof_H 	H 	0.1903	0.8358	0.4447	0.033
Mof_H 	H 	0.2791	0.8658	0.4829	0.053
Mof_H 	H 	0.3307	0.6916	0.4377	0.047
Mof_H 	H 	0.3534	0.6503	0.4924	0.076
Mof_H 	H 	0.2631	0.6241	0.4543	0.062
Mof_H 	H 	0.3226	0.5075	0.5424	-0.098
Mof_H 	H 	0.5079	0.372	0.5537	0.053
Mof_H 	H 	0.4211	0.3913	0.5112	0.034
Mof_H 	H 	0.4865	0.4673	0.5344	0.061
Mof_H 	H 	0.4837	0.3414	0.6241	0.05
Mof_H 	H 	0.4426	0.4138	0.6542	0.059
Mof_H 	H 	0.3797	0.3381	0.6281	0.05
Mof_H 	H 	0.2898	0.4288	0.6986	-0.106
Mof_H 	H 	0.0746	0.3318	0.7377	0.057
Mof_H 	H 	0.0838	0.4332	0.7397	0.074
Mof_H 	H 	0.0579	0.3857	0.687	0.075
Mof_H 	H 	0.1963	0.2633	0.7561	0.055
Mof_H 	H 	0.2653	0.2705	0.7188	0.036
Mof_H 	H 	0.285	0.3204	0.7709	0.037
Mof_H 	H 	0.1331	0.4322	0.5701	-0.095
Mof_H 	H 	0.8688	0.436	0.5471	0.074
Mof_H 	H 	0.9194	0.4966	0.5909	0.067
Mof_H 	H 	0.9153	0.522	0.5337	0.072
Mof_H 	H 	0.9296	0.3248	0.537	0.075
Mof_H 	H 	0.0198	0.3306	0.5149	0.065
Mof_H 	H 	0.0252	0.3059	0.5723	0.056
Mof_H 	H 	0.0817	0.5811	0.7156	-0.08
Mof_H 	H 	0.8533	0.6934	0.6679	0.043
Mof_H 	H 	0.942	0.7474	0.6658	0.058
Mof_H 	H 	0.9123	0.6717	0.6269	0.039
Mof_H 	H 	0.8565	0.605	0.7221	0.044
Mof_H 	H 	0.9191	0.5248	0.7169	0.045
Mof_H 	H 	0.9493	0.5919	0.7612	0.036
Mof_C 	C 	0.3092	0.6522	0.7529	0.356
Mof_C 	C 	0.4218	0.763	0.7641	-0.192
Mof_C 	C 	0.3751	0.6955	0.8375	-0.189
Mof_C 	C 	0.1826	0.8215	0.6528	0.35
Mof_C 	C 	0.18	0.9591	0.6915	-0.177
Mof_C 	C 	0.2899	0.9218	0.6376	-0.166
Mof_C 	C 	0.4434	0.6578	0.6442	0.353
Mof_C 	C 	0.5997	0.7018	0.6672	-0.203
Mof_C 	C 	0.5031	0.747	0.5878	-0.187
Mof_C 	C 	0.2165	0.7267	0.52235	0.325
Mof_C 	C 	0.2532	0.8217	0.459	-0.179
Mof_C 	C 	0.305	0.6708	0.4657	-0.184
Mof_C 	C 	0.3372	0.4778	0.5732	0.329
Mof_C 	C 	0.4598	0.4131	0.5417	-0.176
Mof_C 	C 	0.4301	0.3757	0.6253	-0.167
Mof_C 	C 	0.2277	0.4356	0.6993	0.326
Mof_C 	C 	0.0935	0.3819	0.721	-0.202
Mof_C 	C 	0.2378	0.3012	0.7432	-0.184
Mof_C 	C 	0.0811	0.4661	0.57006	0.329
Mof_C 	C 	0.92	0.4746	0.5574	-0.185
Mof_C 	C 	0.9935	0.3405	0.5444	-0.197
Mof_C 	C 	0.0499	0.6218	0.693	0.296
Mof_C 	C 	0.9146	0.6909	0.6613	-0.154
Mof_C 	C 	0.9188	0.585	0.7262	-0.175
Mof_N 	N 	0.3645	0.7017	0.78334	-0.154
Mof_N 	N 	0.2145	0.8967	0.66061	-0.156
Mof_N 	N 	0.5125	0.6991	0.63369	-0.144
Mof_N 	N 	0.257	0.7394	0.48467	-0.142
Mof_N 	N 	0.4068	0.4259	0.5796	-0.147
Mof_N 	N 	0.1882	0.3746	0.71919	-0.153
Mof_N 	N 	0.0022	0.4295	0.55798	-0.133
Mof_N 	N 	0.9657	0.6342	0.69433	-0.147
Mof_O 	O 	0.3017	0.6537	0.70727	-0.558
Mof_O 	O 	0.2091	0.7669	0.62646	-0.525
Mof_O 	O 	0.368	0.6547	0.61743	-0.51
Mof_O 	O 	0.2123	0.657	0.54349	-0.511
Mof_O 	O 	0.2894	0.491	0.60433	-0.519
Mof_O 	O 	0.1903	0.5019	0.68122	-0.508
Mof_O 	O 	0.0924	0.5424	0.58152	-0.513
Mof_O 	O 	0.0932	0.6594	0.66431	-0.495
Mof_Eu	Eu	0.781	0.11652	0.8719	2.617
Mof_H 	H 	0.7269	0.1132	0.7332	-0.112
Mof_H 	H 	0.5403	0.2928	0.7079	0.061
Mof_H 	H 	0.5399	0.2331	0.7553	0.065
Mof_H 	H 	0.6161	0.3042	0.7574	0.067
Mof_H 	H 	0.5809	0.2379	0.6466	0.056
Mof_H 	H 	0.683	0.2061	0.6529	0.05
Mof_H 	H 	0.6036	0.1385	0.6516	0.046
Mof_H 	H 	0.8657	0.3062	0.8314	-0.096
Mof_H 	H 	0.7859	0.5122	0.8081	0.047
Mof_H 	H 	0.8838	0.4699	0.8223	0.056
Mof_H 	H 	0.8134	0.4372	0.7744	0.046
Mof_H 	H 	0.6924	0.4803	0.8527	0.028
Mof_H 	H 	0.659	0.3836	0.851	0.052
Mof_H 	H 	0.7284	0.4183	0.8988	0.062
Mof_H 	H 	0.5476	0.1279	0.825	-0.125
Mof_H 	H 	0.3586	0.2363	0.8478	0.06
Mof_H 	H 	0.4068	0.2271	0.8009	0.063
Mof_H 	H 	0.3765	0.144	0.827	0.061
Mof_H 	H 	0.4391	0.2733	0.9142	0.05
Mof_H 	H 	0.5156	0.2089	0.9407	0.07
Mof_H 	H 	0.5425	0.2914	0.9127	0.071
Mof_H 	H 	0.8117	0.2742	0.9656	-0.09
Mof_H 	H 	0.7124	0.3183	0.0678	0.048
Mof_H 	H 	0.8097	0.3358	0.0553	0.033
Mof_H 	H 	0.7209	0.3658	0.0171	0.052
Mof_H 	H 	0.6693	0.1916	0.0623	0.047
Mof_H 	H 	0.6466	0.1503	0.0076	0.077
Mof_H 	H 	0.7369	0.1241	0.0457	0.062
Mof_H 	H 	0.6774	0.0075	0.9576	-0.098
Mof_H 	H 	0.4921	0.872	0.9463	0.053
Mof_H 	H 	0.5789	0.8913	0.9888	0.034
Mof_H 	H 	0.5135	0.9673	0.9656	0.062
Mof_H 	H 	0.5163	0.8414	0.8759	0.05
Mof_H 	H 	0.5574	0.9138	0.8458	0.059
Mof_H 	H 	0.6203	0.8381	0.8719	0.05
Mof_H 	H 	0.7102	0.9288	0.8014	-0.106
Mof_H 	H 	0.9254	0.8318	0.7623	0.057
Mof_H 	H 	0.9162	0.9332	0.7603	0.075
Mof_H 	H 	0.9421	0.8857	0.813	0.075
Mof_H 	H 	0.8037	0.7633	0.7439	0.055
Mof_H 	H 	0.7347	0.7705	0.7812	0.036
Mof_H 	H 	0.715	0.8204	0.7291	0.037
Mof_H 	H 	0.8669	0.9322	0.9299	-0.095
Mof_H 	H 	0.1312	0.936	0.9529	0.074
Mof_H 	H 	0.0806	0.9966	0.9091	0.066
Mof_H 	H 	0.0847	0.022	0.9663	0.07
Mof_H 	H 	0.0704	0.8248	0.963	0.076
Mof_H 	H 	0.9802	0.8306	0.9851	0.066
Mof_H 	H 	0.9748	0.8059	0.9277	0.057
Mof_H 	H 	0.9183	0.0811	0.7844	-0.08
Mof_H 	H 	0.1467	0.1934	0.8321	0.043
Mof_H 	H 	0.058	0.2474	0.8342	0.057
Mof_H 	H 	0.0877	0.1717	0.8731	0.038
Mof_H 	H 	0.1435	0.105	0.7779	0.044
Mof_H 	H 	0.0809	0.0248	0.7831	0.045
Mof_H 	H 	0.0507	0.0919	0.7388	0.036
Mof_C 	C 	0.6908	0.1522	0.7471	0.356
Mof_C 	C 	0.5782	0.263	0.7359	-0.192
Mof_C 	C 	0.6249	0.1955	0.6625	-0.189
Mof_C 	C 	0.8174	0.3215	0.8472	0.35
Mof_C 	C 	0.82	0.4591	0.8085	-0.178
Mof_C 	C 	0.7101	0.4218	0.8624	-0.166
Mof_C 	C 	0.5566	0.1578	0.8558	0.353
Mof_C 	C 	0.4003	0.2018	0.8328	-0.202
Mof_C 	C 	0.4969	0.247	0.9122	-0.187
Mof_C 	C 	0.7835	0.2267	0.97765	0.325
Mof_C 	C 	0.7468	0.3217	0.041	-0.179
Mof_C 	C 	0.695	0.1708	0.0343	-0.184
Mof_C 	C 	0.6628	0.9778	0.9268	0.33
Mof_C 	C 	0.5402	0.9131	0.9583	-0.176
Mof_C 	C 	0.5699	0.8757	0.8747	-0.167
Mof_C 	C 	0.7723	0.9356	0.8007	0.326
Mof_C 	C 	0.9065	0.8819	0.779	-0.202
Mof_C 	C 	0.7622	0.8012	0.7568	-0.184
Mof_C 	C 	0.9189	0.9661	0.92994	0.329
Mof_C 	C 	0.08	0.9746	0.9426	-0.182
Mof_C 	C 	0.0065	0.8405	0.9556	-0.199
Mof_C 	C 	0.9501	0.1218	0.807	0.297
Mof_C 	C 	0.0854	0.1909	0.8387	-0.154
Mof_C 	C 	0.0812	0.085	0.7738	-0.174
Mof_N 	N 	0.6355	0.2017	0.71666	-0.154
Mof_N 	N 	0.7855	0.3967	0.83939	-0.156
Mof_N 	N 	0.4875	0.1991	0.86631	-0.144
Mof_N 	N 	0.743	0.2394	0.01533	-0.142
Mof_N 	N 	0.5932	0.9259	0.9204	-0.147
Mof_N 	N 	0.8118	0.8746	0.78081	-0.153
Mof_N 	N 	0.9978	0.9295	0.94202	-0.133
Mof_N 	N 	0.0343	0.1342	0.80567	-0.147
Mof_O 	O 	0.6983	0.1537	0.79273	-0.558
Mof_O 	O 	0.7909	0.2669	0.87354	-0.525
Mof_O 	O 	0.632	0.1547	0.88257	-0.51
Mof_O 	O 	0.7877	0.157	0.95651	-0.511
Mof_O 	O 	0.7106	0.991	0.89567	-0.52
Mof_O 	O 	0.8097	0.0019	0.81878	-0.508
Mof_O 	O 	0.9076	0.0424	0.91848	-0.513
Mof_O 	O 	0.9068	0.1594	0.83569	-0.495
Mof_Eu	Eu	0.781	0.38348	0.3719	2.617
Mof_H 	H 	0.7269	0.3868	0.2332	-0.112
Mof_H 	H 	0.5403	0.2072	0.2079	0.061
Mof_H 	H 	0.5399	0.2669	0.2553	0.065
Mof_H 	H 	0.6161	0.1958	0.2574	0.067
Mof_H 	H 	0.5809	0.2621	0.1466	0.056
Mof_H 	H 	0.683	0.2939	0.1529	0.05
Mof_H 	H 	0.6036	0.3615	0.1516	0.046
Mof_H 	H 	0.8657	0.1938	0.3314	-0.096
Mof_H 	H 	0.7859	0.9878	0.3081	0.046
Mof_H 	H 	0.8838	0.0301	0.3223	0.055
Mof_H 	H 	0.8134	0.0628	0.2744	0.046
Mof_H 	H 	0.6924	0.0197	0.3527	0.028
Mof_H 	H 	0.659	0.1164	0.351	0.052
Mof_H 	H 	0.7284	0.0817	0.3988	0.062
Mof_H 	H 	0.5476	0.3721	0.325	-0.125
Mof_H 	H 	0.3586	0.2637	0.3478	0.06
Mof_H 	H 	0.4068	0.2729	0.3009	0.063
Mof_H 	H 	0.3765	0.356	0.327	0.061
Mof_H 	H 	0.4391	0.2267	0.4142	0.05
Mof_H 	H 	0.5156	0.2911	0.4407	0.07
Mof_H 	H 	0.5425	0.2086	0.4127	0.071
Mof_H 	H 	0.8117	0.2258	0.4656	-0.09
Mof_H 	H 	0.7124	0.1817	0.5678	0.048
Mof_H 	H 	0.8097	0.1642	0.5553	0.033
Mof_H 	H 	0.7209	0.1342	0.5171	0.053
Mof_H 	H 	0.6693	0.3084	0.5623	0.047
Mof_H 	H 	0.6466	0.3497	0.5076	0.076
Mof_H 	H 	0.7369	0.3759	0.5457	0.062
Mof_H 	H 	0.6774	0.4925	0.4576	-0.098
Mof_H 	H 	0.4921	0.628	0.4463	0.053
Mof_H 	H 	0.5789	0.6087	0.4888	0.034
Mof_H 	H 	0.5135	0.5327	0.4656	0.061
Mof_H 	H 	0.5163	0.6586	0.3759	0.05
Mof_H 	H 	0.5574	0.5862	0.3458	0.059
Mof_H 	H 	0.6203	0.6619	0.3719	0.05
Mof_H 	H 	0.7102	0.5712	0.3014	-0.106
Mof_H 	H 	0.9254	0.6682	0.2623	0.057
Mof_H 	H 	0.9162	0.5668	0.2603	0.074
Mof_H 	H 	0.9421	0.6143	0.313	0.075
Mof_H 	H 	0.8037	0.7367	0.2439	0.055
Mof_H 	H 	0.7347	0.7295	0.2812	0.036
Mof_H 	H 	0.715	0.6796	0.2291	0.037
Mof_H 	H 	0.8669	0.5678	0.4299	-0.095
Mof_H 	H 	0.1312	0.564	0.4529	0.074
Mof_H 	H 	0.0806	0.5034	0.4091	0.067
Mof_H 	H 	0.0847	0.478	0.4663	0.072
Mof_H 	H 	0.0704	0.6752	0.463	0.075
Mof_H 	H 	0.9802	0.6694	0.4851	0.065
Mof_H 	H 	0.9748	0.6941	0.4277	0.056
Mof_H 	H 	0.9183	0.4189	0.2844	-0.08
Mof_H 	H 	0.1467	0.3066	0.3321	0.043
Mof_H 	H 	0.058	0.2526	0.3342	0.058
Mof_H 	H 	0.0877	0.3283	0.3731	0.039
Mof_H 	H 	0.1435	0.395	0.2779	0.044
Mof_H 	H 	0.0809	0.4752	0.2831	0.045
Mof_H 	H 	0.0507	0.4081	0.2388	0.036
Mof_C 	C 	0.6908	0.3478	0.2471	0.356
Mof_C 	C 	0.5782	0.237	0.2359	-0.192
Mof_C 	C 	0.6249	0.3045	0.1625	-0.189
Mof_C 	C 	0.8174	0.1785	0.3472	0.35
Mof_C 	C 	0.82	0.0409	0.3085	-0.177
Mof_C 	C 	0.7101	0.0782	0.3624	-0.166
Mof_C 	C 	0.5566	0.3422	0.3558	0.353
Mof_C 	C 	0.4003	0.2982	0.3328	-0.203
Mof_C 	C 	0.4969	0.253	0.4122	-0.187
Mof_C 	C 	0.7835	0.2733	0.47765	0.325
Mof_C 	C 	0.7468	0.1783	0.541	-0.179
Mof_C 	C 	0.695	0.3292	0.5343	-0.184
Mof_C 	C 	0.6628	0.5222	0.4268	0.329
Mof_C 	C 	0.5402	0.5869	0.4583	-0.176
Mof_C 	C 	0.5699	0.6243	0.3747	-0.167
Mof_C 	C 	0.7723	0.5644	0.3007	0.326
Mof_C 	C 	0.9065	0.6181	0.279	-0.202
Mof_C 	C 	0.7622	0.6988	0.2568	-0.184
Mof_C 	C 	0.9189	0.5339	0.42994	0.329
Mof_C 	C 	0.08	0.5254	0.4426	-0.185
Mof_C 	C 	0.0065	0.6595	0.4556	-0.197
Mof_C 	C 	0.9501	0.3782	0.307	0.296
Mof_C 	C 	0.0854	0.3091	0.3387	-0.154
Mof_C 	C 	0.0812	0.415	0.2738	-0.175
Mof_N 	N 	0.6355	0.2983	0.21666	-0.154
Mof_N 	N 	0.7855	0.1033	0.33939	-0.156
Mof_N 	N 	0.4875	0.3009	0.36631	-0.144
Mof_N 	N 	0.743	0.2606	0.51533	-0.142
Mof_N 	N 	0.5932	0.5741	0.4204	-0.147
Mof_N 	N 	0.8118	0.6254	0.28081	-0.153
Mof_N 	N 	0.9978	0.5705	0.44202	-0.133
Mof_N 	N 	0.0343	0.3658	0.30567	-0.147
Mof_O 	O 	0.6983	0.3463	0.29273	-0.558
Mof_O 	O 	0.7909	0.2331	0.37354	-0.525
Mof_O 	O 	0.632	0.3453	0.38257	-0.51
Mof_O 	O 	0.7877	0.343	0.45651	-0.511
Mof_O 	O 	0.7106	0.509	0.39567	-0.519
Mof_O 	O 	0.8097	0.4981	0.31878	-0.508
Mof_O 	O 	0.9076	0.4576	0.41848	-0.513
Mof_O 	O 	0.9068	0.3406	0.33569	-0.495
Mof_Eu	Eu	0.219	0.88348	0.1281	2.617
Mof_H 	H 	0.2731	0.8868	0.2668	-0.112
Mof_H 	H 	0.4597	0.7072	0.2921	0.061
Mof_H 	H 	0.4601	0.7669	0.2447	0.065
Mof_H 	H 	0.3839	0.6958	0.2426	0.067
Mof_H 	H 	0.4191	0.7621	0.3534	0.056
Mof_H 	H 	0.317	0.7939	0.3471	0.05
Mof_H 	H 	0.3964	0.8615	0.3484	0.046
Mof_H 	H 	0.1343	0.6938	0.1686	-0.096
Mof_H 	H 	0.2141	0.4878	0.1919	0.047
Mof_H 	H 	0.1162	0.5301	0.1777	0.056
Mof_H 	H 	0.1866	0.5628	0.2256	0.046
Mof_H 	H 	0.3076	0.5197	0.1473	0.028
Mof_H 	H 	0.341	0.6164	0.149	0.052
Mof_H 	H 	0.2716	0.5817	0.1012	0.062
Mof_H 	H 	0.4524	0.8721	0.175	-0.125
Mof_H 	H 	0.6414	0.7637	0.1522	0.06
Mof_H 	H 	0.5932	0.7729	0.1991	0.063
Mof_H 	H 	0.6235	0.856	0.173	0.061
Mof_H 	H 	0.5609	0.7267	0.0858	0.05
Mof_H 	H 	0.4844	0.7911	0.0593	0.07
Mof_H 	H 	0.4575	0.7086	0.0873	0.071
Mof_H 	H 	0.1883	0.7258	0.0344	-0.09
Mof_H 	H 	0.2876	0.6817	0.9322	0.048
Mof_H 	H 	0.1903	0.6642	0.9447	0.033
Mof_H 	H 	0.2791	0.6342	0.9829	0.052
Mof_H 	H 	0.3307	0.8084	0.9377	0.047
Mof_H 	H 	0.3534	0.8497	0.9924	0.077
Mof_H 	H 	0.2631	0.8759	0.9543	0.062
Mof_H 	H 	0.3226	0.9925	0.0424	-0.098
Mof_H 	H 	0.5079	0.128	0.0537	0.053
Mof_H 	H 	0.4211	0.1087	0.0112	0.034
Mof_H 	H 	0.4865	0.0327	0.0344	0.062
Mof_H 	H 	0.4837	0.1586	0.1241	0.05
Mof_H 	H 	0.4426	0.0862	0.1542	0.059
Mof_H 	H 	0.3797	0.1619	0.1281	0.05
Mof_H 	H 	0.2898	0.0712	0.1986	-0.106
Mof_H 	H 	0.0746	0.1682	0.2377	0.057
Mof_H 	H 	0.0838	0.0668	0.2397	0.075
Mof_H 	H 	0.0579	0.1143	0.187	0.075
Mof_H 	H 	0.1963	0.2367	0.2561	0.055
Mof_H 	H 	0.2653	0.2295	0.2188	0.036
Mof_H 	H 	0.285	0.1796	0.2709	0.037
Mof_H 	H 	0.1331	0.0678	0.0701	-0.095
Mof_H 	H 	0.8688	0.064	0.0471	0.074
Mof_H 	H 	0.9194	0.0034	0.0909	0.066
Mof_H 	H 	0.9153	0.978	0.0337	0.07
Mof_H 	H 	0.9296	0.1752	0.037	0.076
Mof_H 	H 	0.0198	0.1694	0.0149	0.066
Mof_H 	H 	0.0252	0.1941	0.0723	0.057
Mof_H 	H 	0.0817	0.9189	0.2156	-0.08
Mof_H 	H 	0.8533	0.8066	0.1679	0.043
Mof_H 	H 	0.942	0.7526	0.1658	0.057
Mof_H 	H 	0.9123	0.8283	0.1269	0.038
Mof_H 	H 	0.8565	0.895	0.2221	0.044
Mof_H 	H 	0.9191	0.9752	0.2169	0.045
Mof_H 	H 	0.9493	0.9081	0.2612	0.036
Mof_C 	C 	0.3092	0.8478	0.2529	0.356
Mof_C 	C 	0.4218	0.737	0.2641	-0.192
Mof_C 	C 	0.3751	0.8045	0.3375	-0.189
Mof_C 	C 	0.1826	0.6785	0.1528	0.35
Mof_C 	C 	0.18	0.5409	0.1915	-0.178
Mof_C 	C 	0.2899	0.5782	0.1376	-0.166
Mof_C 	C 	0.4434	0.8422	0.1442	0.353
Mof_C 	C 	0.5997	0.7982	0.1672	-0.202
Mof_C 	C 	0.5031	0.753	0.0878	-0.187
Mof_C 	C 	0.2165	0.7733	0.02235	0.325
Mof_C 	C 	0.2532	0.6783	0.959	-0.179
Mof_C 	C 	0.305	0.8292	0.9657	-0.184
Mof_C 	C 	0.3372	0.0222	0.0732	0.33
Mof_C 	C 	0.4598	0.0869	0.0417	-0.176
Mof_C 	C 	0.4301	0.1243	0.1253	-0.167
Mof_C 	C 	0.2277	0.0644	0.1993	0.326
Mof_C 	C 	0.0935	0.1181	0.221	-0.202
Mof_C 	C 	0.2378	0.1988	0.2432	-0.184
Mof_C 	C 	0.0811	0.0339	0.07006	0.329
Mof_C 	C 	0.92	0.0254	0.0574	-0.182
Mof_C 	C 	0.9935	0.1595	0.0444	-0.199
Mof_C 	C 	0.0499	0.8782	0.193	0.297
Mof_C 	C 	0.9146	0.8091	0.1613	-0.154
Mof_C 	C 	0.9188	0.915	0.2262	-0.174
Mof_N 	N 	0.3645	0.7983	0.28334	-0.154
Mof_N 	N 	0.2145	0.6033	0.16061	-0.156
Mof_N 	N 	0.5125	0.8009	0.13369	-0.144
Mof_N 	N 	0.257	0.7606	0.98467	-0.142
Mof_N 	N 	0.4068	0.0741	0.0796	-0.147
Mof_N 	N 	0.1882	0.1254	0.21919	-0.153
Mof_N 	N 	0.0022	0.0705	0.05798	-0.133
Mof_N 	N 	0.9657	0.8658	0.19433	-0.147
Mof_O 	O 	0.3017	0.8463	0.20727	-0.558
Mof_O 	O 	0.2091	0.7331	0.12646	-0.525
Mof_O 	O 	0.368	0.8453	0.11743	-0.51
Mof_O 	O 	0.2123	0.843	0.04349	-0.511
Mof_O 	O 	0.2894	0.009	0.10433	-0.52
Mof_O 	O 	0.1903	0.9981	0.18122	-0.508
Mof_O 	O 	0.0924	0.9576	0.08152	-0.513
Mof_O 	O 	0.0932	0.8406	0.16431	-0.495
Mof_Cu	Cu	0.768	0.7005	0.87749	0.826
Mof_Cu	Cu	0.07434	0.6921	0.83526	0.826
Mof_Cu	Cu	0.26937	0.43675	0.84692	0.824
Mof_Cu	Cu	0.74509	0.81622	0.04263	0.822
Mof_Cu	Cu	0.72672	0.05575	0.15637	0.828
Mof_Cu	Cu	0.53133	0.52384	0.77483	0.826
Mof_Cu	Cu	0.232	0.2005	0.62251	0.826
Mof_Cu	Cu	0.92566	0.1921	0.66474	0.826
Mof_Cu	Cu	0.73063	0.93675	0.65308	0.824
Mof_Cu	Cu	0.25491	0.31622	0.45737	0.822
Mof_Cu	Cu	0.27328	0.55575	0.34363	0.828
Mof_Cu	Cu	0.46867	0.02384	0.72517	0.826
Mof_Cu	Cu	0.232	0.2995	0.12251	0.826
Mof_Cu	Cu	0.92566	0.3079	0.16474	0.826
Mof_Cu	Cu	0.73063	0.56325	0.15308	0.824
Mof_Cu	Cu	0.25491	0.18378	0.95737	0.822
Mof_Cu	Cu	0.27328	0.94425	0.84363	0.828
Mof_Cu	Cu	0.46867	0.47616	0.22517	0.826
Mof_Cu	Cu	0.768	0.7995	0.37749	0.826
Mof_Cu	Cu	0.07434	0.8079	0.33526	0.826
Mof_Cu	Cu	0.26937	0.06325	0.34692	0.824
Mof_Cu	Cu	0.74509	0.68378	0.54263	0.822
Mof_Cu	Cu	0.72672	0.44425	0.65637	0.828
Mof_Cu	Cu	0.53133	0.97616	0.27483	0.826
Mof_C 	C 	0.958	0.6885	0.8515	-0.217
Mof_C 	C 	0.1375	0.5901	0.8287	-0.213
Mof_C 	C 	0.1872	0.8568	0.8324	-0.22
Mof_C 	C 	0.74	0.6566	0.1112	-0.238
Mof_C 	C 	0.4324	0.4788	0.79838	-0.221
Mof_C 	C 	0.7648	0.7609	0.9366	-0.217
Mof_C 	C 	0.7272	0.9193	0.0753	-0.214
Mof_C 	C 	0.6642	0.6523	0.8372	-0.229
Mof_C 	C 	0.6403	0.4719	0.6955	-0.212
Mof_C 	C 	0.042	0.1885	0.6485	-0.218
Mof_C 	C 	0.8625	0.0901	0.6713	-0.213
Mof_C 	C 	0.8128	0.3568	0.6676	-0.221
Mof_C 	C 	0.26	0.1566	0.3888	-0.238
Mof_C 	C 	0.5676	0.9788	0.70162	-0.221
Mof_C 	C 	0.2352	0.2609	0.5634	-0.217
Mof_C 	C 	0.2728	0.4193	0.4247	-0.213
Mof_C 	C 	0.3358	0.1523	0.6628	-0.229
Mof_C 	C 	0.3597	0.9719	0.8045	-0.212
Mof_C 	C 	0.042	0.3115	0.1485	-0.217
Mof_C 	C 	0.8625	0.4099	0.1713	-0.213
Mof_C 	C 	0.8128	0.1432	0.1676	-0.22
Mof_C 	C 	0.26	0.3434	0.8888	-0.238
Mof_C 	C 	0.5676	0.5212	0.20162	-0.221
Mof_C 	C 	0.2352	0.2391	0.0634	-0.217
Mof_C 	C 	0.2728	0.0807	0.9247	-0.214
Mof_C 	C 	0.3358	0.3477	0.1628	-0.229
Mof_C 	C 	0.3597	0.5281	0.3045	-0.212
Mof_C 	C 	0.958	0.8115	0.3515	-0.218
Mof_C 	C 	0.1375	0.9099	0.3287	-0.213
Mof_C 	C 	0.1872	0.6432	0.3324	-0.221
Mof_C 	C 	0.74	0.8434	0.6112	-0.238
Mof_C 	C 	0.4324	0.0212	0.29838	-0.221
Mof_C 	C 	0.7648	0.7391	0.4366	-0.217
Mof_C 	C 	0.7272	0.5807	0.5753	-0.213
Mof_C 	C 	0.6642	0.8477	0.3372	-0.229
Mof_C 	C 	0.6403	0.0281	0.1955	-0.212
Mof_N 	N 	0.8883	0.6885	0.86213	-0.208
Mof_N 	N 	0.1823	0.5301	0.83204	-0.208
Mof_N 	N 	0.1398	0.7974	0.8299	-0.207
Mof_N 	N 	0.7445	0.7151	0.08545	-0.208
Mof_N 	N 	0.3724	0.4551	0.81475	-0.206
Mof_N 	N 	0.7603	0.7869	0.9761	-0.214
Mof_N 	N 	0.7225	0.9781	0.1003	-0.207
Mof_N 	N 	0.6047	0.6169	0.81225	-0.199
Mof_N 	N 	0.5926	0.4929	0.7218	-0.21
Mof_N 	N 	0.1117	0.1885	0.63787	-0.208
Mof_N 	N 	0.8177	0.0301	0.66796	-0.208
Mof_N 	N 	0.8602	0.2974	0.6701	-0.207
Mof_N 	N 	0.2555	0.2151	0.41455	-0.208
Mof_N 	N 	0.6276	0.9551	0.68525	-0.206
Mof_N 	N 	0.2397	0.2869	0.5239	-0.214
Mof_N 	N 	0.2775	0.4781	0.3997	-0.207
Mof_N 	N 	0.3953	0.1169	0.68775	-0.199
Mof_N 	N 	0.4074	0.9929	0.7782	-0.21
Mof_N 	N 	0.1117	0.3115	0.13787	-0.208
Mof_N 	N 	0.8177	0.4699	0.16796	-0.208
Mof_N 	N 	0.8602	0.2026	0.1701	-0.207
Mof_N 	N 	0.2555	0.2849	0.91455	-0.208
Mof_N 	N 	0.6276	0.5449	0.18525	-0.206
Mof_N 	N 	0.2397	0.2131	0.0239	-0.214
Mof_N 	N 	0.2775	0.0219	0.8997	-0.207
Mof_N 	N 	0.3953	0.3831	0.18775	-0.199
Mof_N 	N 	0.4074	0.5071	0.2782	-0.21
Mof_N 	N 	0.8883	0.8115	0.36213	-0.208
Mof_N 	N 	0.1823	0.9699	0.33204	-0.208
Mof_N 	N 	0.1398	0.7026	0.3299	-0.207
Mof_N 	N 	0.7445	0.7849	0.58545	-0.208
Mof_N 	N 	0.3724	0.0449	0.31475	-0.206
Mof_N 	N 	0.7603	0.7131	0.4761	-0.214
Mof_N 	N 	0.7225	0.5219	0.6003	-0.207
Mof_N 	N 	0.6047	0.8831	0.31225	-0.199
Mof_N 	N 	0.5926	0.0071	0.2218	-0.21
_end
