# CIF file generated by openbabel 3.1.0, see https://openbabel.org
data_I
_chemical_name_common 'image0'
_cell_length_a 14.908
_cell_length_b 15.345
_cell_length_c 27.753
_cell_angle_alpha 90
_cell_angle_beta 90.424
_cell_angle_gamma 90
_space_group_name_H-M_alt 'P 1'
_space_group_name_Hall 'P 1'
loop_
    _symmetry_equiv_pos_as_xyz
    x,y,z
loop_
    _atom_site_label
    _atom_site_type_symbol
    _atom_site_fract_x
    _atom_site_fract_y
    _atom_site_fract_z
    _atom_site_occupancy
    C1       C        0.16360    0.04770    0.39804    1.000
    C2       C        0.13780    0.00210    0.35530    1.000
    H1       H        0.09550    0.02260    0.33220    1.000
    C3       C        0.18100    0.92750    0.35255    1.000
    H2       H        0.17630    0.88550    0.32750    1.000
    C4       C        0.23620    0.92240    0.39435    1.000
    C5       C        0.28850    0.85200    0.40716    1.000
    C6       C        0.33750    0.84630    0.44906    1.000
    C7       C        0.38540    0.77070    0.46490    1.000
    H3       H        0.39210    0.71790    0.44740    1.000
    C8       C        0.41950    0.78780    0.50911    1.000
    H4       H        0.45330    0.74840    0.52840    1.000
    C9       C        0.39650    0.87420    0.52193    1.000
    C10      C        0.42240    0.91430    0.56214    1.000
    C11      C        0.40590    0.00530    0.57172    1.000
    C12      C        0.43930    0.05170    0.61251    1.000
    H5       H        0.47390    0.02810    0.63820    1.000
    C13      C        0.41290    0.13490    0.60798    1.000
    H6       H        0.42670    0.18140    0.62940    1.000
    C14      C        0.35900    0.14050    0.56404    1.000
    C15      C        0.31530    0.21370    0.54897    1.000
    C16      C        0.25680    0.21570    0.51030    1.000
    C17      C        0.20510    0.29000    0.49592    1.000
    H7       H        0.20710    0.34640    0.51010    1.000
    C18      C        0.15370    0.26530    0.45900    1.000
    H8       H        0.11150    0.30120    0.44250    1.000
    C19      C        0.17220    0.17550    0.44803    1.000
    C20      C        0.13650    0.13050    0.40997    1.000
    C21      C        0.31190    0.62560    0.31697    1.000
    C22      C        0.23750    0.63850    0.34560    1.000
    H9       H        0.19090    0.59630    0.34590    1.000
    C23      C        0.23100    0.71210    0.37330    1.000
    H10      H        0.18000    0.71940    0.39330    1.000
    C24      C        0.29540    0.77490    0.37316    1.000
    C25      C        0.36610    0.76320    0.34386    1.000
    H11      H        0.41060    0.80740    0.34220    1.000
    C26      C        0.37580    0.69000    0.31645    1.000
    H12      H        0.42730    0.68360    0.29680    1.000
    C27      C        0.32470    0.54250    0.28895    1.000
    C28      C        0.57470    0.76660    0.66403    1.000
    C29      C        0.48290    0.76410    0.66471    1.000
    H13      H        0.45310    0.72870    0.68760    1.000
    C30      C        0.43350    0.81270    0.63239    1.000
    H14      H        0.36980    0.81030    0.63340    1.000
    C31      C        0.47410    0.86440    0.59893    1.000
    C32      C        0.56700    0.86830    0.60030    1.000
    H15      H        0.59680    0.90630    0.57870    1.000
    C33      C        0.61730    0.81950    0.63169    1.000
    H16      H        0.68090    0.82230    0.63110    1.000
    C34      C        0.63010    0.71160    0.69744    1.000
    C35      C        0.35580    0.44460    0.63617    1.000
    C36      C        0.42390    0.41200    0.60880    1.000
    H17      H        0.48110    0.43940    0.60920    1.000
    C37      C        0.40910    0.33700    0.57972    1.000
    H18      H        0.45690    0.31550    0.56060    1.000
    C38      C        0.32910    0.29520    0.57846    1.000
    C39      C        0.26090    0.33040    0.60610    1.000
    H19      H        0.20370    0.30310    0.60610    1.000
    C40      C        0.27460    0.40410    0.63355    1.000
    H20      H        0.22580    0.42740    0.65120    1.000
    C41      C        0.36930    0.52070    0.66825    1.000
    C42      C        0.92500    0.24660    0.32631    1.000
    C43      C        0.01410    0.26910    0.31938    1.000
    H21      H        0.02850    0.31120    0.29550    1.000
    C44      C        0.08250    0.23210    0.34613    1.000
    H22      H        0.14290    0.24880    0.34030    1.000
    C45      C        0.06440    0.17130    0.38104    1.000
    C46      C        0.97610    0.14750    0.38793    1.000
    H23      H        0.96260    0.10460    0.41150    1.000
    C47      C        0.90610    0.18460    0.36128    1.000
    H24      H        0.84590    0.16760    0.36700    1.000
    C48      C        0.85080    0.28920    0.29936    1.000
    Fe1      Fe       0.73142    0.62197    0.75524    1.000
    Mn1      Mn       0.27614    0.02189    0.48830    1.000
    N1       N        0.22660    0.99690    0.42180    1.000
    N2       N        0.34510    0.91000    0.48522    1.000
    N3       N        0.35560    0.06010    0.54241    1.000
    N4       N        0.23650    0.14520    0.48083    1.000
    O1       O        0.39950    0.53305    0.26897    1.000
    O2       O        0.25850    0.48960    0.28633    1.000
    O3       O        0.59384    0.66434    0.73004    1.000
    O4       O        0.71360    0.71240    0.69435    1.000
    O5       O        0.44750    0.54480    0.67727    1.000
    O6       O        0.29880    0.55600    0.68396    1.000
    O7       O        0.86955    0.35550    0.27235    1.000
    O8       O        0.77290    0.26190    0.30287    1.000
    C49      C        0.83640    0.04770    0.10196    1.000
    C50      C        0.86220    0.00210    0.14470    1.000
    H25      H        0.90450    0.02260    0.16780    1.000
    C51      C        0.81900    0.92750    0.14745    1.000
    H26      H        0.82370    0.88550    0.17250    1.000
    C52      C        0.76380    0.92240    0.10565    1.000
    C53      C        0.71150    0.85200    0.09284    1.000
    C54      C        0.66250    0.84630    0.05094    1.000
    C55      C        0.61460    0.77070    0.03510    1.000
    H27      H        0.60790    0.71790    0.05260    1.000
    C56      C        0.58050    0.78780    0.99089    1.000
    H28      H        0.54670    0.74840    0.97160    1.000
    C57      C        0.60350    0.87420    0.97807    1.000
    C58      C        0.57760    0.91430    0.93786    1.000
    C59      C        0.59410    0.00530    0.92828    1.000
    C60      C        0.56070    0.05170    0.88749    1.000
    H29      H        0.52610    0.02810    0.86180    1.000
    C61      C        0.58710    0.13490    0.89202    1.000
    H30      H        0.57330    0.18140    0.87060    1.000
    C62      C        0.64100    0.14050    0.93596    1.000
    C63      C        0.68470    0.21370    0.95103    1.000
    C64      C        0.74320    0.21570    0.98970    1.000
    C65      C        0.79490    0.29000    0.00408    1.000
    H31      H        0.79290    0.34640    0.98990    1.000
    C66      C        0.84630    0.26530    0.04100    1.000
    H32      H        0.88850    0.30120    0.05750    1.000
    C67      C        0.82780    0.17550    0.05197    1.000
    C68      C        0.86350    0.13050    0.09003    1.000
    C69      C        0.68810    0.62560    0.18303    1.000
    C70      C        0.76250    0.63850    0.15440    1.000
    H33      H        0.80910    0.59630    0.15410    1.000
    C71      C        0.76900    0.71210    0.12670    1.000
    H34      H        0.82000    0.71940    0.10670    1.000
    C72      C        0.70460    0.77490    0.12684    1.000
    C73      C        0.63390    0.76320    0.15614    1.000
    H35      H        0.58940    0.80740    0.15780    1.000
    C74      C        0.62420    0.69000    0.18355    1.000
    H36      H        0.57270    0.68360    0.20320    1.000
    C75      C        0.67530    0.54250    0.21105    1.000
    C76      C        0.42530    0.76660    0.83597    1.000
    C77      C        0.51710    0.76410    0.83529    1.000
    H37      H        0.54690    0.72870    0.81240    1.000
    C78      C        0.56650    0.81270    0.86761    1.000
    H38      H        0.63020    0.81030    0.86660    1.000
    C79      C        0.52590    0.86440    0.90107    1.000
    C80      C        0.43300    0.86830    0.89970    1.000
    H39      H        0.40320    0.90630    0.92130    1.000
    C81      C        0.38270    0.81950    0.86831    1.000
    H40      H        0.31910    0.82230    0.86890    1.000
    C82      C        0.36990    0.71160    0.80256    1.000
    C83      C        0.64420    0.44460    0.86383    1.000
    C84      C        0.57610    0.41200    0.89120    1.000
    H41      H        0.51890    0.43940    0.89080    1.000
    C85      C        0.59090    0.33700    0.92028    1.000
    H42      H        0.54310    0.31550    0.93940    1.000
    C86      C        0.67090    0.29520    0.92154    1.000
    C87      C        0.73910    0.33040    0.89390    1.000
    H43      H        0.79630    0.30310    0.89390    1.000
    C88      C        0.72540    0.40410    0.86645    1.000
    H44      H        0.77420    0.42740    0.84880    1.000
    C89      C        0.63070    0.52070    0.83175    1.000
    C90      C        0.07500    0.24660    0.17369    1.000
    C91      C        0.98590    0.26910    0.18062    1.000
    H45      H        0.97150    0.31120    0.20450    1.000
    C92      C        0.91750    0.23210    0.15387    1.000
    H46      H        0.85710    0.24880    0.15970    1.000
    C93      C        0.93560    0.17130    0.11896    1.000
    C94      C        0.02390    0.14750    0.11207    1.000
    H47      H        0.03740    0.10460    0.08850    1.000
    C95      C        0.09390    0.18460    0.13872    1.000
    H48      H        0.15410    0.16760    0.13300    1.000
    C96      C        0.14920    0.28920    0.20064    1.000
    Fe2      Fe       0.26858    0.62197    0.74476    1.000
    Mn2      Mn       0.72386    0.02189    0.01170    1.000
    N5       N        0.77340    0.99690    0.07820    1.000
    N6       N        0.65490    0.91000    0.01478    1.000
    N7       N        0.64440    0.06010    0.95759    1.000
    N8       N        0.76350    0.14520    0.01917    1.000
    O9       O        0.60050    0.53305    0.23103    1.000
    O10      O        0.74150    0.48960    0.21367    1.000
    O11      O        0.40616    0.66434    0.76996    1.000
    O12      O        0.28640    0.71240    0.80565    1.000
    O13      O        0.55250    0.54480    0.82273    1.000
    O14      O        0.70120    0.55600    0.81604    1.000
    O15      O        0.13045    0.35550    0.22765    1.000
    O16      O        0.22710    0.26190    0.19713    1.000
    C97      C        0.83640    0.95230    0.60196    1.000
    C98      C        0.86220    0.99790    0.64470    1.000
    H49      H        0.90450    0.97740    0.66780    1.000
    C99      C        0.81900    0.07250    0.64745    1.000
    H50      H        0.82370    0.11450    0.67250    1.000
    C100     C        0.76380    0.07760    0.60565    1.000
    C101     C        0.71150    0.14800    0.59284    1.000
    C102     C        0.66250    0.15370    0.55094    1.000
    C103     C        0.61460    0.22930    0.53510    1.000
    H51      H        0.60790    0.28210    0.55260    1.000
    C104     C        0.58050    0.21220    0.49089    1.000
    H52      H        0.54670    0.25160    0.47160    1.000
    C105     C        0.60350    0.12580    0.47807    1.000
    C106     C        0.57760    0.08570    0.43786    1.000
    C107     C        0.59410    0.99470    0.42828    1.000
    C108     C        0.56070    0.94830    0.38749    1.000
    H53      H        0.52610    0.97190    0.36180    1.000
    C109     C        0.58710    0.86510    0.39202    1.000
    H54      H        0.57330    0.81860    0.37060    1.000
    C110     C        0.64100    0.85950    0.43596    1.000
    C111     C        0.68470    0.78630    0.45103    1.000
    C112     C        0.74320    0.78430    0.48970    1.000
    C113     C        0.79490    0.71000    0.50408    1.000
    H55      H        0.79290    0.65360    0.48990    1.000
    C114     C        0.84630    0.73470    0.54100    1.000
    H56      H        0.88850    0.69880    0.55750    1.000
    C115     C        0.82780    0.82450    0.55197    1.000
    C116     C        0.86350    0.86950    0.59003    1.000
    C117     C        0.68810    0.37440    0.68303    1.000
    C118     C        0.76250    0.36150    0.65440    1.000
    H57      H        0.80910    0.40370    0.65410    1.000
    C119     C        0.76900    0.28790    0.62670    1.000
    H58      H        0.82000    0.28060    0.60670    1.000
    C120     C        0.70460    0.22510    0.62684    1.000
    C121     C        0.63390    0.23680    0.65614    1.000
    H59      H        0.58940    0.19260    0.65780    1.000
    C122     C        0.62420    0.31000    0.68355    1.000
    H60      H        0.57270    0.31640    0.70320    1.000
    C123     C        0.67530    0.45750    0.71105    1.000
    C124     C        0.42530    0.23340    0.33597    1.000
    C125     C        0.51710    0.23590    0.33529    1.000
    H61      H        0.54690    0.27130    0.31240    1.000
    C126     C        0.56650    0.18730    0.36761    1.000
    H62      H        0.63020    0.18970    0.36660    1.000
    C127     C        0.52590    0.13560    0.40107    1.000
    C128     C        0.43300    0.13170    0.39970    1.000
    H63      H        0.40320    0.09370    0.42130    1.000
    C129     C        0.38270    0.18050    0.36831    1.000
    H64      H        0.31910    0.17770    0.36890    1.000
    C130     C        0.36990    0.28840    0.30256    1.000
    C131     C        0.64420    0.55540    0.36383    1.000
    C132     C        0.57610    0.58800    0.39120    1.000
    H65      H        0.51890    0.56060    0.39080    1.000
    C133     C        0.59090    0.66300    0.42028    1.000
    H66      H        0.54310    0.68450    0.43940    1.000
    C134     C        0.67090    0.70480    0.42154    1.000
    C135     C        0.73910    0.66960    0.39390    1.000
    H67      H        0.79630    0.69690    0.39390    1.000
    C136     C        0.72540    0.59590    0.36645    1.000
    H68      H        0.77420    0.57260    0.34880    1.000
    C137     C        0.63070    0.47930    0.33175    1.000
    C138     C        0.07500    0.75340    0.67369    1.000
    C139     C        0.98590    0.73090    0.68062    1.000
    H69      H        0.97150    0.68880    0.70450    1.000
    C140     C        0.91750    0.76790    0.65387    1.000
    H70      H        0.85710    0.75120    0.65970    1.000
    C141     C        0.93560    0.82870    0.61896    1.000
    C142     C        0.02390    0.85250    0.61207    1.000
    H71      H        0.03740    0.89540    0.58850    1.000
    C143     C        0.09390    0.81540    0.63872    1.000
    H72      H        0.15410    0.83240    0.63300    1.000
    C144     C        0.14920    0.71080    0.70064    1.000
    Fe3      Fe       0.26858    0.37803    0.24476    1.000
    Mn3      Mn       0.72386    0.97811    0.51170    1.000
    N9       N        0.77340    0.00310    0.57820    1.000
    N10      N        0.65490    0.09000    0.51478    1.000
    N11      N        0.64440    0.93990    0.45759    1.000
    N12      N        0.76350    0.85480    0.51917    1.000
    O17      O        0.60050    0.46695    0.73103    1.000
    O18      O        0.74150    0.51040    0.71367    1.000
    O19      O        0.40616    0.33566    0.26996    1.000
    O20      O        0.28640    0.28760    0.30565    1.000
    O21      O        0.55250    0.45520    0.32273    1.000
    O22      O        0.70120    0.44400    0.31604    1.000
    O23      O        0.13045    0.64450    0.72765    1.000
    O24      O        0.22710    0.73810    0.69713    1.000
    C145     C        0.16360    0.95230    0.89804    1.000
    C146     C        0.13780    0.99790    0.85530    1.000
    H73      H        0.09550    0.97740    0.83220    1.000
    C147     C        0.18100    0.07250    0.85255    1.000
    H74      H        0.17630    0.11450    0.82750    1.000
    C148     C        0.23620    0.07760    0.89435    1.000
    C149     C        0.28850    0.14800    0.90716    1.000
    C150     C        0.33750    0.15370    0.94906    1.000
    C151     C        0.38540    0.22930    0.96490    1.000
    H75      H        0.39210    0.28210    0.94740    1.000
    C152     C        0.41950    0.21220    0.00911    1.000
    H76      H        0.45330    0.25160    0.02840    1.000
    C153     C        0.39650    0.12580    0.02193    1.000
    C154     C        0.42240    0.08570    0.06214    1.000
    C155     C        0.40590    0.99470    0.07172    1.000
    C156     C        0.43930    0.94830    0.11251    1.000
    H77      H        0.47390    0.97190    0.13820    1.000
    C157     C        0.41290    0.86510    0.10798    1.000
    H78      H        0.42670    0.81860    0.12940    1.000
    C158     C        0.35900    0.85950    0.06404    1.000
    C159     C        0.31530    0.78630    0.04897    1.000
    C160     C        0.25680    0.78430    0.01030    1.000
    C161     C        0.20510    0.71000    0.99592    1.000
    H79      H        0.20710    0.65360    0.01010    1.000
    C162     C        0.15370    0.73470    0.95900    1.000
    H80      H        0.11150    0.69880    0.94250    1.000
    C163     C        0.17220    0.82450    0.94803    1.000
    C164     C        0.13650    0.86950    0.90997    1.000
    C165     C        0.31190    0.37440    0.81697    1.000
    C166     C        0.23750    0.36150    0.84560    1.000
    H81      H        0.19090    0.40370    0.84590    1.000
    C167     C        0.23100    0.28790    0.87330    1.000
    H82      H        0.18000    0.28060    0.89330    1.000
    C168     C        0.29540    0.22510    0.87316    1.000
    C169     C        0.36610    0.23680    0.84386    1.000
    H83      H        0.41060    0.19260    0.84220    1.000
    C170     C        0.37580    0.31000    0.81645    1.000
    H84      H        0.42730    0.31640    0.79680    1.000
    C171     C        0.32470    0.45750    0.78895    1.000
    C172     C        0.57470    0.23340    0.16403    1.000
    C173     C        0.48290    0.23590    0.16471    1.000
    H85      H        0.45310    0.27130    0.18760    1.000
    C174     C        0.43350    0.18730    0.13239    1.000
    H86      H        0.36980    0.18970    0.13340    1.000
    C175     C        0.47410    0.13560    0.09893    1.000
    C176     C        0.56700    0.13170    0.10030    1.000
    H87      H        0.59680    0.09370    0.07870    1.000
    C177     C        0.61730    0.18050    0.13169    1.000
    H88      H        0.68090    0.17770    0.13110    1.000
    C178     C        0.63010    0.28840    0.19744    1.000
    C179     C        0.35580    0.55540    0.13617    1.000
    C180     C        0.42390    0.58800    0.10880    1.000
    H89      H        0.48110    0.56060    0.10920    1.000
    C181     C        0.40910    0.66300    0.07972    1.000
    H90      H        0.45690    0.68450    0.06060    1.000
    C182     C        0.32910    0.70480    0.07846    1.000
    C183     C        0.26090    0.66960    0.10610    1.000
    H91      H        0.20370    0.69690    0.10610    1.000
    C184     C        0.27460    0.59590    0.13355    1.000
    H92      H        0.22580    0.57260    0.15120    1.000
    C185     C        0.36930    0.47930    0.16825    1.000
    C186     C        0.92500    0.75340    0.82631    1.000
    C187     C        0.01410    0.73090    0.81938    1.000
    H93      H        0.02850    0.68880    0.79550    1.000
    C188     C        0.08250    0.76790    0.84613    1.000
    H94      H        0.14290    0.75120    0.84030    1.000
    C189     C        0.06440    0.82870    0.88104    1.000
    C190     C        0.97610    0.85250    0.88793    1.000
    H95      H        0.96260    0.89540    0.91150    1.000
    C191     C        0.90610    0.81540    0.86128    1.000
    H96      H        0.84590    0.83240    0.86700    1.000
    C192     C        0.85080    0.71080    0.79936    1.000
    Fe4      Fe       0.73142    0.37803    0.25524    1.000
    Mn4      Mn       0.27614    0.97811    0.98830    1.000
    N13      N        0.22660    0.00310    0.92180    1.000
    N14      N        0.34510    0.09000    0.98522    1.000
    N15      N        0.35560    0.93990    0.04241    1.000
    N16      N        0.23650    0.85480    0.98083    1.000
    O25      O        0.39950    0.46695    0.76897    1.000
    O26      O        0.25850    0.51040    0.78633    1.000
    O27      O        0.59384    0.33566    0.23004    1.000
    O28      O        0.71360    0.28760    0.19435    1.000
    O29      O        0.44750    0.45520    0.17727    1.000
    O30      O        0.29880    0.44400    0.18396    1.000
    O31      O        0.86955    0.64450    0.77235    1.000
    O32      O        0.77290    0.73810    0.80287    1.000
    Fe5      Fe       0.50000    0.55912    0.75000    1.000
    Fe6      Fe       0.50000    0.44088    0.25000    1.000
