data_functionalizedCrystal
_audit_creation_method	'EQeq! by Chris Wilmer'
_symmetry_space_group_name_H-M	'P1'
_symmetry_Int_Tables_number	1
_symmetry_cell_setting	triclinic
loop_
_symmetry_equiv_pos_as_xyz
  x,y,z
_cell_length_a	6.5228
_cell_length_b	13.8413
_cell_length_c	15.6405
_cell_angle_alpha	96.641
_cell_angle_beta	93.775
_cell_angle_gamma	94.727
loop_
_atom_site_label
_atom_site_type_symbol
_atom_site_fract_x
_atom_site_fract_y
_atom_site_fract_z
_atom_site_charge
Mof_Cu	Cu	0.69599	0.70859	0.70819	0.865
Mof_N 	N 	0.9151	0.9833	0.9823	-0.04
Mof_N 	N 	0.5264	0.5619	0.9137	-0.101
Mof_N 	N 	0.8001	0.7857	0.6163	-0.201
Mof_N 	N 	0.5766	0.638	0.8025	-0.194
Mof_N 	N 	0.5774	0.5119	0.9823	-0.04
Mof_N 	N 	0.8539	0.8079	0.8023	-0.197
Mof_N 	N 	0.5108	0.6145	0.6237	-0.191
Mof_N 	N 	0.2291	0.5463	0.5527	-0.103
Mof_N 	N 	0.9978	0.9955	0.5385	-0.042
Mof_N 	N 	0.0663	0.8121	0.8188	-0.108
Mof_N 	N 	0.9406	0.9111	0.9156	-0.103
Mof_C 	C 	0.3408	0.6316	0.5811	0.099
Mof_H 	H 	0.3029	0.6931	0.5719	0
Mof_N 	N 	0.914	0.9012	0.5462	-0.103
Mof_N 	N 	0.7704	0.7506	0.5283	-0.098
Mof_C 	C 	0.7816	0.8675	0.8604	0.104
Mof_H 	H 	0.6435	0.8786	0.8638	-0.002
Mof_N 	N 	0.5105	0.5135	0.623	-0.094
Mof_C 	C 	0.1139	0.8758	0.8867	0.1
Mof_H 	H 	0.2469	0.8942	0.9116	0.02
Mof_N 	N 	0.0343	0.543	0.5097	-0.045
Mof_N 	N 	0.368	0.6339	0.8161	-0.104
Mof_C 	C 	0.8825	0.8742	0.6246	0.102
Mof_H 	H 	0.9153	0.9136	0.6768	0.005
Mof_C 	C 	0.34	0.4741	0.5798	0.099
Mof_H 	H 	0.3002	0.4075	0.5691	0.027
Mof_C 	C 	0.6689	0.5941	0.8609	0.106
Mof_H 	H 	0.8091	0.586	0.866	-0
Mof_C 	C 	0.8393	0.8225	0.4878	0.095
Mof_H 	H 	0.8379	0.8207	0.4281	0.024
Mof_C 	C 	0.3424	0.5883	0.8833	0.102
Mof_H 	H 	0.2172	0.5757	0.9069	0.02
Mof_Cu	Cu	0.30401	0.29141	0.29181	0.864
Mof_N 	N 	0.0849	0.0167	0.0177	-0.041
Mof_N 	N 	0.4736	0.4381	0.0863	-0.102
Mof_N 	N 	0.1999	0.2143	0.3837	-0.202
Mof_N 	N 	0.4234	0.362	0.1975	-0.194
Mof_N 	N 	0.4226	0.4881	0.0177	-0.04
Mof_N 	N 	0.1461	0.1921	0.1977	-0.197
Mof_N 	N 	0.4892	0.3855	0.3763	-0.191
Mof_N 	N 	0.7709	0.4537	0.4473	-0.103
Mof_N 	N 	0.0022	0.0045	0.4615	-0.042
Mof_N 	N 	0.9337	0.1879	0.1812	-0.108
Mof_N 	N 	0.0594	0.0889	0.0844	-0.103
Mof_C 	C 	0.6592	0.3684	0.4189	0.099
Mof_H 	H 	0.6971	0.3069	0.4281	0
Mof_N 	N 	0.086	0.0988	0.4538	-0.103
Mof_N 	N 	0.2296	0.2494	0.4717	-0.098
Mof_C 	C 	0.2184	0.1325	0.1396	0.104
Mof_H 	H 	0.3565	0.1214	0.1362	-0.002
Mof_N 	N 	0.4895	0.4865	0.377	-0.094
Mof_C 	C 	0.8861	0.1242	0.1133	0.1
Mof_H 	H 	0.7531	0.1058	0.0884	0.02
Mof_N 	N 	0.9657	0.457	0.4903	-0.045
Mof_N 	N 	0.632	0.3661	0.1839	-0.104
Mof_C 	C 	0.1175	0.1258	0.3754	0.102
Mof_H 	H 	0.0847	0.0864	0.3232	0.005
Mof_C 	C 	0.66	0.5259	0.4202	0.099
Mof_H 	H 	0.6998	0.5925	0.4309	0.027
Mof_C 	C 	0.3311	0.4059	0.1391	0.106
Mof_H 	H 	0.1909	0.414	0.134	-0
Mof_C 	C 	0.1607	0.1775	0.5122	0.095
Mof_H 	H 	0.1621	0.1793	0.5719	0.024
Mof_C 	C 	0.6576	0.4117	0.1167	0.102
Mof_H 	H 	0.7828	0.4243	0.0931	0.02
_end
