# CIF file generated by openbabel 3.1.0, see https://openbabel.org
data_I
_chemical_name_common 'TADYEE_clean'
_cell_length_a 15.2246
_cell_length_b 15.2246
_cell_length_c 16.686
_cell_angle_alpha 106.342
_cell_angle_beta 106.342
_cell_angle_gamma 110.907
_space_group_name_H-M_alt 'P 1'
_space_group_name_Hall 'P 1'
loop_
    _symmetry_equiv_pos_as_xyz
    x,y,z
loop_
    _atom_site_label
    _atom_site_type_symbol
    _atom_site_fract_x
    _atom_site_fract_y
    _atom_site_fract_z
    _atom_site_occupancy
    Ni1      Ni       0.00000    0.50000    0.00000    1.000
    Ni2      Ni       0.50000    0.00000    0.50000    1.000
    Ni3      Ni       0.00000    0.00000    0.50000    1.000
    Ni4      Ni       0.00000    0.00000    0.00000    1.000
    Mo1      Mo       0.87129    0.12871    0.75000    1.000
    Mo2      Mo       0.12871    0.87129    0.25000    1.000
    H1       H        0.12830    0.42210    0.90150    1.000
    H2       H        0.23850    0.51950    0.96570    1.000
    H3       H        0.09710    0.35270    0.01800    1.000
    H4       H        0.21520    0.42720    0.08100    1.000
    H5       H        0.00610    0.39650    0.18970    1.000
    H6       H        0.96880    0.33140    0.08400    1.000
    H7       H        0.16860    0.63020    0.95570    1.000
    H8       H        0.14040    0.55460    0.85550    1.000
    H9       H        0.83840    0.02620    0.40450    1.000
    H10      H        0.79390    0.96190    0.29800    1.000
    H11      H        0.75240    0.86020    0.41110    1.000
    H12      H        0.72590    0.78510    0.31070    1.000
    H13      H        0.87810    0.74870    0.52890    1.000
    H14      H        0.85020    0.84000    0.54580    1.000
    H15      H        0.94250    0.10190    0.32780    1.000
    H16      H        0.98260    0.02120    0.33400    1.000
    H17      H        0.15260    0.54440    0.26430    1.000
    H18      H        0.21990    0.58430    0.21400    1.000
    H19      H        0.26020    0.47940    0.32310    1.000
    H20      H        0.32550    0.51330    0.26930    1.000
    H21      H        0.87250    0.66370    0.39730    1.000
    H22      H        0.89760    0.73280    0.34490    1.000
    H23      H        0.69730    0.56950    0.28040    1.000
    H24      H        0.73730    0.63030    0.22510    1.000
    H25      H        0.19040    0.56340    0.07290    1.000
    H26      H        0.97800    0.45960    0.83620    1.000
    H27      H        0.89370    0.87730    0.33280    1.000
    H28      H        0.97750    0.15270    0.48340    1.000
    H29      H        0.40860    0.65460    0.36400    1.000
    H30      H        0.85340    0.57440    0.23150    1.000
    H31      H        0.57790    0.87170    0.59850    1.000
    H32      H        0.48050    0.76150    0.53430    1.000
    H33      H        0.64730    0.90290    0.48200    1.000
    H34      H        0.57280    0.78480    0.41900    1.000
    H35      H        0.60350    0.99390    0.31030    1.000
    H36      H        0.66860    0.03120    0.41600    1.000
    H37      H        0.36980    0.83140    0.54430    1.000
    H38      H        0.44540    0.85960    0.64450    1.000
    H39      H        0.97380    0.16160    0.09550    1.000
    H40      H        0.03810    0.20610    0.20200    1.000
    H41      H        0.13980    0.24760    0.08890    1.000
    H42      H        0.21490    0.27410    0.18930    1.000
    H43      H        0.25130    0.12190    0.97110    1.000
    H44      H        0.16000    0.14980    0.95420    1.000
    H45      H        0.89810    0.05750    0.17220    1.000
    H46      H        0.97880    0.01740    0.16600    1.000
    H47      H        0.45560    0.84740    0.23570    1.000
    H48      H        0.41570    0.78010    0.28600    1.000
    H49      H        0.52060    0.73980    0.17690    1.000
    H50      H        0.48670    0.67450    0.23070    1.000
    H51      H        0.33630    0.12750    0.10270    1.000
    H52      H        0.26720    0.10240    0.15510    1.000
    H53      H        0.43050    0.30270    0.21960    1.000
    H54      H        0.36970    0.26270    0.27490    1.000
    H55      H        0.43660    0.80960    0.42710    1.000
    H56      H        0.54040    0.02200    0.66380    1.000
    H57      H        0.12270    0.10630    0.16720    1.000
    H58      H        0.84730    0.02250    0.01660    1.000
    H59      H        0.34540    0.59140    0.13600    1.000
    H60      H        0.42560    0.14660    0.26850    1.000
    H61      H        0.87170    0.57790    0.09850    1.000
    H62      H        0.76150    0.48050    0.03430    1.000
    H63      H        0.90290    0.64730    0.98200    1.000
    H64      H        0.78480    0.57280    0.91900    1.000
    H65      H        0.99390    0.60350    0.81030    1.000
    H66      H        0.03120    0.66860    0.91600    1.000
    H67      H        0.83140    0.36980    0.04430    1.000
    H68      H        0.85960    0.44540    0.14450    1.000
    H69      H        0.16160    0.97380    0.59550    1.000
    H70      H        0.20610    0.03810    0.70200    1.000
    H71      H        0.24760    0.13980    0.58890    1.000
    H72      H        0.27410    0.21490    0.68930    1.000
    H73      H        0.12190    0.25130    0.47110    1.000
    H74      H        0.14980    0.16000    0.45420    1.000
    H75      H        0.05750    0.89810    0.67220    1.000
    H76      H        0.01740    0.97880    0.66600    1.000
    H77      H        0.84740    0.45560    0.73570    1.000
    H78      H        0.78010    0.41570    0.78600    1.000
    H79      H        0.73980    0.52060    0.67690    1.000
    H80      H        0.67450    0.48670    0.73070    1.000
    H81      H        0.12750    0.33630    0.60270    1.000
    H82      H        0.10240    0.26720    0.65510    1.000
    H83      H        0.30270    0.43050    0.71960    1.000
    H84      H        0.26270    0.36970    0.77490    1.000
    H85      H        0.80960    0.43660    0.92710    1.000
    H86      H        0.02200    0.54040    0.16380    1.000
    H87      H        0.10630    0.12270    0.66720    1.000
    H88      H        0.02250    0.84730    0.51660    1.000
    H89      H        0.59140    0.34540    0.63600    1.000
    H90      H        0.14660    0.42560    0.76850    1.000
    H91      H        0.42210    0.12830    0.40150    1.000
    H92      H        0.51950    0.23850    0.46570    1.000
    H93      H        0.35270    0.09710    0.51800    1.000
    H94      H        0.42720    0.21520    0.58100    1.000
    H95      H        0.39650    0.00610    0.68970    1.000
    H96      H        0.33140    0.96880    0.58400    1.000
    H97      H        0.63020    0.16860    0.45570    1.000
    H98      H        0.55460    0.14040    0.35550    1.000
    H99      H        0.02620    0.83840    0.90450    1.000
    H100     H        0.96190    0.79390    0.79800    1.000
    H101     H        0.86020    0.75240    0.91110    1.000
    H102     H        0.78510    0.72590    0.81070    1.000
    H103     H        0.74870    0.87810    0.02890    1.000
    H104     H        0.84000    0.85020    0.04580    1.000
    H105     H        0.10190    0.94250    0.82780    1.000
    H106     H        0.02120    0.98260    0.83400    1.000
    H107     H        0.54440    0.15260    0.76430    1.000
    H108     H        0.58430    0.21990    0.71400    1.000
    H109     H        0.47940    0.26020    0.82310    1.000
    H110     H        0.51330    0.32550    0.76930    1.000
    H111     H        0.66370    0.87250    0.89730    1.000
    H112     H        0.73280    0.89760    0.84490    1.000
    H113     H        0.56950    0.69730    0.78040    1.000
    H114     H        0.63030    0.73730    0.72510    1.000
    H115     H        0.56340    0.19040    0.57290    1.000
    H116     H        0.45960    0.97800    0.33620    1.000
    H117     H        0.87730    0.89370    0.83280    1.000
    H118     H        0.15270    0.97750    0.98340    1.000
    H119     H        0.65460    0.40860    0.86400    1.000
    H120     H        0.57440    0.85340    0.73150    1.000
    C1       C        0.90235    0.26625    0.85590    1.000
    C2       C        0.92116    0.25544    0.71380    1.000
    C3       C        0.89417    0.07003    0.62940    1.000
    C4       C        0.81472    0.96388    0.70180    1.000
    C5       C        0.16453    0.49347    0.94760    1.000
    C6       C        0.14664    0.42176    0.06630    1.000
    C7       C        0.01422    0.39978    0.13480    1.000
    C8       C        0.12876    0.55824    0.91030    1.000
    C9       C        0.85164    0.98936    0.35630    1.000
    C10      C        0.77968    0.82712    0.37340    1.000
    C11      C        0.87965    0.80515    0.51220    1.000
    C12      C        0.95185    0.06015    0.35970    1.000
    C13      C        0.19390    0.52930    0.23290    1.000
    C14      C        0.28549    0.53131    0.30080    1.000
    C15      C        0.84334    0.69246    0.35870    1.000
    C16      C        0.75740    0.60440    0.27030    1.000
    C17      C        0.73375    0.09765    0.64410    1.000
    C18      C        0.74456    0.07884    0.78620    1.000
    C19      C        0.92997    0.10583    0.87060    1.000
    C20      C        0.03612    0.18528    0.79820    1.000
    C21      C        0.50653    0.83547    0.55240    1.000
    C22      C        0.57824    0.85336    0.43370    1.000
    C23      C        0.60022    0.98578    0.36520    1.000
    C24      C        0.44176    0.87124    0.58970    1.000
    C25      C        0.01064    0.14836    0.14370    1.000
    C26      C        0.17288    0.22032    0.12660    1.000
    C27      C        0.19485    0.12035    0.98780    1.000
    C28      C        0.93985    0.04815    0.14030    1.000
    C29      C        0.47070    0.80610    0.26710    1.000
    C30      C        0.46869    0.71451    0.19920    1.000
    C31      C        0.30754    0.15666    0.14130    1.000
    C32      C        0.39560    0.24260    0.22970    1.000
    C33      C        0.09765    0.73375    0.14410    1.000
    C34      C        0.07884    0.74456    0.28620    1.000
    C35      C        0.10583    0.92997    0.37060    1.000
    C36      C        0.18528    0.03612    0.29820    1.000
    C37      C        0.83547    0.50653    0.05240    1.000
    C38      C        0.85336    0.57824    0.93370    1.000
    C39      C        0.98578    0.60022    0.86520    1.000
    C40      C        0.87124    0.44176    0.08970    1.000
    C41      C        0.14836    0.01064    0.64370    1.000
    C42      C        0.22032    0.17288    0.62660    1.000
    C43      C        0.12035    0.19485    0.48780    1.000
    C44      C        0.04815    0.93985    0.64030    1.000
    C45      C        0.80610    0.47070    0.76710    1.000
    C46      C        0.71451    0.46869    0.69920    1.000
    C47      C        0.15666    0.30754    0.64130    1.000
    C48      C        0.24260    0.39560    0.72970    1.000
    C49      C        0.26625    0.90235    0.35590    1.000
    C50      C        0.25544    0.92116    0.21380    1.000
    C51      C        0.07003    0.89417    0.12940    1.000
    C52      C        0.96388    0.81472    0.20180    1.000
    C53      C        0.49347    0.16453    0.44760    1.000
    C54      C        0.42176    0.14664    0.56630    1.000
    C55      C        0.39978    0.01422    0.63480    1.000
    C56      C        0.55824    0.12876    0.41030    1.000
    C57      C        0.98936    0.85164    0.85630    1.000
    C58      C        0.82712    0.77968    0.87340    1.000
    C59      C        0.80515    0.87965    0.01220    1.000
    C60      C        0.06015    0.95185    0.85970    1.000
    C61      C        0.52930    0.19390    0.73290    1.000
    C62      C        0.53131    0.28549    0.80080    1.000
    C63      C        0.69246    0.84334    0.85870    1.000
    C64      C        0.60440    0.75740    0.77030    1.000
    N1       N        0.92106    0.34168    0.91640    1.000
    N2       N        0.94478    0.32402    0.69770    1.000
    N3       N        0.90978    0.03676    0.56660    1.000
    N4       N        0.78930    0.87930    0.68060    1.000
    N5       N        0.14158    0.49962    0.02690    1.000
    N6       N        0.12613    0.43087    0.15020    1.000
    N7       N        0.01586    0.52174    0.88670    1.000
    N8       N        0.87468    0.90764    0.37540    1.000
    N9       N        0.81522    0.76178    0.41120    1.000
    N10      N        0.00982    0.11938    0.46000    1.000
    N11      N        0.65832    0.07894    0.58360    1.000
    N12      N        0.67598    0.05522    0.80230    1.000
    N13      N        0.96324    0.09022    0.93340    1.000
    N14      N        0.12070    0.21070    0.81940    1.000
    N15      N        0.50038    0.85842    0.47310    1.000
    N16      N        0.56913    0.87387    0.34980    1.000
    N17      N        0.47826    0.98414    0.61330    1.000
    N18      N        0.09236    0.12532    0.12460    1.000
    N19      N        0.23822    0.18478    0.08880    1.000
    N20      N        0.88062    0.99018    0.04000    1.000
    N21      N        0.07894    0.65832    0.08360    1.000
    N22      N        0.05522    0.67598    0.30230    1.000
    N23      N        0.09022    0.96324    0.43340    1.000
    N24      N        0.21070    0.12070    0.31940    1.000
    N25      N        0.85842    0.50038    0.97310    1.000
    N26      N        0.87387    0.56913    0.84980    1.000
    N27      N        0.98414    0.47826    0.11330    1.000
    N28      N        0.12532    0.09236    0.62460    1.000
    N29      N        0.18478    0.23822    0.58880    1.000
    N30      N        0.99018    0.88062    0.54000    1.000
    N31      N        0.34168    0.92106    0.41640    1.000
    N32      N        0.32402    0.94478    0.19770    1.000
    N33      N        0.03676    0.90978    0.06660    1.000
    N34      N        0.87930    0.78930    0.18060    1.000
    N35      N        0.49962    0.14158    0.52690    1.000
    N36      N        0.43087    0.12613    0.65020    1.000
    N37      N        0.52174    0.01586    0.38670    1.000
    N38      N        0.90764    0.87468    0.87540    1.000
    N39      N        0.76178    0.81522    0.91120    1.000
    N40      N        0.11938    0.00982    0.96000    1.000
    O1       O        0.34642    0.62274    0.37160    1.000
    O2       O        0.79281    0.53645    0.23870    1.000
    O3       O        0.37726    0.65358    0.12840    1.000
    O4       O        0.46355    0.20719    0.26130    1.000
    O5       O        0.65358    0.37726    0.62840    1.000
    O6       O        0.20719    0.46355    0.76130    1.000
    O7       O        0.62274    0.34642    0.87160    1.000
    O8       O        0.53645    0.79281    0.73870    1.000
