# CIF file generated by openbabel 3.1.0, see https://openbabel.org
data_I
_chemical_name_common 'image0'
_cell_length_a 7.235
_cell_length_b 23.711
_cell_length_c 30.53
_cell_angle_alpha 90
_cell_angle_beta 90
_cell_angle_gamma 90
_space_group_name_H-M_alt 'P 1'
_space_group_name_Hall 'P 1'
loop_
    _symmetry_equiv_pos_as_xyz
    x,y,z
loop_
    _atom_site_label
    _atom_site_type_symbol
    _atom_site_fract_x
    _atom_site_fract_y
    _atom_site_fract_z
    _atom_site_occupancy
    Ag1      Ag       0.19517    0.77006    0.29060    1.000
    Ag2      Ag       0.52360    0.44216    0.48393    1.000
    O1       O        0.34090    0.69581    0.31393    1.000
    O2       O        0.45080    0.66791    0.24989    1.000
    O3       O        0.47460    0.58778    0.44631    1.000
    O4       O        0.65170    0.51231    0.44193    1.000
    N1       N        0.11000    0.81285    0.35761    1.000
    N2       N        0.02270    0.87410    0.43130    1.000
    C1       C        0.00330    0.85824    0.35575    1.000
    H1       H        0.95620    0.87000    0.32860    1.000
    C2       C        0.96070    0.88820    0.39250    1.000
    H2       H        0.88400    0.92000    0.38990    1.000
    C3       C        0.12810    0.82840    0.43294    1.000
    H3       H        0.17440    0.81660    0.46020    1.000
    C4       C        0.17140    0.79810    0.39676    1.000
    H4       H        0.24640    0.76590    0.39950    1.000
    C5       C        0.43120    0.66370    0.29035    1.000
    C6       C        0.52450    0.61473    0.31207    1.000
    C7       C        0.63170    0.57780    0.28845    1.000
    H5       H        0.64310    0.58220    0.25800    1.000
    C8       C        0.72270    0.53420    0.30917    1.000
    H6       H        0.79640    0.50920    0.29290    1.000
    C9       C        0.70570    0.52750    0.35312    1.000
    H7       H        0.76910    0.49790    0.36710    1.000
    C10      C        0.59670    0.56331    0.37764    1.000
    C11      C        0.50710    0.60719    0.35659    1.000
    H8       H        0.43350    0.63220    0.37290    1.000
    C12      C        0.57290    0.55400    0.42550    1.000
    Ag3      Ag       0.69517    0.27006    0.79060    1.000
    Ag4      Ag       0.02360    0.94216    0.98393    1.000
    O5       O        0.84090    0.19581    0.81393    1.000
    O6       O        0.95080    0.16791    0.74989    1.000
    O7       O        0.97460    0.08778    0.94631    1.000
    O8       O        0.15170    0.01231    0.94193    1.000
    N3       N        0.61000    0.31285    0.85761    1.000
    N4       N        0.52270    0.37410    0.93130    1.000
    C13      C        0.50330    0.35824    0.85575    1.000
    H9       H        0.45620    0.37000    0.82860    1.000
    C14      C        0.46070    0.38820    0.89250    1.000
    H10      H        0.38400    0.42000    0.88990    1.000
    C15      C        0.62810    0.32840    0.93294    1.000
    H11      H        0.67440    0.31660    0.96020    1.000
    C16      C        0.67140    0.29810    0.89676    1.000
    H12      H        0.74640    0.26590    0.89950    1.000
    C17      C        0.93120    0.16370    0.79035    1.000
    C18      C        0.02450    0.11473    0.81207    1.000
    C19      C        0.13170    0.07780    0.78845    1.000
    H13      H        0.14310    0.08220    0.75800    1.000
    C20      C        0.22270    0.03420    0.80917    1.000
    H14      H        0.29640    0.00920    0.79290    1.000
    C21      C        0.20570    0.02750    0.85312    1.000
    H15      H        0.26910    0.99790    0.86710    1.000
    C22      C        0.09670    0.06331    0.87764    1.000
    C23      C        0.00710    0.10719    0.85659    1.000
    H16      H        0.93350    0.13220    0.87290    1.000
    C24      C        0.07290    0.05400    0.92550    1.000
    Ag5      Ag       0.30483    0.22994    0.79060    1.000
    Ag6      Ag       0.97640    0.55784    0.98393    1.000
    O9       O        0.15910    0.30419    0.81393    1.000
    O10      O        0.04920    0.33209    0.74989    1.000
    O11      O        0.02540    0.41222    0.94631    1.000
    O12      O        0.84830    0.48769    0.94193    1.000
    N5       N        0.39000    0.18715    0.85761    1.000
    N6       N        0.47730    0.12590    0.93130    1.000
    C25      C        0.49670    0.14176    0.85575    1.000
    H17      H        0.54380    0.13000    0.82860    1.000
    C26      C        0.53930    0.11180    0.89250    1.000
    H18      H        0.61600    0.08000    0.88990    1.000
    C27      C        0.37190    0.17160    0.93294    1.000
    H19      H        0.32560    0.18340    0.96020    1.000
    C28      C        0.32860    0.20190    0.89676    1.000
    H20      H        0.25360    0.23410    0.89950    1.000
    C29      C        0.06880    0.33630    0.79035    1.000
    C30      C        0.97550    0.38527    0.81207    1.000
    C31      C        0.86830    0.42220    0.78845    1.000
    H21      H        0.85690    0.41780    0.75800    1.000
    C32      C        0.77730    0.46580    0.80917    1.000
    H22      H        0.70360    0.49080    0.79290    1.000
    C33      C        0.79430    0.47250    0.85312    1.000
    H23      H        0.73090    0.50210    0.86710    1.000
    C34      C        0.90330    0.43669    0.87764    1.000
    C35      C        0.99290    0.39281    0.85659    1.000
    H24      H        0.06650    0.36780    0.87290    1.000
    C36      C        0.92710    0.44600    0.92550    1.000
    Ag7      Ag       0.80483    0.72994    0.29060    1.000
    Ag8      Ag       0.47640    0.05784    0.48393    1.000
    O13      O        0.65910    0.80419    0.31393    1.000
    O14      O        0.54920    0.83209    0.24989    1.000
    O15      O        0.52540    0.91222    0.44631    1.000
    O16      O        0.34830    0.98769    0.44193    1.000
    N7       N        0.89000    0.68715    0.35761    1.000
    N8       N        0.97730    0.62590    0.43130    1.000
    C37      C        0.99670    0.64176    0.35575    1.000
    H25      H        0.04380    0.63000    0.32860    1.000
    C38      C        0.03930    0.61180    0.39250    1.000
    H26      H        0.11600    0.58000    0.38990    1.000
    C39      C        0.87190    0.67160    0.43294    1.000
    H27      H        0.82560    0.68340    0.46020    1.000
    C40      C        0.82860    0.70190    0.39676    1.000
    H28      H        0.75360    0.73410    0.39950    1.000
    C41      C        0.56880    0.83630    0.29035    1.000
    C42      C        0.47550    0.88527    0.31207    1.000
    C43      C        0.36830    0.92220    0.28845    1.000
    H29      H        0.35690    0.91780    0.25800    1.000
    C44      C        0.27730    0.96580    0.30917    1.000
    H30      H        0.20360    0.99080    0.29290    1.000
    C45      C        0.29430    0.97250    0.35312    1.000
    H31      H        0.23090    0.00210    0.36710    1.000
    C46      C        0.40330    0.93669    0.37764    1.000
    C47      C        0.49290    0.89281    0.35659    1.000
    H32      H        0.56650    0.86780    0.37290    1.000
    C48      C        0.42710    0.94600    0.42550    1.000
    Ag9      Ag       0.80483    0.27006    0.20940    1.000
    Ag10     Ag       0.47640    0.94216    0.01607    1.000
    O17      O        0.65910    0.19581    0.18607    1.000
    O18      O        0.54920    0.16791    0.25011    1.000
    O19      O        0.52540    0.08778    0.05369    1.000
    O20      O        0.34830    0.01231    0.05807    1.000
    N9       N        0.89000    0.31285    0.14239    1.000
    N10      N        0.97730    0.37410    0.06870    1.000
    C49      C        0.99670    0.35824    0.14425    1.000
    H33      H        0.04380    0.37000    0.17140    1.000
    C50      C        0.03930    0.38820    0.10750    1.000
    H34      H        0.11600    0.42000    0.11010    1.000
    C51      C        0.87190    0.32840    0.06706    1.000
    H35      H        0.82560    0.31660    0.03980    1.000
    C52      C        0.82860    0.29810    0.10324    1.000
    H36      H        0.75360    0.26590    0.10050    1.000
    C53      C        0.56880    0.16370    0.20965    1.000
    C54      C        0.47550    0.11473    0.18793    1.000
    C55      C        0.36830    0.07780    0.21155    1.000
    H37      H        0.35690    0.08220    0.24200    1.000
    C56      C        0.27730    0.03420    0.19083    1.000
    H38      H        0.20360    0.00920    0.20710    1.000
    C57      C        0.29430    0.02750    0.14688    1.000
    H39      H        0.23090    0.99790    0.13290    1.000
    C58      C        0.40330    0.06331    0.12236    1.000
    C59      C        0.49290    0.10719    0.14341    1.000
    H40      H        0.56650    0.13220    0.12710    1.000
    C60      C        0.42710    0.05400    0.07450    1.000
    Ag11     Ag       0.30483    0.77006    0.70940    1.000
    Ag12     Ag       0.97640    0.44216    0.51607    1.000
    O21      O        0.15910    0.69581    0.68607    1.000
    O22      O        0.04920    0.66791    0.75011    1.000
    O23      O        0.02540    0.58778    0.55369    1.000
    O24      O        0.84830    0.51231    0.55807    1.000
    N11      N        0.39000    0.81285    0.64239    1.000
    N12      N        0.47730    0.87410    0.56870    1.000
    C61      C        0.49670    0.85824    0.64425    1.000
    H41      H        0.54380    0.87000    0.67140    1.000
    C62      C        0.53930    0.88820    0.60750    1.000
    H42      H        0.61600    0.92000    0.61010    1.000
    C63      C        0.37190    0.82840    0.56706    1.000
    H43      H        0.32560    0.81660    0.53980    1.000
    C64      C        0.32860    0.79810    0.60324    1.000
    H44      H        0.25360    0.76590    0.60050    1.000
    C65      C        0.06880    0.66370    0.70965    1.000
    C66      C        0.97550    0.61473    0.68793    1.000
    C67      C        0.86830    0.57780    0.71155    1.000
    H45      H        0.85690    0.58220    0.74200    1.000
    C68      C        0.77730    0.53420    0.69083    1.000
    H46      H        0.70360    0.50920    0.70710    1.000
    C69      C        0.79430    0.52750    0.64688    1.000
    H47      H        0.73090    0.49790    0.63290    1.000
    C70      C        0.90330    0.56331    0.62236    1.000
    C71      C        0.99290    0.60719    0.64341    1.000
    H48      H        0.06650    0.63220    0.62710    1.000
    C72      C        0.92710    0.55400    0.57450    1.000
    Ag13     Ag       0.69517    0.72994    0.70940    1.000
    Ag14     Ag       0.02360    0.05784    0.51607    1.000
    O25      O        0.84090    0.80419    0.68607    1.000
    O26      O        0.95080    0.83209    0.75011    1.000
    O27      O        0.97460    0.91222    0.55369    1.000
    O28      O        0.15170    0.98769    0.55807    1.000
    N13      N        0.61000    0.68715    0.64239    1.000
    N14      N        0.52270    0.62590    0.56870    1.000
    C73      C        0.50330    0.64176    0.64425    1.000
    H49      H        0.45620    0.63000    0.67140    1.000
    C74      C        0.46070    0.61180    0.60750    1.000
    H50      H        0.38400    0.58000    0.61010    1.000
    C75      C        0.62810    0.67160    0.56706    1.000
    H51      H        0.67440    0.68340    0.53980    1.000
    C76      C        0.67140    0.70190    0.60324    1.000
    H52      H        0.74640    0.73410    0.60050    1.000
    C77      C        0.93120    0.83630    0.70965    1.000
    C78      C        0.02450    0.88527    0.68793    1.000
    C79      C        0.13170    0.92220    0.71155    1.000
    H53      H        0.14310    0.91780    0.74200    1.000
    C80      C        0.22270    0.96580    0.69083    1.000
    H54      H        0.29640    0.99080    0.70710    1.000
    C81      C        0.20570    0.97250    0.64688    1.000
    H55      H        0.26910    0.00210    0.63290    1.000
    C82      C        0.09670    0.93669    0.62236    1.000
    C83      C        0.00710    0.89281    0.64341    1.000
    H56      H        0.93350    0.86780    0.62710    1.000
    C84      C        0.07290    0.94600    0.57450    1.000
    Ag15     Ag       0.19517    0.22994    0.20940    1.000
    Ag16     Ag       0.52360    0.55784    0.01607    1.000
    O29      O        0.34090    0.30419    0.18607    1.000
    O30      O        0.45080    0.33209    0.25011    1.000
    O31      O        0.47460    0.41222    0.05369    1.000
    O32      O        0.65170    0.48769    0.05807    1.000
    N15      N        0.11000    0.18715    0.14239    1.000
    N16      N        0.02270    0.12590    0.06870    1.000
    C85      C        0.00330    0.14176    0.14425    1.000
    H57      H        0.95620    0.13000    0.17140    1.000
    C86      C        0.96070    0.11180    0.10750    1.000
    H58      H        0.88400    0.08000    0.11010    1.000
    C87      C        0.12810    0.17160    0.06706    1.000
    H59      H        0.17440    0.18340    0.03980    1.000
    C88      C        0.17140    0.20190    0.10324    1.000
    H60      H        0.24640    0.23410    0.10050    1.000
    C89      C        0.43120    0.33630    0.20965    1.000
    C90      C        0.52450    0.38527    0.18793    1.000
    C91      C        0.63170    0.42220    0.21155    1.000
    H61      H        0.64310    0.41780    0.24200    1.000
    C92      C        0.72270    0.46580    0.19083    1.000
    H62      H        0.79640    0.49080    0.20710    1.000
    C93      C        0.70570    0.47250    0.14688    1.000
    H63      H        0.76910    0.50210    0.13290    1.000
    C94      C        0.59670    0.43669    0.12236    1.000
    C95      C        0.50710    0.39281    0.14341    1.000
    H64      H        0.43350    0.36780    0.12710    1.000
    C96      C        0.57290    0.44600    0.07450    1.000
    Ag17     Ag       0.80483    0.22994    0.70940    1.000
    Ag18     Ag       0.47640    0.55784    0.51607    1.000
    O33      O        0.65910    0.30419    0.68607    1.000
    O34      O        0.54920    0.33209    0.75011    1.000
    O35      O        0.52540    0.41222    0.55369    1.000
    O36      O        0.34830    0.48769    0.55807    1.000
    N17      N        0.89000    0.18715    0.64239    1.000
    N18      N        0.97730    0.12590    0.56870    1.000
    C97      C        0.99670    0.14176    0.64425    1.000
    H65      H        0.04380    0.13000    0.67140    1.000
    C98      C        0.03930    0.11180    0.60750    1.000
    H66      H        0.11600    0.08000    0.61010    1.000
    C99      C        0.87190    0.17160    0.56706    1.000
    H67      H        0.82560    0.18340    0.53980    1.000
    C100     C        0.82860    0.20190    0.60324    1.000
    H68      H        0.75360    0.23410    0.60050    1.000
    C101     C        0.56880    0.33630    0.70965    1.000
    C102     C        0.47550    0.38527    0.68793    1.000
    C103     C        0.36830    0.42220    0.71155    1.000
    H69      H        0.35690    0.41780    0.74200    1.000
    C104     C        0.27730    0.46580    0.69083    1.000
    H70      H        0.20360    0.49080    0.70710    1.000
    C105     C        0.29430    0.47250    0.64688    1.000
    H71      H        0.23090    0.50210    0.63290    1.000
    C106     C        0.40330    0.43669    0.62236    1.000
    C107     C        0.49290    0.39281    0.64341    1.000
    H72      H        0.56650    0.36780    0.62710    1.000
    C108     C        0.42710    0.44600    0.57450    1.000
    Ag19     Ag       0.30483    0.72994    0.20940    1.000
    Ag20     Ag       0.97640    0.05784    0.01607    1.000
    O37      O        0.15910    0.80419    0.18607    1.000
    O38      O        0.04920    0.83209    0.25011    1.000
    O39      O        0.02540    0.91222    0.05369    1.000
    O40      O        0.84830    0.98769    0.05807    1.000
    N19      N        0.39000    0.68715    0.14239    1.000
    N20      N        0.47730    0.62590    0.06870    1.000
    C109     C        0.49670    0.64176    0.14425    1.000
    H73      H        0.54380    0.63000    0.17140    1.000
    C110     C        0.53930    0.61180    0.10750    1.000
    H74      H        0.61600    0.58000    0.11010    1.000
    C111     C        0.37190    0.67160    0.06706    1.000
    H75      H        0.32560    0.68340    0.03980    1.000
    C112     C        0.32860    0.70190    0.10324    1.000
    H76      H        0.25360    0.73410    0.10050    1.000
    C113     C        0.06880    0.83630    0.20965    1.000
    C114     C        0.97550    0.88527    0.18793    1.000
    C115     C        0.86830    0.92220    0.21155    1.000
    H77      H        0.85690    0.91780    0.24200    1.000
    C116     C        0.77730    0.96580    0.19083    1.000
    H78      H        0.70360    0.99080    0.20710    1.000
    C117     C        0.79430    0.97250    0.14688    1.000
    H79      H        0.73090    0.00210    0.13290    1.000
    C118     C        0.90330    0.93669    0.12236    1.000
    C119     C        0.99290    0.89281    0.14341    1.000
    H80      H        0.06650    0.86780    0.12710    1.000
    C120     C        0.92710    0.94600    0.07450    1.000
    Ag21     Ag       0.69517    0.77006    0.20940    1.000
    Ag22     Ag       0.02360    0.44216    0.01607    1.000
    O41      O        0.84090    0.69581    0.18607    1.000
    O42      O        0.95080    0.66791    0.25011    1.000
    O43      O        0.97460    0.58778    0.05369    1.000
    O44      O        0.15170    0.51231    0.05807    1.000
    N21      N        0.61000    0.81285    0.14239    1.000
    N22      N        0.52270    0.87410    0.06870    1.000
    C121     C        0.50330    0.85824    0.14425    1.000
    H81      H        0.45620    0.87000    0.17140    1.000
    C122     C        0.46070    0.88820    0.10750    1.000
    H82      H        0.38400    0.92000    0.11010    1.000
    C123     C        0.62810    0.82840    0.06706    1.000
    H83      H        0.67440    0.81660    0.03980    1.000
    C124     C        0.67140    0.79810    0.10324    1.000
    H84      H        0.74640    0.76590    0.10050    1.000
    C125     C        0.93120    0.66370    0.20965    1.000
    C126     C        0.02450    0.61473    0.18793    1.000
    C127     C        0.13170    0.57780    0.21155    1.000
    H85      H        0.14310    0.58220    0.24200    1.000
    C128     C        0.22270    0.53420    0.19083    1.000
    H86      H        0.29640    0.50920    0.20710    1.000
    C129     C        0.20570    0.52750    0.14688    1.000
    H87      H        0.26910    0.49790    0.13290    1.000
    C130     C        0.09670    0.56331    0.12236    1.000
    C131     C        0.00710    0.60719    0.14341    1.000
    H88      H        0.93350    0.63220    0.12710    1.000
    C132     C        0.07290    0.55400    0.07450    1.000
    Ag23     Ag       0.19517    0.27006    0.70940    1.000
    Ag24     Ag       0.52360    0.94216    0.51607    1.000
    O45      O        0.34090    0.19581    0.68607    1.000
    O46      O        0.45080    0.16791    0.75011    1.000
    O47      O        0.47460    0.08778    0.55369    1.000
    O48      O        0.65170    0.01231    0.55807    1.000
    N23      N        0.11000    0.31285    0.64239    1.000
    N24      N        0.02270    0.37410    0.56870    1.000
    C133     C        0.00330    0.35824    0.64425    1.000
    H89      H        0.95620    0.37000    0.67140    1.000
    C134     C        0.96070    0.38820    0.60750    1.000
    H90      H        0.88400    0.42000    0.61010    1.000
    C135     C        0.12810    0.32840    0.56706    1.000
    H91      H        0.17440    0.31660    0.53980    1.000
    C136     C        0.17140    0.29810    0.60324    1.000
    H92      H        0.24640    0.26590    0.60050    1.000
    C137     C        0.43120    0.16370    0.70965    1.000
    C138     C        0.52450    0.11473    0.68793    1.000
    C139     C        0.63170    0.07780    0.71155    1.000
    H93      H        0.64310    0.08220    0.74200    1.000
    C140     C        0.72270    0.03420    0.69083    1.000
    H94      H        0.79640    0.00920    0.70710    1.000
    C141     C        0.70570    0.02750    0.64688    1.000
    H95      H        0.76910    0.99790    0.63290    1.000
    C142     C        0.59670    0.06331    0.62236    1.000
    C143     C        0.50710    0.10719    0.64341    1.000
    H96      H        0.43350    0.13220    0.62710    1.000
    C144     C        0.57290    0.05400    0.57450    1.000
    Ag25     Ag       0.19517    0.72994    0.79060    1.000
    Ag26     Ag       0.52360    0.05784    0.98393    1.000
    O49      O        0.34090    0.80419    0.81393    1.000
    O50      O        0.45080    0.83209    0.74989    1.000
    O51      O        0.47460    0.91222    0.94631    1.000
    O52      O        0.65170    0.98769    0.94193    1.000
    N25      N        0.11000    0.68715    0.85761    1.000
    N26      N        0.02270    0.62590    0.93130    1.000
    C145     C        0.00330    0.64176    0.85575    1.000
    H97      H        0.95620    0.63000    0.82860    1.000
    C146     C        0.96070    0.61180    0.89250    1.000
    H98      H        0.88400    0.58000    0.88990    1.000
    C147     C        0.12810    0.67160    0.93294    1.000
    H99      H        0.17440    0.68340    0.96020    1.000
    C148     C        0.17140    0.70190    0.89676    1.000
    H100     H        0.24640    0.73410    0.89950    1.000
    C149     C        0.43120    0.83630    0.79035    1.000
    C150     C        0.52450    0.88527    0.81207    1.000
    C151     C        0.63170    0.92220    0.78845    1.000
    H101     H        0.64310    0.91780    0.75800    1.000
    C152     C        0.72270    0.96580    0.80917    1.000
    H102     H        0.79640    0.99080    0.79290    1.000
    C153     C        0.70570    0.97250    0.85312    1.000
    H103     H        0.76910    0.00210    0.86710    1.000
    C154     C        0.59670    0.93669    0.87764    1.000
    C155     C        0.50710    0.89281    0.85659    1.000
    H104     H        0.43350    0.86780    0.87290    1.000
    C156     C        0.57290    0.94600    0.92550    1.000
    Ag27     Ag       0.69517    0.22994    0.29060    1.000
    Ag28     Ag       0.02360    0.55784    0.48393    1.000
    O53      O        0.84090    0.30419    0.31393    1.000
    O54      O        0.95080    0.33209    0.24989    1.000
    O55      O        0.97460    0.41222    0.44631    1.000
    O56      O        0.15170    0.48769    0.44193    1.000
    N27      N        0.61000    0.18715    0.35761    1.000
    N28      N        0.52270    0.12590    0.43130    1.000
    C157     C        0.50330    0.14176    0.35575    1.000
    H105     H        0.45620    0.13000    0.32860    1.000
    C158     C        0.46070    0.11180    0.39250    1.000
    H106     H        0.38400    0.08000    0.38990    1.000
    C159     C        0.62810    0.17160    0.43294    1.000
    H107     H        0.67440    0.18340    0.46020    1.000
    C160     C        0.67140    0.20190    0.39676    1.000
    H108     H        0.74640    0.23410    0.39950    1.000
    C161     C        0.93120    0.33630    0.29035    1.000
    C162     C        0.02450    0.38527    0.31207    1.000
    C163     C        0.13170    0.42220    0.28845    1.000
    H109     H        0.14310    0.41780    0.25800    1.000
    C164     C        0.22270    0.46580    0.30917    1.000
    H110     H        0.29640    0.49080    0.29290    1.000
    C165     C        0.20570    0.47250    0.35312    1.000
    H111     H        0.26910    0.50210    0.36710    1.000
    C166     C        0.09670    0.43669    0.37764    1.000
    C167     C        0.00710    0.39281    0.35659    1.000
    H112     H        0.93350    0.36780    0.37290    1.000
    C168     C        0.07290    0.44600    0.42550    1.000
    Ag29     Ag       0.30483    0.27006    0.29060    1.000
    Ag30     Ag       0.97640    0.94216    0.48393    1.000
    O57      O        0.15910    0.19581    0.31393    1.000
    O58      O        0.04920    0.16791    0.24989    1.000
    O59      O        0.02540    0.08778    0.44631    1.000
    O60      O        0.84830    0.01231    0.44193    1.000
    N29      N        0.39000    0.31285    0.35761    1.000
    N30      N        0.47730    0.37410    0.43130    1.000
    C169     C        0.49670    0.35824    0.35575    1.000
    H113     H        0.54380    0.37000    0.32860    1.000
    C170     C        0.53930    0.38820    0.39250    1.000
    H114     H        0.61600    0.42000    0.38990    1.000
    C171     C        0.37190    0.32840    0.43294    1.000
    H115     H        0.32560    0.31660    0.46020    1.000
    C172     C        0.32860    0.29810    0.39676    1.000
    H116     H        0.25360    0.26590    0.39950    1.000
    C173     C        0.06880    0.16370    0.29035    1.000
    C174     C        0.97550    0.11473    0.31207    1.000
    C175     C        0.86830    0.07780    0.28845    1.000
    H117     H        0.85690    0.08220    0.25800    1.000
    C176     C        0.77730    0.03420    0.30917    1.000
    H118     H        0.70360    0.00920    0.29290    1.000
    C177     C        0.79430    0.02750    0.35312    1.000
    H119     H        0.73090    0.99790    0.36710    1.000
    C178     C        0.90330    0.06331    0.37764    1.000
    C179     C        0.99290    0.10719    0.35659    1.000
    H120     H        0.06650    0.13220    0.37290    1.000
    C180     C        0.92710    0.05400    0.42550    1.000
    Ag31     Ag       0.80483    0.77006    0.79060    1.000
    Ag32     Ag       0.47640    0.44216    0.98393    1.000
    O61      O        0.65910    0.69581    0.81393    1.000
    O62      O        0.54920    0.66791    0.74989    1.000
    O63      O        0.52540    0.58778    0.94631    1.000
    O64      O        0.34830    0.51231    0.94193    1.000
    N31      N        0.89000    0.81285    0.85761    1.000
    N32      N        0.97730    0.87410    0.93130    1.000
    C181     C        0.99670    0.85824    0.85575    1.000
    H121     H        0.04380    0.87000    0.82860    1.000
    C182     C        0.03930    0.88820    0.89250    1.000
    H122     H        0.11600    0.92000    0.88990    1.000
    C183     C        0.87190    0.82840    0.93294    1.000
    H123     H        0.82560    0.81660    0.96020    1.000
    C184     C        0.82860    0.79810    0.89676    1.000
    H124     H        0.75360    0.76590    0.89950    1.000
    C185     C        0.56880    0.66370    0.79035    1.000
    C186     C        0.47550    0.61473    0.81207    1.000
    C187     C        0.36830    0.57780    0.78845    1.000
    H125     H        0.35690    0.58220    0.75800    1.000
    C188     C        0.27730    0.53420    0.80917    1.000
    H126     H        0.20360    0.50920    0.79290    1.000
    C189     C        0.29430    0.52750    0.85312    1.000
    H127     H        0.23090    0.49790    0.86710    1.000
    C190     C        0.40330    0.56331    0.87764    1.000
    C191     C        0.49290    0.60719    0.85659    1.000
    H128     H        0.56650    0.63220    0.87290    1.000
    C192     C        0.42710    0.55400    0.92550    1.000
