data_functionalizedCrystal
_audit_creation_method	'EQeq! by Chris Wilmer'
_symmetry_space_group_name_H-M	'P1'
_symmetry_Int_Tables_number	1
_symmetry_cell_setting	triclinic
loop_
_symmetry_equiv_pos_as_xyz
  x,y,z
_cell_length_a	8.9322
_cell_length_b	12.1598
_cell_length_c	16.8436
_cell_angle_alpha	90
_cell_angle_beta	90
_cell_angle_gamma	109.04
loop_
_atom_site_label
_atom_site_type_symbol
_atom_site_fract_x
_atom_site_fract_y
_atom_site_fract_z
_atom_site_charge
Mof_Ce	Ce	0.56909	0.04839	0.88353	2.698
Mof_Ce	Ce	0.43091	0.95161	0.11647	2.698
Mof_Ce	Ce	0.06909	0.04839	0.61647	2.679
Mof_Ce	Ce	0.93091	0.95161	0.38353	2.679
Mof_H 	H 	0.326	0.8148	0.3338	0.103
Mof_H 	H 	0.0872	0.2777	0.8216	0.114
Mof_H 	H 	0.093	0.5261	0.7242	0.058
Mof_H 	H 	0.2968	0.4969	0.9149	0.077
Mof_H 	H 	0.4703	0.2831	0.4302	0.127
Mof_H 	H 	0.5872	0.2777	0.6784	0.112
Mof_H 	H 	0.0995	0.6485	0.3083	0.099
Mof_H 	H 	0.88	0.3641	0.0364	0.131
Mof_H 	H 	0.9896	0.3368	0.427	0.043
Mof_H 	H 	0.174	0.1852	0.8338	0.104
Mof_H 	H 	0.7968	0.4969	0.5851	0.077
Mof_H 	H 	0.2032	0.5031	0.4149	0.077
Mof_H 	H 	0.12	0.6359	0.9636	0.131
Mof_H 	H 	0.5297	0.7169	0.5698	0.127
Mof_H 	H 	0.9128	0.7223	0.1784	0.114
Mof_H 	H 	0.7561	0.2063	0.4298	0.066
Mof_H 	H 	0.1255	0.4691	0.0686	0.052
Mof_H 	H 	0.0297	0.7169	0.9302	0.13
Mof_H 	H 	0.3166	0.6435	0.1011	0.077
Mof_H 	H 	0.4005	0.3515	0.8083	0.1
Mof_H 	H 	0.2439	0.7937	0.5702	0.066
Mof_H 	H 	0.7439	0.7937	0.9298	0.058
Mof_H 	H 	0.9005	0.3515	0.6917	0.099
Mof_H 	H 	0.4128	0.7223	0.3216	0.112
Mof_H 	H 	0.4896	0.3368	0.073	0.042
Mof_H 	H 	0.8166	0.6435	0.3989	0.076
Mof_H 	H 	0.7032	0.5031	0.0851	0.077
Mof_H 	H 	0.0104	0.6632	0.573	0.043
Mof_H 	H 	0.907	0.4739	0.2758	0.058
Mof_H 	H 	0.6255	0.4691	0.4314	0.052
Mof_H 	H 	0.9703	0.2831	0.0698	0.13
Mof_H 	H 	0.5104	0.6632	0.927	0.042
Mof_H 	H 	0.8767	0.8581	0.9904	0.077
Mof_H 	H 	0.2561	0.2063	0.0702	0.058
Mof_H 	H 	0.593	0.5261	0.7758	0.056
Mof_H 	H 	0.826	0.8148	0.1662	0.104
Mof_H 	H 	0.6233	0.1419	0.4904	0.084
Mof_H 	H 	0.3745	0.5309	0.5686	0.052
Mof_H 	H 	0.1233	0.1419	0.0096	0.077
Mof_H 	H 	0.38	0.3641	0.4636	0.129
Mof_H 	H 	0.3767	0.8581	0.5096	0.084
Mof_H 	H 	0.5995	0.6485	0.1917	0.1
Mof_H 	H 	0.8745	0.5309	0.9314	0.052
Mof_H 	H 	0.407	0.4739	0.2242	0.056
Mof_H 	H 	0.6834	0.3565	0.8989	0.077
Mof_H 	H 	0.62	0.6359	0.5364	0.129
Mof_H 	H 	0.1834	0.3565	0.6011	0.076
Mof_H 	H 	0.674	0.1852	0.6662	0.103
Mof_C 	C 	0.2701	0.8034	0.5141	-0.21
Mof_C 	C 	0.2668	0.3902	0.63581	-0.144
Mof_C 	C 	0.495	0.4548	0.33169	0.092
Mof_C 	C 	0.3965	0.3869	0.75981	-0.152
Mof_C 	C 	0.1035	0.6131	0.25981	-0.147
Mof_C 	C 	0.8786	0.4981	0.55063	-0.105
Mof_C 	C 	0.7768	0.3361	0.79333	0.196
Mof_C 	C 	0.9437	0.1115	0.7983	0.518
Mof_C 	C 	0.1191	0.5054	0.11648	-0.055
Mof_C 	C 	0.6004	0.2073	0.69983	-0.233
Mof_C 	C 	0.9932	0.4023	0.45637	-0.073
Mof_C 	C 	0.3809	0.4946	0.61648	-0.056
Mof_C 	C 	0.8965	0.3869	0.74019	-0.147
Mof_C 	C 	0.7332	0.6098	0.36419	-0.144
Mof_C 	C 	0.1244	0.6952	0.92431	-0.306
Mof_C 	C 	0.2332	0.6098	0.13581	-0.143
Mof_C 	C 	0.6035	0.6131	0.24019	-0.152
Mof_C 	C 	0.7701	0.8034	0.9859	-0.185
Mof_C 	C 	0.6569	0.8542	0.02643	0.45
Mof_C 	C 	0.7319	0.1995	0.05983	0.583
Mof_C 	C 	0.7681	0.8005	0.55983	0.573
Mof_C 	C 	0.0113	0.4917	0.75971	-0.054
Mof_C 	C 	0.8809	0.4946	0.88352	-0.055
Mof_C 	C 	0.9887	0.5083	0.24029	-0.054
Mof_C 	C 	0.869	0.3989	0.50705	0.132
Mof_C 	C 	0.2681	0.8005	0.94017	0.583
Mof_C 	C 	0.005	0.5452	0.83169	0.092
Mof_C 	C 	0.2232	0.6639	0.20667	0.196
Mof_C 	C 	0.2768	0.3361	0.70667	0.196
Mof_C 	C 	0.1569	0.8542	0.47357	0.474
Mof_C 	C 	0.5113	0.4917	0.74029	-0.048
Mof_C 	C 	0.4887	0.5083	0.25971	-0.048
Mof_C 	C 	0.8996	0.7927	0.19983	-0.247
Mof_C 	C 	0.7299	0.1966	0.4859	-0.21
Mof_C 	C 	0.7232	0.6639	0.29333	0.196
Mof_C 	C 	0.8431	0.1458	0.52643	0.474
Mof_C 	C 	0.6244	0.6952	0.57569	-0.301
Mof_C 	C 	0.5068	0.5977	0.95637	-0.071
Mof_C 	C 	0.1004	0.2073	0.80017	-0.247
Mof_C 	C 	0.131	0.6011	0.49295	0.132
Mof_C 	C 	0.5563	0.8885	0.2983	0.508
Mof_C 	C 	0.0563	0.8885	0.2017	0.518
Mof_C 	C 	0.3786	0.4981	0.94937	-0.104
Mof_C 	C 	0.631	0.6011	0.00705	0.131
Mof_C 	C 	0.1214	0.5019	0.44937	-0.105
Mof_C 	C 	0.6214	0.5019	0.05063	-0.104
Mof_C 	C 	0.4437	0.1115	0.7017	0.508
Mof_C 	C 	0.2319	0.1995	0.44017	0.573
Mof_C 	C 	0.0068	0.5977	0.54363	-0.073
Mof_C 	C 	0.369	0.3989	0.99295	0.131
Mof_C 	C 	0.3996	0.7927	0.30017	-0.233
Mof_C 	C 	0.8756	0.3048	0.07569	-0.306
Mof_C 	C 	0.3431	0.1458	0.97357	0.45
Mof_C 	C 	0.7668	0.3902	0.86419	-0.143
Mof_C 	C 	0.505	0.5452	0.66831	0.092
Mof_C 	C 	0.4932	0.4023	0.04363	-0.071
Mof_C 	C 	0.995	0.4548	0.16831	0.092
Mof_C 	C 	0.3756	0.3048	0.42431	-0.301
Mof_C 	C 	0.2299	0.1966	0.0141	-0.185
Mof_C 	C 	0.6191	0.5054	0.38352	-0.056
Mof_O 	O 	0.591	0.95234	0.23763	-0.61
Mof_O 	O 	0.839	0.86256	0.61652	-0.606
Mof_O 	O 	0.1613	0.22787	0.72035	-0.359
Mof_O 	O 	0.2326	0.30525	0.98246	-0.19
Mof_O 	O 	0.6423	0.90015	0.35822	-0.594
Mof_O 	O 	0.3741	0.35174	0.34735	-0.152
Mof_O 	O 	0.3387	0.77213	0.22035	-0.359
Mof_O 	O 	0.4029	0.18343	0.90847	-0.514
Mof_O 	O 	0.867	0.0595	0.49314	-0.718
Mof_O 	O 	0.1259	0.64826	0.84735	-0.15
Mof_O 	O 	0.091	0.95234	0.26237	-0.603
Mof_O 	O 	0.661	0.13744	0.11652	-0.605
Mof_O 	O 	0.633	0.9405	0.99314	-0.714
Mof_O 	O 	0.8387	0.77213	0.27965	-0.359
Mof_O 	O 	0.7674	0.69475	0.01754	-0.19
Mof_O 	O 	0.7993	0.81782	0.48774	-0.631
Mof_O 	O 	0.7007	0.18218	0.98774	-0.638
Mof_O 	O 	0.8577	0.09985	0.85822	-0.595
Mof_O 	O 	0.161	0.13744	0.38348	-0.606
Mof_O 	O 	0.2007	0.18218	0.51226	-0.631
Mof_O 	O 	0.339	0.86256	0.88348	-0.605
Mof_O 	O 	0.909	0.04766	0.73763	-0.603
Mof_O 	O 	0.1423	0.90015	0.14178	-0.595
Mof_O 	O 	0.409	0.04766	0.76237	-0.61
Mof_O 	O 	0.7326	0.30525	0.51754	-0.18
Mof_O 	O 	0.133	0.9405	0.50686	-0.718
Mof_O 	O 	0.5971	0.81657	0.09153	-0.514
Mof_O 	O 	0.6613	0.22787	0.77965	-0.359
Mof_O 	O 	0.8741	0.35174	0.15265	-0.15
Mof_O 	O 	0.9029	0.18343	0.59153	-0.514
Mof_O 	O 	0.0971	0.81657	0.40847	-0.514
Mof_O 	O 	0.2993	0.81782	0.01226	-0.638
Mof_O 	O 	0.6259	0.64826	0.65265	-0.152
Mof_O 	O 	0.367	0.0595	0.00686	-0.714
Mof_O 	O 	0.2674	0.69475	0.48246	-0.18
Mof_O 	O 	0.3577	0.09985	0.64178	-0.594
_end
