data_functionalizedCrystal
_audit_creation_method	'EQeq! by Chris Wilmer'
_symmetry_space_group_name_H-M	'P1'
_symmetry_Int_Tables_number	1
_symmetry_cell_setting	triclinic
loop_
_symmetry_equiv_pos_as_xyz
  x,y,z
_cell_length_a	21.6024
_cell_length_b	21.6024
_cell_length_c	11.3824
_cell_angle_alpha	90
_cell_angle_beta	90
_cell_angle_gamma	90
loop_
_atom_site_label
_atom_site_type_symbol
_atom_site_fract_x
_atom_site_fract_y
_atom_site_fract_z
_atom_site_charge
Mof_Eu	Eu	0.42799	0.56379	0.53109	2.606
Mof_O 	O 	0.38052	0.46331	0.5395	-0.575
Mof_O 	O 	0.3219	0.41881	0.3983	-0.54
Mof_N 	N 	0.31167	0.31232	0.5214	-0.129
Mof_O 	O 	0.14213	0.23551	0.3955	-0.454
Mof_O 	O 	0.37479	0.24124	0.3619	-0.591
Mof_O 	O 	0.24216	0.24466	0.3659	-0.678
Mof_C 	C 	0.19734	0.29821	0.5335	-0.133
Mof_C 	C 	0.24638	0.37627	0.654	-0.028
Mof_H 	H 	0.2816	0.4002	0.6751	0.059
Mof_O 	O 	0.39116	0.165	0.4898	-0.599
Mof_C 	C 	0.25205	0.3289	0.5704	0.066
Mof_C 	C 	0.36854	0.21613	0.4615	0.575
Mof_C 	C 	0.3626	0.35498	0.5511	-0.37
Mof_H 	H 	0.4024	0.3366	0.5256	0.126
Mof_H 	H 	0.3643	0.3605	0.6374	0.142
Mof_O 	O 	0.13906	0.44141	0.8626	-0.563
Mof_C 	C 	0.18179	0.44016	0.7934	0.509
Mof_C 	C 	0.18903	0.38852	0.7066	-0.12
Mof_C 	C 	0.19337	0.25657	0.4266	0.388
Mof_C 	C 	0.14136	0.30983	0.5909	-0.01
Mof_H 	H 	0.1055	0.287	0.5693	0.041
Mof_C 	C 	0.1372	0.354	0.6787	-0.012
Mof_H 	H 	0.0993	0.3604	0.7192	0.044
Mof_C 	C 	0.32997	0.24819	0.5552	-0.358
Mof_H 	H 	0.2922	0.2235	0.57	0.133
Mof_H 	H 	0.354	0.2498	0.6292	0.138
Mof_O 	O 	0.22305	0.48413	0.7886	-0.496
Mof_C 	C 	0.3545	0.41788	0.4928	0.529
Mof_H 	H 	0.21	0.5192	0.813	0.301
Mof_Eu	Eu	0.92799	0.06379	0.03109	2.574
Mof_O 	O 	0.88052	0.96331	0.0395	-0.557
Mof_O 	O 	0.8219	0.91881	0.8983	-0.535
Mof_N 	N 	0.81167	0.81232	0.0214	-0.129
Mof_O 	O 	0.64213	0.73551	0.8955	-0.454
Mof_O 	O 	0.87479	0.74124	0.8619	-0.59
Mof_O 	O 	0.74216	0.74466	0.8659	-0.677
Mof_C 	C 	0.69734	0.79821	0.0335	-0.126
Mof_C 	C 	0.74638	0.87627	0.154	-0.027
Mof_H 	H 	0.7816	0.9002	0.1751	0.06
Mof_O 	O 	0.89116	0.665	0.9898	-0.599
Mof_C 	C 	0.75205	0.8289	0.0704	0.066
Mof_C 	C 	0.86854	0.71613	0.9615	0.569
Mof_C 	C 	0.8626	0.85498	0.0511	-0.353
Mof_H 	H 	0.9024	0.8366	0.0256	0.125
Mof_H 	H 	0.8643	0.8605	0.1374	0.138
Mof_O 	O 	0.63906	0.94141	0.3626	-0.563
Mof_C 	C 	0.68179	0.94016	0.2934	0.507
Mof_C 	C 	0.68903	0.88852	0.2066	-0.119
Mof_C 	C 	0.69337	0.75657	0.9266	0.382
Mof_C 	C 	0.64136	0.80983	0.0909	-0.012
Mof_H 	H 	0.6055	0.787	0.0693	0.044
Mof_C 	C 	0.6372	0.854	0.1787	-0.01
Mof_H 	H 	0.5993	0.8604	0.2192	0.044
Mof_C 	C 	0.82997	0.74819	0.0552	-0.351
Mof_H 	H 	0.7922	0.7235	0.07	0.132
Mof_H 	H 	0.854	0.7498	0.1292	0.136
Mof_O 	O 	0.72305	0.98413	0.2886	-0.489
Mof_C 	C 	0.8545	0.91788	0.9928	0.507
Mof_H 	H 	0.71	0.0192	0.313	0.296
Mof_Eu	Eu	0.07201	0.43621	0.03109	2.604
Mof_O 	O 	0.11948	0.53669	0.0395	-0.572
Mof_O 	O 	0.1781	0.58119	0.8983	-0.539
Mof_N 	N 	0.18833	0.68768	0.0214	-0.128
Mof_O 	O 	0.35787	0.76449	0.8955	-0.455
Mof_O 	O 	0.12521	0.75876	0.8619	-0.59
Mof_O 	O 	0.25784	0.75534	0.8659	-0.678
Mof_C 	C 	0.30266	0.70179	0.0335	-0.126
Mof_C 	C 	0.25362	0.62373	0.154	-0.026
Mof_H 	H 	0.2184	0.5998	0.1751	0.059
Mof_O 	O 	0.10884	0.835	0.9898	-0.597
Mof_C 	C 	0.24795	0.6711	0.0704	0.065
Mof_C 	C 	0.13146	0.78387	0.9615	0.568
Mof_C 	C 	0.1374	0.64502	0.0511	-0.366
Mof_H 	H 	0.0976	0.6634	0.0256	0.127
Mof_H 	H 	0.1357	0.6395	0.1374	0.141
Mof_O 	O 	0.36094	0.55859	0.3626	-0.564
Mof_C 	C 	0.31821	0.55984	0.2934	0.509
Mof_C 	C 	0.31097	0.61148	0.2066	-0.121
Mof_C 	C 	0.30663	0.74343	0.9266	0.383
Mof_C 	C 	0.35864	0.69017	0.0909	-0.013
Mof_H 	H 	0.3945	0.713	0.0693	0.044
Mof_C 	C 	0.3628	0.646	0.1787	-0.01
Mof_H 	H 	0.4007	0.6396	0.2192	0.043
Mof_C 	C 	0.17003	0.75181	0.0552	-0.351
Mof_H 	H 	0.2078	0.7765	0.07	0.133
Mof_H 	H 	0.146	0.7502	0.1292	0.136
Mof_O 	O 	0.27695	0.51587	0.2886	-0.497
Mof_C 	C 	0.1455	0.58212	0.9928	0.525
Mof_H 	H 	0.29	0.4808	0.313	0.301
Mof_Eu	Eu	0.57201	0.93621	0.53109	2.604
Mof_O 	O 	0.61948	0.03669	0.5395	-0.574
Mof_O 	O 	0.6781	0.08119	0.3983	-0.54
Mof_N 	N 	0.68833	0.18768	0.5214	-0.129
Mof_O 	O 	0.85787	0.26449	0.3955	-0.454
Mof_O 	O 	0.62521	0.25876	0.3619	-0.591
Mof_O 	O 	0.75784	0.25534	0.3659	-0.678
Mof_C 	C 	0.80266	0.20179	0.5335	-0.133
Mof_C 	C 	0.75362	0.12373	0.654	-0.029
Mof_H 	H 	0.7184	0.0998	0.6751	0.06
Mof_O 	O 	0.60884	0.335	0.4898	-0.599
Mof_C 	C 	0.74795	0.1711	0.5704	0.067
Mof_C 	C 	0.63146	0.28387	0.4615	0.575
Mof_C 	C 	0.6374	0.14502	0.5511	-0.369
Mof_H 	H 	0.5976	0.1634	0.5256	0.126
Mof_H 	H 	0.6357	0.1395	0.6374	0.142
Mof_O 	O 	0.86094	0.05859	0.8626	-0.556
Mof_C 	C 	0.81821	0.05984	0.7934	0.504
Mof_C 	C 	0.81097	0.11148	0.7066	-0.117
Mof_C 	C 	0.80663	0.24343	0.4266	0.388
Mof_C 	C 	0.85864	0.19017	0.5909	-0.009
Mof_H 	H 	0.8945	0.213	0.5693	0.041
Mof_C 	C 	0.8628	0.146	0.6787	-0.014
Mof_H 	H 	0.9007	0.1396	0.7192	0.045
Mof_C 	C 	0.67003	0.25181	0.5552	-0.358
Mof_H 	H 	0.7078	0.2765	0.57	0.133
Mof_H 	H 	0.646	0.2502	0.6292	0.138
Mof_O 	O 	0.77695	0.01587	0.7886	-0.486
Mof_C 	C 	0.6455	0.08212	0.4928	0.529
Mof_H 	H 	0.79	0.9808	0.813	0.293
Mof_Eu	Eu	0.18621	0.67799	0.78109	2.603
Mof_O 	O 	0.28669	0.63052	0.7895	-0.574
Mof_O 	O 	0.33119	0.5719	0.6483	-0.54
Mof_N 	N 	0.43768	0.56167	0.7714	-0.129
Mof_O 	O 	0.51449	0.39213	0.6455	-0.454
Mof_O 	O 	0.50876	0.62479	0.6119	-0.591
Mof_O 	O 	0.50534	0.49216	0.6159	-0.678
Mof_C 	C 	0.45179	0.44734	0.7835	-0.133
Mof_C 	C 	0.37373	0.49638	0.904	-0.029
Mof_H 	H 	0.3498	0.5316	0.9251	0.059
Mof_O 	O 	0.585	0.64116	0.7398	-0.6
Mof_C 	C 	0.4211	0.50205	0.8204	0.066
Mof_C 	C 	0.53387	0.61854	0.7115	0.575
Mof_C 	C 	0.39502	0.6126	0.8011	-0.369
Mof_H 	H 	0.4134	0.6524	0.7756	0.126
Mof_H 	H 	0.3895	0.6143	0.8874	0.141
Mof_O 	O 	0.30859	0.38906	0.1126	-0.564
Mof_C 	C 	0.30984	0.43179	0.0434	0.507
Mof_C 	C 	0.36148	0.43903	0.9566	-0.117
Mof_C 	C 	0.49343	0.44337	0.6766	0.388
Mof_C 	C 	0.44017	0.39136	0.8409	-0.009
Mof_H 	H 	0.463	0.3555	0.8193	0.041
Mof_C 	C 	0.396	0.3872	0.9287	-0.014
Mof_H 	H 	0.3896	0.3493	0.9692	0.046
Mof_C 	C 	0.50181	0.57997	0.8052	-0.358
Mof_H 	H 	0.5265	0.5422	0.82	0.133
Mof_H 	H 	0.5002	0.604	0.8792	0.137
Mof_O 	O 	0.26587	0.47305	0.0386	-0.496
Mof_C 	C 	0.33212	0.6045	0.7428	0.529
Mof_H 	H 	0.2308	0.46	0.063	0.301
Mof_Eu	Eu	0.68621	0.17799	0.28109	2.605
Mof_O 	O 	0.78669	0.13052	0.2895	-0.574
Mof_O 	O 	0.83119	0.0719	0.1483	-0.539
Mof_N 	N 	0.93768	0.06167	0.2714	-0.127
Mof_O 	O 	0.01449	0.89213	0.1455	-0.449
Mof_O 	O 	0.00876	0.12479	0.1119	-0.59
Mof_O 	O 	0.00534	0.99216	0.1159	-0.669
Mof_C 	C 	0.95179	0.94734	0.2835	-0.123
Mof_C 	C 	0.87373	0.99638	0.404	-0.013
Mof_H 	H 	0.8498	0.0316	0.4251	0.053
Mof_O 	O 	0.085	0.14116	0.2398	-0.599
Mof_C 	C 	0.9211	0.00205	0.3204	0.053
Mof_C 	C 	0.03387	0.11854	0.2115	0.573
Mof_C 	C 	0.89502	0.1126	0.3011	-0.37
Mof_H 	H 	0.9134	0.1524	0.2756	0.127
Mof_H 	H 	0.8895	0.1143	0.3874	0.142
Mof_O 	O 	0.80859	0.88906	0.6126	-0.565
Mof_C 	C 	0.80984	0.93179	0.5434	0.511
Mof_C 	C 	0.86148	0.93903	0.4566	-0.127
Mof_C 	C 	0.99343	0.94337	0.1766	0.385
Mof_C 	C 	0.94017	0.89136	0.3409	-0.017
Mof_H 	H 	0.963	0.8555	0.3193	0.044
Mof_C 	C 	0.896	0.8872	0.4287	-0.005
Mof_H 	H 	0.8896	0.8493	0.4692	0.041
Mof_C 	C 	0.00181	0.07997	0.3052	-0.358
Mof_H 	H 	0.0265	0.0422	0.32	0.132
Mof_H 	H 	0.0002	0.104	0.3792	0.138
Mof_O 	O 	0.76587	0.97305	0.5386	-0.498
Mof_C 	C 	0.83212	0.1045	0.2428	0.529
Mof_H 	H 	0.7308	0.96	0.563	0.301
Mof_Eu	Eu	0.31379	0.32201	0.28109	2.606
Mof_O 	O 	0.21331	0.36948	0.2895	-0.574
Mof_O 	O 	0.16881	0.4281	0.1483	-0.54
Mof_N 	N 	0.06232	0.43833	0.2714	-0.128
Mof_O 	O 	0.98551	0.60787	0.1455	-0.453
Mof_O 	O 	0.99124	0.37521	0.1119	-0.592
Mof_O 	O 	0.99466	0.50784	0.1159	-0.678
Mof_C 	C 	0.04821	0.55266	0.2835	-0.133
Mof_C 	C 	0.12627	0.50362	0.404	-0.028
Mof_H 	H 	0.1502	0.4684	0.4251	0.059
Mof_O 	O 	0.915	0.35884	0.2398	-0.599
Mof_C 	C 	0.0789	0.49795	0.3204	0.066
Mof_C 	C 	0.96613	0.38146	0.2115	0.575
Mof_C 	C 	0.10498	0.3874	0.3011	-0.37
Mof_H 	H 	0.0866	0.3476	0.2756	0.126
Mof_H 	H 	0.1105	0.3857	0.3874	0.142
Mof_O 	O 	0.19141	0.61094	0.6126	-0.564
Mof_C 	C 	0.19016	0.56821	0.5434	0.509
Mof_C 	C 	0.13852	0.56097	0.4566	-0.12
Mof_C 	C 	0.00657	0.55663	0.1766	0.387
Mof_C 	C 	0.05983	0.60864	0.3409	-0.01
Mof_H 	H 	0.037	0.6445	0.3193	0.041
Mof_C 	C 	0.104	0.6128	0.4287	-0.012
Mof_H 	H 	0.1104	0.6507	0.4692	0.044
Mof_C 	C 	0.99819	0.42003	0.3052	-0.359
Mof_H 	H 	0.9735	0.4578	0.32	0.133
Mof_H 	H 	0.9998	0.396	0.3792	0.138
Mof_O 	O 	0.23413	0.52695	0.5386	-0.496
Mof_C 	C 	0.16788	0.3955	0.2428	0.529
Mof_H 	H 	0.2692	0.54	0.563	0.301
Mof_Eu	Eu	0.81379	0.82201	0.78109	2.601
Mof_O 	O 	0.71331	0.86948	0.7895	-0.575
Mof_O 	O 	0.66881	0.9281	0.6483	-0.54
Mof_N 	N 	0.56232	0.93833	0.7714	-0.126
Mof_O 	O 	0.48551	0.10787	0.6455	-0.453
Mof_O 	O 	0.49124	0.87521	0.6119	-0.591
Mof_O 	O 	0.49466	0.00784	0.6159	-0.676
Mof_C 	C 	0.54821	0.05266	0.7835	-0.118
Mof_C 	C 	0.62627	0.00362	0.904	0.003
Mof_H 	H 	0.6502	0.9684	0.9251	0.044
Mof_O 	O 	0.415	0.85884	0.7398	-0.6
Mof_C 	C 	0.5789	0.99795	0.8204	0.042
Mof_C 	C 	0.46613	0.88146	0.7115	0.574
Mof_C 	C 	0.60498	0.8874	0.8011	-0.37
Mof_H 	H 	0.5866	0.8476	0.7756	0.126
Mof_H 	H 	0.6105	0.8857	0.8874	0.141
Mof_O 	O 	0.69141	0.11094	0.1126	-0.565
Mof_C 	C 	0.69016	0.06821	0.0434	0.504
Mof_C 	C 	0.63852	0.06097	0.9566	-0.123
Mof_C 	C 	0.50657	0.05663	0.6766	0.384
Mof_C 	C 	0.55983	0.10864	0.8409	-0.019
Mof_H 	H 	0.537	0.1445	0.8193	0.045
Mof_C 	C 	0.604	0.1128	0.9287	-0.004
Mof_H 	H 	0.6104	0.1507	0.9692	0.044
Mof_C 	C 	0.49819	0.92003	0.8052	-0.358
Mof_H 	H 	0.4735	0.9578	0.82	0.131
Mof_H 	H 	0.4998	0.896	0.8792	0.136
Mof_O 	O 	0.73413	0.02695	0.0386	-0.499
Mof_C 	C 	0.66788	0.8955	0.7428	0.529
Mof_H 	H 	0.7692	0.04	0.063	0.3
Mof_Eu	Eu	0.57201	0.43621	0.46891	2.607
Mof_O 	O 	0.61948	0.53669	0.4605	-0.574
Mof_O 	O 	0.6781	0.58119	0.6017	-0.54
Mof_N 	N 	0.68833	0.68768	0.4786	-0.129
Mof_O 	O 	0.85787	0.76449	0.6045	-0.454
Mof_O 	O 	0.62521	0.75876	0.6381	-0.591
Mof_O 	O 	0.75784	0.75534	0.6341	-0.678
Mof_C 	C 	0.80266	0.70179	0.4665	-0.133
Mof_C 	C 	0.75362	0.62373	0.346	-0.028
Mof_H 	H 	0.7184	0.5998	0.3249	0.059
Mof_O 	O 	0.60884	0.835	0.5102	-0.599
Mof_C 	C 	0.74795	0.6711	0.4296	0.066
Mof_C 	C 	0.63146	0.78387	0.5385	0.575
Mof_C 	C 	0.6374	0.64502	0.4489	-0.37
Mof_H 	H 	0.5976	0.6634	0.4744	0.126
Mof_H 	H 	0.6357	0.6395	0.3626	0.142
Mof_O 	O 	0.86094	0.55859	0.1374	-0.563
Mof_C 	C 	0.81821	0.55984	0.2066	0.509
Mof_C 	C 	0.81097	0.61148	0.2934	-0.12
Mof_C 	C 	0.80663	0.74343	0.5734	0.388
Mof_C 	C 	0.85864	0.69017	0.4091	-0.01
Mof_H 	H 	0.8945	0.713	0.4307	0.041
Mof_C 	C 	0.8628	0.646	0.3213	-0.012
Mof_H 	H 	0.9007	0.6396	0.2808	0.044
Mof_C 	C 	0.67003	0.75181	0.4448	-0.358
Mof_H 	H 	0.7078	0.7765	0.43	0.133
Mof_H 	H 	0.646	0.7502	0.3708	0.138
Mof_O 	O 	0.77695	0.51587	0.2114	-0.496
Mof_C 	C 	0.6455	0.58212	0.5072	0.529
Mof_H 	H 	0.79	0.4808	0.187	0.301
Mof_Eu	Eu	0.07201	0.93621	0.96891	2.574
Mof_O 	O 	0.11948	0.03669	0.9605	-0.557
Mof_O 	O 	0.1781	0.08119	0.1017	-0.535
Mof_N 	N 	0.18833	0.18768	0.9786	-0.129
Mof_O 	O 	0.35787	0.26449	0.1045	-0.454
Mof_O 	O 	0.12521	0.25876	0.1381	-0.59
Mof_O 	O 	0.25784	0.25534	0.1341	-0.677
Mof_C 	C 	0.30266	0.20179	0.9665	-0.126
Mof_C 	C 	0.25362	0.12373	0.846	-0.027
Mof_H 	H 	0.2184	0.0998	0.8249	0.06
Mof_O 	O 	0.10884	0.335	0.0102	-0.599
Mof_C 	C 	0.24795	0.1711	0.9296	0.066
Mof_C 	C 	0.13146	0.28387	0.0385	0.569
Mof_C 	C 	0.1374	0.14502	0.9489	-0.353
Mof_H 	H 	0.0976	0.1634	0.9744	0.125
Mof_H 	H 	0.1357	0.1395	0.8626	0.138
Mof_O 	O 	0.36094	0.05859	0.6374	-0.563
Mof_C 	C 	0.31821	0.05984	0.7066	0.507
Mof_C 	C 	0.31097	0.11148	0.7934	-0.119
Mof_C 	C 	0.30663	0.24343	0.0734	0.382
Mof_C 	C 	0.35864	0.19017	0.9091	-0.012
Mof_H 	H 	0.3945	0.213	0.9307	0.044
Mof_C 	C 	0.3628	0.146	0.8213	-0.01
Mof_H 	H 	0.4007	0.1396	0.7808	0.044
Mof_C 	C 	0.17003	0.25181	0.9448	-0.351
Mof_H 	H 	0.2078	0.2765	0.93	0.132
Mof_H 	H 	0.146	0.2502	0.8708	0.136
Mof_O 	O 	0.27695	0.01587	0.7114	-0.489
Mof_C 	C 	0.1455	0.08212	0.0072	0.507
Mof_H 	H 	0.29	0.9808	0.687	0.296
Mof_Eu	Eu	0.92799	0.56379	0.96891	2.604
Mof_O 	O 	0.88052	0.46331	0.9605	-0.572
Mof_O 	O 	0.8219	0.41881	0.1017	-0.539
Mof_N 	N 	0.81167	0.31232	0.9786	-0.128
Mof_O 	O 	0.64213	0.23551	0.1045	-0.455
Mof_O 	O 	0.87479	0.24124	0.1381	-0.59
Mof_O 	O 	0.74216	0.24466	0.1341	-0.678
Mof_C 	C 	0.69734	0.29821	0.9665	-0.126
Mof_C 	C 	0.74638	0.37627	0.846	-0.026
Mof_H 	H 	0.7816	0.4002	0.8249	0.059
Mof_O 	O 	0.89116	0.165	0.0102	-0.597
Mof_C 	C 	0.75205	0.3289	0.9296	0.065
Mof_C 	C 	0.86854	0.21613	0.0385	0.568
Mof_C 	C 	0.8626	0.35498	0.9489	-0.366
Mof_H 	H 	0.9024	0.3366	0.9744	0.127
Mof_H 	H 	0.8643	0.3605	0.8626	0.141
Mof_O 	O 	0.63906	0.44141	0.6374	-0.564
Mof_C 	C 	0.68179	0.44016	0.7066	0.509
Mof_C 	C 	0.68903	0.38852	0.7934	-0.121
Mof_C 	C 	0.69337	0.25657	0.0734	0.383
Mof_C 	C 	0.64136	0.30983	0.9091	-0.013
Mof_H 	H 	0.6055	0.287	0.9307	0.044
Mof_C 	C 	0.6372	0.354	0.8213	-0.01
Mof_H 	H 	0.5993	0.3604	0.7808	0.043
Mof_C 	C 	0.82997	0.24819	0.9448	-0.351
Mof_H 	H 	0.7922	0.2235	0.93	0.133
Mof_H 	H 	0.854	0.2498	0.8708	0.136
Mof_O 	O 	0.72305	0.48413	0.7114	-0.497
Mof_C 	C 	0.8545	0.41788	0.0072	0.525
Mof_H 	H 	0.71	0.5192	0.687	0.301
Mof_Eu	Eu	0.42799	0.06379	0.46891	2.604
Mof_O 	O 	0.38052	0.96331	0.4605	-0.574
Mof_O 	O 	0.3219	0.91881	0.6017	-0.54
Mof_N 	N 	0.31167	0.81232	0.4786	-0.129
Mof_O 	O 	0.14213	0.73551	0.6045	-0.454
Mof_O 	O 	0.37479	0.74124	0.6381	-0.591
Mof_O 	O 	0.24216	0.74466	0.6341	-0.678
Mof_C 	C 	0.19734	0.79821	0.4665	-0.133
Mof_C 	C 	0.24638	0.87627	0.346	-0.029
Mof_H 	H 	0.2816	0.9002	0.3249	0.06
Mof_O 	O 	0.39116	0.665	0.5102	-0.599
Mof_C 	C 	0.25205	0.8289	0.4296	0.067
Mof_C 	C 	0.36854	0.71613	0.5385	0.575
Mof_C 	C 	0.3626	0.85498	0.4489	-0.369
Mof_H 	H 	0.4024	0.8366	0.4744	0.126
Mof_H 	H 	0.3643	0.8605	0.3626	0.142
Mof_O 	O 	0.13906	0.94141	0.1374	-0.556
Mof_C 	C 	0.18179	0.94016	0.2066	0.504
Mof_C 	C 	0.18903	0.88852	0.2934	-0.117
Mof_C 	C 	0.19337	0.75657	0.5734	0.388
Mof_C 	C 	0.14136	0.80983	0.4091	-0.009
Mof_H 	H 	0.1055	0.787	0.4307	0.041
Mof_C 	C 	0.1372	0.854	0.3213	-0.014
Mof_H 	H 	0.0993	0.8604	0.2808	0.045
Mof_C 	C 	0.32997	0.74819	0.4448	-0.358
Mof_H 	H 	0.2922	0.7235	0.43	0.133
Mof_H 	H 	0.354	0.7498	0.3708	0.138
Mof_O 	O 	0.22305	0.98413	0.2114	-0.486
Mof_C 	C 	0.3545	0.91788	0.5072	0.529
Mof_H 	H 	0.21	0.0192	0.187	0.293
Mof_Eu	Eu	0.81379	0.32201	0.21891	2.603
Mof_O 	O 	0.71331	0.36948	0.2105	-0.574
Mof_O 	O 	0.66881	0.4281	0.3517	-0.54
Mof_N 	N 	0.56232	0.43833	0.2286	-0.129
Mof_O 	O 	0.48551	0.60787	0.3545	-0.454
Mof_O 	O 	0.49124	0.37521	0.3881	-0.591
Mof_O 	O 	0.49466	0.50784	0.3841	-0.678
Mof_C 	C 	0.54821	0.55266	0.2165	-0.133
Mof_C 	C 	0.62627	0.50362	0.096	-0.029
Mof_H 	H 	0.6502	0.4684	0.0749	0.059
Mof_O 	O 	0.415	0.35884	0.2602	-0.6
Mof_C 	C 	0.5789	0.49795	0.1796	0.066
Mof_C 	C 	0.46613	0.38146	0.2885	0.575
Mof_C 	C 	0.60498	0.3874	0.1989	-0.369
Mof_H 	H 	0.5866	0.3476	0.2244	0.126
Mof_H 	H 	0.6105	0.3857	0.1126	0.141
Mof_O 	O 	0.69141	0.61094	0.8874	-0.564
Mof_C 	C 	0.69016	0.56821	0.9566	0.507
Mof_C 	C 	0.63852	0.56097	0.0434	-0.117
Mof_C 	C 	0.50657	0.55663	0.3234	0.388
Mof_C 	C 	0.55983	0.60864	0.1591	-0.009
Mof_H 	H 	0.537	0.6445	0.1807	0.041
Mof_C 	C 	0.604	0.6128	0.0713	-0.014
Mof_H 	H 	0.6104	0.6507	0.0308	0.046
Mof_C 	C 	0.49819	0.42003	0.1948	-0.358
Mof_H 	H 	0.4735	0.4578	0.18	0.133
Mof_H 	H 	0.4998	0.396	0.1208	0.137
Mof_O 	O 	0.73413	0.52695	0.9614	-0.496
Mof_C 	C 	0.66788	0.3955	0.2572	0.529
Mof_H 	H 	0.7692	0.54	0.937	0.301
Mof_Eu	Eu	0.31379	0.82201	0.71891	2.605
Mof_O 	O 	0.21331	0.86948	0.7105	-0.574
Mof_O 	O 	0.16881	0.9281	0.8517	-0.539
Mof_N 	N 	0.06232	0.93833	0.7286	-0.127
Mof_O 	O 	0.98551	0.10787	0.8545	-0.449
Mof_O 	O 	0.99124	0.87521	0.8881	-0.59
Mof_O 	O 	0.99466	0.00784	0.8841	-0.669
Mof_C 	C 	0.04821	0.05266	0.7165	-0.123
Mof_C 	C 	0.12627	0.00362	0.596	-0.013
Mof_H 	H 	0.1502	0.9684	0.5749	0.053
Mof_O 	O 	0.915	0.85884	0.7602	-0.599
Mof_C 	C 	0.0789	0.99795	0.6796	0.053
Mof_C 	C 	0.96613	0.88146	0.7885	0.573
Mof_C 	C 	0.10498	0.8874	0.6989	-0.37
Mof_H 	H 	0.0866	0.8476	0.7244	0.127
Mof_H 	H 	0.1105	0.8857	0.6126	0.142
Mof_O 	O 	0.19141	0.11094	0.3874	-0.565
Mof_C 	C 	0.19016	0.06821	0.4566	0.511
Mof_C 	C 	0.13852	0.06097	0.5434	-0.127
Mof_C 	C 	0.00657	0.05663	0.8234	0.385
Mof_C 	C 	0.05983	0.10864	0.6591	-0.017
Mof_H 	H 	0.037	0.1445	0.6807	0.044
Mof_C 	C 	0.104	0.1128	0.5713	-0.005
Mof_H 	H 	0.1104	0.1507	0.5308	0.041
Mof_C 	C 	0.99819	0.92003	0.6948	-0.358
Mof_H 	H 	0.9735	0.9578	0.68	0.132
Mof_H 	H 	0.9998	0.896	0.6208	0.138
Mof_O 	O 	0.23413	0.02695	0.4614	-0.498
Mof_C 	C 	0.16788	0.8955	0.7572	0.529
Mof_H 	H 	0.2692	0.04	0.437	0.301
Mof_Eu	Eu	0.68621	0.67799	0.71891	2.606
Mof_O 	O 	0.78669	0.63052	0.7105	-0.574
Mof_O 	O 	0.83119	0.5719	0.8517	-0.54
Mof_N 	N 	0.93768	0.56167	0.7286	-0.128
Mof_O 	O 	0.01449	0.39213	0.8545	-0.453
Mof_O 	O 	0.00876	0.62479	0.8881	-0.592
Mof_O 	O 	0.00534	0.49216	0.8841	-0.678
Mof_C 	C 	0.95179	0.44734	0.7165	-0.133
Mof_C 	C 	0.87373	0.49638	0.596	-0.028
Mof_H 	H 	0.8498	0.5316	0.5749	0.059
Mof_O 	O 	0.085	0.64116	0.7602	-0.599
Mof_C 	C 	0.9211	0.50205	0.6796	0.066
Mof_C 	C 	0.03387	0.61854	0.7885	0.575
Mof_C 	C 	0.89502	0.6126	0.6989	-0.37
Mof_H 	H 	0.9134	0.6524	0.7244	0.126
Mof_H 	H 	0.8895	0.6143	0.6126	0.142
Mof_O 	O 	0.80859	0.38906	0.3874	-0.564
Mof_C 	C 	0.80984	0.43179	0.4566	0.509
Mof_C 	C 	0.86148	0.43903	0.5434	-0.12
Mof_C 	C 	0.99343	0.44337	0.8234	0.387
Mof_C 	C 	0.94017	0.39136	0.6591	-0.01
Mof_H 	H 	0.963	0.3555	0.6807	0.041
Mof_C 	C 	0.896	0.3872	0.5713	-0.012
Mof_H 	H 	0.8896	0.3493	0.5308	0.044
Mof_C 	C 	0.00181	0.57997	0.6948	-0.359
Mof_H 	H 	0.0265	0.5422	0.68	0.133
Mof_H 	H 	0.0002	0.604	0.6208	0.138
Mof_O 	O 	0.76587	0.47305	0.4614	-0.496
Mof_C 	C 	0.83212	0.6045	0.7572	0.529
Mof_H 	H 	0.7308	0.46	0.437	0.301
Mof_Eu	Eu	0.18621	0.17799	0.21891	2.601
Mof_O 	O 	0.28669	0.13052	0.2105	-0.575
Mof_O 	O 	0.33119	0.0719	0.3517	-0.54
Mof_N 	N 	0.43768	0.06167	0.2286	-0.126
Mof_O 	O 	0.51449	0.89213	0.3545	-0.453
Mof_O 	O 	0.50876	0.12479	0.3881	-0.591
Mof_O 	O 	0.50534	0.99216	0.3841	-0.676
Mof_C 	C 	0.45179	0.94734	0.2165	-0.118
Mof_C 	C 	0.37373	0.99638	0.096	0.003
Mof_H 	H 	0.3498	0.0316	0.0749	0.044
Mof_O 	O 	0.585	0.14116	0.2602	-0.6
Mof_C 	C 	0.4211	0.00205	0.1796	0.042
Mof_C 	C 	0.53387	0.11854	0.2885	0.574
Mof_C 	C 	0.39502	0.1126	0.1989	-0.37
Mof_H 	H 	0.4134	0.1524	0.2244	0.126
Mof_H 	H 	0.3895	0.1143	0.1126	0.141
Mof_O 	O 	0.30859	0.88906	0.8874	-0.565
Mof_C 	C 	0.30984	0.93179	0.9566	0.504
Mof_C 	C 	0.36148	0.93903	0.0434	-0.123
Mof_C 	C 	0.49343	0.94337	0.3234	0.384
Mof_C 	C 	0.44017	0.89136	0.1591	-0.019
Mof_H 	H 	0.463	0.8555	0.1807	0.045
Mof_C 	C 	0.396	0.8872	0.0713	-0.004
Mof_H 	H 	0.3896	0.8493	0.0308	0.044
Mof_C 	C 	0.50181	0.07997	0.1948	-0.358
Mof_H 	H 	0.5265	0.0422	0.18	0.131
Mof_H 	H 	0.5002	0.104	0.1208	0.136
Mof_O 	O 	0.26587	0.97305	0.9614	-0.499
Mof_C 	C 	0.33212	0.1045	0.2572	0.529
Mof_H 	H 	0.2308	0.96	0.937	0.3
_end
