data_functionalizedCrystal
_audit_creation_method	'EQeq! by Chris Wilmer'
_symmetry_space_group_name_H-M	'P1'
_symmetry_Int_Tables_number	1
_symmetry_cell_setting	triclinic
loop_
_symmetry_equiv_pos_as_xyz
  x,y,z
_cell_length_a	18.8423
_cell_length_b	18.8423
_cell_length_c	21.921
_cell_angle_alpha	90
_cell_angle_beta	90
_cell_angle_gamma	90
loop_
_atom_site_label
_atom_site_type_symbol
_atom_site_fract_x
_atom_site_fract_y
_atom_site_fract_z
_atom_site_charge
Mof_C 	C 	0.9585	0.4465	0.0505	-0.011
Mof_C 	C 	0.5797	0.9347	0.9948	0.008
Mof_C 	C 	0.5342	0.9266	0.9454	-0.004
Mof_C 	C 	0.4625	0.9422	0.9516	0.021
Mof_C 	C 	0.4363	0.9661	0.0072	-0.016
Mof_C 	C 	0.4818	0.9742	0.0567	0.006
Mof_C 	C 	0.3682	0.7743	0.4212	0.461
Mof_C 	C 	0.4771	0.8742	0.7245	0.013
Mof_C 	C 	0.456	0.8277	0.7702	-0.023
Mof_C 	C 	0.4357	0.854	0.8269	0.117
Mof_C 	C 	0.4365	0.9266	0.8377	-0.016
Mof_C 	C 	0.4576	0.9731	0.792	0.01
Mof_C 	C 	0.9469	0.5221	0.7353	-0.002
Mof_Cu	Cu	0.79061	0.77478	0.41644	0.934
Mof_C 	C 	0.0118	0.6851	0.1973	0.024
Mof_C 	C 	0.0736	0.6999	0.2294	-0.024
Mof_H 	H 	0.1185	0.6935	0.2105	0.064
Mof_C 	C 	0.0698	0.7242	0.2892	-0.087
Mof_C 	C 	0.0041	0.7336	0.3169	0.015
Mof_H 	H 	0.0015	0.7502	0.3578	0.06
Mof_C 	C 	0.9423	0.7188	0.2848	-0.053
Mof_C 	C 	0.9461	0.6946	0.225	-0.033
Mof_H 	H 	0.9038	0.6845	0.2031	0.065
Mof_Cu	Cu	0.29065	0.72307	0.32572	0.894
Mof_C 	C 	0.5126	0.7617	0.4279	0.021
Mof_H 	H 	0.5129	0.7428	0.3878	0.055
Mof_C 	C 	0.4488	0.7805	0.4553	-0.066
Mof_C 	C 	0.4484	0.8082	0.514	-0.038
Mof_H 	H 	0.4047	0.8211	0.5327	0.063
Mof_C 	C 	0.5118	0.8171	0.5455	0.031
Mof_C 	C 	0.5757	0.7983	0.5181	-0.038
Mof_H 	H 	0.619	0.8044	0.5396	0.064
Mof_C 	C 	0.5761	0.7706	0.4594	-0.07
Mof_C 	C 	0.1379	0.7424	0.3157	0.394
Mof_O 	O 	0.3722	0.7428	0.3722	-0.457
Mof_C 	C 	0.884	0.727	0.3229	0.25
Mof_O 	O 	0.8796	0.7641	0.3743	-0.356
Mof_O 	O 	0.1376	0.7684	0.368	-0.401
Mof_O 	O 	0.6353	0.7311	0.3811	-0.367
Mof_O 	O 	0.823	0.703	0.2908	-0.335
Mof_O 	O 	0.3164	0.7978	0.4401	-0.5
Mof_O 	O 	0.7054	0.7847	0.4513	-0.433
Mof_O 	O 	0.1887	0.7189	0.2886	-0.411
Mof_C 	C 	0.6474	0.761	0.4346	0.342
Mof_C 	C 	0.4955	0.829	0.6085	-0.017
Mof_C 	C 	0.3658	0.9896	0.0109	0.012
Mof_C 	C 	0.485	0.779	0.902	0.088
Mof_C 	C 	0.4573	0.044	0.8057	0.002
Mof_C 	C 	0.4926	0.8397	0.6635	0.007
Mof_C 	C 	0.499	0.9294	0.7055	-0.006
Mof_C 	C 	0.093	0.521	0.7623	-0.003
Mof_C 	C 	0.0135	0.6495	0.1367	-0.017
Mof_O 	O 	0.421	0.8015	0.8707	-0.191
Mof_C 	C 	0.517	0.832	0.949	-0.012
Mof_C 	C 	0.0251	0.6031	0.0981	0.006
Mof_C 	C 	0.4141	0.9388	0.903	-0.023
Mof_C 	C 	0.319	0.9831	0.9634	-0.033
Mof_C 	C 	0.3428	0.9569	0.9062	0.125
Mof_O 	O 	0.2995	0.9455	0.8566	-0.199
Mof_C 	C 	0.2283	0.9716	0.8637	0.09
Mof_C 	C 	0.217	0.032	0.816	-0.003
Mof_C 	C 	0.0415	0.5535	0.0505	-0.01
Mof_C 	C 	0.4203	0.0653	0.9948	0.007
Mof_C 	C 	0.4658	0.0734	0.9454	-0.004
Mof_C 	C 	0.5375	0.0578	0.9516	0.021
Mof_C 	C 	0.5637	0.0339	0.0072	-0.015
Mof_C 	C 	0.5182	0.0258	0.0567	0.006
Mof_C 	C 	0.6318	0.2257	0.4212	0.461
Mof_C 	C 	0.5229	0.1258	0.7245	0.013
Mof_C 	C 	0.544	0.1723	0.7702	-0.023
Mof_C 	C 	0.5643	0.146	0.8269	0.117
Mof_C 	C 	0.5635	0.0734	0.8377	-0.016
Mof_C 	C 	0.5424	0.0269	0.792	0.01
Mof_C 	C 	0.0531	0.4779	0.7353	-0.001
Mof_Cu	Cu	0.20939	0.22522	0.41644	0.934
Mof_C 	C 	0.9882	0.3149	0.1973	0.024
Mof_C 	C 	0.9264	0.3001	0.2294	-0.024
Mof_H 	H 	0.8815	0.3065	0.2105	0.064
Mof_C 	C 	0.9302	0.2758	0.2892	-0.087
Mof_C 	C 	0.9959	0.2664	0.3169	0.015
Mof_H 	H 	0.9985	0.2498	0.3578	0.06
Mof_C 	C 	0.0577	0.2812	0.2848	-0.053
Mof_C 	C 	0.0539	0.3054	0.225	-0.033
Mof_H 	H 	0.0962	0.3155	0.2031	0.065
Mof_Cu	Cu	0.70935	0.27693	0.32572	0.894
Mof_C 	C 	0.4874	0.2383	0.4279	0.021
Mof_H 	H 	0.4871	0.2572	0.3878	0.055
Mof_C 	C 	0.5512	0.2195	0.4553	-0.066
Mof_C 	C 	0.5516	0.1918	0.514	-0.038
Mof_H 	H 	0.5953	0.1789	0.5327	0.063
Mof_C 	C 	0.4882	0.1829	0.5455	0.031
Mof_C 	C 	0.4243	0.2017	0.5181	-0.038
Mof_H 	H 	0.381	0.1956	0.5396	0.064
Mof_C 	C 	0.4239	0.2294	0.4594	-0.07
Mof_C 	C 	0.8621	0.2576	0.3157	0.394
Mof_O 	O 	0.6278	0.2572	0.3722	-0.457
Mof_C 	C 	0.116	0.273	0.3229	0.25
Mof_O 	O 	0.1204	0.2359	0.3743	-0.356
Mof_O 	O 	0.8624	0.2316	0.368	-0.401
Mof_O 	O 	0.3647	0.2689	0.3811	-0.367
Mof_O 	O 	0.177	0.297	0.2908	-0.336
Mof_O 	O 	0.6836	0.2022	0.4401	-0.5
Mof_O 	O 	0.2946	0.2153	0.4513	-0.433
Mof_O 	O 	0.8113	0.2811	0.2886	-0.411
Mof_C 	C 	0.3526	0.239	0.4346	0.342
Mof_C 	C 	0.5045	0.171	0.6085	-0.017
Mof_C 	C 	0.6342	0.0104	0.0109	0.012
Mof_C 	C 	0.515	0.221	0.902	0.088
Mof_C 	C 	0.5427	0.956	0.8057	0.002
Mof_C 	C 	0.5074	0.1603	0.6635	0.007
Mof_C 	C 	0.501	0.0706	0.7055	-0.007
Mof_C 	C 	0.907	0.479	0.7623	-0.003
Mof_C 	C 	0.9865	0.3505	0.1367	-0.017
Mof_O 	O 	0.579	0.1985	0.8707	-0.191
Mof_C 	C 	0.483	0.168	0.949	-0.012
Mof_C 	C 	0.9749	0.3969	0.0981	0.006
Mof_C 	C 	0.5859	0.0612	0.903	-0.023
Mof_C 	C 	0.681	0.0169	0.9634	-0.033
Mof_C 	C 	0.6572	0.0431	0.9062	0.125
Mof_O 	O 	0.7005	0.0545	0.8566	-0.199
Mof_C 	C 	0.7717	0.0284	0.8637	0.089
Mof_C 	C 	0.783	0.968	0.816	-0.003
Mof_C 	C 	0.5535	0.9585	0.0505	-0.01
Mof_C 	C 	0.0653	0.5797	0.9948	0.007
Mof_C 	C 	0.0734	0.5342	0.9454	-0.004
Mof_C 	C 	0.0578	0.4625	0.9516	0.021
Mof_C 	C 	0.0339	0.4363	0.0072	-0.015
Mof_C 	C 	0.0258	0.4818	0.0567	0.006
Mof_C 	C 	0.2257	0.3682	0.4212	0.461
Mof_C 	C 	0.1258	0.4771	0.7245	0.013
Mof_C 	C 	0.1723	0.456	0.7702	-0.023
Mof_C 	C 	0.146	0.4357	0.8269	0.117
Mof_C 	C 	0.0734	0.4365	0.8377	-0.016
Mof_C 	C 	0.0269	0.4576	0.792	0.01
Mof_C 	C 	0.4779	0.9469	0.7353	-0.002
Mof_Cu	Cu	0.22522	0.79061	0.41644	0.934
Mof_C 	C 	0.3149	0.0118	0.1973	0.024
Mof_C 	C 	0.3001	0.0736	0.2294	-0.024
Mof_H 	H 	0.3065	0.1185	0.2105	0.064
Mof_C 	C 	0.2758	0.0698	0.2892	-0.087
Mof_C 	C 	0.2664	0.0041	0.3169	0.015
Mof_H 	H 	0.2498	0.0015	0.3578	0.06
Mof_C 	C 	0.2812	0.9423	0.2848	-0.053
Mof_C 	C 	0.3054	0.9461	0.225	-0.033
Mof_H 	H 	0.3155	0.9038	0.2031	0.065
Mof_Cu	Cu	0.27693	0.29065	0.32572	0.894
Mof_C 	C 	0.2383	0.5126	0.4279	0.021
Mof_H 	H 	0.2572	0.5129	0.3878	0.055
Mof_C 	C 	0.2195	0.4488	0.4553	-0.066
Mof_C 	C 	0.1918	0.4484	0.514	-0.038
Mof_H 	H 	0.1789	0.4047	0.5327	0.063
Mof_C 	C 	0.1829	0.5118	0.5455	0.031
Mof_C 	C 	0.2017	0.5757	0.5181	-0.038
Mof_H 	H 	0.1956	0.619	0.5396	0.064
Mof_C 	C 	0.2294	0.5761	0.4594	-0.07
Mof_C 	C 	0.2576	0.1379	0.3157	0.394
Mof_O 	O 	0.2572	0.3722	0.3722	-0.457
Mof_C 	C 	0.273	0.884	0.3229	0.25
Mof_O 	O 	0.2359	0.8796	0.3743	-0.356
Mof_O 	O 	0.2316	0.1376	0.368	-0.401
Mof_O 	O 	0.2689	0.6353	0.3811	-0.367
Mof_O 	O 	0.297	0.823	0.2908	-0.336
Mof_O 	O 	0.2022	0.3164	0.4401	-0.5
Mof_O 	O 	0.2153	0.7054	0.4513	-0.433
Mof_O 	O 	0.2811	0.1887	0.2886	-0.411
Mof_C 	C 	0.239	0.6474	0.4346	0.342
Mof_C 	C 	0.171	0.4955	0.6085	-0.017
Mof_C 	C 	0.0104	0.3658	0.0109	0.012
Mof_C 	C 	0.221	0.485	0.902	0.088
Mof_C 	C 	0.956	0.4573	0.8057	0.002
Mof_C 	C 	0.1603	0.4926	0.6635	0.007
Mof_C 	C 	0.0706	0.499	0.7055	-0.007
Mof_C 	C 	0.479	0.093	0.7623	-0.003
Mof_C 	C 	0.3505	0.0135	0.1367	-0.017
Mof_O 	O 	0.1985	0.421	0.8707	-0.191
Mof_C 	C 	0.168	0.517	0.949	-0.012
Mof_C 	C 	0.3969	0.0251	0.0981	0.006
Mof_C 	C 	0.0612	0.4141	0.903	-0.023
Mof_C 	C 	0.0169	0.319	0.9634	-0.033
Mof_C 	C 	0.0431	0.3428	0.9062	0.125
Mof_O 	O 	0.0545	0.2995	0.8566	-0.199
Mof_C 	C 	0.0284	0.2283	0.8637	0.089
Mof_C 	C 	0.968	0.217	0.816	-0.003
Mof_C 	C 	0.4465	0.0415	0.0505	-0.01
Mof_C 	C 	0.9347	0.4203	0.9948	0.008
Mof_C 	C 	0.9266	0.4658	0.9454	-0.004
Mof_C 	C 	0.9422	0.5375	0.9516	0.021
Mof_C 	C 	0.9661	0.5637	0.0072	-0.016
Mof_C 	C 	0.9742	0.5182	0.0567	0.006
Mof_C 	C 	0.7743	0.6318	0.4212	0.461
Mof_C 	C 	0.8742	0.5229	0.7245	0.013
Mof_C 	C 	0.8277	0.544	0.7702	-0.023
Mof_C 	C 	0.854	0.5643	0.8269	0.117
Mof_C 	C 	0.9266	0.5635	0.8377	-0.016
Mof_C 	C 	0.9731	0.5424	0.792	0.01
Mof_C 	C 	0.5221	0.0531	0.7353	-0.001
Mof_Cu	Cu	0.77478	0.20939	0.41644	0.934
Mof_C 	C 	0.6851	0.9882	0.1973	0.024
Mof_C 	C 	0.6999	0.9264	0.2294	-0.024
Mof_H 	H 	0.6935	0.8815	0.2105	0.064
Mof_C 	C 	0.7242	0.9302	0.2892	-0.087
Mof_C 	C 	0.7336	0.9959	0.3169	0.015
Mof_H 	H 	0.7502	0.9985	0.3578	0.06
Mof_C 	C 	0.7188	0.0577	0.2848	-0.053
Mof_C 	C 	0.6946	0.0539	0.225	-0.033
Mof_H 	H 	0.6845	0.0962	0.2031	0.065
Mof_Cu	Cu	0.72307	0.70935	0.32572	0.894
Mof_C 	C 	0.7617	0.4874	0.4279	0.021
Mof_H 	H 	0.7428	0.4871	0.3878	0.055
Mof_C 	C 	0.7805	0.5512	0.4553	-0.066
Mof_C 	C 	0.8082	0.5516	0.514	-0.038
Mof_H 	H 	0.8211	0.5953	0.5327	0.063
Mof_C 	C 	0.8171	0.4882	0.5455	0.031
Mof_C 	C 	0.7983	0.4243	0.5181	-0.038
Mof_H 	H 	0.8044	0.381	0.5396	0.064
Mof_C 	C 	0.7706	0.4239	0.4594	-0.07
Mof_C 	C 	0.7424	0.8621	0.3157	0.394
Mof_O 	O 	0.7428	0.6278	0.3722	-0.457
Mof_C 	C 	0.727	0.116	0.3229	0.25
Mof_O 	O 	0.7641	0.1204	0.3743	-0.356
Mof_O 	O 	0.7684	0.8624	0.368	-0.401
Mof_O 	O 	0.7311	0.3647	0.3811	-0.367
Mof_O 	O 	0.703	0.177	0.2908	-0.336
Mof_O 	O 	0.7978	0.6836	0.4401	-0.5
Mof_O 	O 	0.7847	0.2946	0.4513	-0.433
Mof_O 	O 	0.7189	0.8113	0.2886	-0.411
Mof_C 	C 	0.761	0.3526	0.4346	0.342
Mof_C 	C 	0.829	0.5045	0.6085	-0.017
Mof_C 	C 	0.9896	0.6342	0.0109	0.012
Mof_C 	C 	0.779	0.515	0.902	0.088
Mof_C 	C 	0.044	0.5427	0.8057	0.002
Mof_C 	C 	0.8397	0.5074	0.6635	0.007
Mof_C 	C 	0.9294	0.501	0.7055	-0.006
Mof_C 	C 	0.521	0.907	0.7623	-0.003
Mof_C 	C 	0.6495	0.9865	0.1367	-0.017
Mof_O 	O 	0.8015	0.579	0.8707	-0.191
Mof_C 	C 	0.832	0.483	0.949	-0.012
Mof_C 	C 	0.6031	0.9749	0.0981	0.006
Mof_C 	C 	0.9388	0.5859	0.903	-0.023
Mof_C 	C 	0.9831	0.681	0.9634	-0.033
Mof_C 	C 	0.9569	0.6572	0.9062	0.125
Mof_O 	O 	0.9455	0.7005	0.8566	-0.199
Mof_C 	C 	0.9716	0.7717	0.8637	0.09
Mof_C 	C 	0.032	0.783	0.816	-0.003
Mof_C 	C 	0.5	0	0.6917	0.007
Mof_C 	C 	-9.95704e-33	0.5	0.6917	0.007
_end
