# CIF file generated by openbabel 3.1.0, see https://openbabel.org
data_I
_chemical_name_common 'image0'
_cell_length_a 11.738
_cell_length_b 16.5818
_cell_length_c 11.5785
_cell_angle_alpha 90
_cell_angle_beta 113.514
_cell_angle_gamma 90
_space_group_name_H-M_alt 'P 1'
_space_group_name_Hall 'P 1'
loop_
    _symmetry_equiv_pos_as_xyz
    x,y,z
loop_
    _atom_site_label
    _atom_site_type_symbol
    _atom_site_fract_x
    _atom_site_fract_y
    _atom_site_fract_z
    _atom_site_occupancy
    Nd1      Nd       0.30994    0.53407    0.42474    1.000
    S1       S        0.98050    0.30060    0.21143    1.000
    O1       O        0.46060    0.63790    0.44470    1.000
    O2       O        0.14770    0.44570    0.26470    1.000
    O3       O        0.11040    0.49160    0.42680    1.000
    C1       C        0.67780    0.83140    0.32800    1.000
    H1       H        0.74200    0.86100    0.32130    1.000
    C2       C        0.87740    0.28370    0.36830    1.000
    H2       H        0.83230    0.26220    0.41130    1.000
    C3       C        0.94340    0.35830    0.40030    1.000
    H3       H        0.94370    0.39240    0.46420    1.000
    C4       C        0.00670    0.37340    0.32440    1.000
    C5       C        0.09290    0.44200    0.33960    1.000
    C6       C        0.88850    0.24740    0.26660    1.000
    C7       C        0.55310    0.85350    0.27320    1.000
    C8       C        0.69420    0.75890    0.39460    1.000
    H4       H        0.77170    0.73550    0.43780    1.000
    C9       C        0.58690    0.72590    0.39050    1.000
    O4       O        0.81350    0.16020    0.09290    1.000
    O5       O        0.37810    0.92740    0.14770    1.000
    O6       O        0.65580    0.59970    0.48350    1.000
    O7       O        0.78760    0.12240    0.26670    1.000
    C10      C        0.56520    0.64900    0.44590    1.000
    C11      C        0.82580    0.17200    0.20560    1.000
    C12      C        0.49430    0.92290    0.19130    1.000
    S2       S        0.46058    0.78384    0.30356    1.000
    O8       O        0.56320    0.97410    0.16790    1.000
    Nd2      Nd       0.69006    0.03407    0.07526    1.000
    S3       S        0.01950    0.80060    0.28857    1.000
    O9       O        0.53940    0.13790    0.05530    1.000
    O10      O        0.85230    0.94570    0.23530    1.000
    O11      O        0.88960    0.99160    0.07320    1.000
    C13      C        0.32220    0.33140    0.17200    1.000
    H5       H        0.25800    0.36100    0.17870    1.000
    C14      C        0.12260    0.78370    0.13170    1.000
    H6       H        0.16770    0.76220    0.08870    1.000
    C15      C        0.05660    0.85830    0.09970    1.000
    H7       H        0.05630    0.89240    0.03580    1.000
    C16      C        0.99330    0.87340    0.17560    1.000
    C17      C        0.90710    0.94200    0.16040    1.000
    C18      C        0.11150    0.74740    0.23340    1.000
    C19      C        0.44690    0.35350    0.22680    1.000
    C20      C        0.30580    0.25890    0.10540    1.000
    H8       H        0.22830    0.23550    0.06220    1.000
    C21      C        0.41310    0.22590    0.10950    1.000
    O12      O        0.18650    0.66020    0.40710    1.000
    O13      O        0.62190    0.42740    0.35230    1.000
    O14      O        0.34420    0.09970    0.01650    1.000
    O15      O        0.21240    0.62240    0.23330    1.000
    C22      C        0.43480    0.14900    0.05410    1.000
    C23      C        0.17420    0.67200    0.29440    1.000
    C24      C        0.50570    0.42290    0.30870    1.000
    S4       S        0.53942    0.28384    0.19644    1.000
    O16      O        0.43680    0.47410    0.33210    1.000
    Nd3      Nd       0.69006    0.46593    0.57526    1.000
    S5       S        0.01950    0.69940    0.78857    1.000
    O17      O        0.53940    0.36210    0.55530    1.000
    O18      O        0.85230    0.55430    0.73530    1.000
    O19      O        0.88960    0.50840    0.57320    1.000
    C25      C        0.32220    0.16860    0.67200    1.000
    H9       H        0.25800    0.13900    0.67870    1.000
    C26      C        0.12260    0.71630    0.63170    1.000
    H10      H        0.16770    0.73780    0.58870    1.000
    C27      C        0.05660    0.64170    0.59970    1.000
    H11      H        0.05630    0.60760    0.53580    1.000
    C28      C        0.99330    0.62660    0.67560    1.000
    C29      C        0.90710    0.55800    0.66040    1.000
    C30      C        0.11150    0.75260    0.73340    1.000
    C31      C        0.44690    0.14650    0.72680    1.000
    C32      C        0.30580    0.24110    0.60540    1.000
    H12      H        0.22830    0.26450    0.56220    1.000
    C33      C        0.41310    0.27410    0.60950    1.000
    O20      O        0.18650    0.83980    0.90710    1.000
    O21      O        0.62190    0.07260    0.85230    1.000
    O22      O        0.34420    0.40030    0.51650    1.000
    O23      O        0.21240    0.87760    0.73330    1.000
    C34      C        0.43480    0.35100    0.55410    1.000
    C35      C        0.17420    0.82800    0.79440    1.000
    C36      C        0.50570    0.07710    0.80870    1.000
    S6       S        0.53942    0.21616    0.69644    1.000
    O24      O        0.43680    0.02590    0.83210    1.000
    Nd4      Nd       0.30994    0.96593    0.92474    1.000
    S7       S        0.98050    0.19940    0.71143    1.000
    O25      O        0.46060    0.86210    0.94470    1.000
    O26      O        0.14770    0.05430    0.76470    1.000
    O27      O        0.11040    0.00840    0.92680    1.000
    C37      C        0.67780    0.66860    0.82800    1.000
    H13      H        0.74200    0.63900    0.82130    1.000
    C38      C        0.87740    0.21630    0.86830    1.000
    H14      H        0.83230    0.23780    0.91130    1.000
    C39      C        0.94340    0.14170    0.90030    1.000
    H15      H        0.94370    0.10760    0.96420    1.000
    C40      C        0.00670    0.12660    0.82440    1.000
    C41      C        0.09290    0.05800    0.83960    1.000
    C42      C        0.88850    0.25260    0.76660    1.000
    C43      C        0.55310    0.64650    0.77320    1.000
    C44      C        0.69420    0.74110    0.89460    1.000
    H16      H        0.77170    0.76450    0.93780    1.000
    C45      C        0.58690    0.77410    0.89050    1.000
    O28      O        0.81350    0.33980    0.59290    1.000
    O29      O        0.37810    0.57260    0.64770    1.000
    O30      O        0.65580    0.90030    0.98350    1.000
    O31      O        0.78760    0.37760    0.76670    1.000
    C46      C        0.56520    0.85100    0.94590    1.000
    C47      C        0.82580    0.32800    0.70560    1.000
    C48      C        0.49430    0.57710    0.69130    1.000
    S8       S        0.46058    0.71616    0.80356    1.000
    O32      O        0.56320    0.52590    0.66790    1.000
