# CIF file generated by openbabel 3.1.0, see https://openbabel.org
data_I
_chemical_name_common 'image0'
_cell_length_a 29.162
_cell_length_b 13.4545
_cell_length_c 13.903
_cell_angle_alpha 90
_cell_angle_beta 98.219
_cell_angle_gamma 90
_space_group_name_H-M_alt 'P 1'
_space_group_name_Hall 'P 1'
loop_
    _symmetry_equiv_pos_as_xyz
    x,y,z
loop_
    _atom_site_label
    _atom_site_type_symbol
    _atom_site_fract_x
    _atom_site_fract_y
    _atom_site_fract_z
    _atom_site_occupancy
    Ho1      Ho       0.31541    0.30093    0.54077    1.000
    C1       C        0.70440    0.12180    0.24200    1.000
    C2       C        0.73240    0.05370    0.29910    1.000
    H1       H        0.76360    0.04730    0.29290    1.000
    C3       C        0.71290    0.99570    0.36530    1.000
    C4       C        0.66630    0.00630    0.37490    1.000
    H2       H        0.65340    0.96510    0.41750    1.000
    C5       C        0.63910    0.07700    0.32230    1.000
    C6       C        0.65910    0.13540    0.25400    1.000
    H3       H        0.64130    0.18310    0.21740    1.000
    C7       C        0.72500    0.17970    0.16410    1.000
    C8       C        0.74290    0.92270    0.42740    1.000
    C9       C        0.59080    0.09530    0.34160    1.000
    C10      C        0.56320    0.01750    0.36350    1.000
    H4       H        0.57460    0.95300    0.36320    1.000
    C11      C        0.51950    0.03230    0.38540    1.000
    H5       H        0.50110    0.97790    0.39560    1.000
    C12      C        0.50190    0.12940    0.39290    1.000
    C13      C        0.45920    0.15050    0.42460    1.000
    H6       H        0.44090    0.09820    0.44060    1.000
    C14      C        0.44410    0.24500    0.43230    1.000
    C15      C        0.47060    0.32450    0.40600    1.000
    H7       H        0.45970    0.38900    0.41020    1.000
    C16      C        0.51250    0.30940    0.37400    1.000
    H8       H        0.52950    0.36310    0.35610    1.000
    C17      C        0.52980    0.21080    0.36840    1.000
    C18      C        0.57370    0.19000    0.34160    1.000
    H9       H        0.59150    0.24220    0.32340    1.000
    C19      C        0.39980    0.26440    0.47380    1.000
    O1       O        0.70000    0.24780    0.12110    1.000
    O2       O        0.76520    0.15640    0.15160    1.000
    O3       O        0.78500    0.94390    0.45070    1.000
    O4       O        0.72540    0.84590    0.45460    1.000
    O5       O        0.38300    0.35130    0.46780    1.000
    O6       O        0.38060    0.19520    0.51310    1.000
    Ho2      Ho       0.81541    0.80093    0.54077    1.000
    C20      C        0.20440    0.62180    0.24200    1.000
    C21      C        0.23240    0.55370    0.29910    1.000
    H10      H        0.26360    0.54730    0.29290    1.000
    C22      C        0.21290    0.49570    0.36530    1.000
    C23      C        0.16630    0.50630    0.37490    1.000
    H11      H        0.15340    0.46510    0.41750    1.000
    C24      C        0.13910    0.57700    0.32230    1.000
    C25      C        0.15910    0.63540    0.25400    1.000
    H12      H        0.14130    0.68310    0.21740    1.000
    C26      C        0.22500    0.67970    0.16410    1.000
    C27      C        0.24290    0.42270    0.42740    1.000
    C28      C        0.09080    0.59530    0.34160    1.000
    C29      C        0.06320    0.51750    0.36350    1.000
    H13      H        0.07460    0.45300    0.36320    1.000
    C30      C        0.01950    0.53230    0.38540    1.000
    H14      H        0.00110    0.47790    0.39560    1.000
    C31      C        0.00190    0.62940    0.39290    1.000
    C32      C        0.95920    0.65050    0.42460    1.000
    H15      H        0.94090    0.59820    0.44060    1.000
    C33      C        0.94410    0.74500    0.43230    1.000
    C34      C        0.97060    0.82450    0.40600    1.000
    H16      H        0.95970    0.88900    0.41020    1.000
    C35      C        0.01250    0.80940    0.37400    1.000
    H17      H        0.02950    0.86310    0.35610    1.000
    C36      C        0.02980    0.71080    0.36840    1.000
    C37      C        0.07370    0.69000    0.34160    1.000
    H18      H        0.09150    0.74220    0.32340    1.000
    C38      C        0.89980    0.76440    0.47380    1.000
    O7       O        0.20000    0.74780    0.12110    1.000
    O8       O        0.26520    0.65640    0.15160    1.000
    O9       O        0.28500    0.44390    0.45070    1.000
    O10      O        0.22540    0.34590    0.45460    1.000
    O11      O        0.88300    0.85130    0.46780    1.000
    O12      O        0.88060    0.69520    0.51310    1.000
    Ho3      Ho       0.68459    0.30093    0.95923    1.000
    C39      C        0.29560    0.12180    0.25800    1.000
    C40      C        0.26760    0.05370    0.20090    1.000
    H19      H        0.23640    0.04730    0.20710    1.000
    C41      C        0.28710    0.99570    0.13470    1.000
    C42      C        0.33370    0.00630    0.12510    1.000
    H20      H        0.34660    0.96510    0.08250    1.000
    C43      C        0.36090    0.07700    0.17770    1.000
    C44      C        0.34090    0.13540    0.24600    1.000
    H21      H        0.35870    0.18310    0.28260    1.000
    C45      C        0.27500    0.17970    0.33590    1.000
    C46      C        0.25710    0.92270    0.07260    1.000
    C47      C        0.40920    0.09530    0.15840    1.000
    C48      C        0.43680    0.01750    0.13650    1.000
    H22      H        0.42540    0.95300    0.13680    1.000
    C49      C        0.48050    0.03230    0.11460    1.000
    H23      H        0.49890    0.97790    0.10440    1.000
    C50      C        0.49810    0.12940    0.10710    1.000
    C51      C        0.54080    0.15050    0.07540    1.000
    H24      H        0.55910    0.09820    0.05940    1.000
    C52      C        0.55590    0.24500    0.06770    1.000
    C53      C        0.52940    0.32450    0.09400    1.000
    H25      H        0.54030    0.38900    0.08980    1.000
    C54      C        0.48750    0.30940    0.12600    1.000
    H26      H        0.47050    0.36310    0.14390    1.000
    C55      C        0.47020    0.21080    0.13160    1.000
    C56      C        0.42630    0.19000    0.15840    1.000
    H27      H        0.40850    0.24220    0.17660    1.000
    C57      C        0.60020    0.26440    0.02620    1.000
    O13      O        0.30000    0.24780    0.37890    1.000
    O14      O        0.23480    0.15640    0.34840    1.000
    O15      O        0.21500    0.94390    0.04930    1.000
    O16      O        0.27460    0.84590    0.04540    1.000
    O17      O        0.61700    0.35130    0.03220    1.000
    O18      O        0.61940    0.19520    0.98690    1.000
    Ho4      Ho       0.18459    0.80093    0.95923    1.000
    C58      C        0.79560    0.62180    0.25800    1.000
    C59      C        0.76760    0.55370    0.20090    1.000
    H28      H        0.73640    0.54730    0.20710    1.000
    C60      C        0.78710    0.49570    0.13470    1.000
    C61      C        0.83370    0.50630    0.12510    1.000
    H29      H        0.84660    0.46510    0.08250    1.000
    C62      C        0.86090    0.57700    0.17770    1.000
    C63      C        0.84090    0.63540    0.24600    1.000
    H30      H        0.85870    0.68310    0.28260    1.000
    C64      C        0.77500    0.67970    0.33590    1.000
    C65      C        0.75710    0.42270    0.07260    1.000
    C66      C        0.90920    0.59530    0.15840    1.000
    C67      C        0.93680    0.51750    0.13650    1.000
    H31      H        0.92540    0.45300    0.13680    1.000
    C68      C        0.98050    0.53230    0.11460    1.000
    H32      H        0.99890    0.47790    0.10440    1.000
    C69      C        0.99810    0.62940    0.10710    1.000
    C70      C        0.04080    0.65050    0.07540    1.000
    H33      H        0.05910    0.59820    0.05940    1.000
    C71      C        0.05590    0.74500    0.06770    1.000
    C72      C        0.02940    0.82450    0.09400    1.000
    H34      H        0.04030    0.88900    0.08980    1.000
    C73      C        0.98750    0.80940    0.12600    1.000
    H35      H        0.97050    0.86310    0.14390    1.000
    C74      C        0.97020    0.71080    0.13160    1.000
    C75      C        0.92630    0.69000    0.15840    1.000
    H36      H        0.90850    0.74220    0.17660    1.000
    C76      C        0.10020    0.76440    0.02620    1.000
    O19      O        0.80000    0.74780    0.37890    1.000
    O20      O        0.73480    0.65640    0.34840    1.000
    O21      O        0.71500    0.44390    0.04930    1.000
    O22      O        0.77460    0.34590    0.04540    1.000
    O23      O        0.11700    0.85130    0.03220    1.000
    O24      O        0.11940    0.69520    0.98690    1.000
    Ho5      Ho       0.68459    0.69907    0.45923    1.000
    C77      C        0.29560    0.87820    0.75800    1.000
    C78      C        0.26760    0.94630    0.70090    1.000
    H37      H        0.23640    0.95270    0.70710    1.000
    C79      C        0.28710    0.00430    0.63470    1.000
    C80      C        0.33370    0.99370    0.62510    1.000
    H38      H        0.34660    0.03490    0.58250    1.000
    C81      C        0.36090    0.92300    0.67770    1.000
    C82      C        0.34090    0.86460    0.74600    1.000
    H39      H        0.35870    0.81690    0.78260    1.000
    C83      C        0.27500    0.82030    0.83590    1.000
    C84      C        0.25710    0.07730    0.57260    1.000
    C85      C        0.40920    0.90470    0.65840    1.000
    C86      C        0.43680    0.98250    0.63650    1.000
    H40      H        0.42540    0.04700    0.63680    1.000
    C87      C        0.48050    0.96770    0.61460    1.000
    H41      H        0.49890    0.02210    0.60440    1.000
    C88      C        0.49810    0.87060    0.60710    1.000
    C89      C        0.54080    0.84950    0.57540    1.000
    H42      H        0.55910    0.90180    0.55940    1.000
    C90      C        0.55590    0.75500    0.56770    1.000
    C91      C        0.52940    0.67550    0.59400    1.000
    H43      H        0.54030    0.61100    0.58980    1.000
    C92      C        0.48750    0.69060    0.62600    1.000
    H44      H        0.47050    0.63690    0.64390    1.000
    C93      C        0.47020    0.78920    0.63160    1.000
    C94      C        0.42630    0.81000    0.65840    1.000
    H45      H        0.40850    0.75780    0.67660    1.000
    C95      C        0.60020    0.73560    0.52620    1.000
    O25      O        0.30000    0.75220    0.87890    1.000
    O26      O        0.23480    0.84360    0.84840    1.000
    O27      O        0.21500    0.05610    0.54930    1.000
    O28      O        0.27460    0.15410    0.54540    1.000
    O29      O        0.61700    0.64870    0.53220    1.000
    O30      O        0.61940    0.80480    0.48690    1.000
    Ho6      Ho       0.18459    0.19907    0.45923    1.000
    C96      C        0.79560    0.37820    0.75800    1.000
    C97      C        0.76760    0.44630    0.70090    1.000
    H46      H        0.73640    0.45270    0.70710    1.000
    C98      C        0.78710    0.50430    0.63470    1.000
    C99      C        0.83370    0.49370    0.62510    1.000
    H47      H        0.84660    0.53490    0.58250    1.000
    C100     C        0.86090    0.42300    0.67770    1.000
    C101     C        0.84090    0.36460    0.74600    1.000
    H48      H        0.85870    0.31690    0.78260    1.000
    C102     C        0.77500    0.32030    0.83590    1.000
    C103     C        0.75710    0.57730    0.57260    1.000
    C104     C        0.90920    0.40470    0.65840    1.000
    C105     C        0.93680    0.48250    0.63650    1.000
    H49      H        0.92540    0.54700    0.63680    1.000
    C106     C        0.98050    0.46770    0.61460    1.000
    H50      H        0.99890    0.52210    0.60440    1.000
    C107     C        0.99810    0.37060    0.60710    1.000
    C108     C        0.04080    0.34950    0.57540    1.000
    H51      H        0.05910    0.40180    0.55940    1.000
    C109     C        0.05590    0.25500    0.56770    1.000
    C110     C        0.02940    0.17550    0.59400    1.000
    H52      H        0.04030    0.11100    0.58980    1.000
    C111     C        0.98750    0.19060    0.62600    1.000
    H53      H        0.97050    0.13690    0.64390    1.000
    C112     C        0.97020    0.28920    0.63160    1.000
    C113     C        0.92630    0.31000    0.65840    1.000
    H54      H        0.90850    0.25780    0.67660    1.000
    C114     C        0.10020    0.23560    0.52620    1.000
    O31      O        0.80000    0.25220    0.87890    1.000
    O32      O        0.73480    0.34360    0.84840    1.000
    O33      O        0.71500    0.55610    0.54930    1.000
    O34      O        0.77460    0.65410    0.54540    1.000
    O35      O        0.11700    0.14870    0.53220    1.000
    O36      O        0.11940    0.30480    0.48690    1.000
    Ho7      Ho       0.31541    0.69907    0.04077    1.000
    C115     C        0.70440    0.87820    0.74200    1.000
    C116     C        0.73240    0.94630    0.79910    1.000
    H55      H        0.76360    0.95270    0.79290    1.000
    C117     C        0.71290    0.00430    0.86530    1.000
    C118     C        0.66630    0.99370    0.87490    1.000
    H56      H        0.65340    0.03490    0.91750    1.000
    C119     C        0.63910    0.92300    0.82230    1.000
    C120     C        0.65910    0.86460    0.75400    1.000
    H57      H        0.64130    0.81690    0.71740    1.000
    C121     C        0.72500    0.82030    0.66410    1.000
    C122     C        0.74290    0.07730    0.92740    1.000
    C123     C        0.59080    0.90470    0.84160    1.000
    C124     C        0.56320    0.98250    0.86350    1.000
    H58      H        0.57460    0.04700    0.86320    1.000
    C125     C        0.51950    0.96770    0.88540    1.000
    H59      H        0.50110    0.02210    0.89560    1.000
    C126     C        0.50190    0.87060    0.89290    1.000
    C127     C        0.45920    0.84950    0.92460    1.000
    H60      H        0.44090    0.90180    0.94060    1.000
    C128     C        0.44410    0.75500    0.93230    1.000
    C129     C        0.47060    0.67550    0.90600    1.000
    H61      H        0.45970    0.61100    0.91020    1.000
    C130     C        0.51250    0.69060    0.87400    1.000
    H62      H        0.52950    0.63690    0.85610    1.000
    C131     C        0.52980    0.78920    0.86840    1.000
    C132     C        0.57370    0.81000    0.84160    1.000
    H63      H        0.59150    0.75780    0.82340    1.000
    C133     C        0.39980    0.73560    0.97380    1.000
    O37      O        0.70000    0.75220    0.62110    1.000
    O38      O        0.76520    0.84360    0.65160    1.000
    O39      O        0.78500    0.05610    0.95070    1.000
    O40      O        0.72540    0.15410    0.95460    1.000
    O41      O        0.38300    0.64870    0.96780    1.000
    O42      O        0.38060    0.80480    0.01310    1.000
    Ho8      Ho       0.81541    0.19907    0.04077    1.000
    C134     C        0.20440    0.37820    0.74200    1.000
    C135     C        0.23240    0.44630    0.79910    1.000
    H64      H        0.26360    0.45270    0.79290    1.000
    C136     C        0.21290    0.50430    0.86530    1.000
    C137     C        0.16630    0.49370    0.87490    1.000
    H65      H        0.15340    0.53490    0.91750    1.000
    C138     C        0.13910    0.42300    0.82230    1.000
    C139     C        0.15910    0.36460    0.75400    1.000
    H66      H        0.14130    0.31690    0.71740    1.000
    C140     C        0.22500    0.32030    0.66410    1.000
    C141     C        0.24290    0.57730    0.92740    1.000
    C142     C        0.09080    0.40470    0.84160    1.000
    C143     C        0.06320    0.48250    0.86350    1.000
    H67      H        0.07460    0.54700    0.86320    1.000
    C144     C        0.01950    0.46770    0.88540    1.000
    H68      H        0.00110    0.52210    0.89560    1.000
    C145     C        0.00190    0.37060    0.89290    1.000
    C146     C        0.95920    0.34950    0.92460    1.000
    H69      H        0.94090    0.40180    0.94060    1.000
    C147     C        0.94410    0.25500    0.93230    1.000
    C148     C        0.97060    0.17550    0.90600    1.000
    H70      H        0.95970    0.11100    0.91020    1.000
    C149     C        0.01250    0.19060    0.87400    1.000
    H71      H        0.02950    0.13690    0.85610    1.000
    C150     C        0.02980    0.28920    0.86840    1.000
    C151     C        0.07370    0.31000    0.84160    1.000
    H72      H        0.09150    0.25780    0.82340    1.000
    C152     C        0.89980    0.23560    0.97380    1.000
    O43      O        0.20000    0.25220    0.62110    1.000
    O44      O        0.26520    0.34360    0.65160    1.000
    O45      O        0.28500    0.55610    0.95070    1.000
    O46      O        0.22540    0.65410    0.95460    1.000
    O47      O        0.88300    0.14870    0.96780    1.000
    O48      O        0.88060    0.30480    0.01310    1.000
