data_functionalizedCrystal
_audit_creation_method	'EQeq! by Chris Wilmer'
_symmetry_space_group_name_H-M	'P1'
_symmetry_Int_Tables_number	1
_symmetry_cell_setting	triclinic
loop_
_symmetry_equiv_pos_as_xyz
  x,y,z
_cell_length_a	4.995
_cell_length_b	16.8757
_cell_length_c	16.8757
_cell_angle_alpha	88.745
_cell_angle_beta	81.4893
_cell_angle_gamma	81.4893
loop_
_atom_site_label
_atom_site_type_symbol
_atom_site_fract_x
_atom_site_fract_y
_atom_site_fract_z
_atom_site_charge
Mof_Cu	Cu	0.5	0	-0	0.858
Mof_Cu	Cu	5.83377e-17	0.5	0.5	0.911
Mof_Cu	Cu	0.5	0	0.5	0.891
Mof_Cu	Cu	0.5	0.5	-0	0.892
Mof_H 	H 	0.8757	0.274	0.104	0.143
Mof_H 	H 	0.0738	0.2874	0.0252	0.101
Mof_H 	H 	0.5268	0.1652	0.0838	0.056
Mof_H 	H 	0.7537	0.226	0.396	0.176
Mof_H 	H 	0.8864	0.2126	0.4748	0.183
Mof_H 	H 	0.2758	0.3348	0.4162	0.03
Mof_H 	H 	0.9797	0.896	0.774	0.17
Mof_H 	H 	0.099	0.9748	0.7874	0.169
Mof_H 	H 	0.6106	0.9162	0.6652	0.011
Mof_H 	H 	0.1497	0.604	0.726	0.154
Mof_H 	H 	0.3612	0.5252	0.7126	0.166
Mof_H 	H 	0.692	0.5838	0.8348	0.028
Mof_H 	H 	0.1243	0.726	0.896	0.189
Mof_H 	H 	0.9262	0.7126	0.9748	0.241
Mof_H 	H 	0.4732	0.8348	0.9162	0.02
Mof_H 	H 	0.2463	0.774	0.604	0.157
Mof_H 	H 	0.1136	0.7874	0.5252	0.159
Mof_H 	H 	0.7242	0.6652	0.5838	0.042
Mof_H 	H 	0.0203	0.104	0.226	0.16
Mof_H 	H 	0.901	0.0252	0.2126	0.165
Mof_H 	H 	0.3894	0.0838	0.3348	0.061
Mof_H 	H 	0.8503	0.396	0.274	0.179
Mof_H 	H 	0.6388	0.4748	0.2874	0.177
Mof_H 	H 	0.308	0.4162	0.1652	0.043
Mof_C 	C 	0.8911	0.2766	0.046	-0.193
Mof_C 	C 	0.6825	0.345	0.0226	0.281
Mof_C 	C 	0.6647	0.1546	0.0404	0.02
Mof_C 	C 	0.7137	0.2234	0.454	-0.31
Mof_C 	C 	0.5501	0.155	0.4774	0.42
Mof_C 	C 	0.3597	0.3454	0.4596	0.104
Mof_C 	C 	0.9371	0.954	0.7766	-0.276
Mof_C 	C 	0.7051	0.9774	0.845	0.497
Mof_C 	C 	0.7051	0.9596	0.6546	0.199
Mof_C 	C 	0.1677	0.546	0.7234	-0.275
Mof_C 	C 	0.0275	0.5226	0.655	0.362
Mof_C 	C 	0.8193	0.5404	0.8454	0.146
Mof_C 	C 	0.1089	0.7234	0.954	-0.399
Mof_C 	C 	0.3175	0.655	0.9774	0.535
Mof_C 	C 	0.3353	0.8454	0.9596	0.183
Mof_C 	C 	0.2863	0.7766	0.546	-0.284
Mof_C 	C 	0.4499	0.845	0.5226	0.4
Mof_C 	C 	0.6403	0.6546	0.5404	0.11
Mof_C 	C 	0.0629	0.046	0.2234	-0.303
Mof_C 	C 	0.2949	0.0226	0.155	0.308
Mof_C 	C 	0.2949	0.0404	0.3454	0.013
Mof_C 	C 	0.8323	0.454	0.2766	-0.317
Mof_C 	C 	0.9725	0.4774	0.345	0.454
Mof_C 	C 	0.1807	0.4596	0.1546	0.072
Mof_N 	N 	0.7032	0.0922	0.9934	-0.115
Mof_N 	N 	0.9256	0.0988	0.9396	-0.027
Mof_N 	N 	0.0174	0.1662	0.9548	-0.013
Mof_N 	N 	0.8534	0.2001	0.0159	-0.061
Mof_N 	N 	0.2888	0.4078	0.5066	-0.177
Mof_N 	N 	0.464	0.4012	0.5604	-0.041
Mof_N 	N 	0.6384	0.3338	0.5452	-0.027
Mof_N 	N 	0.5694	0.2999	0.4841	-0.035
Mof_N 	N 	0.6966	0.0066	0.5922	-0.226
Mof_N 	N 	0.8652	0.0604	0.5988	-0.044
Mof_N 	N 	0.9722	0.0452	0.6662	-0.058
Mof_N 	N 	0.8693	0.9841	0.7001	-0.017
Mof_N 	N 	0.7954	0.4934	0.9078	-0.149
Mof_N 	N 	0.0244	0.4396	0.9012	-0.04
Mof_N 	N 	0.1836	0.4548	0.8338	-0.029
Mof_N 	N 	0.0535	0.5159	0.7999	-0.059
Mof_N 	N 	0.2968	0.9078	0.0066	-0.204
Mof_N 	N 	0.0744	0.9012	0.0604	-0.046
Mof_N 	N 	0.9826	0.8338	0.0452	-0.044
Mof_N 	N 	0.1466	0.7999	0.9841	-0.014
Mof_N 	N 	0.7112	0.5922	0.4934	-0.165
Mof_N 	N 	0.536	0.5988	0.4396	-0.04
Mof_N 	N 	0.3616	0.6662	0.4548	-0.033
Mof_N 	N 	0.4306	0.7001	0.5159	-0.04
Mof_N 	N 	0.3034	0.9934	0.4078	-0.109
Mof_N 	N 	0.1348	0.9396	0.4012	-0.036
Mof_N 	N 	0.0278	0.9548	0.3338	0.001
Mof_N 	N 	0.1307	0.0159	0.2999	-0.06
Mof_N 	N 	0.2046	0.5066	0.0922	-0.187
Mof_N 	N 	0.9756	0.5604	0.0988	-0.04
Mof_N 	N 	0.8164	0.5452	0.1662	-0.031
Mof_N 	N 	0.9465	0.4841	0.2001	-0.017
Mof_O 	O 	0.5189	0.3325	0.9785	-0.176
Mof_O 	O 	0.7014	0.4116	0.0512	-0.373
Mof_O 	O 	0.3299	0.1675	0.5215	-0.302
Mof_O 	O 	0.6642	0.0884	0.4488	-0.411
Mof_O 	O 	0.4974	0.0215	0.8325	-0.364
Mof_O 	O 	0.7526	0.9488	0.9116	-0.358
Mof_O 	O 	0.8514	0.4785	0.6675	-0.246
Mof_O 	O 	0.113	0.5512	0.5884	-0.394
Mof_O 	O 	0.4811	0.6675	0.0215	-0.381
Mof_O 	O 	0.2986	0.5884	0.9488	-0.409
Mof_O 	O 	0.6701	0.8325	0.4785	-0.262
Mof_O 	O 	0.3358	0.9116	0.5512	-0.374
Mof_O 	O 	0.5026	0.9785	0.1675	-0.184
Mof_O 	O 	0.2474	0.0512	0.0884	-0.411
Mof_O 	O 	0.1486	0.5215	0.3325	-0.316
Mof_O 	O 	0.887	0.4488	0.4116	-0.396
Mof_Cl	Cl	0.375	0.25	0.25	-0.222
Mof_O 	O 	0.246	0.2632	0.1832	-0.047
Mof_O 	O 	0.1924	0.2368	0.3168	-0.049
Mof_O 	O 	0.5708	0.1832	0.2368	-0.035
Mof_O 	O 	0.4908	0.3168	0.2632	-0.037
Mof_Cl	Cl	0.625	0.75	0.75	-0.23
Mof_O 	O 	0.4292	0.8168	0.7632	-0.038
Mof_O 	O 	0.5092	0.6832	0.7368	-0.035
Mof_O 	O 	0.754	0.7368	0.8168	-0.024
Mof_O 	O 	0.8076	0.7632	0.6832	-0.022
_end
