# CIF file generated by openbabel 3.1.0, see https://openbabel.org
data_I
_chemical_name_common 'POKSEP_clean'
_cell_length_a 6.0853
_cell_length_b 12.404
_cell_length_c 23.497
_cell_angle_alpha 90
_cell_angle_beta 90
_cell_angle_gamma 94.5152
_space_group_name_H-M_alt 'P 1'
_space_group_name_Hall 'P 1'
loop_
    _symmetry_equiv_pos_as_xyz
    x,y,z
loop_
    _atom_site_label
    _atom_site_type_symbol
    _atom_site_fract_x
    _atom_site_fract_y
    _atom_site_fract_z
    _atom_site_occupancy
    Y1       Y        0.00876    0.60925    0.66879    1.000
    Y2       Y        0.49124    0.89075    0.16879    1.000
    Y3       Y        0.99124    0.39075    0.33121    1.000
    Y4       Y        0.50876    0.10925    0.83121    1.000
    Cu1      Cu       0.50000    0.00000    0.50000    1.000
    Cu2      Cu       0.00000    0.50000    0.00000    1.000
    H1       H        0.44340    0.62690    0.82910    1.000
    H2       H        0.52780    0.77640    0.66300    1.000
    H3       H        0.82540    0.35620    0.10340    1.000
    H4       H        0.47220    0.22360    0.33700    1.000
    H5       H        0.55660    0.37310    0.17090    1.000
    H6       H        0.94340    0.12690    0.67090    1.000
    H7       H        0.39100    0.92270    0.70650    1.000
    H8       H        0.89100    0.42270    0.79350    1.000
    H9       H        0.67460    0.14380    0.60340    1.000
    H10      H        0.60900    0.07730    0.29350    1.000
    H11      H        0.32540    0.85620    0.39660    1.000
    H12      H        0.02780    0.27640    0.83700    1.000
    H13      H        0.17460    0.64380    0.89660    1.000
    H14      H        0.97220    0.72360    0.16300    1.000
    H15      H        0.05660    0.87310    0.32910    1.000
    H16      H        0.10900    0.57730    0.20650    1.000
    C1       C        0.07270    0.92360    0.35840    1.000
    C2       C        0.03250    0.92480    0.59690    1.000
    C3       C        0.36570    0.43420    0.94340    1.000
    C4       C        0.26370    0.58640    0.89880    1.000
    C5       C        0.30710    0.66100    0.09440    1.000
    C6       C        0.15840    0.07260    0.22980    1.000
    C7       C        0.53250    0.42480    0.90310    1.000
    C8       C        0.69290    0.33900    0.90560    1.000
    C9       C        0.39460    0.18970    0.30700    1.000
    C10      C        0.90550    0.82750    0.75190    1.000
    C11      C        0.63430    0.56580    0.05660    1.000
    C12      C        0.31590    0.35760    0.99240    1.000
    C13      C        0.97190    0.59830    0.21760    1.000
    C14      C        0.76370    0.08640    0.60120    1.000
    C15      C        0.89460    0.68970    0.19300    1.000
    C16      C        0.23630    0.91360    0.39880    1.000
    C17      C        0.42730    0.57640    0.85840    1.000
    C18      C        0.19290    0.83900    0.59440    1.000
    C19      C        0.59450    0.67250    0.25190    1.000
    C20      C        0.90950    0.23180    0.22130    1.000
    C21      C        0.13430    0.06580    0.44340    1.000
    C22      C        0.47190    0.09830    0.28240    1.000
    C23      C        0.40950    0.73180    0.27870    1.000
    C24      C        0.51810    0.48970    0.30400    1.000
    C25      C        0.48190    0.51030    0.69600    1.000
    C26      C        0.84160    0.92740    0.77020    1.000
    C27      C        0.18410    0.14240    0.49240    1.000
    C28      C        0.59050    0.26820    0.72130    1.000
    C29      C        0.52810    0.90170    0.71760    1.000
    C30      C        0.46750    0.57520    0.09690    1.000
    C31      C        0.02810    0.40170    0.78240    1.000
    C32      C        0.60540    0.81030    0.69300    1.000
    C33      C        0.92730    0.07640    0.64160    1.000
    C34      C        0.34160    0.42740    0.72980    1.000
    C35      C        0.09450    0.17250    0.24810    1.000
    C36      C        0.86570    0.93420    0.55660    1.000
    C37      C        0.09050    0.76820    0.77870    1.000
    C38      C        0.65840    0.57260    0.27020    1.000
    C39      C        0.98190    0.01030    0.80400    1.000
    C40      C        0.80710    0.16100    0.40560    1.000
    C41      C        0.68410    0.64240    0.00760    1.000
    C42      C        0.73630    0.41360    0.10120    1.000
    C43      C        0.96750    0.07520    0.40310    1.000
    C44      C        0.57270    0.42360    0.14160    1.000
    C45      C        0.01810    0.98970    0.19600    1.000
    C46      C        0.10540    0.31030    0.80700    1.000
    C47      C        0.40550    0.32750    0.74810    1.000
    C48      C        0.81590    0.85760    0.50760    1.000
    N1       N        0.21030    0.22960    0.28830    1.000
    N2       N        0.28970    0.27040    0.78830    1.000
    N3       N        0.26650    0.98420    0.44020    1.000
    N4       N        0.71030    0.72960    0.21170    1.000
    N5       N        0.93720    0.00380    0.36010    1.000
    N6       N        0.35800    0.04010    0.24410    1.000
    N7       N        0.85800    0.54010    0.25590    1.000
    N8       N        0.23350    0.51580    0.94020    1.000
    N9       N        0.76650    0.48420    0.05980    1.000
    N10      N        0.64200    0.95990    0.75590    1.000
    N11      N        0.56280    0.49620    0.86010    1.000
    N12      N        0.14200    0.45990    0.74410    1.000
    N13      N        0.73350    0.01580    0.55980    1.000
    N14      N        0.43720    0.50380    0.13990    1.000
    N15      N        0.06280    0.99620    0.63990    1.000
    N16      N        0.78970    0.77040    0.71170    1.000
    O1       O        0.65510    0.19130    0.75040    1.000
    O2       O        0.65310    0.29480    0.67307    1.000
    O3       O        0.84430    0.24010    0.37250    1.000
    O4       O        0.85520    0.35430    0.93720    1.000
    O5       O        0.09090    0.22710    0.49516    1.000
    O6       O        0.15510    0.69130    0.74960    1.000
    O7       O        0.15310    0.79480    0.82693    1.000
    O8       O        0.90910    0.77290    0.50484    1.000
    O9       O        0.59090    0.72710    0.00484    1.000
    O10      O        0.67580    0.88610    0.47186    1.000
    O11      O        0.34490    0.80870    0.24960    1.000
    O12      O        0.68390    0.52160    0.70588    1.000
    O13      O        0.81610    0.97840    0.20588    1.000
    O14      O        0.32420    0.11390    0.52814    1.000
    O15      O        0.34690    0.70520    0.32693    1.000
    O16      O        0.84690    0.20520    0.17307    1.000
    O17      O        0.84490    0.30870    0.25040    1.000
    O18      O        0.65570    0.25990    0.87250    1.000
    O19      O        0.40910    0.27290    0.99516    1.000
    O20      O        0.18390    0.02160    0.79412    1.000
    O21      O        0.37940    0.56780    0.66249    1.000
    O22      O        0.64480    0.14570    0.43720    1.000
    O23      O        0.31610    0.47840    0.29412    1.000
    O24      O        0.87940    0.06780    0.83751    1.000
    O25      O        0.14480    0.64570    0.06280    1.000
    O26      O        0.35520    0.85430    0.56280    1.000
    O27      O        0.17580    0.38610    0.02814    1.000
    O28      O        0.82420    0.61390    0.97186    1.000
    O29      O        0.34430    0.74010    0.12750    1.000
    O30      O        0.15570    0.75990    0.62750    1.000
    O31      O        0.12060    0.93220    0.16249    1.000
    O32      O        0.62060    0.43220    0.33751    1.000
