data_functionalizedCrystal
_audit_creation_method	'EQeq! by Chris Wilmer'
_symmetry_space_group_name_H-M	'P1'
_symmetry_Int_Tables_number	1
_symmetry_cell_setting	triclinic
loop_
_symmetry_equiv_pos_as_xyz
  x,y,z
_cell_length_a	13.5792
_cell_length_b	10.3511
_cell_length_c	17.4655
_cell_angle_alpha	90
_cell_angle_beta	90
_cell_angle_gamma	90
loop_
_atom_site_label
_atom_site_type_symbol
_atom_site_fract_x
_atom_site_fract_y
_atom_site_fract_z
_atom_site_charge
Mof_Al	Al	0.56095	0.1255	0.6069	7.936
Mof_Al	Al	0.48405	0.1733	0.80027	7.427
Mof_Al	Al	0.23853	0.3671	0.69486	7.752
Mof_P 	P 	0.56698	0.13296	0.4229	1.942
Mof_P 	P 	0.46668	0.37322	0.66933	1.771
Mof_P 	P 	0.753	0.12637	0.70648	1.895
Mof_O 	O 	0.6588	0.0888	0.3777	-2.376
Mof_O 	O 	0.5312	0.2602	0.3888	-2.022
Mof_O 	O 	0.5971	0.1532	0.5061	-1.922
Mof_O 	O 	0.487	0.03	0.4171	-2.181
Mof_O 	O 	0.5191	0.2898	0.6091	-2.071
Mof_O 	O 	0.4944	0.3343	0.7511	-1.996
Mof_O 	O 	0.356	0.3556	0.6561	-2.352
Mof_O 	O 	0.4956	0.5129	0.655	-1.795
Mof_O 	O 	0.8531	0.1796	0.6851	-2.098
Mof_O 	O 	0.7622	0.987	0.7355	-2.37
Mof_O 	O 	0.6888	0.1235	0.6346	-2.091
Mof_O 	O 	0.7061	0.2137	0.7686	-2.483
Mof_O 	O 	0.5098	0.0984	0.7066	-2.937
Mof_Al	Al	0.93905	0.8745	0.1069	7.998
Mof_Al	Al	0.01595	0.8267	0.30027	7.259
Mof_Al	Al	0.26147	0.6329	0.19486	7.736
Mof_P 	P 	0.93302	0.86704	0.9229	1.974
Mof_P 	P 	0.03332	0.62678	0.16933	1.755
Mof_P 	P 	0.747	0.87363	0.20648	1.924
Mof_O 	O 	0.8412	0.9112	0.8777	-2.375
Mof_O 	O 	0.9688	0.7398	0.8888	-2.008
Mof_O 	O 	0.9029	0.8468	0.0061	-1.94
Mof_O 	O 	0.013	0.97	0.9171	-2.22
Mof_O 	O 	0.9809	0.7102	0.1091	-2.077
Mof_O 	O 	0.0056	0.6657	0.2511	-1.971
Mof_O 	O 	0.144	0.6444	0.1561	-2.351
Mof_O 	O 	0.0044	0.4871	0.155	-1.781
Mof_O 	O 	0.6469	0.8204	0.1851	-2.127
Mof_O 	O 	0.7378	0.013	0.2355	-2.388
Mof_O 	O 	0.8112	0.8765	0.1346	-2.1
Mof_O 	O 	0.7939	0.7863	0.2686	-2.48
Mof_O 	O 	0.9902	0.9016	0.2066	-2.902
Mof_Al	Al	0.43905	0.6255	0.8931	7.951
Mof_Al	Al	0.51595	0.6733	0.69973	7.427
Mof_Al	Al	0.76147	0.8671	0.80514	7.758
Mof_P 	P 	0.43302	0.63296	0.0771	1.94
Mof_P 	P 	0.53332	0.87322	0.83067	1.777
Mof_P 	P 	0.247	0.62637	0.79352	1.915
Mof_O 	O 	0.3412	0.5888	0.1223	-2.375
Mof_O 	O 	0.4688	0.7602	0.1112	-2.026
Mof_O 	O 	0.4029	0.6532	0.9939	-1.924
Mof_O 	O 	0.513	0.53	0.0829	-2.187
Mof_O 	O 	0.4809	0.7898	0.8909	-2.075
Mof_O 	O 	0.5056	0.8343	0.7489	-1.996
Mof_O 	O 	0.644	0.8556	0.8439	-2.353
Mof_O 	O 	0.5044	0.0129	0.845	-1.806
Mof_O 	O 	0.1469	0.6796	0.8149	-2.116
Mof_O 	O 	0.2378	0.487	0.7645	-2.385
Mof_O 	O 	0.3112	0.6235	0.8654	-2.093
Mof_O 	O 	0.2939	0.7137	0.7314	-2.482
Mof_O 	O 	0.4902	0.5984	0.7934	-2.937
Mof_Al	Al	0.06095	0.3745	0.3931	7.938
Mof_Al	Al	0.98405	0.3267	0.19973	7.367
Mof_Al	Al	0.73853	0.1329	0.30514	7.734
Mof_P 	P 	0.06698	0.36704	0.5771	1.937
Mof_P 	P 	0.96668	0.12678	0.33067	1.729
Mof_P 	P 	0.253	0.37363	0.29352	1.918
Mof_O 	O 	0.1588	0.4112	0.6223	-2.375
Mof_O 	O 	0.0312	0.2398	0.6112	-1.982
Mof_O 	O 	0.0971	0.3468	0.4939	-1.919
Mof_O 	O 	0.987	0.47	0.5829	-2.184
Mof_O 	O 	0.0191	0.2102	0.3909	-2.053
Mof_O 	O 	0.9944	0.1657	0.2489	-1.99
Mof_O 	O 	0.856	0.1444	0.3439	-2.348
Mof_O 	O 	0.9956	0.9871	0.345	-1.741
Mof_O 	O 	0.3531	0.3204	0.3149	-2.125
Mof_O 	O 	0.2622	0.513	0.2645	-2.382
Mof_O 	O 	0.1888	0.3765	0.3654	-2.088
Mof_O 	O 	0.2061	0.2863	0.2314	-2.483
Mof_O 	O 	0.0098	0.4016	0.2934	-2.918
Mof_Al	Al	0.43905	0.8745	0.3931	7.935
Mof_Al	Al	0.51595	0.8267	0.19973	7.426
Mof_Al	Al	0.76147	0.6329	0.30514	7.751
Mof_P 	P 	0.43302	0.86704	0.5771	1.941
Mof_P 	P 	0.53332	0.62678	0.33067	1.77
Mof_P 	P 	0.247	0.87363	0.29352	1.894
Mof_O 	O 	0.3412	0.9112	0.6223	-2.376
Mof_O 	O 	0.4688	0.7398	0.6112	-2.022
Mof_O 	O 	0.4029	0.8468	0.4939	-1.922
Mof_O 	O 	0.513	0.97	0.5829	-2.181
Mof_O 	O 	0.4809	0.7102	0.3909	-2.071
Mof_O 	O 	0.5056	0.6657	0.2489	-1.996
Mof_O 	O 	0.644	0.6444	0.3439	-2.352
Mof_O 	O 	0.5044	0.4871	0.345	-1.795
Mof_O 	O 	0.1469	0.8204	0.3149	-2.098
Mof_O 	O 	0.2378	0.013	0.2645	-2.37
Mof_O 	O 	0.3112	0.8765	0.3654	-2.091
Mof_O 	O 	0.2939	0.7863	0.2314	-2.483
Mof_O 	O 	0.4902	0.9016	0.2934	-2.937
Mof_Al	Al	0.06095	0.1255	0.8931	7.998
Mof_Al	Al	0.98405	0.1733	0.69973	7.259
Mof_Al	Al	0.73853	0.3671	0.80514	7.736
Mof_P 	P 	0.06698	0.13296	0.0771	1.974
Mof_P 	P 	0.96668	0.37322	0.83067	1.755
Mof_P 	P 	0.253	0.12637	0.79352	1.924
Mof_O 	O 	0.1588	0.0888	0.1223	-2.375
Mof_O 	O 	0.0312	0.2602	0.1112	-2.008
Mof_O 	O 	0.0971	0.1532	0.9939	-1.94
Mof_O 	O 	0.987	0.03	0.0829	-2.22
Mof_O 	O 	0.0191	0.2898	0.8909	-2.077
Mof_O 	O 	0.9944	0.3343	0.7489	-1.971
Mof_O 	O 	0.856	0.3556	0.8439	-2.351
Mof_O 	O 	0.9956	0.5129	0.845	-1.781
Mof_O 	O 	0.3531	0.1796	0.8149	-2.127
Mof_O 	O 	0.2622	0.987	0.7645	-2.388
Mof_O 	O 	0.1888	0.1235	0.8654	-2.1
Mof_O 	O 	0.2061	0.2137	0.7314	-2.48
Mof_O 	O 	0.0098	0.0984	0.7934	-2.902
Mof_Al	Al	0.56095	0.3745	0.1069	7.951
Mof_Al	Al	0.48405	0.3267	0.30027	7.427
Mof_Al	Al	0.23853	0.1329	0.19486	7.758
Mof_P 	P 	0.56698	0.36704	0.9229	1.94
Mof_P 	P 	0.46668	0.12678	0.16933	1.777
Mof_P 	P 	0.753	0.37363	0.20648	1.915
Mof_O 	O 	0.6588	0.4112	0.8777	-2.375
Mof_O 	O 	0.5312	0.2398	0.8888	-2.026
Mof_O 	O 	0.5971	0.3468	0.0061	-1.924
Mof_O 	O 	0.487	0.47	0.9171	-2.187
Mof_O 	O 	0.5191	0.2102	0.1091	-2.075
Mof_O 	O 	0.4944	0.1657	0.2511	-1.996
Mof_O 	O 	0.356	0.1444	0.1561	-2.353
Mof_O 	O 	0.4956	0.9871	0.155	-1.806
Mof_O 	O 	0.8531	0.3204	0.1851	-2.116
Mof_O 	O 	0.7622	0.513	0.2355	-2.385
Mof_O 	O 	0.6888	0.3765	0.1346	-2.093
Mof_O 	O 	0.7061	0.2863	0.2686	-2.482
Mof_O 	O 	0.5098	0.4016	0.2066	-2.937
Mof_Al	Al	0.93905	0.6255	0.6069	7.938
Mof_Al	Al	0.01595	0.6733	0.80027	7.367
Mof_Al	Al	0.26147	0.8671	0.69486	7.734
Mof_P 	P 	0.93302	0.63296	0.4229	1.937
Mof_P 	P 	0.03332	0.87322	0.66933	1.729
Mof_P 	P 	0.747	0.62637	0.70648	1.918
Mof_O 	O 	0.8412	0.5888	0.3777	-2.375
Mof_O 	O 	0.9688	0.7602	0.3888	-1.982
Mof_O 	O 	0.9029	0.6532	0.5061	-1.919
Mof_O 	O 	0.013	0.53	0.4171	-2.184
Mof_O 	O 	0.9809	0.7898	0.6091	-2.053
Mof_O 	O 	0.0056	0.8343	0.7511	-1.99
Mof_O 	O 	0.144	0.8556	0.6561	-2.348
Mof_O 	O 	0.0044	0.0129	0.655	-1.741
Mof_O 	O 	0.6469	0.6796	0.6851	-2.125
Mof_O 	O 	0.7378	0.487	0.7355	-2.382
Mof_O 	O 	0.8112	0.6235	0.6346	-2.088
Mof_O 	O 	0.7939	0.7137	0.7686	-2.483
Mof_O 	O 	0.9902	0.5984	0.7066	-2.918
_end
