data_functionalizedCrystal
_audit_creation_method	'EQeq! by Chris Wilmer'
_symmetry_space_group_name_H-M	'P1'
_symmetry_Int_Tables_number	1
_symmetry_cell_setting	triclinic
loop_
_symmetry_equiv_pos_as_xyz
  x,y,z
_cell_length_a	10.8445
_cell_length_b	13.7894
_cell_length_c	17.4839
_cell_angle_alpha	90
_cell_angle_beta	90
_cell_angle_gamma	100.429
loop_
_atom_site_label
_atom_site_type_symbol
_atom_site_fract_x
_atom_site_fract_y
_atom_site_fract_z
_atom_site_charge
Mof_Cu	Cu	0.46023	0.74734	0.25204	0.902
Mof_Cu	Cu	0.53977	0.25266	0.74796	0.902
Mof_Cu	Cu	0.03977	0.25266	0.75204	0.9
Mof_Cu	Cu	0.96023	0.74734	0.24796	0.9
Mof_H 	H 	0.8726	0.2675	0.8835	-0.003
Mof_H 	H 	0.6519	0.2403	0.8997	0.001
Mof_H 	H 	0.8984	0.0702	0.0795	-0.026
Mof_H 	H 	0.7908	0.0256	0.8589	-0.015
Mof_H 	H 	0.3984	0.0702	0.4205	-0.03
Mof_H 	H 	0.2891	0.7361	0.4474	0.19
Mof_H 	H 	0.7473	0.4981	0.861	-0.026
Mof_H 	H 	0.5166	0.1927	0.4919	0.145
Mof_H 	H 	0.1717	0.7862	0.4591	0.193
Mof_H 	H 	0.7891	0.7361	0.0526	0.188
Mof_H 	H 	0.2527	0.5019	0.139	-0.026
Mof_H 	H 	0.1189	0.9394	0.3021	0.019
Mof_H 	H 	0.8269	0.1	0.4279	0.15
Mof_H 	H 	0.6632	0.5446	0.579	0.076
Mof_H 	H 	0.4975	0.6861	0.9817	0.148
Mof_H 	H 	0.6452	0.1395	0.0037	0.067
Mof_H 	H 	0.6274	0.7325	0.3835	-0.003
Mof_H 	H 	0.1519	0.2403	0.6003	-0
Mof_H 	H 	0.0918	0.4486	0.411	-0.035
Mof_H 	H 	0.6346	0.0448	0.0966	0.076
Mof_H 	H 	0.3368	0.4554	0.421	0.076
Mof_H 	H 	0.1452	0.1395	0.4963	0.071
Mof_H 	H 	0.8811	0.0606	0.6979	0.019
Mof_H 	H 	0.5025	0.3139	0.0183	0.148
Mof_H 	H 	0.8349	0.6326	0.9317	0.155
Mof_H 	H 	0.851	0.3646	0.9862	0.073
Mof_H 	H 	0.6756	0.4421	0.6806	0.018
Mof_H 	H 	0.6731	0.9	0.9279	0.144
Mof_H 	H 	0.6717	0.7862	0.0409	0.191
Mof_H 	H 	0.0025	0.3139	0.4817	0.149
Mof_H 	H 	0.2908	0.0256	0.6411	-0.024
Mof_H 	H 	0.9082	0.5514	0.589	-0.035
Mof_H 	H 	0.3244	0.5579	0.3194	0.018
Mof_H 	H 	0.8368	0.4554	0.079	0.075
Mof_H 	H 	0.351	0.3646	0.5138	0.073
Mof_H 	H 	0.3654	0.9552	0.9034	0.076
Mof_H 	H 	0.8283	0.2138	0.5409	0.193
Mof_H 	H 	0.3481	0.7597	0.1003	0.001
Mof_H 	H 	0.149	0.6354	0.0138	0.073
Mof_H 	H 	0.3349	0.6326	0.5683	0.155
Mof_H 	H 	0.1731	0.9	0.5721	0.15
Mof_H 	H 	0.3811	0.0606	0.8021	0.019
Mof_H 	H 	0.2092	0.9744	0.1411	-0.015
Mof_H 	H 	0.2109	0.2639	0.9474	0.188
Mof_H 	H 	0.5918	0.4486	0.089	-0.035
Mof_H 	H 	0.6651	0.3674	0.4317	0.155
Mof_H 	H 	0.7109	0.2639	0.5526	0.19
Mof_H 	H 	0.3726	0.2675	0.6165	-0.003
Mof_H 	H 	0.8654	0.9552	0.5966	0.075
Mof_H 	H 	0.3283	0.2138	0.9591	0.191
Mof_H 	H 	0.7527	0.5019	0.361	-0.027
Mof_H 	H 	0.649	0.6354	0.4862	0.073
Mof_H 	H 	0.7092	0.9744	0.3589	-0.024
Mof_H 	H 	0.6016	0.9298	0.5795	-0.03
Mof_H 	H 	0.2473	0.4981	0.639	-0.027
Mof_H 	H 	0.9834	0.8073	0.9919	0.142
Mof_H 	H 	0.8481	0.7597	0.3997	-0
Mof_H 	H 	0.9975	0.6861	0.5183	0.149
Mof_H 	H 	0.4082	0.5514	0.911	-0.035
Mof_H 	H 	0.8548	0.8605	0.5037	0.071
Mof_H 	H 	0.3548	0.8605	0.9963	0.067
Mof_H 	H 	0.1346	0.0448	0.4034	0.075
Mof_H 	H 	0.1632	0.5446	0.921	0.075
Mof_H 	H 	0.1274	0.7325	0.1165	-0.003
Mof_H 	H 	0.3269	0.1	0.0721	0.144
Mof_H 	H 	0.0166	0.1927	0.0081	0.142
Mof_H 	H 	0.4834	0.8073	0.5081	0.145
Mof_H 	H 	0.1016	0.9298	0.9205	-0.026
Mof_H 	H 	0.1756	0.4421	0.8194	0.018
Mof_H 	H 	0.8244	0.5579	0.1806	0.018
Mof_H 	H 	0.6189	0.9394	0.1979	0.019
Mof_H 	H 	0.1651	0.3674	0.0683	0.155
Mof_C 	C 	0.2365	0.75936	0.48564	-0.53
Mof_C 	C 	0.7481	0.6161	0.92818	-0.34
Mof_C 	C 	0.4353	0.07654	0.84323	0.074
Mof_C 	C 	0.5747	0.98724	0.09587	-0.126
Mof_C 	C 	0.5489	0.648	0.9579	-0.344
Mof_C 	C 	0.995	0.567	0.5848	0.221
Mof_C 	C 	0.505	0.433	0.0848	0.22
Mof_C 	C 	0.4061	0.81831	0.09969	0.065
Mof_C 	C 	0.9625	0.9255	0.16045	0.385
Mof_C 	C 	0.541	0.00829	0.38224	-0.234
Mof_C 	C 	0.495	0.567	0.9152	0.22
Mof_C 	C 	0.5677	0.6758	0.39117	0.078
Mof_C 	C 	0.4253	0.01276	0.90413	-0.126
Mof_C 	C 	0.5673	0.50926	0.87905	-0.247
Mof_C 	C 	0.4099	0.87849	0.03671	-0.128
Mof_C 	C 	0.1849	0.15981	0.03207	0.319
Mof_C 	C 	0.515	0.92492	0.57777	0.205
Mof_C 	C 	0.5091	0.4191	0.83643	0.404
Mof_C 	C 	0.3979	0.51159	0.41473	-0.128
Mof_C 	C 	0.496	0.96631	0.03349	0.046
Mof_C 	C 	0.6021	0.48841	0.58527	-0.128
Mof_C 	C 	0.7635	0.24064	0.51436	-0.53
Mof_C 	C 	0.0563	0.14912	0.0352	-0.32
Mof_C 	C 	0.7365	0.75936	0.01436	-0.524
Mof_C 	C 	0.995	0.53212	0.03352	0.047
Mof_C 	C 	0.005	0.433	0.4152	0.221
Mof_C 	C 	0.8042	0.46464	0.38557	0.217
Mof_C 	C 	0.0747	0.98724	0.40413	-0.122
Mof_C 	C 	0.176	0.67337	0.53431	0.341
Mof_C 	C 	0.8306	0.98146	0.88528	0.185
Mof_C 	C 	0.0673	0.50926	0.62095	-0.248
Mof_C 	C 	0.1021	0.48841	0.91473	-0.127
Mof_C 	C 	0.2481	0.6161	0.57182	-0.342
Mof_C 	C 	0.0489	0.648	0.5421	-0.345
Mof_C 	C 	0.0677	0.6758	0.10883	0.081
Mof_C 	C 	0.7599	0.90616	0.92722	-0.315
Mof_C 	C 	0.9511	0.352	0.4579	-0.345
Mof_C 	C 	0.9184	0.38247	0.95312	-0.134
Mof_C 	C 	0.5375	0.0745	0.66045	0.395
Mof_C 	C 	0.4511	0.352	0.0421	-0.344
Mof_C 	C 	0.9353	0.07654	0.65677	0.075
Mof_C 	C 	0.4184	0.38247	0.54688	-0.138
Mof_C 	C 	0.3306	0.98146	0.61472	0.204
Mof_C 	C 	0.1694	0.01854	0.11472	0.185
Mof_C 	C 	0.4327	0.49074	0.12095	-0.247
Mof_C 	C 	0.485	0.07508	0.42223	0.205
Mof_C 	C 	0.324	0.32663	0.03431	0.339
Mof_C 	C 	0.9327	0.49074	0.37905	-0.248
Mof_C 	C 	0.041	0.00829	0.11776	-0.221
Mof_C 	C 	0.4437	0.85088	0.5352	-0.331
Mof_C 	C 	0.959	0.99171	0.88224	-0.221
Mof_C 	C 	0.0816	0.61753	0.04688	-0.134
Mof_C 	C 	0.6849	0.15981	0.46793	0.329
Mof_C 	C 	0.2519	0.3839	0.07182	-0.34
Mof_C 	C 	0.5901	0.12151	0.96329	-0.128
Mof_C 	C 	0.9909	0.5809	0.33643	0.402
Mof_C 	C 	0.8906	0.57389	0.14636	0.07
Mof_C 	C 	0.0647	0.92346	0.34323	0.075
Mof_C 	C 	0.7401	0.09384	0.42722	-0.328
Mof_C 	C 	0.0091	0.4191	0.66357	0.402
Mof_C 	C 	0.015	0.92492	0.92223	0.193
Mof_C 	C 	0.4909	0.5809	0.16357	0.404
Mof_C 	C 	0.5816	0.61753	0.45312	-0.138
Mof_C 	C 	0.4625	0.9255	0.33955	0.395
Mof_C 	C 	0.3042	0.46464	0.11443	0.216
Mof_C 	C 	0.5939	0.18169	0.90031	0.065
Mof_C 	C 	0.5563	0.14912	0.4648	-0.331
Mof_C 	C 	0.1094	0.42611	0.85364	0.07
Mof_C 	C 	0.6694	0.01854	0.38528	0.204
Mof_C 	C 	0.3151	0.84019	0.53207	0.329
Mof_C 	C 	0.0901	0.12151	0.53671	-0.135
Mof_C 	C 	0.985	0.07508	0.07777	0.193
Mof_C 	C 	0.495	0.53212	0.46648	0.051
Mof_C 	C 	0.9253	0.01276	0.59587	-0.122
Mof_C 	C 	0.504	0.03369	0.96651	0.046
Mof_C 	C 	0.824	0.32663	0.46569	0.341
Mof_C 	C 	0.6958	0.53536	0.88557	0.216
Mof_C 	C 	0.004	0.03369	0.53349	0.043
Mof_C 	C 	0.7519	0.3839	0.42818	-0.342
Mof_C 	C 	0.1958	0.53536	0.61443	0.217
Mof_C 	C 	0.0375	0.0745	0.83955	0.385
Mof_C 	C 	0.9323	0.3242	0.89117	0.081
Mof_C 	C 	0.5647	0.92346	0.15677	0.074
Mof_C 	C 	0.005	0.46788	0.96648	0.047
Mof_C 	C 	0.3906	0.57389	0.35364	0.071
Mof_C 	C 	0.9437	0.85088	0.9648	-0.32
Mof_C 	C 	0.4323	0.3242	0.60883	0.078
Mof_C 	C 	0.2599	0.90616	0.57278	-0.328
Mof_C 	C 	0.2635	0.24064	0.98564	-0.524
Mof_C 	C 	0.8151	0.84019	0.96793	0.319
Mof_C 	C 	0.996	0.96631	0.46651	0.043
Mof_C 	C 	0.9061	0.81831	0.40031	0.067
Mof_C 	C 	0.6094	0.42611	0.64636	0.071
Mof_C 	C 	0.2401	0.09384	0.07278	-0.315
Mof_C 	C 	0.505	0.46788	0.53352	0.051
Mof_C 	C 	0.0939	0.18169	0.59969	0.067
Mof_C 	C 	0.9099	0.87849	0.46329	-0.135
Mof_C 	C 	0.8979	0.51159	0.08527	-0.127
Mof_C 	C 	0.459	0.99171	0.61776	-0.234
Mof_C 	C 	0.676	0.67337	0.96569	0.339
Mof_N 	N 	0.47415	0.65559	0.3418	-0.219
Mof_N 	N 	0.01874	0.16012	0.65973	-0.22
Mof_N 	N 	0.48126	0.83988	0.15973	-0.218
Mof_N 	N 	0.51874	0.16012	0.84027	-0.218
Mof_N 	N 	0.98126	0.83988	0.34027	-0.22
Mof_N 	N 	0.52585	0.34441	0.6582	-0.219
Mof_N 	N 	0.97415	0.65559	0.1582	-0.221
Mof_N 	N 	0.02585	0.34441	0.8418	-0.221
Mof_O 	O 	0.35168	0.92695	0.32721	-0.311
Mof_O 	O 	0.6041	0.59855	0.17476	-0.321
Mof_O 	O 	0.85168	0.92695	0.17279	-0.309
Mof_O 	O 	0.0203	0.8577	0.18183	-0.417
Mof_O 	O 	0.4797	0.1423	0.68183	-0.423
Mof_O 	O 	0.5203	0.8577	0.31817	-0.423
Mof_O 	O 	0.64832	0.07305	0.67279	-0.311
Mof_O 	O 	0.1041	0.59855	0.32524	-0.32
Mof_O 	O 	0.0854	0.36522	0.68612	-0.423
Mof_O 	O 	0.5854	0.36522	0.81388	-0.423
Mof_O 	O 	0.4146	0.63478	0.18612	-0.423
Mof_O 	O 	0.14832	0.07305	0.82721	-0.309
Mof_O 	O 	0.3959	0.40145	0.82524	-0.321
Mof_O 	O 	0.9797	0.1423	0.81817	-0.417
Mof_O 	O 	0.8959	0.40145	0.67476	-0.32
Mof_O 	O 	0.9146	0.63478	0.31388	-0.423
_end
