data_functionalizedCrystal
_audit_creation_method	'EQeq! by Chris Wilmer'
_symmetry_space_group_name_H-M	'P1'
_symmetry_Int_Tables_number	1
_symmetry_cell_setting	triclinic
loop_
_symmetry_equiv_pos_as_xyz
  x,y,z
_cell_length_a	15.182
_cell_length_b	15.182
_cell_length_c	48.42
_cell_angle_alpha	94.3331
_cell_angle_beta	94.3331
_cell_angle_gamma	98.253
loop_
_atom_site_label
_atom_site_type_symbol
_atom_site_fract_x
_atom_site_fract_y
_atom_site_fract_z
_atom_site_charge
Mof_Zn	Zn	0.62505	0.85409	0.38309	1.218
Mof_Zn	Zn	0.75184	0.71934	0.82323	1.217
Mof_Zn	Zn	0.76839	0.73517	0.88379	1.215
Mof_Zn	Zn	0.60803	0.83751	0.32267	1.217
Mof_H 	H 	0.8288	0.72	0.2283	0.324
Mof_H 	H 	0.7323	0.6131	0.6667	0.331
Mof_H 	H 	0.7137	0.9787	0.4326	-0.022
Mof_H 	H 	0.5756	0.6756	0.7311	0.12
Mof_H 	H 	0.8456	0.8072	0.7781	-0.024
Mof_H 	H 	0.6178	0.8206	0.9986	0.334
Mof_H 	H 	0.5509	0.7555	0.4763	0.116
Mof_H 	H 	0.5831	0.7189	0.1344	0.209
Mof_H 	H 	0.8171	0.6465	0.0694	0.197
Mof_H 	H 	0.1673	0.8341	0.3102	0.071
Mof_H 	H 	0.7383	0.1721	0.8933	0.04
Mof_H 	H 	0.6963	0.6119	0.6962	0.335
Mof_H 	H 	0.7366	0.2714	0.8117	0.06
Mof_H 	H 	0.7225	0.9847	0.4808	0.12
Mof_H 	H 	0.6239	0.9483	0.6654	0.177
Mof_H 	H 	0.6309	0.5805	0.6696	0.335
Mof_H 	H 	0.4831	0.6995	0.8943	0.022
Mof_H 	H 	0.0286	0.6954	0.8125	0.043
Mof_H 	H 	0.7997	0.3135	0.8942	0.057
Mof_H 	H 	0.7729	0.8049	0.5628	0.178
Mof_H 	H 	0.5471	0.9795	0.4989	0.289
Mof_H 	H 	0.7172	0.8146	0.1053	0.122
Mof_H 	H 	0.6036	0.394	0.3108	0.052
Mof_H 	H 	0.1945	0.8693	0.3936	0.07
Mof_H 	H 	0.5526	0.8092	0.6077	0.042
Mof_H 	H 	0.4912	0.7198	0.1931	0.379
Mof_H 	H 	0.6403	0.7675	0.6065	0.039
Mof_H 	H 	0.681	0.624	0.9735	0.105
Mof_H 	H 	0.6093	0.6483	0.7769	-0.021
Mof_H 	H 	0.7021	0.8911	0.9959	0.335
Mof_H 	H 	0.8549	0.8523	0.9823	0.111
Mof_H 	H 	0.8413	0.7241	0.1609	0.193
Mof_H 	H 	0.4804	0.751	0.1631	0.377
Mof_H 	H 	0.8559	0.5673	0.027	0.318
Mof_H 	H 	0.655	0.9244	0.6097	0.113
Mof_H 	H 	0.6395	0.6995	0.6335	0.177
Mof_H 	H 	0.3453	0.8587	0.3934	0.021
Mof_H 	H 	0.7595	0.7557	0.4943	0.321
Mof_H 	H 	0.6862	0.9128	0.2277	0.124
Mof_H 	H 	0.5499	0.9171	0.568	0.18
Mof_H 	H 	0.7263	0.4219	0.8098	0.024
Mof_H 	H 	0.6424	0.9038	0.0205	0.325
Mof_H 	H 	0.8237	0.7003	0.12	0.092
Mof_H 	H 	0.6567	0.9425	0.2735	-0.022
Mof_H 	H 	0.785	0.5722	0.0022	0.329
Mof_H 	H 	0.5902	0.6794	0.2801	-0.014
Mof_H 	H 	0.8951	0.7569	0.2072	0.32
Mof_H 	H 	0.6344	0.4202	0.3943	0.05
Mof_H 	H 	0.5978	0.9136	0.7283	0.339
Mof_H 	H 	0.8118	0.8344	0.7323	0.113
Mof_H 	H 	0.827	0.7698	0.521	0.308
Mof_H 	H 	0.6845	0.6199	0.9256	-0.019
Mof_H 	H 	0.6252	0.1378	0.3935	0.009
Mof_H 	H 	0.4726	0.955	0.5189	0.274
Mof_H 	H 	0.7347	0.6381	0.1076	0.093
Mof_H 	H 	0.8584	0.8482	0.9345	-0.024
Mof_H 	H 	0.5421	0.7495	0.4281	-0.019
Mof_H 	H 	0.5175	0.8207	0.1883	0.381
Mof_H 	H 	0.555	0.028	0.5289	0.253
Mof_H 	H 	0.7	0.9498	0.7289	0.336
Mof_H 	H 	0.3188	0.743	0.8131	0.067
Mof_H 	H 	0.627	0.117	0.3103	0.011
Mof_H 	H 	0.062	0.8664	0.396	0.039
Mof_H 	H 	0.3182	0.8234	0.3099	0.025
Mof_H 	H 	0.6287	0.5721	0.3941	0.03
Mof_H 	H 	0.6874	0.858	0.0632	0.199
Mof_H 	H 	0.331	0.704	0.8943	0.064
Mof_H 	H 	0.6308	0.9886	0.7093	0.333
Mof_H 	H 	0.7386	0.0196	0.8944	0.038
Mof_H 	H 	0.471	0.7384	0.8131	0.022
Mof_H 	H 	0.8851	0.8599	0.3132	0.04
Mof_H 	H 	0.1806	0.6906	0.8128	0.052
Mof_H 	H 	0.8802	0.6288	0.0033	0.328
Mof_H 	H 	0.8438	0.8222	0.2241	0.329
Mof_H 	H 	0.6212	0.29	0.3932	0.061
Mof_H 	H 	0.8057	0.0045	0.8157	0.036
Mof_H 	H 	0.2099	0.7553	0.8953	0.055
Mof_H 	H 	0.0376	0.8586	0.3126	0.043
Mof_H 	H 	0.7895	0.4639	0.8923	0.025
Mof_H 	H 	0.6231	0.2691	0.31	0.062
Mof_H 	H 	0.0577	0.7601	0.8951	0.043
Mof_H 	H 	0.8054	0.1568	0.8145	0.039
Mof_H 	H 	0.8233	0.8467	0.5013	0.32
Mof_H 	H 	0.6197	0.6497	0.2343	0.121
Mof_H 	H 	0.9095	0.8679	0.3966	0.044
Mof_H 	H 	0.5979	0.5459	0.3105	0.03
Mof_C 	C 	0.3591	0.7109	0.87805	-0.128
Mof_C 	C 	0.6259	0.1517	0.32694	0.054
Mof_C 	C 	0.82288	0.80328	0.94228	0.115
Mof_C 	C 	0.6903	0.7577	0.72719	0.266
Mof_C 	C 	0.0119	0.8605	0.3294	-0.04
Mof_C 	C 	0.6272	0.7084	0.24213	-0.279
Mof_C 	C 	0.751	0.7532	0.07102	0.384
Mof_C 	C 	0.6431	0.7411	0.64883	-0.455
Mof_C 	C 	0.5355	0.9725	0.5178	-0.868
Mof_C 	C 	0.84	0.7632	0.215	-1.029
Mof_C 	C 	0.8004	0.6818	0.03008	0.525
Mof_C 	C 	0.6765	0.7555	0.19762	-0.49
Mof_C 	C 	0.6234	0.2428	0.32675	-0.134
Mof_C 	C 	0.6094	0.7262	0.26958	0.12
Mof_C 	C 	0.5896	0.7206	0.8544	0.382
Mof_C 	C 	0.74106	0.40014	0.82668	0.033
Mof_C 	C 	0.7839	0.8581	0.35713	0.461
Mof_C 	C 	0.7519	0.1385	0.87771	-0.068
Mof_C 	C 	0.7922	0.038	0.83122	-0.036
Mof_C 	C 	0.666	0.8608	0.0087	-1.049
Mof_C 	C 	0.77182	0.17958	0.85379	0.002
Mof_C 	C 	0.7154	0.7184	0.14314	0.37
Mof_C 	C 	0.6492	0.8698	0.51288	-0.438
Mof_C 	C 	0.7651	0.7425	0.01398	-0.448
Mof_C 	C 	0.609	0.6754	0.35284	0.351
Mof_C 	C 	0.5924	0.8962	0.5574	-0.446
Mof_C 	C 	0.5782	0.7966	0.43866	0.12
Mof_C 	C 	0.6376	0.8708	0.4833	0.276
Mof_C 	C 	0.6284	0.7262	0.14885	-0.55
Mof_C 	C 	0.71868	0.66648	0.93697	0.116
Mof_C 	C 	0.6284	0.828	0.64509	0.269
Mof_C 	C 	0.7831	0.7293	0.16467	-0.513
Mof_C 	C 	0.1735	0.7433	0.87872	-0.09
Mof_C 	C 	0.7596	0.697	0.11629	-0.246
Mof_C 	C 	0.6559	0.7783	0.22644	0.287
Mof_C 	C 	0.6539	0.8659	0.69451	0.515
Mof_C 	C 	0.49211	0.71849	0.8537	-0.133
Mof_C 	C 	0.78502	0.33518	0.87728	-0.118
Mof_C 	C 	0.4451	0.8389	0.35153	0.385
Mof_C 	C 	0.5163	0.7605	0.18055	-1.185
Mof_C 	C 	0.02804	0.72816	0.85379	-0.077
Mof_C 	C 	0.6053	0.5207	0.32733	0.014
Mof_C 	C 	0.77226	0.99694	0.85515	-0.05
Mof_C 	C 	0.6128	0.574	0.35227	-0.096
Mof_C 	C 	0.71654	0.66894	0.96566	-0.264
Mof_C 	C 	0.3518	0.7342	0.82935	-0.13
Mof_C 	C 	0.4502	0.7082	0.87805	0.048
Mof_C 	C 	0.6164	0.8206	0.6129	-0.064
Mof_C 	C 	0.7472	0.31	0.82785	-0.118
Mof_C 	C 	0.75689	0.45777	0.85082	-0.109
Mof_C 	C 	0.7707	0.8999	0.85628	0.369
Mof_C 	C 	0.7934	0.6872	0.0586	-0.527
Mof_C 	C 	0.79141	0.78081	0.76872	0.118
Mof_C 	C 	0.752	0.0472	0.8784	-0.037
Mof_C 	C 	0.0265	0.8651	0.37936	-0.036
Mof_C 	C 	0.6626	0.8602	0.5701	0.303
Mof_C 	C 	0.6271	0.4455	0.37752	-0.098
Mof_C 	C 	0.203	0.839	0.32685	-0.128
Mof_C 	C 	0.2934	0.8326	0.32671	0.054
Mof_C 	C 	0.792	0.1294	0.83054	-0.069
Mof_C 	C 	0.6297	0.7019	0.74055	-0.274
Mof_C 	C 	0.6337	0.8903	0.66793	-0.461
Mof_C 	C 	0.0824	0.7462	0.87859	0.014
Mof_C 	C 	0.6218	0.2946	0.35157	0.047
Mof_C 	C 	0.6864	0.9376	0.47022	-0.282
Mof_C 	C 	0.8334	0.6056	0.0142	-1.049
Mof_C 	C 	0.667	0.866	0.2382	-0.285
Mof_C 	C 	0.7636	0.7478	0.19191	0.523
Mof_C 	C 	0.6632	0.7168	0.67541	0.503
Mof_C 	C 	0.2193	0.8601	0.37685	-0.128
Mof_C 	C 	0.6825	0.6219	0.6771	-1.037
Mof_C 	C 	0.64985	0.68565	0.768	0.123
Mof_C 	C 	0.7157	0.8139	0.05492	-0.522
Mof_C 	C 	0.1659	0.8527	0.35192	0.066
Mof_C 	C 	0.21033	0.72247	0.85407	0.018
Mof_C 	C 	0.77886	0.42528	0.87612	0.031
Mof_C 	C 	0.7676	0.7386	0.98266	0.254
Mof_C 	C 	0.7713	0.7971	0.74127	-0.268
Mof_C 	C 	0.8822	0.864	0.35492	-0.106
Mof_C 	C 	0.7885	0.7983	0.509	-1.019
Mof_C 	C 	0.0649	0.8623	0.3542	-0.002
Mof_C 	C 	0.6223	0.2553	0.37658	-0.132
Mof_C 	C 	0.5835	0.8003	0.46751	-0.274
Mof_C 	C 	0.7512	0.5604	0.85096	0.402
Mof_C 	C 	0.5857	0.9009	0.5288	0.451
Mof_C 	C 	0.4429	0.7315	0.82935	0.049
Mof_C 	C 	0.6248	0.1642	0.37677	0.052
Mof_C 	C 	0.7227	0.8085	0.0264	0.521
Mof_C 	C 	0.30985	0.72395	0.8537	0.046
Mof_C 	C 	0.9206	0.8612	0.32975	-0.02
Mof_C 	C 	0.6296	0.0164	0.35261	0.375
Mof_C 	C 	0.6196	0.392	0.35257	0.017
Mof_C 	C 	0.6493	0.8839	0.26565	0.126
Mof_C 	C 	0.6087	0.4297	0.32748	-0.108
Mof_C 	C 	0.6089	0.7447	0.17608	0.595
Mof_C 	C 	0.3468	0.84	0.35165	-0.128
Mof_C 	C 	0.9304	0.7318	0.85188	0.341
Mof_C 	C 	0.6265	0.1123	0.35195	-0.15
Mof_C 	C 	0.3097	0.8537	0.37672	0.053
Mof_C 	C 	0.6448	0.9358	0.7173	-1.053
Mof_C 	C 	0.156	0.7046	0.82927	-0.095
Mof_C 	C 	0.6811	0.9339	0.44136	0.123
Mof_C 	C 	0.9352	0.866	0.37972	-0.027
Mof_C 	C 	0.7194	0.8338	0.5256	0.502
Mof_C 	C 	0.76913	0.27747	0.85315	0.049
Mof_C 	C 	0.6685	0.7791	0.69825	-0.452
Mof_C 	C 	0.726	0.829	0.5542	-0.476
Mof_C 	C 	0.0649	0.7073	0.82913	0.011
Mof_C 	C 	0.6237	0.5363	0.37737	0.013
Mof_C 	C 	0.82074	0.80574	0.97097	-0.268
Mof_N 	N 	0.6205	0.8139	0.28134	-0.263
Mof_N 	N 	0.6271	0.8635	0.42558	-0.261
Mof_N 	N 	0.77183	0.73367	0.92527	-0.266
Mof_N 	N 	0.7372	0.7678	0.09876	-0.226
Mof_N 	N 	0.6429	0.8715	0.6014	-0.213
Mof_N 	N 	0.73076	0.72504	0.78209	-0.268
Mof_O 	O 	0.7343	0.5869	0.82771	-0.473
Mof_O 	O 	0.7771	0.8533	0.83372	-0.454
Mof_O 	O 	0.6092	0.9686	0.32932	-0.444
Mof_O 	O 	0.764	0.6004	0.874	-0.483
Mof_O 	O 	0.5994	0.7064	0.32901	-0.447
Mof_O 	O 	0.7409	0.8521	0.33409	-0.502
Mof_O 	O 	0.7577	0.8619	0.37924	-0.509
Mof_O 	O 	0.62494	0.72146	0.83127	-0.466
Mof_O 	O 	0.6082	0.7202	0.37598	-0.457
Mof_O 	O 	0.4756	0.827	0.32712	-0.441
Mof_O 	O 	0.632	0.7174	0.8777	-0.451
Mof_O 	O 	0.6362	0.9824	0.37407	-0.463
Mof_O 	O 	0.8853	0.7213	0.82998	-0.471
Mof_O 	O 	0.8994	0.7494	0.87691	-0.44
Mof_O 	O 	0.7642	0.864	0.87876	-0.459
Mof_O 	O 	0.492	0.8456	0.37371	-0.47
Mof_Zn	Zn	0.26483	0.23161	0.11621	1.216
Mof_Zn	Zn	0.16249	0.39197	0.67733	1.218
Mof_Zn	Zn	0.14591	0.37495	0.61691	1.219
Mof_Zn	Zn	0.28066	0.24816	0.17677	1.218
Mof_H 	H 	0.2302	0.173	0.479	0.308
Mof_H 	H 	0.1656	0.1882	0.2677	0.113
Mof_H 	H 	0.1401	0.1149	0.6868	0.04
Mof_H 	H 	0.3712	0.1198	0.9967	0.328
Mof_H 	H 	0.2399	0.9423	0.1049	0.043
Mof_H 	H 	0.3535	0.1829	0.9306	0.197
Mof_H 	H 	0.3005	0.5169	0.1057	0.022
Mof_H 	H 	0.0205	0.4529	0.5011	0.289
Mof_H 	H 	0.2759	0.1587	0.8391	0.193
Mof_H 	H 	0.1854	0.2828	0.8947	0.122
Mof_H 	H 	0.0962	0.3576	0.9795	0.325
Mof_H 	H 	0.71	0.3788	0.6068	0.061
Mof_H 	H 	0.1766	0.6818	0.6901	0.025
Mof_H 	H 	0.2802	0.5088	0.8069	0.379
Mof_H 	H 	0.0114	0.3692	0.2907	0.333
Mof_H 	H 	0.0502	0.3	0.2711	0.336
Mof_H 	H 	0.4278	0.215	0.9978	0.329
Mof_H 	H 	0.3619	0.2653	0.8924	0.093
Mof_H 	H 	0.249	0.5196	0.8369	0.377
Mof_H 	H 	0.2505	0.4579	0.5719	-0.019
Mof_H 	H 	0.1659	0.8327	0.6898	0.071
Mof_H 	H 	0.1908	0.4474	0.3923	0.042
Mof_H 	H 	0.3244	0.4244	0.2689	0.121
Mof_H 	H 	0.257	0.6812	0.1869	0.067
Mof_H 	H 	0.3503	0.3803	0.7657	0.121
Mof_H 	H 	0.3206	0.4098	0.7199	-0.014
Mof_H 	H 	0.7286	0.2634	0.1883	0.06
Mof_H 	H 	0.3869	0.2677	0.3333	0.332
Mof_H 	H 	0.0829	0.4501	0.432	0.18
Mof_H 	H 	0.6865	0.2003	0.1058	0.057
Mof_H 	H 	0.4279	0.3713	0.6059	0.03
Mof_H 	H 	0.7309	0.3769	0.69	0.062
Mof_H 	H 	0.1414	0.9624	0.6874	0.043
Mof_H 	H 	0.1477	0.1451	0.0177	0.111
Mof_H 	H 	0.28	0.1712	0.7717	0.325
Mof_H 	H 	0.0872	0.3138	0.7723	0.124
Mof_H 	H 	0.883	0.373	0.6897	0.011
Mof_H 	H 	0.9804	0.2614	0.1056	0.038
Mof_H 	H 	0.8432	0.1946	0.1855	0.039
Mof_H 	H 	0.1089	0.2979	0.0041	0.335
Mof_H 	H 	0.5361	0.2105	0.1077	0.025
Mof_H 	H 	0.1794	0.3822	0.0014	0.335
Mof_H 	H 	0.8279	0.2617	0.1067	0.04
Mof_H 	H 	0.4195	0.3691	0.3304	0.335
Mof_H 	H 	0.2325	0.3597	0.3935	0.039
Mof_H 	H 	0.0153	0.2775	0.5192	0.12
Mof_H 	H 	0.3801	0.3155	0.0744	-0.019
Mof_H 	H 	0.2811	0.4169	0.8656	0.21
Mof_H 	H 	0.376	0.319	0.0265	0.105
Mof_H 	H 	0.1951	0.2271	0.4372	0.178
Mof_H 	H 	0.1307	0.8055	0.6064	0.07
Mof_H 	H 	0.8622	0.3748	0.6065	0.009
Mof_H 	H 	0.972	0.445	0.4711	0.253
Mof_H 	H 	0.1413	0.6547	0.6066	0.021
Mof_H 	H 	0.2443	0.2405	0.5057	0.321
Mof_H 	H 	0.0864	0.4022	0.2717	0.339
Mof_H 	H 	0.1928	0.1544	0.2219	-0.023
Mof_H 	H 	0.3005	0.3605	0.3665	0.177
Mof_H 	H 	0.1336	0.938	0.604	0.039
Mof_H 	H 	0.1793	0.4825	0.8117	0.381
Mof_H 	H 	0.3517	0.3907	0.2231	-0.021
Mof_H 	H 	0.0575	0.3433	0.7265	-0.022
Mof_H 	H 	0.2616	0.529	0.1869	0.022
Mof_H 	H 	0.2445	0.4491	0.5237	0.117
Mof_H 	H 	0.142	0.3126	0.9368	0.199
Mof_H 	H 	0.2997	0.1763	0.88	0.092
Mof_H 	H 	0.5798	0.3656	0.6057	0.05
Mof_H 	H 	0.2447	0.7901	0.1047	0.055
Mof_H 	H 	0.4541	0.4021	0.6895	0.03
Mof_H 	H 	0.045	0.5274	0.4811	0.274
Mof_H 	H 	0.3881	0.3037	0.3038	0.335
Mof_H 	H 	0.1778	0.1562	0.7759	0.329
Mof_H 	H 	0.0756	0.345	0.3903	0.113
Mof_H 	H 	0.2431	0.1049	0.7928	0.32
Mof_H 	H 	0.0517	0.3761	0.3346	0.177
Mof_H 	H 	0.296	0.669	0.1057	0.064
Mof_H 	H 	0.9955	0.1943	0.1843	0.036
Mof_H 	H 	0.606	0.3964	0.6892	0.052
Mof_H 	H 	0.1533	0.1767	0.4987	0.32
Mof_H 	H 	0.5781	0.2737	0.1902	0.024
Mof_H 	H 	0.3094	0.8194	0.1872	0.052
Mof_H 	H 	0.1321	0.0905	0.6034	0.044
Mof_H 	H 	0.4327	0.1441	0.973	0.318
Mof_H 	H 	0.3046	0.9714	0.1875	0.043
Mof_H 	H 	0.0213	0.2863	0.5674	-0.021
Mof_H 	H 	0.1518	0.1416	0.0655	-0.024
Mof_C 	C 	0.59986	0.25894	0.17332	0.033
Mof_C 	C 	0.7572	0.3766	0.67325	-0.134
Mof_C 	C 	0.2445	0.3235	0.80238	-0.49
Mof_C 	C 	0.1341	0.3461	0.30549	0.515
Mof_C 	C 	0.54223	0.24311	0.14918	-0.109
Mof_C 	C 	0.136	0.1178	0.64508	-0.106
Mof_C 	C 	0.2832	0.3368	0.32459	0.503
Mof_C 	C 	0.1161	0.3507	0.73435	0.126
Mof_C 	C 	0.16	0.6532	0.64835	-0.128
Mof_C 	C 	0.7054	0.3782	0.64843	0.047
Mof_C 	C 	0.3246	0.391	0.64716	0.351
Mof_C 	C 	0.69	0.2528	0.17215	-0.118
Mof_C 	C 	0.66482	0.21498	0.12272	-0.118
Mof_C 	C 	0.2217	0.3441	0.77356	0.287
Mof_C 	C 	0.1463	0.6903	0.62328	0.053
Mof_C 	C 	0.1038	0.4076	0.4426	-0.446
Mof_C 	C 	0.0275	0.4645	0.4822	-0.868
Mof_C 	C 	0.1395	0.9881	0.6706	-0.04
Mof_C 	C 	0.2738	0.3906	0.73042	0.12
Mof_C 	C 	0.8706	0.208	0.16946	-0.069
Mof_C 	C 	0.1997	0.4165	0.53249	-0.274
Mof_C 	C 	0.4793	0.3947	0.67267	0.014
Mof_C 	C 	0.33352	0.28132	0.06303	0.116
Mof_C 	C 	0.1611	0.5549	0.64847	0.385
Mof_C 	C 	0.962	0.2078	0.16878	-0.036
Mof_C 	C 	0.1674	0.7066	0.67329	0.054
Mof_C 	C 	0.0642	0.3552	0.2827	-1.053
Mof_C 	C 	0.1861	0.2843	0.94508	-0.522
Mof_C 	C 	0.1419	0.2161	0.64287	0.461
Mof_C 	C 	0.1392	0.334	0.9913	-1.049
Mof_C 	C 	0.5545	0.3729	0.62248	-0.098
Mof_C 	C 	0.1001	0.2293	0.14372	0.369
Mof_C 	C 	0.82042	0.22818	0.14621	0.002
Mof_C 	C 	0.8358	0.3752	0.62323	0.052
Mof_C 	C 	0.134	0.0648	0.62028	-0.027
Mof_C 	C 	0.3128	0.2066	0.9414	-0.527
Mof_C 	C 	0.1097	0.3663	0.33207	-0.461
Mof_C 	C 	0.2738	0.3716	0.85115	-0.55
Mof_C 	C 	0.00306	0.22774	0.14485	-0.05
Mof_C 	C 	0.303	0.2404	0.88371	-0.246
Mof_C 	C 	0.1399	0.7807	0.62315	-0.128
Mof_C 	C 	0.28151	0.50789	0.1463	-0.133
Mof_C 	C 	0.1377	0.9351	0.6458	-0.002
Mof_C 	C 	0.2468	0.249	0.92898	0.384
Mof_C 	C 	0.1794	0.3836	0.3871	-0.064
Mof_C 	C 	0.2029	0.2287	0.25873	-0.268
Mof_C 	C 	0.2916	0.3728	0.75787	-0.279
Mof_C 	C 	0.2017	0.2115	0.491	-1.019
Mof_C 	C 	0.9836	0.3704	0.64739	0.375
Mof_C 	C 	0.2794	0.4104	0.1456	0.382
Mof_C 	C 	0.2368	0.16	0.785	-1.029
Mof_C 	C 	0.3944	0.1666	0.9858	-1.049
Mof_C 	C 	0.2553	0.3911	0.82392	0.595
Mof_C 	C 	0.161	0.797	0.67315	-0.128
Mof_C 	C 	0.3182	0.1996	0.96992	0.525
Mof_C 	C 	0.171	0.274	0.4458	-0.476
Mof_C 	C 	0.19672	0.17712	0.05772	0.115
Mof_C 	C 	0.426	0.3872	0.64773	-0.096
Mof_C 	C 	0.0624	0.3136	0.52978	-0.282
Mof_C 	C 	0.2707	0.2169	0.83533	-0.513
Mof_C 	C 	0.2209	0.3315	0.30175	-0.452
Mof_C 	C 	0.2927	0.9351	0.17087	0.011
Mof_C 	C 	0.27753	0.78967	0.14593	0.018
Mof_C 	C 	0.21919	0.20859	0.23128	0.118
Mof_C 	C 	0.2918	0.5498	0.12195	0.048
Mof_C 	C 	0.2614	0.2324	0.01734	0.254
Mof_C 	C 	0.1349	0.9735	0.62064	-0.036
Mof_C 	C 	0.1302	0.3508	0.48712	-0.438
Mof_C 	C 	0.1398	0.3374	0.4299	0.303
Mof_C 	C 	0.2423	0.3097	0.27281	0.266
Mof_C 	C 	0.134	0.333	0.7618	-0.285
Mof_C 	C 	0.57472	0.22114	0.12388	0.031
Mof_C 	C 	0.9528	0.248	0.1216	-0.037
Mof_C 	C 	0.1915	0.2773	0.9736	0.521
Mof_C 	C 	0.8615	0.2481	0.12229	-0.068
Mof_C 	C 	0.1292	0.3624	0.5167	0.276
Mof_C 	C 	0.2395	0.4837	0.81945	-1.185
Mof_C 	C 	0.2954	0.844	0.17073	-0.095
Mof_C 	C 	0.0991	0.4143	0.4712	0.451
Mof_C 	C 	0.3781	0.3175	0.3229	-1.037
Mof_C 	C 	0.2034	0.4218	0.56134	0.12
Mof_C 	C 	0.1473	0.8341	0.64808	0.066
Mof_C 	C 	0.8877	0.3735	0.64805	-0.15
Mof_C 	C 	0.4637	0.3763	0.62263	0.013
Mof_C 	C 	0.2522	0.2364	0.80809	0.523
Mof_C 	C 	0.31435	0.35015	0.232	0.123
Mof_C 	C 	0.2816	0.2846	0.85686	0.37
Mof_C 	C 	0.2538	0.9176	0.12141	0.014
Mof_C 	C 	0.2658	0.6482	0.17065	-0.13
Mof_C 	C 	0.172	0.3716	0.35491	0.269
Mof_C 	C 	0.33106	0.28346	0.03434	-0.264
Mof_C 	C 	0.27184	0.97196	0.14621	-0.077
Mof_C 	C 	0.4396	0.2488	0.14904	0.402
Mof_C 	C 	0.2682	0.0696	0.14812	0.341
Mof_C 	C 	0.1388	0.0794	0.67025	-0.02
Mof_C 	C 	0.608	0.3804	0.64743	0.017
Mof_C 	C 	0.2589	0.3569	0.35117	-0.455
Mof_C 	C 	0.72253	0.23087	0.14685	0.049
Mof_C 	C 	0.2891	0.6409	0.12195	-0.128
Mof_C 	C 	0.2567	0.8265	0.12128	-0.09
Mof_C 	C 	0.2981	0.3703	0.25945	-0.274
Mof_C 	C 	0.1662	0.2806	0.4744	0.502
Mof_C 	C 	0.2685	0.5571	0.17065	0.049
Mof_C 	C 	0.19426	0.17926	0.02903	-0.268
Mof_C 	C 	0.2575	0.2349	0.98602	-0.448
Mof_C 	C 	0.5703	0.3913	0.67252	-0.108
Mof_C 	C 	0.27605	0.69015	0.1463	0.046
Mof_C 	C 	0.8483	0.3741	0.67306	0.054
Mof_C 	C 	0.0661	0.3189	0.55864	0.123
Mof_C 	C 	0.7447	0.3777	0.62342	-0.132
Mof_N 	N 	0.1861	0.3795	0.71866	-0.263
Mof_N 	N 	0.26633	0.22817	0.07473	-0.266
Mof_N 	N 	0.1285	0.3571	0.3986	-0.213
Mof_N 	N 	0.2322	0.2628	0.90124	-0.226
Mof_N 	N 	0.1365	0.3729	0.57442	-0.261
Mof_N 	N 	0.27496	0.26924	0.21791	-0.268
Mof_O 	O 	0.0176	0.3638	0.62593	-0.463
Mof_O 	O 	0.2506	0.1006	0.12309	-0.44
Mof_O 	O 	0.2826	0.368	0.1223	-0.451
Mof_O 	O 	0.1467	0.2229	0.16628	-0.454
Mof_O 	O 	0.136	0.2358	0.12124	-0.459
Mof_O 	O 	0.2787	0.1147	0.17002	-0.471
Mof_O 	O 	0.0314	0.3908	0.67068	-0.444
Mof_O 	O 	0.2936	0.4006	0.67099	-0.447
Mof_O 	O 	0.1479	0.2591	0.66591	-0.502
Mof_O 	O 	0.3996	0.236	0.126	-0.483
Mof_O 	O 	0.173	0.5244	0.67288	-0.441
Mof_O 	O 	0.1544	0.508	0.62629	-0.47
Mof_O 	O 	0.2798	0.3918	0.62402	-0.457
Mof_O 	O 	0.1381	0.2423	0.62076	-0.509
Mof_O 	O 	0.27854	0.37506	0.16873	-0.466
Mof_O 	O 	0.4131	0.2657	0.17229	-0.473
_end
