data_functionalizedCrystal
_audit_creation_method	'EQeq! by Chris Wilmer'
_symmetry_space_group_name_H-M	'P1'
_symmetry_Int_Tables_number	1
_symmetry_cell_setting	triclinic
loop_
_symmetry_equiv_pos_as_xyz
  x,y,z
_cell_length_a	11.521
_cell_length_b	11.6637
_cell_length_c	11.853
_cell_angle_alpha	92.926
_cell_angle_beta	93.35
_cell_angle_gamma	113.619
loop_
_atom_site_label
_atom_site_type_symbol
_atom_site_fract_x
_atom_site_fract_y
_atom_site_fract_z
_atom_site_charge
Mof_O 	O 	0.3862	0.0016	0.3478	-0.375
Mof_O 	O 	0.4107	0.7963	0.4626	-0.376
Mof_O 	O 	0.3499	0.9921	0.6075	-0.357
Mof_C 	C 	0.337	0.0751	0.315	0.346
Mof_C 	C 	0.3338	0.1761	0.3813	-0.414
Mof_C 	C 	0.2843	0.2556	0.3407	0.322
Mof_C 	C 	0.2294	0.2308	0.2294	-0.347
Mof_C 	C 	0.2297	0.1327	0.1666	0.175
Mof_N 	N 	0.2819	0.0549	0.2057	-0.198
Mof_C 	C 	0.2842	0.3659	0.413	-0.47
Mof_C 	C 	0.2801	0.9485	0.1298	-0.104
Mof_C 	C 	0.3956	0.9781	0.064	0.127
Mof_C 	C 	0.4202	0.0601	0.9798	-0.154
Mof_C 	C 	0.478	0.9202	0.0852	-0.141
Mof_C 	C 	0.3753	0.7299	0.3691	0.417
Mof_C 	C 	0.4538	0.6899	0.3052	-0.568
Mof_C 	C 	0.4127	0.6153	0.2087	0.549
Mof_C 	C 	0.2854	0.5767	0.1658	-0.481
Mof_C 	C 	0.2089	0.6146	0.2275	0.243
Mof_N 	N 	0.2518	0.6894	0.3254	-0.21
Mof_C 	C 	0.4974	0.5706	0.1436	-1.059
Mof_C 	C 	0.159	0.7188	0.3883	-0.086
Mof_C 	C 	0.0744	0.6048	0.4467	0.038
Mof_C 	C 	0.1283	0.5604	0.5324	-0.066
Mof_C 	C 	0.9481	0.5444	0.4151	-0.057
Mof_C 	C 	0.2977	0.9214	0.6816	0.414
Mof_C 	C 	0.3285	0.8221	0.7188	-0.532
Mof_C 	C 	0.2688	0.7464	0.7999	0.556
Mof_C 	C 	0.1684	0.7642	0.847	-0.48
Mof_C 	C 	0.1371	0.8578	0.8158	0.257
Mof_N 	N 	0.2001	0.9363	0.7337	-0.195
Mof_C 	C 	0.3081	0.644	0.837	-1.067
Mof_C 	C 	0.1688	0.0411	0.7059	-0.052
Mof_C 	C 	0.0814	0.017	0.5994	-0.057
Mof_C 	C 	0.0556	0.1155	0.559	0.018
Mof_C 	C 	0.0243	0.9029	0.5378	0.06
Mof_H 	H 	0.3671	0.1897	0.4565	0.174
Mof_H 	H 	0.193	0.282	0.1993	0.135
Mof_H 	H 	0.1924	0.1168	0.0926	-0.051
Mof_H 	H 	0.302	0.4362	0.368	0.166
Mof_H 	H 	0.3842	0.3877	0.4753	0.084
Mof_H 	H 	0.2023	0.3439	0.4415	0.169
Mof_H 	H 	0.2052	0.9206	0.0764	0.062
Mof_H 	H 	0.2721	0.8794	0.1753	0.078
Mof_H 	H 	0.3681	0.1025	0.9664	0.067
Mof_H 	H 	0.4649	0.8673	0.1437	0.086
Mof_H 	H 	0.5389	0.7168	0.3316	0.22
Mof_H 	H 	0.2544	0.5272	0.0978	0.166
Mof_H 	H 	0.1238	0.5879	0.2013	-0.067
Mof_H 	H 	0.5211	0.6173	0.0782	0.312
Mof_H 	H 	0.4526	0.483	0.1199	0.311
Mof_H 	H 	0.5724	0.5832	0.1913	0.318
Mof_H 	H 	0.1067	0.7436	0.3363	0.055
Mof_H 	H 	0.2037	0.7885	0.4446	0.077
Mof_H 	H 	0.2149	0.6004	0.5547	0.054
Mof_H 	H 	0.9119	0.5737	0.3572	0.027
Mof_H 	H 	0.3935	0.8082	0.6857	0.221
Mof_H 	H 	0.1234	0.7113	0.8999	0.187
Mof_H 	H 	0.0719	0.8706	0.8495	-0.055
Mof_H 	H 	0.2456	0.5637	0.8064	0.326
Mof_H 	H 	0.3148	0.6465	0.9183	0.331
Mof_H 	H 	0.389	0.6567	0.8099	0.327
Mof_H 	H 	0.2471	0.1131	0.6976	0.038
Mof_H 	H 	0.1291	0.0626	0.7688	0.03
Mof_H 	H 	0.0927	0.1947	0.5979	0.007
Mof_H 	H 	0.0399	0.8355	0.5622	0.015
Mof_O 	O 	0.6138	0.9984	0.6522	-0.336
Mof_O 	O 	0.5893	0.2037	0.5374	-0.388
Mof_O 	O 	0.6501	0.0079	0.3925	-0.396
Mof_C 	C 	0.663	0.9249	0.685	0.352
Mof_C 	C 	0.6662	0.8239	0.6187	-0.407
Mof_C 	C 	0.7157	0.7444	0.6593	0.324
Mof_C 	C 	0.7706	0.7692	0.7706	-0.341
Mof_C 	C 	0.7703	0.8673	0.8334	0.181
Mof_N 	N 	0.7181	0.9451	0.7943	-0.172
Mof_C 	C 	0.7158	0.6341	0.587	-0.47
Mof_C 	C 	0.7199	0.0515	0.8702	-0.097
Mof_C 	C 	0.6044	0.0219	0.936	-0.016
Mof_C 	C 	0.5798	0.9399	0.0202	0.02
Mof_C 	C 	0.522	0.0798	0.9148	-0.017
Mof_C 	C 	0.6247	0.2701	0.6309	0.415
Mof_C 	C 	0.5462	0.3101	0.6948	-0.576
Mof_C 	C 	0.5873	0.3847	0.7913	0.56
Mof_C 	C 	0.7146	0.4233	0.8342	-0.487
Mof_C 	C 	0.7911	0.3854	0.7725	0.248
Mof_N 	N 	0.7482	0.3106	0.6746	-0.211
Mof_C 	C 	0.5026	0.4294	0.8564	-1.081
Mof_C 	C 	0.841	0.2812	0.6117	-0.094
Mof_C 	C 	0.9256	0.3952	0.5533	0.061
Mof_C 	C 	0.8717	0.4396	0.4676	-0.088
Mof_C 	C 	0.0519	0.4556	0.5849	-0.087
Mof_C 	C 	0.7023	0.0786	0.3184	0.406
Mof_C 	C 	0.6715	0.1779	0.2812	-0.535
Mof_C 	C 	0.7312	0.2536	0.2001	0.545
Mof_C 	C 	0.8316	0.2358	0.153	-0.476
Mof_C 	C 	0.8629	0.1422	0.1842	0.243
Mof_N 	N 	0.7999	0.0637	0.2663	-0.214
Mof_C 	C 	0.6919	0.356	0.163	-1.05
Mof_C 	C 	0.8312	0.9589	0.2941	-0.091
Mof_C 	C 	0.9186	0.983	0.4006	0.148
Mof_C 	C 	0.9444	0.8845	0.441	-0.155
Mof_C 	C 	0.9757	0.0971	0.4622	-0.178
Mof_H 	H 	0.6329	0.8103	0.5435	0.178
Mof_H 	H 	0.807	0.718	0.8007	0.138
Mof_H 	H 	0.8076	0.8832	0.9074	-0.03
Mof_H 	H 	0.698	0.5638	0.632	0.167
Mof_H 	H 	0.6158	0.6123	0.5247	0.084
Mof_H 	H 	0.7977	0.6561	0.5585	0.171
Mof_H 	H 	0.7948	0.0794	0.9236	0.051
Mof_H 	H 	0.7279	0.1206	0.8247	0.066
Mof_H 	H 	0.6319	0.8975	0.0336	0.016
Mof_H 	H 	0.5351	0.1327	0.8563	0.035
Mof_H 	H 	0.4611	0.2832	0.6684	0.219
Mof_H 	H 	0.7456	0.4728	0.9022	0.175
Mof_H 	H 	0.8762	0.4121	0.7987	-0.065
Mof_H 	H 	0.4789	0.3827	0.9218	0.323
Mof_H 	H 	0.5474	0.517	0.8801	0.322
Mof_H 	H 	0.4276	0.4168	0.8087	0.325
Mof_H 	H 	0.8933	0.2564	0.6637	0.054
Mof_H 	H 	0.7963	0.2115	0.5554	0.072
Mof_H 	H 	0.7851	0.3996	0.4453	0.062
Mof_H 	H 	0.0881	0.4263	0.6428	0.036
Mof_H 	H 	0.6065	0.1918	0.3143	0.219
Mof_H 	H 	0.8766	0.2887	0.1001	0.182
Mof_H 	H 	0.9281	0.1294	0.1505	-0.066
Mof_H 	H 	0.7544	0.4363	0.1936	0.32
Mof_H 	H 	0.6852	0.3535	0.0817	0.319
Mof_H 	H 	0.611	0.3433	0.1901	0.319
Mof_H 	H 	0.7529	0.8869	0.3024	0.06
Mof_H 	H 	0.8709	0.9374	0.2312	0.058
Mof_H 	H 	0.9073	0.8053	0.4021	0.07
Mof_H 	H 	0.9601	0.1645	0.4378	0.092
Mof_Mn	Mn	0.5	0	0.5	0.942
_end
