data_functionalizedCrystal
_audit_creation_method	'EQeq! by Chris Wilmer'
_symmetry_space_group_name_H-M	'P1'
_symmetry_Int_Tables_number	1
_symmetry_cell_setting	triclinic
loop_
_symmetry_equiv_pos_as_xyz
  x,y,z
_cell_length_a	9.8155
_cell_length_b	10.1884
_cell_length_c	12.871
_cell_angle_alpha	69.002
_cell_angle_beta	69.676
_cell_angle_gamma	63.281
loop_
_atom_site_label
_atom_site_type_symbol
_atom_site_fract_x
_atom_site_fract_y
_atom_site_fract_z
_atom_site_charge
Mof_Cd	Cd	0.83929	0.12656	0.4174	0.447
Mof_C 	C 	0.9127	0.3114	0.218	0.29
Mof_C 	C 	0.9581	0.4064	0.1071	-0.06
Mof_C 	C 	0.05	0.3457	0.0135	-0.023
Mof_H 	H 	0.084	0.2421	0.0214	0.056
Mof_C 	C 	0.9082	0.5627	0.0916	-0.023
Mof_H 	H 	0.8458	0.6061	0.153	0.05
Mof_C 	C 	0.0745	0.1808	0.5368	0.315
Mof_C 	C 	0.0345	0.3469	0.5182	-0.061
Mof_C 	C 	0.9856	0.4475	0.423	-0.025
Mof_H 	H 	0.9769	0.4122	0.3691	0.06
Mof_C 	C 	0.0516	0.3993	0.5958	-0.019
Mof_H 	H 	0.0878	0.3321	0.6604	0.052
Mof_C 	C 	0.5906	0.3087	0.6068	0.026
Mof_H 	H 	0.5717	0.3992	0.551	0.03
Mof_C 	C 	0.518	0.2973	0.7161	-0.016
Mof_H 	H 	0.4428	0.375	0.7504	0.055
Mof_C 	C 	0.6861	0.0786	0.6856	0.098
Mof_H 	H 	0.7479	0.9759	0.6979	0.027
Mof_C 	C 	0.8066	0.1151	0.0031	-0.015
Mof_H 	H 	0.8822	0.1574	0.9788	0.042
Mof_C 	C 	0.7326	0.1243	0.9268	-0.063
Mof_H 	H 	0.7588	0.1728	0.8505	0.069
Mof_C 	C 	0.6175	0.0617	0.9616	0.011
Mof_C 	C 	0.5359	0.0713	0.8867	0.037
Mof_C 	C 	0.4223	0.0106	0.9205	-0.004
Mof_C 	C 	0.3392	0.0194	0.8455	-0.039
Mof_H 	H 	0.3605	0.0693	0.769	0.06
Mof_C 	C 	0.2316	0.9576	0.8828	-0.05
Mof_H 	H 	0.1808	0.9631	0.8314	0.067
Mof_N 	N 	0.5782	0.1448	0.7678	-0.123
Mof_N 	N 	0.6947	0.1741	0.5865	-0.148
Mof_O 	O 	0.8018	0.3707	0.2938	-0.277
Mof_O 	O 	0.9834	0.1704	0.2339	-0.269
Mof_O 	O 	0.0491	0.1336	0.4709	-0.292
Mof_O 	O 	0.1451	0.0909	0.6119	-0.285
Mof_Cd	Cd	0.16071	0.87344	0.5826	0.447
Mof_C 	C 	0.0873	0.6886	0.782	0.29
Mof_C 	C 	0.0419	0.5936	0.8929	-0.06
Mof_C 	C 	0.95	0.6543	0.9865	-0.023
Mof_H 	H 	0.916	0.7579	0.9786	0.056
Mof_C 	C 	0.0918	0.4373	0.9084	-0.023
Mof_H 	H 	0.1542	0.3939	0.847	0.05
Mof_C 	C 	0.9255	0.8192	0.4632	0.315
Mof_C 	C 	0.9655	0.6531	0.4818	-0.061
Mof_C 	C 	0.0144	0.5525	0.577	-0.025
Mof_H 	H 	0.0231	0.5878	0.6309	0.06
Mof_C 	C 	0.9484	0.6007	0.4042	-0.019
Mof_H 	H 	0.9122	0.6679	0.3396	0.052
Mof_C 	C 	0.4094	0.6913	0.3932	0.026
Mof_H 	H 	0.4283	0.6008	0.449	0.03
Mof_C 	C 	0.482	0.7027	0.2839	-0.016
Mof_H 	H 	0.5572	0.625	0.2496	0.055
Mof_C 	C 	0.3139	0.9214	0.3144	0.098
Mof_H 	H 	0.2521	0.0241	0.3021	0.027
Mof_C 	C 	0.1934	0.8849	0.9969	-0.015
Mof_H 	H 	0.1178	0.8426	0.0212	0.042
Mof_C 	C 	0.2674	0.8757	0.0732	-0.063
Mof_H 	H 	0.2412	0.8272	0.1495	0.069
Mof_C 	C 	0.3825	0.9383	0.0384	0.011
Mof_C 	C 	0.4641	0.9287	0.1133	0.037
Mof_C 	C 	0.5777	0.9894	0.0795	-0.004
Mof_C 	C 	0.6608	0.9806	0.1545	-0.039
Mof_H 	H 	0.6395	0.9307	0.231	0.06
Mof_C 	C 	0.7684	0.0424	0.1172	-0.05
Mof_H 	H 	0.8192	0.0369	0.1686	0.067
Mof_N 	N 	0.4218	0.8552	0.2322	-0.123
Mof_N 	N 	0.3053	0.8259	0.4135	-0.148
Mof_O 	O 	0.1982	0.6293	0.7062	-0.277
Mof_O 	O 	0.0166	0.8296	0.7661	-0.269
Mof_O 	O 	0.9509	0.8664	0.5291	-0.292
Mof_O 	O 	0.8549	0.9091	0.3881	-0.285
_end
