data_functionalizedCrystal
_audit_creation_method	'EQeq! by Chris Wilmer'
_symmetry_space_group_name_H-M	'P1'
_symmetry_Int_Tables_number	1
_symmetry_cell_setting	triclinic
loop_
_symmetry_equiv_pos_as_xyz
  x,y,z
_cell_length_a	6.6298
_cell_length_b	16.7638
_cell_length_c	12.7859
_cell_angle_alpha	90
_cell_angle_beta	90
_cell_angle_gamma	90
loop_
_atom_site_label
_atom_site_type_symbol
_atom_site_fract_x
_atom_site_fract_y
_atom_site_fract_z
_atom_site_charge
Mof_O 	O 	0.16631	0.16819	0.84278	-1.507
Mof_C 	C 	0.8096	0.03563	0.9692	0.031
Mof_O 	O 	0.66631	0.66819	0.34278	-1.498
Mof_C 	C 	0.3096	0.53563	0.4692	0.075
Mof_O 	O 	0.83369	0.33181	0.84278	-1.528
Mof_C 	C 	0.1904	0.46437	0.9692	0.063
Mof_O 	O 	0.33369	0.83181	0.34278	-1.498
Mof_C 	C 	0.6904	0.96437	0.4692	0.055
Mof_O 	O 	0.83369	0.66819	0.15722	-1.528
Mof_C 	C 	0.1904	0.53563	0.0308	0.063
Mof_O 	O 	0.33369	0.16819	0.65722	-1.498
Mof_C 	C 	0.6904	0.03563	0.5308	0.055
Mof_O 	O 	0.16631	0.83181	0.15722	-1.507
Mof_C 	C 	0.8096	0.96437	0.0308	0.031
Mof_O 	O 	0.66631	0.33181	0.65722	-1.498
Mof_C 	C 	0.3096	0.46437	0.5308	0.075
Mof_O 	O 	0.83369	0.83181	0.15722	-1.528
Mof_C 	C 	0.1904	0.96437	0.0308	0.063
Mof_O 	O 	0.33369	0.33181	0.65722	-1.498
Mof_C 	C 	0.6904	0.46437	0.5308	0.055
Mof_O 	O 	0.16631	0.66819	0.15722	-1.507
Mof_C 	C 	0.8096	0.53563	0.0308	0.031
Mof_O 	O 	0.66631	0.16819	0.65722	-1.498
Mof_C 	C 	0.3096	0.03563	0.5308	0.075
Mof_O 	O 	0.16631	0.33181	0.84278	-1.507
Mof_C 	C 	0.8096	0.46437	0.9692	0.031
Mof_O 	O 	0.66631	0.83181	0.34278	-1.498
Mof_C 	C 	0.3096	0.96437	0.4692	0.075
Mof_O 	O 	0.83369	0.16819	0.84278	-1.528
Mof_C 	C 	0.1904	0.03563	0.9692	0.063
Mof_O 	O 	0.33369	0.66819	0.34278	-1.498
Mof_C 	C 	0.6904	0.53563	0.4692	0.055
Mof_Al	Al	0.25	0.25	0.75	6.335
Mof_Al	Al	0.75	0.25	0.75	6.248
Mof_Al	Al	0.75	0.75	0.25	6.248
Mof_Al	Al	0.25	0.75	0.25	6.335
Mof_O 	O 	4.95462e-33	0.25	0.6852	-2.186
Mof_O 	O 	0.5	0.75	0.1852	-2.212
Mof_O 	O 	2.27629e-33	0.75	0.3148	-2.186
Mof_O 	O 	0.5	0.25	0.8148	-2.212
Mof_C 	C 	-1.09252e-32	0.0632	0.9458	-0.255
Mof_C 	C 	6.29739e-33	0.13686	0.8709	1.153
Mof_C 	C 	0.5	0.5632	0.4458	-0.293
Mof_C 	C 	0.5	0.63686	0.3709	1.109
Mof_C 	C 	2.46032e-32	0.4368	0.9458	-0.254
Mof_C 	C 	6.29739e-33	0.36314	0.8709	1.153
Mof_C 	C 	0.5	0.9368	0.4458	-0.293
Mof_C 	C 	0.5	0.86314	0.3709	1.109
Mof_C 	C 	-6.26967e-33	0.5632	0.0542	-0.254
Mof_C 	C 	9.3351e-34	0.63686	0.1291	1.153
Mof_C 	C 	0.5	0.0632	0.5542	-0.293
Mof_C 	C 	0.5	0.13686	0.6291	1.109
Mof_C 	C 	-6.26967e-33	0.9368	0.0542	-0.255
Mof_C 	C 	-1.68307e-32	0.86314	0.1291	1.153
Mof_C 	C 	0.5	0.4368	0.5542	-0.293
Mof_C 	C 	0.5	0.36314	0.6291	1.109
_end
