# CIF file generated by openbabel 3.1.0, see https://openbabel.org
data_I
_chemical_name_common 'LUFNAC03_clean'
_cell_length_a 11.8845
_cell_length_b 11.8845
_cell_length_c 16.357
_cell_angle_alpha 73.4542
_cell_angle_beta 73.4542
_cell_angle_gamma 78.4889
_space_group_name_H-M_alt 'P 1'
_space_group_name_Hall 'P 1'
loop_
    _symmetry_equiv_pos_as_xyz
    x,y,z
loop_
    _atom_site_label
    _atom_site_type_symbol
    _atom_site_fract_x
    _atom_site_fract_y
    _atom_site_fract_z
    _atom_site_occupancy
    Mn1      Mn       0.83252    0.61562    0.54678    1.000
    Mn2      Mn       0.38438    0.16748    0.95322    1.000
    Mn3      Mn       0.16748    0.38438    0.45322    1.000
    Mn4      Mn       0.61562    0.83252    0.04678    1.000
    H1       H        0.16560    0.45400    0.03640    1.000
    H2       H        0.81190    0.66110    0.27480    1.000
    H3       H        0.14290    0.48810    0.24480    1.000
    H4       H        0.98100    0.57440    0.04680    1.000
    H5       H        0.32720    0.36020    0.07920    1.000
    H6       H        0.26540    0.37880    0.17350    1.000
    H7       H        0.29270    0.63470    0.00210    1.000
    H8       H        0.46060    0.42320    0.18010    1.000
    H9       H        0.57890    0.56410    0.15090    1.000
    H10      H        0.41390    0.77370    0.98190    1.000
    H11      H        0.54600    0.83440    0.46360    1.000
    H12      H        0.33890    0.18810    0.22520    1.000
    H13      H        0.51190    0.85710    0.25520    1.000
    H14      H        0.42560    0.01900    0.45320    1.000
    H15      H        0.63980    0.67280    0.42080    1.000
    H16      H        0.62120    0.73460    0.32650    1.000
    H17      H        0.36530    0.70730    0.49790    1.000
    H18      H        0.57680    0.53940    0.31990    1.000
    H19      H        0.43590    0.42110    0.34910    1.000
    H20      H        0.22630    0.58610    0.51810    1.000
    H21      H        0.83440    0.54600    0.96360    1.000
    H22      H        0.18810    0.33890    0.72520    1.000
    H23      H        0.85710    0.51190    0.75520    1.000
    H24      H        0.01900    0.42560    0.95320    1.000
    H25      H        0.67280    0.63980    0.92080    1.000
    H26      H        0.73460    0.62120    0.82650    1.000
    H27      H        0.70730    0.36530    0.99790    1.000
    H28      H        0.53940    0.57680    0.81990    1.000
    H29      H        0.42110    0.43590    0.84910    1.000
    H30      H        0.58610    0.22630    0.01810    1.000
    H31      H        0.45400    0.16560    0.53640    1.000
    H32      H        0.66110    0.81190    0.77480    1.000
    H33      H        0.48810    0.14290    0.74480    1.000
    H34      H        0.57440    0.98100    0.54680    1.000
    H35      H        0.36020    0.32720    0.57920    1.000
    H36      H        0.37880    0.26540    0.67350    1.000
    H37      H        0.63470    0.29270    0.50210    1.000
    H38      H        0.42320    0.46060    0.68010    1.000
    H39      H        0.56410    0.57890    0.65090    1.000
    H40      H        0.77370    0.41390    0.48190    1.000
    C1       C        0.07760    0.51900    0.13640    1.000
    C2       C        0.97640    0.57380    0.27400    1.000
    C3       C        0.87870    0.62670    0.24030    1.000
    C4       C        0.88140    0.62780    0.15410    1.000
    C5       C        0.77840    0.69060    0.11630    1.000
    C6       C        0.35990    0.51250    0.09650    1.000
    C7       C        0.07680    0.52140    0.22250    1.000
    C8       C        0.97530    0.57310    0.36720    1.000
    C9       C        0.98030    0.57370    0.10400    1.000
    C10      C        0.28300    0.41860    0.11150    1.000
    C11      C        0.34860    0.61920    0.03500    1.000
    C12      C        0.44820    0.49440    0.13940    1.000
    C13      C        0.51800    0.58060    0.12240    1.000
    C14      C        0.42250    0.70250    0.02340    1.000
    C15      C        0.48100    0.92240    0.36360    1.000
    C16      C        0.42620    0.02360    0.22600    1.000
    C17      C        0.37330    0.12130    0.25970    1.000
    C18      C        0.37220    0.11860    0.34590    1.000
    C19      C        0.30940    0.22160    0.38370    1.000
    C20      C        0.48750    0.64010    0.40350    1.000
    C21      C        0.47860    0.92320    0.27750    1.000
    C22      C        0.42690    0.02470    0.13280    1.000
    C23      C        0.42630    0.01970    0.39600    1.000
    C24      C        0.58140    0.71700    0.38850    1.000
    C25      C        0.38080    0.65140    0.46500    1.000
    C26      C        0.50560    0.55180    0.36060    1.000
    C27      C        0.41940    0.48200    0.37760    1.000
    C28      C        0.29750    0.57750    0.47660    1.000
    C29      C        0.92240    0.48100    0.86360    1.000
    C30      C        0.02360    0.42620    0.72600    1.000
    C31      C        0.12130    0.37330    0.75970    1.000
    C32      C        0.11860    0.37220    0.84590    1.000
    C33      C        0.22160    0.30940    0.88370    1.000
    C34      C        0.64010    0.48750    0.90350    1.000
    C35      C        0.92320    0.47860    0.77750    1.000
    C36      C        0.02470    0.42690    0.63280    1.000
    C37      C        0.01970    0.42630    0.89600    1.000
    C38      C        0.71700    0.58140    0.88850    1.000
    C39      C        0.65140    0.38080    0.96500    1.000
    C40      C        0.55180    0.50560    0.86060    1.000
    C41      C        0.48200    0.41940    0.87760    1.000
    C42      C        0.57750    0.29750    0.97660    1.000
    C43      C        0.51900    0.07760    0.63640    1.000
    C44      C        0.57380    0.97640    0.77400    1.000
    C45      C        0.62670    0.87870    0.74030    1.000
    C46      C        0.62780    0.88140    0.65410    1.000
    C47      C        0.69060    0.77840    0.61630    1.000
    C48      C        0.51250    0.35990    0.59650    1.000
    C49      C        0.52140    0.07680    0.72250    1.000
    C50      C        0.57310    0.97530    0.86720    1.000
    C51      C        0.57370    0.98030    0.60400    1.000
    C52      C        0.41860    0.28300    0.61150    1.000
    C53      C        0.61920    0.34860    0.53500    1.000
    C54      C        0.49440    0.44820    0.63940    1.000
    C55      C        0.58060    0.51800    0.62240    1.000
    C56      C        0.70250    0.42250    0.52340    1.000
    N1       N        0.50490    0.68710    0.06770    1.000
    N2       N        0.17210    0.46290    0.08510    1.000
    N3       N        0.31290    0.49510    0.43230    1.000
    N4       N        0.53710    0.82790    0.41490    1.000
    N5       N        0.49510    0.31290    0.93230    1.000
    N6       N        0.82790    0.53710    0.91490    1.000
    N7       N        0.68710    0.50490    0.56770    1.000
    N8       N        0.46290    0.17210    0.58510    1.000
    O1       O        0.68780    0.73740    0.16420    1.000
    O2       O        0.06960    0.53540    0.39210    1.000
    O3       O        0.78430    0.69770    0.03640    1.000
    O4       O        0.88020    0.61400    0.41220    1.000
    O5       O        0.26260    0.31220    0.33580    1.000
    O6       O        0.46460    0.93040    0.10790    1.000
    O7       O        0.30230    0.21570    0.46360    1.000
    O8       O        0.38600    0.11980    0.08780    1.000
    O9       O        0.31220    0.26260    0.83580    1.000
    O10      O        0.93040    0.46460    0.60790    1.000
    O11      O        0.21570    0.30230    0.96360    1.000
    O12      O        0.11980    0.38600    0.58780    1.000
    O13      O        0.73740    0.68780    0.66420    1.000
    O14      O        0.53540    0.06960    0.89210    1.000
    O15      O        0.69770    0.78430    0.53640    1.000
    O16      O        0.61400    0.88020    0.91220    1.000
