data_functionalizedCrystal
_audit_creation_method	'EQeq! by Chris Wilmer'
_symmetry_space_group_name_H-M	'P1'
_symmetry_Int_Tables_number	1
_symmetry_cell_setting	triclinic
loop_
_symmetry_equiv_pos_as_xyz
  x,y,z
_cell_length_a	9.3234
_cell_length_b	18.823
_cell_length_c	18.823
_cell_angle_alpha	62.6703
_cell_angle_beta	80.4966
_cell_angle_gamma	99.5034
loop_
_atom_site_label
_atom_site_type_symbol
_atom_site_fract_x
_atom_site_fract_y
_atom_site_fract_z
_atom_site_charge
Mof_Sn	Sn	0.88542	0.49437	0.44323	1.426
Mof_Sn	Sn	0.57114	0.00209	0.66504	1.426
Mof_Sn	Sn	0.32865	0.44323	0.0624	1.424
Mof_Sn	Sn	0.23618	0.66504	0.33287	1.424
Mof_Sn	Sn	0.39105	0.0624	0.49437	1.422
Mof_Sn	Sn	0.56905	0.33287	0.00209	1.426
Mof_Sn	Sn	0.11458	0.50563	0.55677	1.425
Mof_Sn	Sn	0.42886	0.99791	0.33496	1.425
Mof_Sn	Sn	0.67135	0.55677	0.9376	1.424
Mof_Sn	Sn	0.76382	0.33496	0.66713	1.424
Mof_Sn	Sn	0.60895	0.9376	0.50563	1.422
Mof_Sn	Sn	0.43095	0.66713	0.99791	1.426
Mof_H 	H 	0.3964	0.2192	0.6933	0.136
Mof_H 	H 	0.2531	0.1462	0.7145	0.124
Mof_H 	H 	0.1193	0.1596	0.6205	0.079
Mof_H 	H 	0.0691	0.2332	0.494	-0.049
Mof_H 	H 	0.2497	0.3532	0.3854	0.066
Mof_H 	H 	0.4765	0.3993	0.4075	-0.023
Mof_H 	H 	0.861	0.0556	0.5966	0.29
Mof_H 	H 	0.8298	0.0603	0.6802	0.284
Mof_H 	H 	0.8044	0.1309	0.5978	0.289
Mof_H 	H 	0.3065	0.9498	0.7695	0.295
Mof_H 	H 	0.412	0.8968	0.817	0.312
Mof_H 	H 	0.3364	0.8746	0.7567	0.284
Mof_H 	H 	0.059	0.4492	0.3581	0.296
Mof_H 	H 	0.9465	0.3669	0.4375	0.283
Mof_H 	H 	0.8887	0.4178	0.3582	0.308
Mof_H 	H 	0.6817	0.575	0.4332	0.299
Mof_H 	H 	0.8353	0.6317	0.4284	0.284
Mof_H 	H 	0.814	0.6275	0.3477	0.287
Mof_H 	H 	0.0897	0.6933	0.0875	0.136
Mof_H 	H 	0.9676	0.7145	0.1393	0.124
Mof_H 	H 	0.7398	0.6205	0.2199	0.079
Mof_H 	H 	0.5631	0.494	0.2728	-0.049
Mof_H 	H 	0.6351	0.3854	0.2614	0.066
Mof_H 	H 	0.884	0.4075	0.1932	-0.023
Mof_H 	H 	0.4576	0.5966	0.3478	0.289
Mof_H 	H 	0.51	0.6802	0.2595	0.283
Mof_H 	H 	0.4022	0.5978	0.2713	0.288
Mof_H 	H 	0.076	0.7695	0.2807	0.294
Mof_H 	H 	0.229	0.817	0.2862	0.312
Mof_H 	H 	0.0931	0.7567	0.3687	0.284
Mof_H 	H 	0.4171	0.3581	0.1927	0.296
Mof_H 	H 	0.384	0.4375	0.1956	0.283
Mof_H 	H 	0.2469	0.3582	0.224	0.307
Mof_H 	H 	0.1149	0.4332	0.9918	0.299
Mof_H 	H 	0.2637	0.4284	0.9399	0.283
Mof_H 	H 	0.1617	0.3477	0.0248	0.285
Mof_H 	H 	0.1772	0.0875	0.2192	0.134
Mof_H 	H 	0.1069	0.1393	0.1462	0.122
Mof_H 	H 	0.9597	0.2199	0.1596	0.077
Mof_H 	H 	0.8359	0.2728	0.2332	-0.046
Mof_H 	H 	0.8965	0.2614	0.3532	0.064
Mof_H 	H 	0.0772	0.1932	0.3993	-0.021
Mof_H 	H 	0.8054	0.3478	0.0556	0.289
Mof_H 	H 	0.7695	0.2595	0.0603	0.284
Mof_H 	H 	0.6735	0.2713	0.1309	0.289
Mof_H 	H 	0.3567	0.2807	0.9498	0.294
Mof_H 	H 	0.5152	0.2862	0.8968	0.312
Mof_H 	H 	0.4618	0.3687	0.8746	0.284
Mof_H 	H 	0.6098	0.1927	0.4492	0.296
Mof_H 	H 	0.5796	0.1956	0.3669	0.283
Mof_H 	H 	0.4709	0.224	0.4178	0.308
Mof_H 	H 	0.1067	0.9918	0.575	0.299
Mof_H 	H 	0.2036	0.9399	0.6317	0.283
Mof_H 	H 	0.1865	0.0248	0.6275	0.284
Mof_H 	H 	0.6036	0.7808	0.3067	0.136
Mof_H 	H 	0.7469	0.8538	0.2855	0.124
Mof_H 	H 	0.8807	0.8404	0.3795	0.079
Mof_H 	H 	0.9309	0.7668	0.506	-0.049
Mof_H 	H 	0.7503	0.6468	0.6146	0.066
Mof_H 	H 	0.5235	0.6007	0.5925	-0.023
Mof_H 	H 	0.139	0.9444	0.4034	0.29
Mof_H 	H 	0.1702	0.9397	0.3198	0.284
Mof_H 	H 	0.1956	0.8691	0.4022	0.289
Mof_H 	H 	0.6935	0.0502	0.2305	0.295
Mof_H 	H 	0.588	0.1032	0.183	0.312
Mof_H 	H 	0.6636	0.1254	0.2433	0.284
Mof_H 	H 	0.941	0.5508	0.6419	0.296
Mof_H 	H 	0.0535	0.6331	0.5625	0.283
Mof_H 	H 	0.1113	0.5822	0.6418	0.308
Mof_H 	H 	0.3183	0.425	0.5668	0.299
Mof_H 	H 	0.1647	0.3683	0.5716	0.284
Mof_H 	H 	0.186	0.3725	0.6523	0.287
Mof_H 	H 	0.9103	0.3067	0.9125	0.136
Mof_H 	H 	0.0324	0.2855	0.8607	0.124
Mof_H 	H 	0.2602	0.3795	0.7801	0.079
Mof_H 	H 	0.4369	0.506	0.7272	-0.049
Mof_H 	H 	0.3649	0.6146	0.7386	0.066
Mof_H 	H 	0.116	0.5925	0.8068	-0.023
Mof_H 	H 	0.5424	0.4034	0.6522	0.289
Mof_H 	H 	0.49	0.3198	0.7405	0.283
Mof_H 	H 	0.5978	0.4022	0.7287	0.288
Mof_H 	H 	0.924	0.2305	0.7193	0.294
Mof_H 	H 	0.771	0.183	0.7138	0.312
Mof_H 	H 	0.9069	0.2433	0.6313	0.284
Mof_H 	H 	0.5829	0.6419	0.8073	0.296
Mof_H 	H 	0.616	0.5625	0.8044	0.283
Mof_H 	H 	0.7531	0.6418	0.776	0.307
Mof_H 	H 	0.8851	0.5668	0.0082	0.299
Mof_H 	H 	0.7363	0.5716	0.0601	0.283
Mof_H 	H 	0.8383	0.6523	0.9752	0.285
Mof_H 	H 	0.8228	0.9125	0.7808	0.134
Mof_H 	H 	0.8931	0.8607	0.8538	0.122
Mof_H 	H 	0.0403	0.7801	0.8404	0.077
Mof_H 	H 	0.1641	0.7272	0.7668	-0.046
Mof_H 	H 	0.1035	0.7386	0.6468	0.064
Mof_H 	H 	0.9228	0.8068	0.6007	-0.021
Mof_H 	H 	0.1946	0.6522	0.9444	0.289
Mof_H 	H 	0.2305	0.7405	0.9397	0.284
Mof_H 	H 	0.3265	0.7287	0.8691	0.289
Mof_H 	H 	0.6433	0.7193	0.0502	0.294
Mof_H 	H 	0.4848	0.7138	0.1032	0.312
Mof_H 	H 	0.5382	0.6313	0.1254	0.284
Mof_H 	H 	0.3902	0.8073	0.5508	0.296
Mof_H 	H 	0.4204	0.8044	0.6331	0.283
Mof_H 	H 	0.5291	0.776	0.5822	0.308
Mof_H 	H 	0.8933	0.0082	0.425	0.299
Mof_H 	H 	0.7964	0.0601	0.3683	0.283
Mof_H 	H 	0.8135	0.9752	0.3725	0.284
Mof_C 	C 	0.45454	0.12583	0.67781	0.435
Mof_C 	C 	0.35317	0.18124	0.67463	-0.447
Mof_C 	C 	0.33055	0.23256	0.59041	0.243
Mof_C 	C 	0.19386	0.20797	0.57689	-0.278
Mof_C 	C 	0.16328	0.25196	0.50172	0.106
Mof_C 	C 	0.26938	0.32317	0.43763	-0.224
Mof_C 	C 	0.40433	0.34975	0.45086	0.11
Mof_C 	C 	0.4371	0.30587	0.52587	-0.268
Mof_C 	C 	0.58482	0.34138	0.53492	0.428
Mof_C 	C 	0.79666	0.07148	0.6303	-1.052
Mof_C 	C 	0.38118	0.91989	0.76545	-1.065
Mof_C 	C 	0.95404	0.42249	0.39247	-1.054
Mof_C 	C 	0.79163	0.59568	0.40849	-1.047
Mof_C 	C 	0.13235	0.67781	0.19636	0.436
Mof_C 	C 	0.0278	0.67463	0.14413	-0.447
Mof_C 	C 	0.92096	0.59041	0.17703	0.243
Mof_C 	C 	0.77075	0.57689	0.21514	-0.278
Mof_C 	C 	0.665	0.50172	0.24632	0.106
Mof_C 	C 	0.70701	0.43763	0.2392	-0.224
Mof_C 	C 	0.85519	0.45086	0.19939	0.11
Mof_C 	C 	0.96297	0.52587	0.16826	-0.267
Mof_C 	C 	0.11974	0.53492	0.1237	0.427
Mof_C 	C 	0.42696	0.6303	0.29822	-1.051
Mof_C 	C 	0.14663	0.76545	0.31466	-1.065
Mof_C 	C 	0.34651	0.39247	0.18504	-1.055
Mof_C 	C 	0.20012	0.40849	0.99583	-1.043
Mof_C 	C 	0.32871	0.19636	0.12583	0.434
Mof_C 	C 	0.17193	0.14413	0.18124	-0.443
Mof_C 	C 	0.09799	0.17703	0.23256	0.237
Mof_C 	C 	0.98589	0.21514	0.20797	-0.269
Mof_C 	C 	0.91132	0.24632	0.25196	0.099
Mof_C 	C 	0.94621	0.2392	0.32317	-0.215
Mof_C 	C 	0.05458	0.19939	0.34975	0.102
Mof_C 	C 	0.13123	0.16826	0.30587	-0.263
Mof_C 	C 	0.24344	0.1237	0.34138	0.426
Mof_C 	C 	0.72518	0.29822	0.07148	-1.052
Mof_C 	C 	0.46129	0.31466	0.91989	-1.065
Mof_C 	C 	0.53155	0.18504	0.42249	-1.054
Mof_C 	C 	0.19595	0.99583	0.59568	-1.041
Mof_C 	C 	0.54546	0.87417	0.32219	0.435
Mof_C 	C 	0.64683	0.81876	0.32537	-0.447
Mof_C 	C 	0.66945	0.76744	0.40959	0.243
Mof_C 	C 	0.80614	0.79203	0.42311	-0.278
Mof_C 	C 	0.83672	0.74804	0.49828	0.106
Mof_C 	C 	0.73062	0.67683	0.56237	-0.224
Mof_C 	C 	0.59567	0.65025	0.54914	0.11
Mof_C 	C 	0.5629	0.69413	0.47413	-0.268
Mof_C 	C 	0.41518	0.65862	0.46508	0.428
Mof_C 	C 	0.20334	0.92852	0.3697	-1.052
Mof_C 	C 	0.61882	0.08011	0.23455	-1.065
Mof_C 	C 	0.04596	0.57751	0.60753	-1.054
Mof_C 	C 	0.20837	0.40432	0.59151	-1.047
Mof_C 	C 	0.86765	0.32219	0.80364	0.436
Mof_C 	C 	0.9722	0.32537	0.85587	-0.447
Mof_C 	C 	0.07904	0.40959	0.82297	0.243
Mof_C 	C 	0.22925	0.42311	0.78486	-0.278
Mof_C 	C 	0.335	0.49828	0.75368	0.106
Mof_C 	C 	0.29299	0.56237	0.7608	-0.224
Mof_C 	C 	0.14481	0.54914	0.80061	0.11
Mof_C 	C 	0.03703	0.47413	0.83174	-0.267
Mof_C 	C 	0.88026	0.46508	0.8763	0.427
Mof_C 	C 	0.57304	0.3697	0.70178	-1.051
Mof_C 	C 	0.85337	0.23455	0.68534	-1.065
Mof_C 	C 	0.65349	0.60753	0.81496	-1.055
Mof_C 	C 	0.79988	0.59151	0.00417	-1.043
Mof_C 	C 	0.67129	0.80364	0.87417	0.434
Mof_C 	C 	0.82807	0.85587	0.81876	-0.443
Mof_C 	C 	0.90201	0.82297	0.76744	0.237
Mof_C 	C 	0.01411	0.78486	0.79203	-0.269
Mof_C 	C 	0.08868	0.75368	0.74804	0.099
Mof_C 	C 	0.05379	0.7608	0.67683	-0.215
Mof_C 	C 	0.94542	0.80061	0.65025	0.102
Mof_C 	C 	0.86877	0.83174	0.69413	-0.263
Mof_C 	C 	0.75656	0.8763	0.65862	0.426
Mof_C 	C 	0.27482	0.70178	0.92852	-1.052
Mof_C 	C 	0.53871	0.68534	0.08011	-1.065
Mof_C 	C 	0.46845	0.81496	0.57751	-1.054
Mof_C 	C 	0.80405	0.00417	0.40432	-1.041
Mof_O 	O 	0.47034	0.10503	0.62131	-0.501
Mof_O 	O 	0.51293	0.09774	0.73585	-0.403
Mof_O 	O 	0.63969	0.29515	0.58988	-0.462
Mof_O 	O 	0.64538	0.41832	0.48568	-0.483
Mof_O 	O 	0.89592	0.43979	0.56313	-0.73
Mof_O 	O 	0.09165	0.62131	0.27366	-0.502
Mof_O 	O 	0.24878	0.73585	0.16641	-0.403
Mof_O 	O 	0.22957	0.58988	0.11497	-0.463
Mof_O 	O 	0.13106	0.48568	0.096	-0.483
Mof_O 	O 	0.45905	0.56313	0.99708	-0.729
Mof_O 	O 	0.36531	0.27366	0.10503	-0.501
Mof_O 	O 	0.41519	0.16641	0.09774	-0.403
Mof_O 	O 	0.34454	0.11497	0.29515	-0.462
Mof_O 	O 	0.22706	0.096	0.41832	-0.483
Mof_O 	O 	0.45613	0.99708	0.43979	-0.729
Mof_O 	O 	0.52966	0.89497	0.37869	-0.501
Mof_O 	O 	0.48707	0.90226	0.26415	-0.403
Mof_O 	O 	0.36031	0.70485	0.41012	-0.462
Mof_O 	O 	0.35462	0.58168	0.51432	-0.483
Mof_O 	O 	0.10408	0.56021	0.43687	-0.73
Mof_O 	O 	0.90835	0.37869	0.72634	-0.502
Mof_O 	O 	0.75122	0.26415	0.83359	-0.403
Mof_O 	O 	0.77043	0.41012	0.88503	-0.463
Mof_O 	O 	0.86894	0.51432	0.904	-0.483
Mof_O 	O 	0.54095	0.43687	0.00292	-0.729
Mof_O 	O 	0.63469	0.72634	0.89497	-0.501
Mof_O 	O 	0.58481	0.83359	0.90226	-0.403
Mof_O 	O 	0.65546	0.88503	0.70485	-0.462
Mof_O 	O 	0.77294	0.904	0.58168	-0.483
Mof_O 	O 	0.54387	0.00292	0.56021	-0.729
_end
