data_functionalizedCrystal
_audit_creation_method	'EQeq! by Chris Wilmer'
_symmetry_space_group_name_H-M	'P1'
_symmetry_Int_Tables_number	1
_symmetry_cell_setting	triclinic
loop_
_symmetry_equiv_pos_as_xyz
  x,y,z
_cell_length_a	17.0847
_cell_length_b	17.1201
_cell_length_c	17.1201
_cell_angle_alpha	90.0876
_cell_angle_beta	92.092
_cell_angle_gamma	87.908
loop_
_atom_site_label
_atom_site_type_symbol
_atom_site_fract_x
_atom_site_fract_y
_atom_site_fract_z
_atom_site_charge
Mof_Zn	Zn	0.31605	0.41542	0.7153	1.216
Mof_Zn	Zn	0.18405	0.41877	0.58123	1.214
Mof_Zn	Zn	0.18578	0.2875	0.7125	1.219
Mof_Zn	Zn	0.31605	0.2847	0.58458	1.217
Mof_H 	H 	0.168	0.2851	0.9527	0.028
Mof_H 	H 	0.5591	0.4291	0.7299	-0.007
Mof_H 	H 	0.3367	0.277	0.3436	0.002
Mof_H 	H 	0.3435	0.904	0.5752	0.066
Mof_H 	H 	0.9545	0.2803	0.7197	0.028
Mof_H 	H 	0.6891	0.2825	0.5545	0.099
Mof_H 	H 	0.3464	0.4317	0.9637	0.029
Mof_H 	H 	0.1655	0.9122	0.7088	0.065
Mof_H 	H 	0.6891	0.4455	0.7175	0.099
Mof_H 	H 	0.1679	0.7992	0.562	0.087
Mof_H 	H 	0.1655	0.2912	0.0878	0.065
Mof_H 	H 	0.9297	0.4462	0.5538	0.034
Mof_H 	H 	0.3464	0.0363	0.5683	0.029
Mof_H 	H 	0.3487	0.2835	0.2123	0.09
Mof_H 	H 	0.3487	0.7877	0.7165	0.09
Mof_H 	H 	0.7095	0.3134	0.6866	0.02
Mof_H 	H 	0.5591	0.2701	0.5709	-0.007
Mof_H 	H 	0.1636	0.4353	0.3353	0.007
Mof_H 	H 	0.8214	0.2697	0.7303	0.062
Mof_H 	H 	0.1636	0.6647	0.5647	0.007
Mof_H 	H 	0.1679	0.438	0.2008	0.087
Mof_H 	H 	0.168	0.0473	0.7149	0.028
Mof_H 	H 	0.7965	0.4397	0.5603	0.073
Mof_H 	H 	0.3435	0.4248	0.096	0.066
Mof_H 	H 	0.3367	0.6564	0.723	0.002
Mof_C 	C 	0.2048	0.3179	0.0619	-0.106
Mof_C 	C 	0.4604	0.3502	0.6498	0.439
Mof_C 	C 	0.3096	0.0123	0.6001	0.041
Mof_C 	C 	0.2569	0.8956	0.6444	0.035
Mof_C 	C 	0.2577	0.3578	0.8552	0.349
Mof_C 	C 	0.3096	0.3999	0.9877	0.041
Mof_C 	C 	0.2503	0.3552	0.353	-0.207
Mof_C 	C 	0.0443	0.3644	0.6356	0.393
Mof_C 	C 	0.2486	0.3553	0.4399	0.458
Mof_C 	C 	0.3018	0.6858	0.6888	0.127
Mof_C 	C 	0.3076	0.7635	0.6879	-0.176
Mof_C 	C 	0.9559	0.3635	0.6365	-0.124
Mof_C 	C 	0.2527	0.8075	0.6447	0.087
Mof_C 	C 	0.6642	0.3109	0.5949	-0.198
Mof_C 	C 	0.5857	0.3077	0.6019	0.16
Mof_C 	C 	0.2575	0.3565	0.9427	-0.115
Mof_C 	C 	0.5857	0.3981	0.6923	0.16
Mof_C 	C 	0.2048	0.9381	0.6821	-0.106
Mof_C 	C 	0.2005	0.6901	0.5977	0.112
Mof_C 	C 	0.3066	0.3961	0.0661	-0.108
Mof_C 	C 	0.7076	0.3547	0.6453	0.095
Mof_C 	C 	0.2527	0.3553	0.1925	0.087
Mof_C 	C 	0.2569	0.3556	0.1044	0.035
Mof_C 	C 	0.3018	0.3112	0.3142	0.127
Mof_C 	C 	0.6642	0.4051	0.6891	-0.198
Mof_C 	C 	0.2575	0.0573	0.6435	-0.115
Mof_C 	C 	0.2503	0.647	0.6448	-0.207
Mof_C 	C 	0.5433	0.352	0.648	-0.254
Mof_C 	C 	0.9078	0.4109	0.5891	0.045
Mof_C 	C 	0.2577	0.1448	0.6422	0.349
Mof_C 	C 	0.2005	0.4023	0.3099	0.112
Mof_C 	C 	0.2048	0.3155	0.9811	0.04
Mof_C 	C 	0.2486	0.5601	0.6447	0.458
Mof_C 	C 	0.3066	0.9339	0.6039	-0.108
Mof_C 	C 	0.2024	0.4033	0.2299	-0.168
Mof_C 	C 	0.2048	0.0189	0.6845	0.04
Mof_C 	C 	0.3076	0.3121	0.2365	-0.176
Mof_C 	C 	0.9205	0.3126	0.6874	0.039
Mof_C 	C 	0.8428	0.3051	0.6949	-0.099
Mof_C 	C 	0.2024	0.7701	0.5967	-0.168
Mof_C 	C 	0.8293	0.4068	0.5932	-0.097
Mof_C 	C 	0.7952	0.3566	0.6434	0.015
Mof_O 	O 	0.4261	0.3966	0.69706	-0.512
Mof_O 	O 	0.0824	0.3173	0.6827	-0.535
Mof_O 	O 	0.4261	0.30294	0.6034	-0.512
Mof_O 	O 	0.20245	0.40184	0.47114	-0.527
Mof_O 	O 	0.2941	0.30782	0.47558	-0.531
Mof_O 	O 	0.0722	0.4107	0.5893	-0.498
Mof_O 	O 	0.3049	0.17594	0.59874	-0.501
Mof_O 	O 	0.20245	0.52886	0.59816	-0.527
Mof_O 	O 	0.2069	0.1809	0.6897	-0.498
Mof_O 	O 	0.3049	0.40126	0.82406	-0.501
Mof_O 	O 	0.2069	0.3103	0.8191	-0.498
Mof_O 	O 	0.25092	0.35164	0.64836	-0.959
Mof_O 	O 	0.2941	0.52442	0.69218	-0.531
Mof_Zn	Zn	0.68395	0.7153	0.41542	1.217
Mof_Zn	Zn	0.81422	0.7125	0.2875	1.219
Mof_Zn	Zn	0.81595	0.58123	0.41877	1.215
Mof_Zn	Zn	0.68395	0.58458	0.2847	1.217
Mof_H 	H 	0.6633	0.723	0.6564	0.002
Mof_H 	H 	0.0455	0.7197	0.2803	0.028
Mof_H 	H 	0.8321	0.562	0.7992	0.087
Mof_H 	H 	0.2905	0.6866	0.3134	0.02
Mof_H 	H 	0.6536	0.9637	0.4317	0.029
Mof_H 	H 	0.6633	0.3436	0.277	0.002
Mof_H 	H 	0.3109	0.5545	0.2825	0.099
Mof_H 	H 	0.3109	0.7175	0.4455	0.099
Mof_H 	H 	0.6565	0.096	0.4248	0.066
Mof_H 	H 	0.1786	0.7303	0.2697	0.062
Mof_H 	H 	0.6536	0.5683	0.0363	0.029
Mof_H 	H 	0.8345	0.0878	0.2912	0.065
Mof_H 	H 	0.2035	0.5603	0.4397	0.073
Mof_H 	H 	0.8321	0.2008	0.438	0.087
Mof_H 	H 	0.8345	0.7088	0.9122	0.065
Mof_H 	H 	0.6513	0.7165	0.7877	0.09
Mof_H 	H 	0.8364	0.3353	0.4353	0.007
Mof_H 	H 	0.6565	0.5752	0.904	0.066
Mof_H 	H 	0.832	0.9527	0.2851	0.028
Mof_H 	H 	0.4409	0.5709	0.2701	-0.007
Mof_H 	H 	0.832	0.7149	0.0473	0.028
Mof_H 	H 	0.8364	0.5647	0.6647	0.007
Mof_H 	H 	0.0703	0.5538	0.4462	0.034
Mof_H 	H 	0.6513	0.2123	0.2835	0.09
Mof_H 	H 	0.4409	0.7299	0.4291	-0.007
Mof_C 	C 	0.0441	0.6365	0.3635	-0.124
Mof_C 	C 	0.7952	0.6821	0.9381	-0.106
Mof_C 	C 	0.7514	0.4399	0.3553	0.458
Mof_C 	C 	0.3358	0.5949	0.3109	-0.198
Mof_C 	C 	0.7952	0.0619	0.3179	-0.106
Mof_C 	C 	0.7952	0.9811	0.3155	0.04
Mof_C 	C 	0.7952	0.6845	0.0189	0.04
Mof_C 	C 	0.7423	0.6422	0.1448	0.349
Mof_C 	C 	0.4567	0.648	0.352	-0.254
Mof_C 	C 	0.6934	0.0661	0.3961	-0.108
Mof_C 	C 	0.2924	0.6453	0.3547	0.095
Mof_C 	C 	0.6904	0.9877	0.3999	0.041
Mof_C 	C 	0.7995	0.3099	0.4023	0.112
Mof_C 	C 	0.6924	0.6879	0.7635	-0.176
Mof_C 	C 	0.0922	0.5891	0.4109	0.045
Mof_C 	C 	0.7514	0.6447	0.5601	0.458
Mof_C 	C 	0.7473	0.6447	0.8075	0.087
Mof_C 	C 	0.5396	0.6498	0.3502	0.439
Mof_C 	C 	0.7431	0.6444	0.8956	0.035
Mof_C 	C 	0.2048	0.6434	0.3566	0.015
Mof_C 	C 	0.7423	0.8552	0.3578	0.349
Mof_C 	C 	0.1572	0.6949	0.3051	-0.099
Mof_C 	C 	0.7497	0.6448	0.647	-0.207
Mof_C 	C 	0.7473	0.1925	0.3553	0.087
Mof_C 	C 	0.3358	0.6891	0.4051	-0.198
Mof_C 	C 	0.7425	0.9427	0.3565	-0.115
Mof_C 	C 	0.7976	0.2299	0.4033	-0.168
Mof_C 	C 	0.4143	0.6923	0.3981	0.16
Mof_C 	C 	0.7995	0.5977	0.6901	0.112
Mof_C 	C 	0.7497	0.353	0.3552	-0.207
Mof_C 	C 	0.6904	0.6001	0.0123	0.041
Mof_C 	C 	0.7425	0.6435	0.0573	-0.115
Mof_C 	C 	0.6982	0.6888	0.6858	0.127
Mof_C 	C 	0.6924	0.2365	0.3121	-0.176
Mof_C 	C 	0.7431	0.1044	0.3556	0.035
Mof_C 	C 	0.7976	0.5967	0.7701	-0.168
Mof_C 	C 	0.6982	0.3142	0.3112	0.127
Mof_C 	C 	0.1707	0.5932	0.4068	-0.097
Mof_C 	C 	0.4143	0.6019	0.3077	0.16
Mof_C 	C 	0.9557	0.6356	0.3644	0.393
Mof_C 	C 	0.6934	0.6039	0.9339	-0.108
Mof_C 	C 	0.0795	0.6874	0.3126	0.039
Mof_O 	O 	0.7931	0.8191	0.3103	-0.498
Mof_O 	O 	0.9176	0.6827	0.3173	-0.535
Mof_O 	O 	0.6951	0.82406	0.40126	-0.501
Mof_O 	O 	0.5739	0.69706	0.3966	-0.512
Mof_O 	O 	0.79755	0.47114	0.40184	-0.527
Mof_O 	O 	0.9278	0.5893	0.4107	-0.498
Mof_O 	O 	0.74908	0.64836	0.35164	-0.959
Mof_O 	O 	0.79755	0.59816	0.52886	-0.527
Mof_O 	O 	0.5739	0.6034	0.30294	-0.512
Mof_O 	O 	0.6951	0.59874	0.17594	-0.501
Mof_O 	O 	0.7059	0.69218	0.52442	-0.531
Mof_O 	O 	0.7931	0.6897	0.1809	-0.498
Mof_O 	O 	0.7059	0.47558	0.30782	-0.531
_end
