data_functionalizedCrystal
_audit_creation_method	'EQeq! by Chris Wilmer'
_symmetry_space_group_name_H-M	'P1'
_symmetry_Int_Tables_number	1
_symmetry_cell_setting	triclinic
loop_
_symmetry_equiv_pos_as_xyz
  x,y,z
_cell_length_a	10.445
_cell_length_b	10.636
_cell_length_c	11.326
_cell_angle_alpha	83.28
_cell_angle_beta	74.83
_cell_angle_gamma	69.6
loop_
_atom_site_label
_atom_site_type_symbol
_atom_site_fract_x
_atom_site_fract_y
_atom_site_fract_z
_atom_site_charge
Mof_Tb	Tb	0.58736	0.59682	0.63162	2.028
Mof_O 	O 	0.3964	0.6184	0.4062	-0.57
Mof_O 	O 	0.471	0.7438	0.4965	-0.542
Mof_O 	O 	0.2811	0.2504	0.4407	-0.503
Mof_O 	O 	0.0506	0.3188	0.4544	-0.448
Mof_O 	O 	0.8728	0.0616	0.2621	-0.116
Mof_O 	O 	0.9509	0.8479	0.2743	-0.1
Mof_O 	O 	0.0035	0.4416	0.6695	-0.459
Mof_O 	O 	0.7728	0.4942	0.719	-0.571
Mof_O 	O 	0.5302	0.482	0.1636	-0.392
Mof_O 	O 	0.6582	0.3911	0.297	-0.432
Mof_O 	O 	0.174	0.2474	0.1595	-0.139
Mof_O 	O 	0.2715	0.2353	0.9689	-0.113
Mof_N 	N 	0.9587	0.9568	0.2854	0.011
Mof_N 	N 	0.1686	0.2625	0.0526	-0.003
Mof_C 	C 	0.2815	0.8535	0.4062	-0.148
Mof_C 	C 	0.2813	0.9793	0.4314	0.072
Mof_H 	H 	0.3531	0.985	0.4623	0.034
Mof_C 	C 	0.175	0.0957	0.4107	-0.095
Mof_C 	C 	0.0674	0.0864	0.3645	-0.072
Mof_H 	H 	0.9932	0.1627	0.3533	0.115
Mof_C 	C 	0.0733	0.9623	0.3357	0.048
Mof_C 	C 	0.1769	0.8446	0.3557	0.003
Mof_H 	H 	0.1768	0.7621	0.3362	0.044
Mof_C 	C 	0.3911	0.729	0.4378	0.52
Mof_C 	C 	0.1706	0.2317	0.4372	0.44
Mof_C 	C 	0.895	0.4173	0.8764	-0.077
Mof_C 	C 	0.7727	0.4434	0.9685	0.036
Mof_H 	H 	0.6858	0.4835	0.9492	0.048
Mof_C 	C 	0.7797	0.4097	0.0903	-0.061
Mof_C 	C 	0.9099	0.3492	0.1187	-0.003
Mof_H 	H 	0.9161	0.3259	0.1992	0.076
Mof_C 	C 	0.0299	0.3246	0.0245	0.046
Mof_C 	C 	0.0255	0.3563	0.9043	-0.052
Mof_H 	H 	0.1079	0.3374	0.8428	0.089
Mof_C 	C 	0.8896	0.4537	0.7458	0.503
Mof_C 	C 	0.6478	0.4309	0.1891	0.31
Mof_Tb	Tb	0.41264	0.40318	0.36838	2.015
Mof_O 	O 	0.6036	0.3816	0.5938	-0.57
Mof_O 	O 	0.529	0.2562	0.5035	-0.542
Mof_O 	O 	0.7189	0.7496	0.5593	-0.506
Mof_O 	O 	0.9494	0.6812	0.5456	-0.417
Mof_O 	O 	0.1272	0.9384	0.7379	-0.127
Mof_O 	O 	0.0491	0.1521	0.7257	-0.123
Mof_O 	O 	0.9965	0.5584	0.3305	-0.387
Mof_O 	O 	0.2272	0.5058	0.281	-0.558
Mof_O 	O 	0.4698	0.518	0.8364	-0.39
Mof_O 	O 	0.3418	0.6089	0.703	-0.432
Mof_O 	O 	0.826	0.7526	0.8405	-0.123
Mof_O 	O 	0.7285	0.7647	0.0311	-0.111
Mof_N 	N 	0.0413	0.0432	0.7146	-0.008
Mof_N 	N 	0.8314	0.7375	0.9474	-0.009
Mof_C 	C 	0.7185	0.1465	0.5938	-0.166
Mof_C 	C 	0.7187	0.0207	0.5686	0.107
Mof_H 	H 	0.6469	0.015	0.5377	0.022
Mof_C 	C 	0.825	0.9043	0.5893	-0.148
Mof_C 	C 	0.9326	0.9136	0.6355	0.079
Mof_H 	H 	0.0068	0.8373	0.6467	0.016
Mof_C 	C 	0.9267	0.0377	0.6643	0.047
Mof_C 	C 	0.8231	0.1554	0.6443	0.026
Mof_H 	H 	0.8232	0.2379	0.6638	0.05
Mof_C 	C 	0.6089	0.271	0.5622	0.528
Mof_C 	C 	0.8294	0.7683	0.5628	0.458
Mof_C 	C 	0.105	0.5827	0.1236	-0.125
Mof_C 	C 	0.2273	0.5566	0.0315	0.029
Mof_H 	H 	0.3142	0.5165	0.0508	0.05
Mof_C 	C 	0.2203	0.5903	0.9097	-0.035
Mof_C 	C 	0.0901	0.6508	0.8813	-0.105
Mof_H 	H 	0.0839	0.6741	0.8008	0.096
Mof_C 	C 	0.9701	0.6754	0.9755	0.12
Mof_C 	C 	0.9745	0.6437	0.0957	0.004
Mof_H 	H 	0.8921	0.6626	0.1572	0.076
Mof_C 	C 	0.1104	0.5463	0.2542	0.43
Mof_C 	C 	0.3522	0.5691	0.8109	0.299
Mof_Cu	Cu	5.77668e-17	0.5	0.5	0.903
_end
