data_functionalizedCrystal
_audit_creation_method	'EQeq! by Chris Wilmer'
_symmetry_space_group_name_H-M	'P1'
_symmetry_Int_Tables_number	1
_symmetry_cell_setting	triclinic
loop_
_symmetry_equiv_pos_as_xyz
  x,y,z
_cell_length_a	11.5047
_cell_length_b	14.0214
_cell_length_c	15.8315
_cell_angle_alpha	93.8312
_cell_angle_beta	90
_cell_angle_gamma	90
loop_
_atom_site_label
_atom_site_type_symbol
_atom_site_fract_x
_atom_site_fract_y
_atom_site_fract_z
_atom_site_charge
Mof_Yb	Yb	0.88869	0.66142	0.01405	2.029
Mof_Yb	Yb	0.38869	0.83858	0.48595	2.036
Mof_Yb	Yb	0.11131	0.33858	0.98595	2.029
Mof_Yb	Yb	0.61131	0.16142	0.51405	2.036
Mof_H 	H 	0.6849	0.4162	0.1182	0.155
Mof_H 	H 	0.5649	0.6522	0.0393	0.153
Mof_H 	H 	0.9312	0.6997	0.8072	0.03
Mof_H 	H 	0.9497	0.708	0.6541	0.063
Mof_H 	H 	0.8537	0.9981	0.1801	0.069
Mof_H 	H 	0.7389	0.0757	0.2945	0.01
Mof_H 	H 	0.4877	0.6097	0.1823	0.056
Mof_H 	H 	0.4046	0.5776	0.106	0.056
Mof_H 	H 	0.4644	0.4237	0.1051	0.046
Mof_H 	H 	0.5095	0.4513	0.1979	0.044
Mof_H 	H 	0.1849	0.0838	0.3818	0.155
Mof_H 	H 	0.0649	0.8478	0.4607	0.153
Mof_H 	H 	0.4312	0.8003	0.6928	0.028
Mof_H 	H 	0.4497	0.792	0.8459	0.063
Mof_H 	H 	0.3537	0.5019	0.3199	0.068
Mof_H 	H 	0.2389	0.4243	0.2055	0.013
Mof_H 	H 	0.9877	0.8903	0.3177	0.056
Mof_H 	H 	0.9046	0.9224	0.394	0.056
Mof_H 	H 	0.9644	0.0763	0.3949	0.045
Mof_H 	H 	0.0095	0.0487	0.3021	0.045
Mof_H 	H 	0.3151	0.5838	0.8818	0.155
Mof_H 	H 	0.4351	0.3478	0.9607	0.153
Mof_H 	H 	0.0688	0.3003	0.1928	0.03
Mof_H 	H 	0.0503	0.292	0.3459	0.063
Mof_H 	H 	0.1463	0.0019	0.8199	0.069
Mof_H 	H 	0.2611	0.9243	0.7055	0.01
Mof_H 	H 	0.5123	0.3903	0.8177	0.056
Mof_H 	H 	0.5954	0.4224	0.894	0.056
Mof_H 	H 	0.5356	0.5763	0.8949	0.046
Mof_H 	H 	0.4905	0.5487	0.8021	0.044
Mof_H 	H 	0.8151	0.9162	0.6182	0.155
Mof_H 	H 	0.9351	0.1522	0.5393	0.153
Mof_H 	H 	0.5688	0.1997	0.3072	0.028
Mof_H 	H 	0.5503	0.208	0.1541	0.063
Mof_H 	H 	0.6463	0.4981	0.6801	0.068
Mof_H 	H 	0.7611	0.5757	0.7945	0.013
Mof_H 	H 	0.0123	0.1097	0.6823	0.056
Mof_H 	H 	0.0954	0.0776	0.606	0.056
Mof_H 	H 	0.0356	0.9237	0.6051	0.045
Mof_H 	H 	0.9905	0.9513	0.6979	0.045
Mof_C 	C 	0.1064	0.7138	0.8207	-0.126
Mof_C 	C 	0.0018	0.707	0.7797	0.02
Mof_C 	C 	0.0125	0.7123	0.6911	-0.027
Mof_C 	C 	0.125	0.7247	0.6657	-0.101
Mof_C 	C 	0.1326	0.7152	0.913	0.414
Mof_C 	C 	0.1687	0.7398	0.5795	0.395
Mof_C 	C 	0.7641	0.8743	0.191	-0.059
Mof_C 	C 	0.7951	0.9677	0.2085	-0.066
Mof_C 	C 	0.7286	0.0125	0.2741	0.068
Mof_C 	C 	0.6471	0.9531	0.3046	-0.186
Mof_C 	C 	0.8159	0.7998	0.1314	0.307
Mof_C 	C 	0.5626	0.9707	0.3744	0.547
Mof_C 	C 	0.6588	0.5385	0.0644	0.392
Mof_C 	C 	0.4823	0.5718	0.1288	-0.034
Mof_C 	C 	0.5142	0.4668	0.1392	-0.026
Mof_C 	C 	0.6064	0.7862	0.6793	-0.128
Mof_C 	C 	0.5018	0.793	0.7203	0.024
Mof_C 	C 	0.5125	0.7877	0.8089	-0.028
Mof_C 	C 	0.625	0.7753	0.8343	-0.1
Mof_C 	C 	0.6326	0.7848	0.587	0.416
Mof_C 	C 	0.6687	0.7602	0.9205	0.395
Mof_C 	C 	0.2641	0.6257	0.309	-0.061
Mof_C 	C 	0.2951	0.5323	0.2915	-0.059
Mof_C 	C 	0.2286	0.4875	0.2259	0.059
Mof_C 	C 	0.1471	0.5469	0.1954	-0.181
Mof_C 	C 	0.3159	0.7002	0.3686	0.308
Mof_C 	C 	0.0626	0.5293	0.1256	0.549
Mof_C 	C 	0.1588	0.9615	0.4356	0.392
Mof_C 	C 	0.9823	0.9282	0.3712	-0.038
Mof_C 	C 	0.0142	0.0332	0.3608	-0.024
Mof_C 	C 	0.8936	0.2862	0.1793	-0.126
Mof_C 	C 	0.9982	0.293	0.2203	0.02
Mof_C 	C 	0.9875	0.2877	0.3089	-0.027
Mof_C 	C 	0.875	0.2753	0.3343	-0.101
Mof_C 	C 	0.8674	0.2848	0.087	0.414
Mof_C 	C 	0.8313	0.2602	0.4205	0.395
Mof_C 	C 	0.2359	0.1257	0.809	-0.059
Mof_C 	C 	0.2049	0.0323	0.7915	-0.066
Mof_C 	C 	0.2714	0.9875	0.7259	0.068
Mof_C 	C 	0.3529	0.0469	0.6954	-0.186
Mof_C 	C 	0.1841	0.2002	0.8686	0.307
Mof_C 	C 	0.4374	0.0293	0.6256	0.547
Mof_C 	C 	0.3412	0.4615	0.9356	0.392
Mof_C 	C 	0.5177	0.4282	0.8712	-0.034
Mof_C 	C 	0.4858	0.5332	0.8608	-0.026
Mof_C 	C 	0.3936	0.2138	0.3207	-0.128
Mof_C 	C 	0.4982	0.207	0.2797	0.024
Mof_C 	C 	0.4875	0.2123	0.1911	-0.028
Mof_C 	C 	0.375	0.2247	0.1657	-0.1
Mof_C 	C 	0.3674	0.2152	0.413	0.416
Mof_C 	C 	0.3313	0.2398	0.0795	0.395
Mof_C 	C 	0.7359	0.3743	0.691	-0.061
Mof_C 	C 	0.7049	0.4677	0.7085	-0.059
Mof_C 	C 	0.7714	0.5125	0.7741	0.059
Mof_C 	C 	0.8529	0.4531	0.8046	-0.181
Mof_C 	C 	0.6841	0.2998	0.6314	0.308
Mof_C 	C 	0.9374	0.4707	0.8744	0.549
Mof_C 	C 	0.8412	0.0385	0.5644	0.392
Mof_C 	C 	0.0177	0.0718	0.6288	-0.038
Mof_C 	C 	0.9858	0.9668	0.6392	-0.024
Mof_S 	S 	0.21858	0.72783	0.75059	0.071
Mof_S 	S 	0.65114	0.84121	0.25339	0.107
Mof_S 	S 	0.71858	0.77217	0.74941	0.072
Mof_S 	S 	0.15114	0.65879	0.24661	0.108
Mof_S 	S 	0.78142	0.27217	0.24941	0.071
Mof_S 	S 	0.34886	0.15879	0.74661	0.107
Mof_S 	S 	0.28142	0.22783	0.25059	0.072
Mof_S 	S 	0.84886	0.34121	0.75339	0.108
Mof_N 	N 	0.634	0.463	0.1085	-0.241
Mof_N 	N 	0.5698	0.6001	0.0694	-0.244
Mof_N 	N 	0.134	0.037	0.3915	-0.242
Mof_N 	N 	0.0698	0.8999	0.4306	-0.243
Mof_N 	N 	0.366	0.537	0.8915	-0.241
Mof_N 	N 	0.4302	0.3999	0.9306	-0.244
Mof_N 	N 	0.866	0.963	0.6085	-0.242
Mof_N 	N 	0.9302	0.1001	0.5694	-0.243
Mof_O 	O 	0.0463	0.72597	0.96267	-0.486
Mof_O 	O 	0.2357	0.7105	0.9351	-0.28
Mof_O 	O 	0.2729	0.77101	0.57621	-0.498
Mof_O 	O 	0.1039	0.7233	0.518	-0.288
Mof_O 	O 	0.7805	0.71488	0.13458	-0.408
Mof_O 	O 	0.8929	0.8218	0.0798	-0.383
Mof_O 	O 	0.5608	0.05096	0.41346	-0.552
Mof_O 	O 	0.4961	0.90207	0.38857	-0.547
Mof_O 	O 	0.7504	0.5489	0.0234	-0.489
Mof_O 	O 	0.5463	0.77403	0.53733	-0.487
Mof_O 	O 	0.7357	0.7895	0.5649	-0.281
Mof_O 	O 	0.7729	0.72899	0.92379	-0.496
Mof_O 	O 	0.6039	0.7767	0.982	-0.286
Mof_O 	O 	0.2805	0.78512	0.36542	-0.408
Mof_O 	O 	0.3929	0.6782	0.4202	-0.382
Mof_O 	O 	0.0608	0.44904	0.08654	-0.55
Mof_O 	O 	0.9961	0.59793	0.11143	-0.549
Mof_O 	O 	0.2504	0.9511	0.4766	-0.489
Mof_O 	O 	0.9537	0.27403	0.03733	-0.486
Mof_O 	O 	0.7643	0.2895	0.0649	-0.28
Mof_O 	O 	0.7271	0.22899	0.42379	-0.498
Mof_O 	O 	0.8961	0.2767	0.482	-0.288
Mof_O 	O 	0.2195	0.28512	0.86542	-0.408
Mof_O 	O 	0.1071	0.1782	0.9202	-0.383
Mof_O 	O 	0.4392	0.94904	0.58654	-0.552
Mof_O 	O 	0.5039	0.09793	0.61143	-0.547
Mof_O 	O 	0.2496	0.4511	0.9766	-0.489
Mof_O 	O 	0.4537	0.22597	0.46267	-0.487
Mof_O 	O 	0.2643	0.2105	0.4351	-0.281
Mof_O 	O 	0.2271	0.27101	0.07621	-0.496
Mof_O 	O 	0.3961	0.2233	0.018	-0.286
Mof_O 	O 	0.7195	0.21488	0.63458	-0.408
Mof_O 	O 	0.6071	0.3218	0.5798	-0.382
Mof_O 	O 	0.9392	0.55096	0.91346	-0.55
Mof_O 	O 	0.0039	0.40207	0.88857	-0.549
Mof_O 	O 	0.7496	0.0489	0.5234	-0.489
_end
