# CIF file generated by openbabel 3.1.0, see https://openbabel.org
data_I
_chemical_name_common 'image0'
_cell_length_a 10.0517
_cell_length_b 10.4293
_cell_length_c 14.905
_cell_angle_alpha 90
_cell_angle_beta 90
_cell_angle_gamma 90
_space_group_name_H-M_alt 'P 1'
_space_group_name_Hall 'P 1'
loop_
    _symmetry_equiv_pos_as_xyz
    x,y,z
loop_
    _atom_site_label
    _atom_site_type_symbol
    _atom_site_fract_x
    _atom_site_fract_y
    _atom_site_fract_z
    _atom_site_occupancy
    Zn1      Zn       0.86651    0.80572    0.67659    1.000
    Zn2      Zn       0.62939    0.14276    0.76325    1.000
    P1       P        0.59850    0.84080    0.77818    1.000
    P2       P        0.93664    0.10943    0.70409    1.000
    P3       P        0.92528    0.85143    0.46899    1.000
    O1       O        0.88440    0.77090    0.54962    1.000
    O2       O        0.67860    0.77960    0.70245    1.000
    O3       O        0.94110    0.96470    0.72007    1.000
    O4       O        0.03410    0.17140    0.76572    1.000
    O5       O        0.55350    0.97440    0.75495    1.000
    O6       O        0.80010    0.16330    0.70840    1.000
    O7       O        0.85930    0.79850    0.38640    1.000
    O8       O        0.48250    0.75760    0.80479    1.000
    O9       O        0.69630    0.84900    0.86162    1.000
    O10      O        0.98850    0.13880    0.60599    1.000
    O11      O        0.90100    0.99310    0.48404    1.000
    O12      O        0.08140    0.83300    0.45690    1.000
    H1       H        0.65800    0.90800    0.90800    1.000
    H2       H        0.94300    0.08300    0.56100    1.000
    H3       H        0.10600    0.78700    0.40100    1.000
    Zn3      Zn       0.63349    0.19428    0.17659    1.000
    Zn4      Zn       0.87061    0.85724    0.26325    1.000
    P4       P        0.90150    0.15920    0.27818    1.000
    P5       P        0.56336    0.89057    0.20409    1.000
    P6       P        0.57472    0.14857    0.96899    1.000
    O13      O        0.61560    0.22910    0.04962    1.000
    O14      O        0.82140    0.22040    0.20245    1.000
    O15      O        0.55890    0.03530    0.22007    1.000
    O16      O        0.46590    0.82860    0.26572    1.000
    O17      O        0.94650    0.02560    0.25495    1.000
    O18      O        0.69990    0.83670    0.20840    1.000
    O19      O        0.64070    0.20150    0.88640    1.000
    O20      O        0.01750    0.24240    0.30479    1.000
    O21      O        0.80370    0.15100    0.36162    1.000
    O22      O        0.51150    0.86120    0.10599    1.000
    O23      O        0.59900    0.00690    0.98404    1.000
    O24      O        0.41860    0.16700    0.95690    1.000
    H4       H        0.84200    0.09200    0.40800    1.000
    H5       H        0.55700    0.91700    0.06100    1.000
    H6       H        0.39400    0.21300    0.90100    1.000
    Zn5      Zn       0.13349    0.30572    0.82341    1.000
    Zn6      Zn       0.37061    0.64276    0.73675    1.000
    P7       P        0.40150    0.34080    0.72182    1.000
    P8       P        0.06336    0.60943    0.79591    1.000
    P9       P        0.07472    0.35143    0.03101    1.000
    O25      O        0.11560    0.27090    0.95038    1.000
    O26      O        0.32140    0.27960    0.79755    1.000
    O27      O        0.05890    0.46470    0.77993    1.000
    O28      O        0.96590    0.67140    0.73428    1.000
    O29      O        0.44650    0.47440    0.74505    1.000
    O30      O        0.19990    0.66330    0.79160    1.000
    O31      O        0.14070    0.29850    0.11360    1.000
    O32      O        0.51750    0.25760    0.69521    1.000
    O33      O        0.30370    0.34900    0.63838    1.000
    O34      O        0.01150    0.63880    0.89401    1.000
    O35      O        0.09900    0.49310    0.01596    1.000
    O36      O        0.91860    0.33300    0.04310    1.000
    H7       H        0.34200    0.40800    0.59200    1.000
    H8       H        0.05700    0.58300    0.93900    1.000
    H9       H        0.89400    0.28700    0.09900    1.000
    Zn7      Zn       0.36651    0.69428    0.32341    1.000
    Zn8      Zn       0.12939    0.35724    0.23675    1.000
    P10      P        0.09850    0.65920    0.22182    1.000
    P11      P        0.43664    0.39057    0.29591    1.000
    P12      P        0.42528    0.64857    0.53101    1.000
    O37      O        0.38440    0.72910    0.45038    1.000
    O38      O        0.17860    0.72040    0.29755    1.000
    O39      O        0.44110    0.53530    0.27993    1.000
    O40      O        0.53410    0.32860    0.23428    1.000
    O41      O        0.05350    0.52560    0.24505    1.000
    O42      O        0.30010    0.33670    0.29160    1.000
    O43      O        0.35930    0.70150    0.61360    1.000
    O44      O        0.98250    0.74240    0.19521    1.000
    O45      O        0.19630    0.65100    0.13838    1.000
    O46      O        0.48850    0.36120    0.39401    1.000
    O47      O        0.40100    0.50690    0.51596    1.000
    O48      O        0.58140    0.66700    0.54310    1.000
    H10      H        0.15800    0.59200    0.09200    1.000
    H11      H        0.44300    0.41700    0.43900    1.000
    H12      H        0.60600    0.71300    0.59900    1.000
