# CIF file generated by openbabel 3.1.0, see https://openbabel.org
data_I
_chemical_name_common 'IFUPAC_clean'
_cell_length_a 12.9554
_cell_length_b 13.9387
_cell_length_c 14.6905
_cell_angle_alpha 95.8925
_cell_angle_beta 90
_cell_angle_gamma 117.693
_space_group_name_H-M_alt 'P 1'
_space_group_name_Hall 'P 1'
loop_
    _symmetry_equiv_pos_as_xyz
    x,y,z
loop_
    _atom_site_label
    _atom_site_type_symbol
    _atom_site_fract_x
    _atom_site_fract_y
    _atom_site_fract_z
    _atom_site_occupancy
    Eu1      Eu       0.46713    0.34528    0.96779    1.000
    Eu2      Eu       0.12185    0.65472    0.53221    1.000
    Eu3      Eu       0.53287    0.65472    0.03221    1.000
    Eu4      Eu       0.87815    0.34528    0.46779    1.000
    H1       H        0.13530    0.28760    0.43250    1.000
    H2       H        0.31830    0.54340    0.29120    1.000
    H3       H        0.33140    0.26220    0.22950    1.000
    H4       H        0.04090    0.09280    0.38650    1.000
    H5       H        0.00880    0.92740    0.43300    1.000
    H6       H        0.33660    0.99980    0.39050    1.000
    H7       H        0.49200    0.22600    0.86300    1.000
    H8       H        0.53200    0.24800    0.91900    1.000
    H9       H        0.84770    0.71240    0.06750    1.000
    H10      H        0.77490    0.45660    0.20880    1.000
    H11      H        0.06920    0.73780    0.27050    1.000
    H12      H        0.94810    0.90720    0.11350    1.000
    H13      H        0.08140    0.07260    0.06700    1.000
    H14      H        0.33680    0.00020    0.10950    1.000
    H15      H        0.26600    0.77400    0.63700    1.000
    H16      H        0.28400    0.75200    0.58100    1.000
    H17      H        0.86470    0.71240    0.56750    1.000
    H18      H        0.68170    0.45660    0.70880    1.000
    H19      H        0.66860    0.73780    0.77050    1.000
    H20      H        0.95910    0.90720    0.61350    1.000
    H21      H        0.99120    0.07260    0.56700    1.000
    H22      H        0.66340    0.00020    0.60950    1.000
    H23      H        0.50800    0.77400    0.13700    1.000
    H24      H        0.46800    0.75200    0.08100    1.000
    H25      H        0.15230    0.28760    0.93250    1.000
    H26      H        0.22510    0.54340    0.79120    1.000
    H27      H        0.93080    0.26220    0.72950    1.000
    H28      H        0.05190    0.09280    0.88650    1.000
    H29      H        0.91860    0.92740    0.93300    1.000
    H30      H        0.66320    0.99980    0.89050    1.000
    H31      H        0.73400    0.22600    0.36300    1.000
    H32      H        0.71600    0.24800    0.41900    1.000
    C1       C        0.20870    0.14760    0.36050    1.000
    C2       C        0.23340    0.25840    0.33730    1.000
    C3       C        0.18770    0.31860    0.38780    1.000
    C4       C        0.22140    0.42720    0.37100    1.000
    C5       C        0.29400    0.47140    0.30110    1.000
    C6       C        0.33040    0.40680    0.24570    1.000
    C7       C        0.30290    0.30280    0.26510    1.000
    C8       C        0.18000    0.49600    0.42920    1.000
    C9       C        0.40730    0.45160    0.16620    1.000
    C10      C        0.10210    0.07560    0.38740    1.000
    C11      C        0.08280    0.97580    0.41650    1.000
    C12      C        0.17040    0.94980    0.42070    1.000
    C13      C        0.27590    0.01780    0.39070    1.000
    C14      C        0.29210    0.11440    0.36040    1.000
    C15      C        0.15170    0.84900    0.46160    1.000
    C16      C        0.06110    0.85240    0.13950    1.000
    C17      C        0.97500    0.74160    0.16270    1.000
    C18      C        0.86910    0.68140    0.11220    1.000
    C19      C        0.79420    0.57280    0.12900    1.000
    C20      C        0.82260    0.52860    0.19890    1.000
    C21      C        0.92360    0.59320    0.25430    1.000
    C22      C        0.00010    0.69720    0.23490    1.000
    C23      C        0.68400    0.50400    0.07080    1.000
    C24      C        0.95570    0.54840    0.33380    1.000
    C25      C        0.02650    0.92440    0.11260    1.000
    C26      C        0.10700    0.02420    0.08350    1.000
    C27      C        0.22060    0.05020    0.07930    1.000
    C28      C        0.25810    0.98220    0.10930    1.000
    C29      C        0.17770    0.88560    0.13960    1.000
    C30      C        0.30270    0.15100    0.03840    1.000
    C31      C        0.79130    0.85240    0.63950    1.000
    C32      C        0.76660    0.74160    0.66270    1.000
    C33      C        0.81230    0.68140    0.61220    1.000
    C34      C        0.77860    0.57280    0.62900    1.000
    C35      C        0.70600    0.52860    0.69890    1.000
    C36      C        0.66960    0.59320    0.75430    1.000
    C37      C        0.69710    0.69720    0.73490    1.000
    C38      C        0.82000    0.50400    0.57080    1.000
    C39      C        0.59270    0.54840    0.83380    1.000
    C40      C        0.89790    0.92440    0.61260    1.000
    C41      C        0.91720    0.02420    0.58350    1.000
    C42      C        0.82960    0.05020    0.57930    1.000
    C43      C        0.72410    0.98220    0.60930    1.000
    C44      C        0.70790    0.88560    0.63960    1.000
    C45      C        0.84830    0.15100    0.53840    1.000
    C46      C        0.93890    0.14760    0.86050    1.000
    C47      C        0.02500    0.25840    0.83730    1.000
    C48      C        0.13090    0.31860    0.88780    1.000
    C49      C        0.20580    0.42720    0.87100    1.000
    C50      C        0.17740    0.47140    0.80110    1.000
    C51      C        0.07640    0.40680    0.74570    1.000
    C52      C        0.99990    0.30280    0.76510    1.000
    C53      C        0.31600    0.49600    0.92920    1.000
    C54      C        0.04430    0.45160    0.66620    1.000
    C55      C        0.97350    0.07560    0.88740    1.000
    C56      C        0.89300    0.97580    0.91650    1.000
    C57      C        0.77940    0.94980    0.92070    1.000
    C58      C        0.74190    0.01780    0.89070    1.000
    C59      C        0.82230    0.11440    0.86040    1.000
    C60      C        0.69730    0.84900    0.96160    1.000
    O1       O        0.24730    0.59620    0.44420    1.000
    O2       O        0.43780    0.38940    0.12210    1.000
    O3       O        0.05830    0.79220    0.49390    1.000
    O4       O        0.23420    0.82480    0.46340    1.000
    O5       O        0.08160    0.45140    0.46250    1.000
    O6       O        0.42950    0.54580    0.14980    1.000
    O7       O        0.56730    0.25260    0.88880    1.000
    O8       O        0.65110    0.40380    0.05580    1.000
    O9       O        0.04840    0.61060    0.37790    1.000
    O10      O        0.26610    0.20780    0.00610    1.000
    O11      O        0.40940    0.17520    0.03660    1.000
    O12      O        0.63020    0.54860    0.03750    1.000
    O13      O        0.88370    0.45420    0.35020    1.000
    O14      O        0.31470    0.74740    0.61120    1.000
    O15      O        0.75270    0.40380    0.55580    1.000
    O16      O        0.56220    0.61060    0.87790    1.000
    O17      O        0.94170    0.20780    0.50610    1.000
    O18      O        0.76580    0.17520    0.53660    1.000
    O19      O        0.91840    0.54860    0.53750    1.000
    O20      O        0.57050    0.45420    0.85020    1.000
    O21      O        0.43270    0.74740    0.11120    1.000
    O22      O        0.34890    0.59620    0.94420    1.000
    O23      O        0.95160    0.38940    0.62210    1.000
    O24      O        0.73390    0.79220    0.99390    1.000
    O25      O        0.59060    0.82480    0.96340    1.000
    O26      O        0.36980    0.45140    0.96250    1.000
    O27      O        0.11630    0.54580    0.64980    1.000
    O28      O        0.68530    0.25260    0.38880    1.000
    F1       F        0.39550    0.17460    0.32690    1.000
    F2       F        0.22090    0.82540    0.17310    1.000
    F3       F        0.60450    0.82540    0.67310    1.000
    F4       F        0.77910    0.17460    0.82690    1.000
