data_functionalizedCrystal
_audit_creation_method	'EQeq! by Chris Wilmer'
_symmetry_space_group_name_H-M	'P1'
_symmetry_Int_Tables_number	1
_symmetry_cell_setting	triclinic
loop_
_symmetry_equiv_pos_as_xyz
  x,y,z
_cell_length_a	21.367
_cell_length_b	7.118
_cell_length_c	15.134
_cell_angle_alpha	90
_cell_angle_beta	90
_cell_angle_gamma	90
loop_
_atom_site_label
_atom_site_type_symbol
_atom_site_fract_x
_atom_site_fract_y
_atom_site_fract_z
_atom_site_charge
Mof_N 	N 	0.4337	0.1528	0.5614	-0.214
Mof_C 	C 	0.3878	0.0987	0.6102	0.028
Mof_H 	H 	0.3773	0.9741	0.6211	0.029
Mof_C 	C 	0.2409	0.113	0.8133	-0.058
Mof_H 	H 	0.2332	0.0129	0.8547	0.046
Mof_C 	C 	0.2956	0.11	0.7627	-0.047
Mof_H 	H 	0.3277	0.0183	0.7723	0.035
Mof_N 	N 	0.9337	0.6528	0.0614	-0.216
Mof_C 	C 	0.8878	0.5987	0.1102	0.098
Mof_H 	H 	0.8773	0.4741	0.1211	-0.036
Mof_C 	C 	0.7409	0.613	0.3133	-0.063
Mof_H 	H 	0.7332	0.5129	0.3547	0.045
Mof_C 	C 	0.7956	0.61	0.2627	-0.049
Mof_H 	H 	0.8277	0.5183	0.2723	0.041
Mof_N 	N 	0.5663	0.3472	0.5614	-0.224
Mof_C 	C 	0.6122	0.4013	0.6102	0.104
Mof_H 	H 	0.6227	0.5259	0.6211	-0.026
Mof_C 	C 	0.7591	0.387	0.8133	-0.065
Mof_H 	H 	0.7668	0.4871	0.8547	0.063
Mof_C 	C 	0.7044	0.39	0.7627	-0.042
Mof_H 	H 	0.6723	0.4817	0.7723	0.047
Mof_N 	N 	0.0663	0.8472	0.0614	-0.248
Mof_C 	C 	0.1122	0.9013	0.1102	0.169
Mof_H 	H 	0.1227	0.0259	0.1211	-0.101
Mof_C 	C 	0.2591	0.887	0.3133	-0.071
Mof_H 	H 	0.2668	0.9871	0.3547	0.059
Mof_C 	C 	0.2044	0.89	0.2627	-0.043
Mof_H 	H 	0.1723	0.9817	0.2723	0.042
Mof_N 	N 	0.5663	0.6528	0.4386	-0.224
Mof_C 	C 	0.6122	0.5987	0.3898	0.102
Mof_H 	H 	0.6227	0.4741	0.3789	-0.036
Mof_C 	C 	0.7591	0.613	0.1867	-0.069
Mof_H 	H 	0.7668	0.5129	0.1453	0.034
Mof_C 	C 	0.7044	0.61	0.2373	-0.055
Mof_H 	H 	0.6723	0.5183	0.2277	0.029
Mof_N 	N 	0.0663	0.1528	0.9386	-0.199
Mof_C 	C 	0.1122	0.0987	0.8898	0.033
Mof_H 	H 	0.1227	0.9741	0.8789	0.033
Mof_C 	C 	0.2591	0.113	0.6867	-0.063
Mof_H 	H 	0.2668	0.0129	0.6453	0.033
Mof_C 	C 	0.2044	0.11	0.7373	-0.055
Mof_H 	H 	0.1723	0.0183	0.7277	0.025
Mof_N 	N 	0.4337	0.8472	0.4386	-0.228
Mof_C 	C 	0.3878	0.9013	0.3898	0.18
Mof_H 	H 	0.3773	0.0259	0.3789	-0.091
Mof_C 	C 	0.2409	0.887	0.1867	-0.069
Mof_H 	H 	0.2332	0.9871	0.1453	0.049
Mof_C 	C 	0.2956	0.89	0.2373	-0.051
Mof_H 	H 	0.3277	0.9817	0.2277	0.043
Mof_N 	N 	0.9337	0.3472	0.9386	-0.182
Mof_C 	C 	0.8878	0.4013	0.8898	0.116
Mof_H 	H 	0.8773	0.5259	0.8789	-0.011
Mof_C 	C 	0.7409	0.387	0.6867	-0.062
Mof_H 	H 	0.7332	0.4871	0.6453	0.051
Mof_C 	C 	0.7956	0.39	0.7373	-0.05
Mof_H 	H 	0.8277	0.4817	0.7277	0.05
Mof_N 	N 	0.5663	0.8472	0.4386	-0.228
Mof_C 	C 	0.6122	0.9013	0.3898	0.18
Mof_H 	H 	0.6227	0.0259	0.3789	-0.09
Mof_C 	C 	0.7591	0.887	0.1867	-0.072
Mof_H 	H 	0.7668	0.9871	0.1453	0.05
Mof_C 	C 	0.7044	0.89	0.2373	-0.05
Mof_H 	H 	0.6723	0.9817	0.2277	0.043
Mof_N 	N 	0.0663	0.3472	0.9386	-0.207
Mof_C 	C 	0.1122	0.4013	0.8898	0.108
Mof_H 	H 	0.1227	0.5259	0.8789	-0.019
Mof_C 	C 	0.2591	0.387	0.6867	-0.067
Mof_H 	H 	0.2668	0.4871	0.6453	0.049
Mof_C 	C 	0.2044	0.39	0.7373	-0.05
Mof_H 	H 	0.1723	0.4817	0.7277	0.038
Mof_N 	N 	0.4337	0.6528	0.4386	-0.224
Mof_C 	C 	0.3878	0.5987	0.3898	0.102
Mof_H 	H 	0.3773	0.4741	0.3789	-0.036
Mof_C 	C 	0.2409	0.613	0.1867	-0.065
Mof_H 	H 	0.2332	0.5129	0.1453	0.032
Mof_C 	C 	0.2956	0.61	0.2373	-0.056
Mof_H 	H 	0.3277	0.5183	0.2277	0.029
Mof_N 	N 	0.9337	0.1528	0.9386	-0.174
Mof_C 	C 	0.8878	0.0987	0.8898	0.043
Mof_H 	H 	0.8773	0.9741	0.8789	0.04
Mof_C 	C 	0.7409	0.113	0.6867	-0.059
Mof_H 	H 	0.7332	0.0129	0.6453	0.035
Mof_C 	C 	0.7956	0.11	0.7373	-0.055
Mof_H 	H 	0.8277	0.0183	0.7277	0.037
Mof_N 	N 	0.4337	0.3472	0.5614	-0.224
Mof_C 	C 	0.3878	0.4013	0.6102	0.104
Mof_H 	H 	0.3773	0.5259	0.6211	-0.027
Mof_C 	C 	0.2409	0.387	0.8133	-0.062
Mof_H 	H 	0.2332	0.4871	0.8547	0.061
Mof_C 	C 	0.2956	0.39	0.7627	-0.043
Mof_H 	H 	0.3277	0.4817	0.7723	0.048
Mof_N 	N 	0.9337	0.8472	0.0614	-0.22
Mof_C 	C 	0.8878	0.9013	0.1102	0.177
Mof_H 	H 	0.8773	0.0259	0.1211	-0.091
Mof_C 	C 	0.7409	0.887	0.3133	-0.066
Mof_H 	H 	0.7332	0.9871	0.3547	0.062
Mof_C 	C 	0.7956	0.89	0.2627	-0.044
Mof_H 	H 	0.8277	0.9817	0.2723	0.054
Mof_N 	N 	0.5663	0.1528	0.5614	-0.215
Mof_C 	C 	0.6122	0.0987	0.6102	0.028
Mof_H 	H 	0.6227	0.9741	0.6211	0.028
Mof_C 	C 	0.7591	0.113	0.8133	-0.062
Mof_H 	H 	0.7668	0.0129	0.8547	0.047
Mof_C 	C 	0.7044	0.11	0.7627	-0.047
Mof_H 	H 	0.6723	0.0183	0.7723	0.035
Mof_N 	N 	0.0663	0.6528	0.0614	-0.244
Mof_C 	C 	0.1122	0.5987	0.1102	0.089
Mof_H 	H 	0.1227	0.4741	0.1211	-0.046
Mof_C 	C 	0.2591	0.613	0.3133	-0.068
Mof_H 	H 	0.2668	0.5129	0.3547	0.043
Mof_C 	C 	0.2044	0.61	0.2627	-0.048
Mof_H 	H 	0.1723	0.5183	0.2723	0.028
Mof_Cu	Cu	0.5	-1.09672e-32	0.5	0.809
Mof_Cu	Cu	-0	0.5	-0	0.763
Mof_Cu	Cu	0.5	0.5	0.5	0.827
Mof_Cu	Cu	-0	0	-0	0.745
Mof_N 	N 	0.3569	0.25	0.6434	-0.15
Mof_C 	C 	0.3021	0.25	0.6962	0.105
Mof_N 	N 	0.8569	0.75	0.1434	-0.175
Mof_C 	C 	0.8021	0.75	0.1962	0.116
Mof_N 	N 	0.6431	0.25	0.6434	-0.149
Mof_C 	C 	0.6979	0.25	0.6962	0.102
Mof_N 	N 	0.1431	0.75	0.1434	-0.177
Mof_C 	C 	0.1979	0.75	0.1962	0.109
Mof_N 	N 	0.6431	0.75	0.3566	-0.176
Mof_C 	C 	0.6979	0.75	0.3038	0.117
Mof_N 	N 	0.1431	0.25	0.8566	-0.15
Mof_C 	C 	0.1979	0.25	0.8038	0.108
Mof_N 	N 	0.3569	0.75	0.3566	-0.177
Mof_C 	C 	0.3021	0.75	0.3038	0.12
Mof_N 	N 	0.8569	0.25	0.8566	-0.149
Mof_C 	C 	0.8021	0.25	0.8038	0.115
_end
