# CIF file generated by openbabel 3.1.0, see https://openbabel.org
data_I
_chemical_name_common 'LIRTEM_clean'
_cell_length_a 12.0328
_cell_length_b 12.0328
_cell_length_c 12.0328
_cell_angle_alpha 109.181
_cell_angle_beta 112.062
_cell_angle_gamma 107.208
_space_group_name_H-M_alt 'P 1'
_space_group_name_Hall 'P 1'
loop_
    _symmetry_equiv_pos_as_xyz
    x,y,z
loop_
    _atom_site_label
    _atom_site_type_symbol
    _atom_site_fract_x
    _atom_site_fract_y
    _atom_site_fract_z
    _atom_site_occupancy
    H1       H        0.57930    0.69600    0.39030    1.000
    H2       H        0.74700    0.82600    0.67760    1.000
    H3       H        0.69680    0.88880    0.58540    1.000
    H4       H        0.57130    0.79710    0.71260    1.000
    H5       H        0.53010    0.87310    0.63300    1.000
    H6       H        0.28780    0.62760    0.30600    1.000
    H7       H        0.34430    0.77180    0.42490    1.000
    H8       H        0.43730    0.73830    0.37180    1.000
    H9       H        0.32330    0.39580    0.31230    1.000
    H10      H        0.36030    0.48280    0.24630    1.000
    H11      H        0.44840    0.41550    0.29330    1.000
    H12      H        0.46340    0.47470    0.55690    1.000
    H13      H        0.58920    0.48990    0.54010    1.000
    H14      H        0.59930    0.61150    0.65260    1.000
    C15      C        0.30310    0.58030    0.50640    1.000
    C16      C        0.72130    0.63790    0.47200    1.000
    C17      C        0.41990    0.66040    0.49830    1.000
    C18      C        0.48910    0.58110    0.45600    1.000
    C19      C        0.61240    0.68180    0.46960    1.000
    C20      C        0.66910    0.81310    0.60000    1.000
    C21      C        0.54870    0.79880    0.62710    1.000
    C22      C        0.36740    0.70360    0.39000    1.000
    C23      C        0.39670    0.45730    0.31400    1.000
    C24      C        0.54000    0.53490    0.56130    1.000
    O25      O        0.19260    0.47500    0.38360    1.000
    O26      O        0.31250    0.60000    0.61350    1.000
    O27      O        0.80800    0.65800    0.58000    1.000
    O28      O        0.68930    0.58580    0.35230    1.000
    H29      H        0.30570    0.18900    0.60970    1.000
    H30      H        0.14840    0.06940    0.32240    1.000
    H31      H        0.30340    0.11140    0.41460    1.000
    H32      H        0.08450    0.85870    0.28740    1.000
    H33      H        0.24010    0.89710    0.36700    1.000
    H34      H        0.32160    0.98180    0.69400    1.000
    H35      H        0.34690    0.91940    0.57510    1.000
    H36      H        0.36650    0.06550    0.62820    1.000
    H37      H        0.08350    0.01100    0.68770    1.000
    H38      H        0.23650    0.11400    0.75370    1.000
    H39      H        0.12220    0.15510    0.70670    1.000
    H40      H        0.91780    0.90650    0.44310    1.000
    H41      H        0.94980    0.04910    0.45990    1.000
    H42      H        0.95890    0.94670    0.34740    1.000
    C43      C        0.07390    0.79670    0.49360    1.000
    C44      C        0.16590    0.24930    0.52800    1.000
    C45      C        0.16210    0.92160    0.50170    1.000
    C46      C        0.12510    0.03310    0.54400    1.000
    C47      C        0.21220    0.14280    0.53040    1.000
    C48      C        0.21310    0.06910    0.40000    1.000
    C49      C        0.17170    0.92160    0.37290    1.000
    C50      C        0.31360    0.97740    0.61000    1.000
    C51      C        0.14330    0.08270    0.68600    1.000
    C52      C        0.97360    0.97870    0.43870    1.000
    O53      O        0.09140    0.80900    0.61640    1.000
    O54      O        0.98650    0.69900    0.38650    1.000
    O55      O        0.07800    0.22800    0.42000    1.000
    O56      O        0.23350    0.33700    0.64770    1.000
    H57      H        0.69430    0.30400    0.88330    1.000
    H58      H        0.85160    0.17400    0.92100    1.000
    H59      H        0.69660    0.11120    0.80800    1.000
    H60      H        0.91550    0.20290    0.77420    1.000
    H61      H        0.75990    0.12690    0.65700    1.000
    H62      H        0.67840    0.37240    0.66020    1.000
    H63      H        0.65310    0.22820    0.57250    1.000
    H64      H        0.63350    0.26170    0.69900    1.000
    H65      H        0.91650    0.60420    0.92750    1.000
    H66      H        0.76350    0.51720    0.87750    1.000
    H67      H        0.87780    0.58450    0.03290    1.000
    H68      H        0.08220    0.52530    0.98870    1.000
    H69      H        0.05020    0.51010    0.09930    1.000
    H70      H        0.04110    0.38850    0.98780    1.000
    C71      C        0.92610    0.41970    0.72280    1.000
    C72      C        0.83410    0.36210    0.08340    1.000
    C73      C        0.83790    0.33960    0.75950    1.000
    C74      C        0.87490    0.41890    0.90800    1.000
    C75      C        0.78780    0.31820    0.93060    1.000
    C76      C        0.78690    0.18690    0.85600    1.000
    C77      C        0.82830    0.20120    0.74990    1.000
    C78      C        0.68640    0.29640    0.66380    1.000
    C79      C        0.85670    0.54270    0.93940    1.000
    C80      C        0.02640    0.46510    0.00510    1.000
    O81      O        0.90860    0.52500    0.71760    1.000
    O82      O        0.01350    0.40000    0.71250    1.000
    O83      O        0.92200    0.34200    0.15000    1.000
    O84      O        0.76650    0.41420    0.10350    1.000
    H85      H        0.42070    0.81100    0.11670    1.000
    H86      H        0.25300    0.93060    0.07900    1.000
    H87      H        0.30320    0.88860    0.19200    1.000
    H88      H        0.42870    0.14130    0.22580    1.000
    H89      H        0.46990    0.10290    0.34300    1.000
    H90      H        0.71220    0.01820    0.33980    1.000
    H91      H        0.65570    0.08060    0.42750    1.000
    H92      H        0.56270    0.93450    0.30100    1.000
    H93      H        0.67670    0.98900    0.07250    1.000
    H94      H        0.63970    0.88600    0.12250    1.000
    H95      H        0.55160    0.84490    0.96710    1.000
    H96      H        0.53660    0.09350    0.01130    1.000
    H97      H        0.41080    0.95090    0.90070    1.000
    H98      H        0.40070    0.05330    0.01220    1.000
    C99      C        0.69690    0.20330    0.27720    1.000
    C100     C        0.27870    0.75070    0.91660    1.000
    C101     C        0.58010    0.07840    0.24050    1.000
    C102     C        0.51090    0.96690    0.09200    1.000
    C103     C        0.38760    0.85720    0.06940    1.000
    C104     C        0.33090    0.93090    0.14400    1.000
    C105     C        0.45130    0.07840    0.25010    1.000
    C106     C        0.63260    0.02260    0.33620    1.000
    C107     C        0.60330    0.91730    0.06060    1.000
    C108     C        0.46000    0.02130    0.99490    1.000
    O109     O        0.80740    0.19100    0.28240    1.000
    O110     O        0.68750    0.30100    0.28750    1.000
    O111     O        0.19200    0.77200    0.85000    1.000
    O112     O        0.31070    0.66300    0.89650    1.000
    Cd113    Cd       0.00000    0.33019    0.33019    1.000
    Cd114    Cd       0.00000    0.66981    0.66981    1.000
    Cd115    Cd       0.17478    0.50000    0.67478    1.000
    Cd116    Cd       0.82522    0.50000    0.32522    1.000
    O117     O        0.00000    0.50000    0.50000    1.000
    H118     H        0.07003    0.57003    0.50000    1.000
