data_functionalizedCrystal
_audit_creation_method	'EQeq! by Chris Wilmer'
_symmetry_space_group_name_H-M	'P1'
_symmetry_Int_Tables_number	1
_symmetry_cell_setting	triclinic
loop_
_symmetry_equiv_pos_as_xyz
  x,y,z
_cell_length_a	18.028
_cell_length_b	18.924
_cell_length_c	18.484
_cell_angle_alpha	109.975
_cell_angle_beta	90
_cell_angle_gamma	90
loop_
_atom_site_label
_atom_site_type_symbol
_atom_site_fract_x
_atom_site_fract_y
_atom_site_fract_z
_atom_site_charge
Mof_Cu	Cu	0.4253	0.57758	0.23771	0.898
Mof_Cu	Cu	0.5452	0.68797	0.36673	0.926
Mof_Cu	Cu	0.40547	0.22844	0.43766	0.892
Mof_Cu	Cu	0.39115	0.08941	0.27575	0.909
Mof_Cu	Cu	0.9253	0.42242	0.26229	0.903
Mof_Cu	Cu	0.0452	0.31203	0.13327	0.896
Mof_Cu	Cu	0.90547	0.77156	0.06234	0.868
Mof_Cu	Cu	0.89115	0.91059	0.22425	0.925
Mof_Cu	Cu	0.5747	0.42242	0.76229	0.9
Mof_Cu	Cu	0.4548	0.31203	0.63327	0.925
Mof_Cu	Cu	0.59453	0.77156	0.56234	0.893
Mof_Cu	Cu	0.60885	0.91059	0.72425	0.928
Mof_Cu	Cu	0.0747	0.57758	0.73771	0.896
Mof_Cu	Cu	0.9548	0.68797	0.86673	0.95
Mof_Cu	Cu	0.09453	0.22844	0.93766	0.921
Mof_Cu	Cu	0.10885	0.08941	0.77575	0.912
Mof_H 	H 	0.5031	0.5575	0.3401	0.29
Mof_H 	H 	0.4685	0.1021	0.392	0.287
Mof_H 	H 	0.5041	0.9902	0.2135	0.521
Mof_H 	H 	0.5268	0.0613	0.2042	0.404
Mof_H 	H 	0.5012	0.4731	0.1044	0.023
Mof_H 	H 	0.5327	0.3485	0.0503	0.099
Mof_H 	H 	0.5113	0.2685	0.118	0.106
Mof_H 	H 	0.4114	0.4378	0.2811	0.111
Mof_H 	H 	0.4432	0.3614	0.3633	0.071
Mof_H 	H 	0.4228	0.1948	0.1651	0.001
Mof_H 	H 	0.6396	0.8106	0.3152	0.042
Mof_H 	H 	0.6974	0.8935	0.5321	0.003
Mof_H 	H 	0.7136	0.012	0.496	0.006
Mof_H 	H 	0.8045	0.0882	0.4713	0.179
Mof_H 	H 	0.8775	0.0423	0.3655	0.064
Mof_H 	H 	0.777	0.8476	0.304	0.091
Mof_H 	H 	0.1584	0.4487	0.1637	0.031
Mof_H 	H 	0.2087	0.3646	0.943	0.008
Mof_H 	H 	0.2419	0.503	0.9679	0.273
Mof_H 	H 	0.3313	0.5954	0.9921	0.222
Mof_H 	H 	0.3982	0.6302	0.1027	0.047
Mof_H 	H 	0.2944	0.4828	0.1696	0.11
Mof_H 	H 	0.248	0.0477	0.3161	0.078
Mof_H 	H 	0.182	0.9529	0.3357	0.005
Mof_H 	H 	0.2438	0.8421	0.3307	0.134
Mof_H 	H 	0.4305	0.9333	0.2831	0.092
Mof_H 	H 	0.478	0.8467	0.3629	0.066
Mof_H 	H 	0.3198	0.7227	0.2363	0.003
Mof_H 	H 	0.0031	0.4425	0.1599	0.229
Mof_H 	H 	0.9685	0.8979	0.108	0.315
Mof_H 	H 	0.0041	0.0098	0.2865	0.277
Mof_H 	H 	0.0268	0.9387	0.2958	0.274
Mof_H 	H 	0.0012	0.5269	0.3956	-0.116
Mof_H 	H 	0.0327	0.6515	0.4497	0.277
Mof_H 	H 	0.0113	0.7315	0.382	-0.044
Mof_H 	H 	0.9114	0.5622	0.2189	0.081
Mof_H 	H 	0.9432	0.6386	0.1367	0.087
Mof_H 	H 	0.9228	0.8052	0.3349	0.029
Mof_H 	H 	0.1396	0.1894	0.1848	0.029
Mof_H 	H 	0.1974	0.1065	0.9679	0.115
Mof_H 	H 	0.2136	0.988	0.004	0.251
Mof_H 	H 	0.3045	0.9118	0.0287	0.017
Mof_H 	H 	0.3775	0.9577	0.1345	0.112
Mof_H 	H 	0.277	0.1524	0.196	0.128
Mof_H 	H 	0.6584	0.5513	0.3363	0.033
Mof_H 	H 	0.7087	0.6354	0.557	0.065
Mof_H 	H 	0.7419	0.497	0.5321	0.174
Mof_H 	H 	0.8313	0.4046	0.5079	0.108
Mof_H 	H 	0.8982	0.3698	0.3973	0.086
Mof_H 	H 	0.7944	0.5172	0.3304	0.105
Mof_H 	H 	0.748	0.9523	0.1839	-0.046
Mof_H 	H 	0.682	0.0471	0.1643	0.101
Mof_H 	H 	0.7438	0.1579	0.1693	0.045
Mof_H 	H 	0.9305	0.0667	0.2169	0.071
Mof_H 	H 	0.978	0.1533	0.1371	0.078
Mof_H 	H 	0.8198	0.2773	0.2637	0.007
Mof_H 	H 	0.4969	0.4425	0.6599	0.29
Mof_H 	H 	0.5315	0.8979	0.608	0.307
Mof_H 	H 	0.4959	0.0098	0.7865	0.385
Mof_H 	H 	0.4732	0.9387	0.7958	0.373
Mof_H 	H 	0.4988	0.5269	0.8956	0.049
Mof_H 	H 	0.4673	0.6515	0.9497	0.164
Mof_H 	H 	0.4887	0.7315	0.882	0.144
Mof_H 	H 	0.5886	0.5622	0.7189	0.11
Mof_H 	H 	0.5568	0.6386	0.6367	0.071
Mof_H 	H 	0.5772	0.8052	0.8349	0.029
Mof_H 	H 	0.3604	0.1894	0.6848	0.036
Mof_H 	H 	0.3026	0.1065	0.4679	-0.021
Mof_H 	H 	0.2864	0.988	0.504	0.284
Mof_H 	H 	0.1955	0.9118	0.5287	0.033
Mof_H 	H 	0.1225	0.9577	0.6345	0.114
Mof_H 	H 	0.223	0.1524	0.696	0.134
Mof_H 	H 	0.8416	0.5513	0.8363	0.039
Mof_H 	H 	0.7913	0.6354	0.057	0.117
Mof_H 	H 	0.7581	0.497	0.0321	0.081
Mof_H 	H 	0.6687	0.4046	0.0079	-0.012
Mof_H 	H 	0.6018	0.3698	0.8973	0.116
Mof_H 	H 	0.7056	0.5172	0.8304	0.103
Mof_H 	H 	0.752	0.9523	0.6839	-0.038
Mof_H 	H 	0.818	0.0471	0.6643	0.112
Mof_H 	H 	0.7562	0.1579	0.6693	0.06
Mof_H 	H 	0.5695	0.0667	0.7169	0.058
Mof_H 	H 	0.522	0.1533	0.6371	0.067
Mof_H 	H 	0.6802	0.2773	0.7637	0.013
Mof_H 	H 	0.9969	0.5575	0.8401	0.34
Mof_H 	H 	0.0315	0.1021	0.892	0.283
Mof_H 	H 	0.9959	0.9902	0.7135	0.614
Mof_H 	H 	0.9732	0.0613	0.7042	0.503
Mof_H 	H 	0.9988	0.4731	0.6044	0.185
Mof_H 	H 	0.9673	0.3485	0.5503	-0.013
Mof_H 	H 	0.9887	0.2685	0.618	0.298
Mof_H 	H 	0.0886	0.4378	0.7811	0.142
Mof_H 	H 	0.0568	0.3614	0.8633	0.063
Mof_H 	H 	0.0772	0.1948	0.6651	0
Mof_H 	H 	0.8604	0.8106	0.8152	0.048
Mof_H 	H 	0.8026	0.8935	0.0321	-0.118
Mof_H 	H 	0.7864	0.012	0.996	0.052
Mof_H 	H 	0.6955	0.0882	0.9713	0.187
Mof_H 	H 	0.6225	0.0423	0.8655	0.068
Mof_H 	H 	0.723	0.8476	0.804	0.098
Mof_H 	H 	0.3416	0.4487	0.6637	0.036
Mof_H 	H 	0.2913	0.3646	0.443	0.063
Mof_H 	H 	0.2581	0.503	0.4679	0.174
Mof_H 	H 	0.1687	0.5954	0.4921	0.101
Mof_H 	H 	0.1018	0.6302	0.6027	0.077
Mof_H 	H 	0.2056	0.4828	0.6696	0.108
Mof_H 	H 	0.252	0.0477	0.8161	0.083
Mof_H 	H 	0.318	0.9529	0.8357	0.018
Mof_H 	H 	0.2562	0.8421	0.8307	0.147
Mof_H 	H 	0.0695	0.9333	0.7831	0.085
Mof_H 	H 	0.022	0.8467	0.8629	0.064
Mof_H 	H 	0.1802	0.7227	0.7363	0.009
Mof_C 	C 	0.4895	0.4404	0.1306	0.048
Mof_C 	C 	0.5099	0.3659	0.0983	-0.007
Mof_C 	C 	0.4962	0.3185	0.1374	-0.071
Mof_C 	C 	0.4594	0.3459	0.2065	0.132
Mof_C 	C 	0.4377	0.4203	0.235	-0.004
Mof_C 	C 	0.4358	0.3139	0.3268	0.173
Mof_C 	C 	0.4244	0.2222	0.2175	0.15
Mof_C 	C 	0.643	0.819	0.3677	0.201
Mof_C 	C 	0.6745	0.8646	0.4864	0.183
Mof_C 	C 	0.7378	0.9219	0.402	0.066
Mof_C 	C 	0.7442	0.9942	0.4531	0.169
Mof_C 	C 	0.7978	0.0391	0.438	-0.204
Mof_C 	C 	0.8409	0.0115	0.3742	0.09
Mof_C 	C 	0.7822	0.8966	0.3378	-0.005
Mof_C 	C 	0.1593	0.4182	0.1122	0.19
Mof_C 	C 	0.1869	0.3716	0.9905	0.391
Mof_C 	C 	0.2589	0.4846	0.0674	0.212
Mof_C 	C 	0.2696	0.5172	0.013	-0.231
Mof_C 	C 	0.3226	0.5717	0.0278	-0.126
Mof_C 	C 	0.3632	0.5921	0.0941	0.085
Mof_C 	C 	0.302	0.5061	0.1333	-0.079
Mof_C 	C 	0.2727	0.0036	0.313	-0.171
Mof_C 	C 	0.2325	0.9472	0.3254	0.181
Mof_C 	C 	0.269	0.8815	0.3223	-0.196
Mof_C 	C 	0.3431	0.8771	0.3065	0.207
Mof_C 	C 	0.3799	0.937	0.2938	0.013
Mof_C 	C 	0.4495	0.8058	0.3342	0.153
Mof_C 	C 	0.363	0.7374	0.265	0.177
Mof_C 	C 	0.9895	0.5596	0.3694	0.393
Mof_C 	C 	0.0099	0.6341	0.4017	-0.443
Mof_C 	C 	0.9962	0.6815	0.3626	0.337
Mof_C 	C 	0.9594	0.6541	0.2935	-0.024
Mof_C 	C 	0.9377	0.5797	0.265	0.103
Mof_C 	C 	0.9358	0.6861	0.1732	0.165
Mof_C 	C 	0.9244	0.7778	0.2825	0.149
Mof_C 	C 	0.143	0.181	0.1323	0.199
Mof_C 	C 	0.1745	0.1354	0.0136	-0.02
Mof_C 	C 	0.2378	0.0781	0.098	0.248
Mof_C 	C 	0.2442	0.0058	0.0469	-0.423
Mof_C 	C 	0.2978	0.9609	0.062	0.226
Mof_C 	C 	0.3409	0.9885	0.1258	-0.003
Mof_C 	C 	0.2822	0.1034	0.1622	-0.135
Mof_C 	C 	0.6593	0.5818	0.3878	0.202
Mof_C 	C 	0.6869	0.6284	0.5095	0.184
Mof_C 	C 	0.7589	0.5154	0.4326	0.18
Mof_C 	C 	0.7696	0.4828	0.487	-0.097
Mof_C 	C 	0.8226	0.4283	0.4722	0.017
Mof_C 	C 	0.8632	0.4079	0.4059	0.031
Mof_C 	C 	0.802	0.4939	0.3667	-0.058
Mof_C 	C 	0.7727	0.9964	0.187	0.256
Mof_C 	C 	0.7325	0.0528	0.1746	-0.216
Mof_C 	C 	0.769	0.1185	0.1777	0.014
Mof_C 	C 	0.8431	0.1229	0.1935	0.094
Mof_C 	C 	0.8799	0.063	0.2062	0.074
Mof_C 	C 	0.9495	0.1942	0.1658	0.139
Mof_C 	C 	0.863	0.2626	0.235	0.168
Mof_C 	C 	0.5105	0.5596	0.8694	0.062
Mof_C 	C 	0.4901	0.6341	0.9017	-0
Mof_C 	C 	0.5038	0.6815	0.8626	-0.054
Mof_C 	C 	0.5406	0.6541	0.7935	0.138
Mof_C 	C 	0.5623	0.5797	0.765	0.001
Mof_C 	C 	0.5642	0.6861	0.6732	0.176
Mof_C 	C 	0.5756	0.7778	0.7825	0.151
Mof_C 	C 	0.357	0.181	0.6323	0.208
Mof_C 	C 	0.3255	0.1354	0.5136	0.18
Mof_C 	C 	0.2622	0.0781	0.598	0.275
Mof_C 	C 	0.2558	0.0058	0.5469	-0.424
Mof_C 	C 	0.2022	0.9609	0.562	0.237
Mof_C 	C 	0.1591	0.9885	0.6258	-0.003
Mof_C 	C 	0.2178	0.1034	0.6622	-0.142
Mof_C 	C 	0.8407	0.5818	0.8878	0.21
Mof_C 	C 	0.8131	0.6284	0.0095	-0.01
Mof_C 	C 	0.7411	0.5154	0.9326	0.152
Mof_C 	C 	0.7304	0.4828	0.987	0.021
Mof_C 	C 	0.6774	0.4283	0.9722	0.164
Mof_C 	C 	0.6368	0.4079	0.9059	-0.032
Mof_C 	C 	0.698	0.4939	0.8667	-0.04
Mof_C 	C 	0.7273	0.9964	0.687	0.253
Mof_C 	C 	0.7675	0.0528	0.6746	-0.201
Mof_C 	C 	0.731	0.1185	0.6777	0.02
Mof_C 	C 	0.6569	0.1229	0.6935	0.099
Mof_C 	C 	0.6201	0.063	0.7062	0.08
Mof_C 	C 	0.5505	0.1942	0.6658	0.147
Mof_C 	C 	0.637	0.2626	0.735	0.171
Mof_C 	C 	0.0105	0.4404	0.6306	-0.28
Mof_C 	C 	0.9901	0.3659	0.5983	0.436
Mof_C 	C 	0.0038	0.3185	0.6374	-0.467
Mof_C 	C 	0.0406	0.3459	0.7065	0.296
Mof_C 	C 	0.0623	0.4203	0.735	-0.108
Mof_C 	C 	0.0642	0.3139	0.8268	0.178
Mof_C 	C 	0.0756	0.2222	0.7175	0.152
Mof_C 	C 	0.857	0.819	0.8677	0.207
Mof_C 	C 	0.8255	0.8646	0.9864	0.36
Mof_C 	C 	0.7622	0.9219	0.902	0.101
Mof_C 	C 	0.7558	0.9942	0.9531	0.138
Mof_C 	C 	0.7022	0.0391	0.938	-0.169
Mof_C 	C 	0.6591	0.0115	0.8742	0.081
Mof_C 	C 	0.7178	0.8966	0.8378	-0.018
Mof_C 	C 	0.3407	0.4182	0.6122	0.201
Mof_C 	C 	0.3131	0.3716	0.4905	0.182
Mof_C 	C 	0.2411	0.4846	0.5674	0.181
Mof_C 	C 	0.2304	0.5172	0.513	-0.101
Mof_C 	C 	0.1774	0.5717	0.5278	0.019
Mof_C 	C 	0.1368	0.5921	0.5941	0.023
Mof_C 	C 	0.198	0.5061	0.6333	-0.06
Mof_C 	C 	0.2273	0.0036	0.813	-0.16
Mof_C 	C 	0.2675	0.9472	0.8254	0.183
Mof_C 	C 	0.231	0.8815	0.8223	-0.185
Mof_C 	C 	0.1569	0.8771	0.8065	0.211
Mof_C 	C 	0.1201	0.937	0.7938	0.016
Mof_C 	C 	0.0505	0.8058	0.8342	0.157
Mof_C 	C 	0.137	0.7374	0.765	0.18
Mof_N 	N 	0.4539	0.4676	0.1975	-0.186
Mof_N 	N 	0.4402	0.2963	0.2486	-0.143
Mof_N 	N 	0.4195	0.2536	0.3413	-0.185
Mof_N 	N 	0.4117	0.1954	0.2724	-0.18
Mof_N 	N 	0.6064	0.7819	0.4036	-0.18
Mof_N 	N 	0.6262	0.8116	0.4799	-0.193
Mof_N 	N 	0.6863	0.8711	0.4169	-0.137
Mof_N 	N 	0.8332	0.9422	0.3234	-0.18
Mof_N 	N 	0.1171	0.359	0.0805	-0.192
Mof_N 	N 	0.1348	0.329	0.0031	-0.291
Mof_N 	N 	0.2044	0.4276	0.0572	-0.224
Mof_N 	N 	0.3544	0.5594	0.1467	-0.191
Mof_N 	N 	0.3439	0.9991	0.297	-0.103
Mof_N 	N 	0.3839	0.8105	0.3019	-0.156
Mof_N 	N 	0.4675	0.7351	0.3193	-0.172
Mof_N 	N 	0.4111	0.6918	0.2756	-0.186
Mof_N 	N 	0.9539	0.5324	0.3025	-0.259
Mof_N 	N 	0.9402	0.7037	0.2514	-0.11
Mof_N 	N 	0.9195	0.7464	0.1587	-0.183
Mof_N 	N 	0.9117	0.8046	0.2276	-0.175
Mof_N 	N 	0.1064	0.2181	0.0964	-0.195
Mof_N 	N 	0.1262	0.1884	0.0201	-0.196
Mof_N 	N 	0.1863	0.1289	0.0831	-0.15
Mof_N 	N 	0.3332	0.0578	0.1766	-0.184
Mof_N 	N 	0.6171	0.641	0.4195	-0.179
Mof_N 	N 	0.6348	0.671	0.4969	-0.187
Mof_N 	N 	0.7044	0.5724	0.4428	-0.145
Mof_N 	N 	0.8544	0.4406	0.3533	-0.182
Mof_N 	N 	0.8439	0.0009	0.203	-0.263
Mof_N 	N 	0.8839	0.1895	0.1981	-0.137
Mof_N 	N 	0.9675	0.2649	0.1807	-0.161
Mof_N 	N 	0.9111	0.3082	0.2244	-0.185
Mof_N 	N 	0.5461	0.5324	0.8025	-0.185
Mof_N 	N 	0.5598	0.7037	0.7514	-0.14
Mof_N 	N 	0.5805	0.7464	0.6587	-0.183
Mof_N 	N 	0.5883	0.8046	0.7276	-0.176
Mof_N 	N 	0.3936	0.2181	0.5964	-0.182
Mof_N 	N 	0.3738	0.1884	0.5201	-0.196
Mof_N 	N 	0.3137	0.1289	0.5831	-0.181
Mof_N 	N 	0.1668	0.0578	0.6766	-0.18
Mof_N 	N 	0.8829	0.641	0.9195	-0.165
Mof_N 	N 	0.8652	0.671	0.9969	-0.092
Mof_N 	N 	0.7956	0.5724	0.9428	-0.072
Mof_N 	N 	0.6456	0.4406	0.8533	-0.173
Mof_N 	N 	0.6561	0.0009	0.703	-0.261
Mof_N 	N 	0.6161	0.1895	0.6981	-0.137
Mof_N 	N 	0.5325	0.2649	0.6807	-0.171
Mof_N 	N 	0.5889	0.3082	0.7244	-0.183
Mof_N 	N 	0.0461	0.4676	0.6975	-0.111
Mof_N 	N 	0.0598	0.2963	0.7486	-0.172
Mof_N 	N 	0.0805	0.2536	0.8413	-0.183
Mof_N 	N 	0.0883	0.1954	0.7724	-0.181
Mof_N 	N 	0.8936	0.7819	0.9036	-0.169
Mof_N 	N 	0.8738	0.8116	0.9799	-0.192
Mof_N 	N 	0.8137	0.8711	0.9169	-0.165
Mof_N 	N 	0.6668	0.9422	0.8234	-0.174
Mof_N 	N 	0.3829	0.359	0.5805	-0.179
Mof_N 	N 	0.3652	0.329	0.5031	-0.188
Mof_N 	N 	0.2956	0.4276	0.5572	-0.145
Mof_N 	N 	0.1456	0.5594	0.6467	-0.182
Mof_N 	N 	0.1561	0.9991	0.797	-0.105
Mof_N 	N 	0.1161	0.8105	0.8019	-0.153
Mof_N 	N 	0.0325	0.7351	0.8193	-0.178
Mof_N 	N 	0.0889	0.6918	0.7756	-0.184
Mof_O 	O 	0.4941	0.5962	0.3209	-0.57
Mof_O 	O 	0.4344	0.1296	0.3747	-0.59
Mof_O 	O 	0.4954	0.036	0.2195	-0.923
Mof_O 	O 	0.9941	0.4038	0.1791	-0.507
Mof_O 	O 	0.9344	0.8704	0.1253	-0.59
Mof_O 	O 	0.9954	0.964	0.2805	-0.547
Mof_O 	O 	0.5059	0.4038	0.6791	-0.569
Mof_O 	O 	0.5656	0.8704	0.6253	-0.58
Mof_O 	O 	0.5046	0.964	0.7805	-0.717
Mof_O 	O 	0.0059	0.5962	0.8209	-0.619
Mof_O 	O 	0.0656	0.1296	0.8747	-0.58
Mof_O 	O 	0.0046	0.036	0.7195	-1.081
Mof_Si	Si	0.5547	0.2019	0.9076	3.902
Mof_F 	F 	0.5227	0.2516	0.8601	-0.911
Mof_F 	F 	0.6337	0.1814	0.8658	-0.902
Mof_F 	F 	0.5163	0.1246	0.8575	-0.932
Mof_F 	F 	0.5794	0.1618	0.9709	-0.789
Mof_F 	F 	0.4749	0.2216	0.9583	-0.747
Mof_F 	F 	0.602	0.2714	0.9687	-0.807
Mof_Si	Si	0.72552	0.63068	0.21347	3.439
Mof_F 	F 	0.7657	0.6273	0.293	-0.803
Mof_F 	F 	0.8033	0.5972	0.164	-0.778
Mof_F 	F 	0.6947	0.5428	0.1961	-0.773
Mof_F 	F 	0.6868	0.6301	0.1326	-0.798
Mof_F 	F 	0.7558	0.7179	0.2314	-0.804
Mof_F 	F 	0.6457	0.6617	0.2609	-0.822
Mof_Si	Si	0.0547	0.7981	0.5924	3.858
Mof_F 	F 	0.0227	0.7484	0.6399	-0.925
Mof_F 	F 	0.1337	0.8186	0.6342	-0.897
Mof_F 	F 	0.0163	0.8754	0.6425	-0.945
Mof_F 	F 	0.0794	0.8382	0.5291	-0.806
Mof_F 	F 	0.9749	0.7784	0.5417	-0.74
Mof_F 	F 	0.102	0.7286	0.5313	-0.845
Mof_Si	Si	0.22552	0.36932	0.28653	3.44
Mof_F 	F 	0.2657	0.3727	0.207	-0.81
Mof_F 	F 	0.3033	0.4028	0.336	-0.777
Mof_F 	F 	0.1947	0.4572	0.3039	-0.773
Mof_F 	F 	0.1868	0.3699	0.3674	-0.787
Mof_F 	F 	0.2558	0.2821	0.2686	-0.808
Mof_F 	F 	0.1457	0.3383	0.2391	-0.829
Mof_Si	Si	0.4453	0.7981	0.0924	3.911
Mof_F 	F 	0.4773	0.7484	0.1399	-0.926
Mof_F 	F 	0.3663	0.8186	0.1342	-0.911
Mof_F 	F 	0.4837	0.8754	0.1425	-0.939
Mof_F 	F 	0.4206	0.8382	0.0291	-0.831
Mof_F 	F 	0.5251	0.7784	0.0417	-0.806
Mof_F 	F 	0.398	0.7286	0.0313	-0.878
Mof_Si	Si	0.27448	0.36932	0.78653	3.44
Mof_F 	F 	0.2343	0.3727	0.707	-0.805
Mof_F 	F 	0.1967	0.4028	0.836	-0.775
Mof_F 	F 	0.3053	0.4572	0.8039	-0.762
Mof_F 	F 	0.3132	0.3699	0.8674	-0.764
Mof_F 	F 	0.2442	0.2821	0.7686	-0.802
Mof_F 	F 	0.3543	0.3383	0.7391	-0.818
Mof_Si	Si	0.9453	0.2019	0.4076	3.962
Mof_F 	F 	0.9773	0.2516	0.3601	-0.911
Mof_F 	F 	0.8663	0.1814	0.3658	-0.916
Mof_F 	F 	0.9837	0.1246	0.3575	-0.923
Mof_F 	F 	0.9206	0.1618	0.4709	-0.815
Mof_F 	F 	0.0251	0.2216	0.4583	-0.82
Mof_F 	F 	0.898	0.2714	0.4687	-0.84
Mof_Si	Si	0.77448	0.63068	0.71347	3.44
Mof_F 	F 	0.7343	0.6273	0.793	-0.799
Mof_F 	F 	0.6967	0.5972	0.664	-0.776
Mof_F 	F 	0.8053	0.5428	0.6961	-0.763
Mof_F 	F 	0.8132	0.6301	0.6326	-0.776
Mof_F 	F 	0.7442	0.7179	0.7314	-0.8
Mof_F 	F 	0.8543	0.6617	0.7609	-0.812
Mof_Si	Si	0.5	-1.91822e-17	0.5	3.303
Mof_F 	F 	0.4823	0.9194	0.5137	-0.778
Mof_F 	F 	0.5815	0.0062	0.542	-0.818
Mof_F 	F 	0.4614	0.0483	0.5851	-0.777
Mof_F 	F 	0.5177	0.0806	0.4863	-0.809
Mof_F 	F 	0.4185	0.9938	0.458	-0.771
Mof_F 	F 	0.5386	0.9517	0.4149	-0.739
Mof_Si	Si	-0	0	-0	2.797
Mof_F 	F 	0.9823	0.0806	0.9863	-0.656
Mof_F 	F 	0.0815	0.9938	0.958	-0.65
Mof_F 	F 	0.9614	0.9517	0.9149	-0.621
Mof_F 	F 	0.0177	0.9194	0.0137	-0.762
Mof_F 	F 	0.9185	0.0062	0.042	-0.762
Mof_F 	F 	0.0386	0.0483	0.0851	-0.744
Mof_Si	Si	4.25931e-33	0.5	-0	2.899
Mof_F 	F 	0.989	0.4907	0.906	-0.656
Mof_F 	F 	0.0904	0.4943	0.9875	-0.67
Mof_F 	F 	0.9944	0.4064	0.9776	-0.641
Mof_F 	F 	0.011	0.5093	0.094	-0.745
Mof_F 	F 	0.9096	0.5057	0.0125	-0.729
Mof_F 	F 	0.0056	0.5936	0.0224	-0.781
Mof_Si	Si	0.5	0.5	0.5	3.38
Mof_F 	F 	0.489	0.5093	0.594	-0.774
Mof_F 	F 	0.5904	0.5057	0.5125	-0.786
Mof_F 	F 	0.4944	0.5936	0.5224	-0.787
Mof_F 	F 	0.511	0.4907	0.406	-0.775
Mof_F 	F 	0.4096	0.4943	0.4875	-0.785
Mof_F 	F 	0.5056	0.4064	0.4776	-0.788
_end
