# CIF file generated by openbabel 3.1.0, see https://openbabel.org
data_I
_chemical_name_common 'image0'
_cell_length_a 12.887
_cell_length_b 17.043
_cell_length_c 24.799
_cell_angle_alpha 90
_cell_angle_beta 90
_cell_angle_gamma 90
_space_group_name_H-M_alt 'P 1'
_space_group_name_Hall 'P 1'
loop_
    _symmetry_equiv_pos_as_xyz
    x,y,z
loop_
    _atom_site_label
    _atom_site_type_symbol
    _atom_site_fract_x
    _atom_site_fract_y
    _atom_site_fract_z
    _atom_site_occupancy
    N1       N        0.08180    0.33820    0.99903    1.000
    N2       N        0.12080    0.40860    0.98240    1.000
    N3       N        0.98540    0.37432    0.93247    1.000
    C1       C        0.20730    0.23380    0.01740    1.000
    H1       H        0.23940    0.20400    0.04730    1.000
    H2       H        0.16660    0.19610    0.99560    1.000
    C2       C        0.13470    0.29180    0.04080    1.000
    H3       H        0.17350    0.32750    0.06490    1.000
    H4       H        0.08210    0.26400    0.06280    1.000
    C3       C        0.06050    0.42770    0.94270    1.000
    H5       H        0.06820    0.47490    0.92280    1.000
    C4       C        0.00180    0.31930    0.96900    1.000
    H6       H        0.96170    0.27290    0.97290    1.000
    N4       N        0.08180    0.83820    0.49903    1.000
    N5       N        0.12080    0.90860    0.48240    1.000
    N6       N        0.98540    0.87432    0.43247    1.000
    C5       C        0.20730    0.73380    0.51740    1.000
    H7       H        0.23940    0.70400    0.54730    1.000
    H8       H        0.16660    0.69610    0.49560    1.000
    C6       C        0.13470    0.79180    0.54080    1.000
    H9       H        0.17350    0.82750    0.56490    1.000
    H10      H        0.08210    0.76400    0.56280    1.000
    C7       C        0.06050    0.92770    0.44270    1.000
    H11      H        0.06820    0.97490    0.42280    1.000
    C8       C        0.00180    0.81930    0.46900    1.000
    H12      H        0.96170    0.77290    0.47290    1.000
    N7       N        0.58180    0.33820    0.49903    1.000
    N8       N        0.62080    0.40860    0.48240    1.000
    N9       N        0.48540    0.37432    0.43247    1.000
    C9       C        0.70730    0.23380    0.51740    1.000
    H13      H        0.73940    0.20400    0.54730    1.000
    H14      H        0.66660    0.19610    0.49560    1.000
    C10      C        0.63470    0.29180    0.54080    1.000
    H15      H        0.67350    0.32750    0.56490    1.000
    H16      H        0.58210    0.26400    0.56280    1.000
    C11      C        0.56050    0.42770    0.44270    1.000
    H17      H        0.56820    0.47490    0.42280    1.000
    C12      C        0.50180    0.31930    0.46900    1.000
    H18      H        0.46170    0.27290    0.47290    1.000
    N10      N        0.58180    0.83820    0.99903    1.000
    N11      N        0.62080    0.90860    0.98240    1.000
    N12      N        0.48540    0.87432    0.93247    1.000
    C13      C        0.70730    0.73380    0.01740    1.000
    H19      H        0.73940    0.70400    0.04730    1.000
    H20      H        0.66660    0.69610    0.99560    1.000
    C14      C        0.63470    0.79180    0.04080    1.000
    H21      H        0.67350    0.82750    0.06490    1.000
    H22      H        0.58210    0.76400    0.06280    1.000
    C15      C        0.56050    0.92770    0.94270    1.000
    H23      H        0.56820    0.97490    0.92280    1.000
    C16      C        0.50180    0.81930    0.96900    1.000
    H24      H        0.46170    0.77290    0.97290    1.000
    N13      N        0.66820    0.41180    0.99903    1.000
    N14      N        0.62920    0.34140    0.98240    1.000
    N15      N        0.76460    0.37568    0.93247    1.000
    C17      C        0.54270    0.51620    0.01740    1.000
    H25      H        0.51060    0.54600    0.04730    1.000
    H26      H        0.58340    0.55390    0.99560    1.000
    C18      C        0.61530    0.45820    0.04080    1.000
    H27      H        0.57650    0.42250    0.06490    1.000
    H28      H        0.66790    0.48600    0.06280    1.000
    C19      C        0.68950    0.32230    0.94270    1.000
    H29      H        0.68180    0.27510    0.92280    1.000
    C20      C        0.74820    0.43070    0.96900    1.000
    H30      H        0.78830    0.47710    0.97290    1.000
    N16      N        0.66820    0.91180    0.49903    1.000
    N17      N        0.62920    0.84140    0.48240    1.000
    N18      N        0.76460    0.87568    0.43247    1.000
    C21      C        0.54270    0.01620    0.51740    1.000
    H31      H        0.51060    0.04600    0.54730    1.000
    H32      H        0.58340    0.05390    0.49560    1.000
    C22      C        0.61530    0.95820    0.54080    1.000
    H33      H        0.57650    0.92250    0.56490    1.000
    H34      H        0.66790    0.98600    0.56280    1.000
    C23      C        0.68950    0.82230    0.44270    1.000
    H35      H        0.68180    0.77510    0.42280    1.000
    C24      C        0.74820    0.93070    0.46900    1.000
    H36      H        0.78830    0.97710    0.47290    1.000
    N19      N        0.16820    0.41180    0.49903    1.000
    N20      N        0.12920    0.34140    0.48240    1.000
    N21      N        0.26460    0.37568    0.43247    1.000
    C25      C        0.04270    0.51620    0.51740    1.000
    H37      H        0.01060    0.54600    0.54730    1.000
    H38      H        0.08340    0.55390    0.49560    1.000
    C26      C        0.11530    0.45820    0.54080    1.000
    H39      H        0.07650    0.42250    0.56490    1.000
    H40      H        0.16790    0.48600    0.56280    1.000
    C27      C        0.18950    0.32230    0.44270    1.000
    H41      H        0.18180    0.27510    0.42280    1.000
    C28      C        0.24820    0.43070    0.46900    1.000
    H42      H        0.28830    0.47710    0.47290    1.000
    N22      N        0.16820    0.91180    0.99903    1.000
    N23      N        0.12920    0.84140    0.98240    1.000
    N24      N        0.26460    0.87568    0.93247    1.000
    C29      C        0.04270    0.01620    0.01740    1.000
    H43      H        0.01060    0.04600    0.04730    1.000
    H44      H        0.08340    0.05390    0.99560    1.000
    C30      C        0.11530    0.95820    0.04080    1.000
    H45      H        0.07650    0.92250    0.06490    1.000
    H46      H        0.16790    0.98600    0.06280    1.000
    C31      C        0.18950    0.82230    0.94270    1.000
    H47      H        0.18180    0.77510    0.92280    1.000
    C32      C        0.24820    0.93070    0.96900    1.000
    H48      H        0.28830    0.97710    0.97290    1.000
    N25      N        0.66820    0.33820    0.75097    1.000
    N26      N        0.62920    0.40860    0.76760    1.000
    N27      N        0.76460    0.37432    0.81753    1.000
    C33      C        0.54270    0.23380    0.73260    1.000
    H49      H        0.51060    0.20400    0.70270    1.000
    H50      H        0.58340    0.19610    0.75440    1.000
    C34      C        0.61530    0.29180    0.70920    1.000
    H51      H        0.57650    0.32750    0.68510    1.000
    H52      H        0.66790    0.26400    0.68720    1.000
    C35      C        0.68950    0.42770    0.80730    1.000
    H53      H        0.68180    0.47490    0.82720    1.000
    C36      C        0.74820    0.31930    0.78100    1.000
    H54      H        0.78830    0.27290    0.77710    1.000
    N28      N        0.66820    0.83820    0.25097    1.000
    N29      N        0.62920    0.90860    0.26760    1.000
    N30      N        0.76460    0.87432    0.31753    1.000
    C37      C        0.54270    0.73380    0.23260    1.000
    H55      H        0.51060    0.70400    0.20270    1.000
    H56      H        0.58340    0.69610    0.25440    1.000
    C38      C        0.61530    0.79180    0.20920    1.000
    H57      H        0.57650    0.82750    0.18510    1.000
    H58      H        0.66790    0.76400    0.18720    1.000
    C39      C        0.68950    0.92770    0.30730    1.000
    H59      H        0.68180    0.97490    0.32720    1.000
    C40      C        0.74820    0.81930    0.28100    1.000
    H60      H        0.78830    0.77290    0.27710    1.000
    N31      N        0.16820    0.33820    0.25097    1.000
    N32      N        0.12920    0.40860    0.26760    1.000
    N33      N        0.26460    0.37432    0.31753    1.000
    C41      C        0.04270    0.23380    0.23260    1.000
    H61      H        0.01060    0.20400    0.20270    1.000
    H62      H        0.08340    0.19610    0.25440    1.000
    C42      C        0.11530    0.29180    0.20920    1.000
    H63      H        0.07650    0.32750    0.18510    1.000
    H64      H        0.16790    0.26400    0.18720    1.000
    C43      C        0.18950    0.42770    0.30730    1.000
    H65      H        0.18180    0.47490    0.32720    1.000
    C44      C        0.24820    0.31930    0.28100    1.000
    H66      H        0.28830    0.27290    0.27710    1.000
    N34      N        0.16820    0.83820    0.75097    1.000
    N35      N        0.12920    0.90860    0.76760    1.000
    N36      N        0.26460    0.87432    0.81753    1.000
    C45      C        0.04270    0.73380    0.73260    1.000
    H67      H        0.01060    0.70400    0.70270    1.000
    H68      H        0.08340    0.69610    0.75440    1.000
    C46      C        0.11530    0.79180    0.70920    1.000
    H69      H        0.07650    0.82750    0.68510    1.000
    H70      H        0.16790    0.76400    0.68720    1.000
    C47      C        0.18950    0.92770    0.80730    1.000
    H71      H        0.18180    0.97490    0.82720    1.000
    C48      C        0.24820    0.81930    0.78100    1.000
    H72      H        0.28830    0.77290    0.77710    1.000
    N37      N        0.08180    0.41180    0.75097    1.000
    N38      N        0.12080    0.34140    0.76760    1.000
    N39      N        0.98540    0.37568    0.81753    1.000
    C49      C        0.20730    0.51620    0.73260    1.000
    H73      H        0.23940    0.54600    0.70270    1.000
    H74      H        0.16660    0.55390    0.75440    1.000
    C50      C        0.13470    0.45820    0.70920    1.000
    H75      H        0.17350    0.42250    0.68510    1.000
    H76      H        0.08210    0.48600    0.68720    1.000
    C51      C        0.06050    0.32230    0.80730    1.000
    H77      H        0.06820    0.27510    0.82720    1.000
    C52      C        0.00180    0.43070    0.78100    1.000
    H78      H        0.96170    0.47710    0.77710    1.000
    N40      N        0.08180    0.91180    0.25097    1.000
    N41      N        0.12080    0.84140    0.26760    1.000
    N42      N        0.98540    0.87568    0.31753    1.000
    C53      C        0.20730    0.01620    0.23260    1.000
    H79      H        0.23940    0.04600    0.20270    1.000
    H80      H        0.16660    0.05390    0.25440    1.000
    C54      C        0.13470    0.95820    0.20920    1.000
    H81      H        0.17350    0.92250    0.18510    1.000
    H82      H        0.08210    0.98600    0.18720    1.000
    C55      C        0.06050    0.82230    0.30730    1.000
    H83      H        0.06820    0.77510    0.32720    1.000
    C56      C        0.00180    0.93070    0.28100    1.000
    H84      H        0.96170    0.97710    0.27710    1.000
    N43      N        0.58180    0.41180    0.25097    1.000
    N44      N        0.62080    0.34140    0.26760    1.000
    N45      N        0.48540    0.37568    0.31753    1.000
    C57      C        0.70730    0.51620    0.23260    1.000
    H85      H        0.73940    0.54600    0.20270    1.000
    H86      H        0.66660    0.55390    0.25440    1.000
    C58      C        0.63470    0.45820    0.20920    1.000
    H87      H        0.67350    0.42250    0.18510    1.000
    H88      H        0.58210    0.48600    0.18720    1.000
    C59      C        0.56050    0.32230    0.30730    1.000
    H89      H        0.56820    0.27510    0.32720    1.000
    C60      C        0.50180    0.43070    0.28100    1.000
    H90      H        0.46170    0.47710    0.27710    1.000
    N46      N        0.58180    0.91180    0.75097    1.000
    N47      N        0.62080    0.84140    0.76760    1.000
    N48      N        0.48540    0.87568    0.81753    1.000
    C61      C        0.70730    0.01620    0.73260    1.000
    H91      H        0.73940    0.04600    0.70270    1.000
    H92      H        0.66660    0.05390    0.75440    1.000
    C62      C        0.63470    0.95820    0.70920    1.000
    H93      H        0.67350    0.92250    0.68510    1.000
    H94      H        0.58210    0.98600    0.68720    1.000
    C63      C        0.56050    0.82230    0.80730    1.000
    H95      H        0.56820    0.77510    0.82720    1.000
    C64      C        0.50180    0.93070    0.78100    1.000
    H96      H        0.46170    0.97710    0.77710    1.000
    N49      N        0.91820    0.66180    0.00097    1.000
    N50      N        0.87920    0.59140    0.01760    1.000
    N51      N        0.01460    0.62568    0.06753    1.000
    C65      C        0.79270    0.76620    0.98260    1.000
    H97      H        0.76060    0.79600    0.95270    1.000
    H98      H        0.83340    0.80390    0.00440    1.000
    C66      C        0.86530    0.70820    0.95920    1.000
    H99      H        0.82650    0.67250    0.93510    1.000
    H100     H        0.91790    0.73600    0.93720    1.000
    C67      C        0.93950    0.57230    0.05730    1.000
    H101     H        0.93180    0.52510    0.07720    1.000
    C68      C        0.99820    0.68070    0.03100    1.000
    H102     H        0.03830    0.72710    0.02710    1.000
    N52      N        0.91820    0.16180    0.50097    1.000
    N53      N        0.87920    0.09140    0.51760    1.000
    N54      N        0.01460    0.12568    0.56753    1.000
    C69      C        0.79270    0.26620    0.48260    1.000
    H103     H        0.76060    0.29600    0.45270    1.000
    H104     H        0.83340    0.30390    0.50440    1.000
    C70      C        0.86530    0.20820    0.45920    1.000
    H105     H        0.82650    0.17250    0.43510    1.000
    H106     H        0.91790    0.23600    0.43720    1.000
    C71      C        0.93950    0.07230    0.55730    1.000
    H107     H        0.93180    0.02510    0.57720    1.000
    C72      C        0.99820    0.18070    0.53100    1.000
    H108     H        0.03830    0.22710    0.52710    1.000
    N55      N        0.41820    0.66180    0.50097    1.000
    N56      N        0.37920    0.59140    0.51760    1.000
    N57      N        0.51460    0.62568    0.56753    1.000
    C73      C        0.29270    0.76620    0.48260    1.000
    H109     H        0.26060    0.79600    0.45270    1.000
    H110     H        0.33340    0.80390    0.50440    1.000
    C74      C        0.36530    0.70820    0.45920    1.000
    H111     H        0.32650    0.67250    0.43510    1.000
    H112     H        0.41790    0.73600    0.43720    1.000
    C75      C        0.43950    0.57230    0.55730    1.000
    H113     H        0.43180    0.52510    0.57720    1.000
    C76      C        0.49820    0.68070    0.53100    1.000
    H114     H        0.53830    0.72710    0.52710    1.000
    N58      N        0.41820    0.16180    0.00097    1.000
    N59      N        0.37920    0.09140    0.01760    1.000
    N60      N        0.51460    0.12568    0.06753    1.000
    C77      C        0.29270    0.26620    0.98260    1.000
    H115     H        0.26060    0.29600    0.95270    1.000
    H116     H        0.33340    0.30390    0.00440    1.000
    C78      C        0.36530    0.20820    0.95920    1.000
    H117     H        0.32650    0.17250    0.93510    1.000
    H118     H        0.41790    0.23600    0.93720    1.000
    C79      C        0.43950    0.07230    0.05730    1.000
    H119     H        0.43180    0.02510    0.07720    1.000
    C80      C        0.49820    0.18070    0.03100    1.000
    H120     H        0.53830    0.22710    0.02710    1.000
    N61      N        0.33180    0.58820    0.00097    1.000
    N62      N        0.37080    0.65860    0.01760    1.000
    N63      N        0.23540    0.62432    0.06753    1.000
    C81      C        0.45730    0.48380    0.98260    1.000
    H121     H        0.48940    0.45400    0.95270    1.000
    H122     H        0.41660    0.44610    0.00440    1.000
    C82      C        0.38470    0.54180    0.95920    1.000
    H123     H        0.42350    0.57750    0.93510    1.000
    H124     H        0.33210    0.51400    0.93720    1.000
    C83      C        0.31050    0.67770    0.05730    1.000
    H125     H        0.31820    0.72490    0.07720    1.000
    C84      C        0.25180    0.56930    0.03100    1.000
    H126     H        0.21170    0.52290    0.02710    1.000
    N64      N        0.33180    0.08820    0.50097    1.000
    N65      N        0.37080    0.15860    0.51760    1.000
    N66      N        0.23540    0.12432    0.56753    1.000
    C85      C        0.45730    0.98380    0.48260    1.000
    H127     H        0.48940    0.95400    0.45270    1.000
    H128     H        0.41660    0.94610    0.50440    1.000
    C86      C        0.38470    0.04180    0.45920    1.000
    H129     H        0.42350    0.07750    0.43510    1.000
    H130     H        0.33210    0.01400    0.43720    1.000
    C87      C        0.31050    0.17770    0.55730    1.000
    H131     H        0.31820    0.22490    0.57720    1.000
    C88      C        0.25180    0.06930    0.53100    1.000
    H132     H        0.21170    0.02290    0.52710    1.000
    N67      N        0.83180    0.58820    0.50097    1.000
    N68      N        0.87080    0.65860    0.51760    1.000
    N69      N        0.73540    0.62432    0.56753    1.000
    C89      C        0.95730    0.48380    0.48260    1.000
    H133     H        0.98940    0.45400    0.45270    1.000
    H134     H        0.91660    0.44610    0.50440    1.000
    C90      C        0.88470    0.54180    0.45920    1.000
    H135     H        0.92350    0.57750    0.43510    1.000
    H136     H        0.83210    0.51400    0.43720    1.000
    C91      C        0.81050    0.67770    0.55730    1.000
    H137     H        0.81820    0.72490    0.57720    1.000
    C92      C        0.75180    0.56930    0.53100    1.000
    H138     H        0.71170    0.52290    0.52710    1.000
    N70      N        0.83180    0.08820    0.00097    1.000
    N71      N        0.87080    0.15860    0.01760    1.000
    N72      N        0.73540    0.12432    0.06753    1.000
    C93      C        0.95730    0.98380    0.98260    1.000
    H139     H        0.98940    0.95400    0.95270    1.000
    H140     H        0.91660    0.94610    0.00440    1.000
    C94      C        0.88470    0.04180    0.95920    1.000
    H141     H        0.92350    0.07750    0.93510    1.000
    H142     H        0.83210    0.01400    0.93720    1.000
    C95      C        0.81050    0.17770    0.05730    1.000
    H143     H        0.81820    0.22490    0.07720    1.000
    C96      C        0.75180    0.06930    0.03100    1.000
    H144     H        0.71170    0.02290    0.02710    1.000
    N73      N        0.33180    0.66180    0.24903    1.000
    N74      N        0.37080    0.59140    0.23240    1.000
    N75      N        0.23540    0.62568    0.18247    1.000
    C97      C        0.45730    0.76620    0.26740    1.000
    H145     H        0.48940    0.79600    0.29730    1.000
    H146     H        0.41660    0.80390    0.24560    1.000
    C98      C        0.38470    0.70820    0.29080    1.000
    H147     H        0.42350    0.67250    0.31490    1.000
    H148     H        0.33210    0.73600    0.31280    1.000
    C99      C        0.31050    0.57230    0.19270    1.000
    H149     H        0.31820    0.52510    0.17280    1.000
    C100     C        0.25180    0.68070    0.21900    1.000
    H150     H        0.21170    0.72710    0.22290    1.000
    N76      N        0.33180    0.16180    0.74903    1.000
    N77      N        0.37080    0.09140    0.73240    1.000
    N78      N        0.23540    0.12568    0.68247    1.000
    C101     C        0.45730    0.26620    0.76740    1.000
    H151     H        0.48940    0.29600    0.79730    1.000
    H152     H        0.41660    0.30390    0.74560    1.000
    C102     C        0.38470    0.20820    0.79080    1.000
    H153     H        0.42350    0.17250    0.81490    1.000
    H154     H        0.33210    0.23600    0.81280    1.000
    C103     C        0.31050    0.07230    0.69270    1.000
    H155     H        0.31820    0.02510    0.67280    1.000
    C104     C        0.25180    0.18070    0.71900    1.000
    H156     H        0.21170    0.22710    0.72290    1.000
    N79      N        0.83180    0.66180    0.74903    1.000
    N80      N        0.87080    0.59140    0.73240    1.000
    N81      N        0.73540    0.62568    0.68247    1.000
    C105     C        0.95730    0.76620    0.76740    1.000
    H157     H        0.98940    0.79600    0.79730    1.000
    H158     H        0.91660    0.80390    0.74560    1.000
    C106     C        0.88470    0.70820    0.79080    1.000
    H159     H        0.92350    0.67250    0.81490    1.000
    H160     H        0.83210    0.73600    0.81280    1.000
    C107     C        0.81050    0.57230    0.69270    1.000
    H161     H        0.81820    0.52510    0.67280    1.000
    C108     C        0.75180    0.68070    0.71900    1.000
    H162     H        0.71170    0.72710    0.72290    1.000
    N82      N        0.83180    0.16180    0.24903    1.000
    N83      N        0.87080    0.09140    0.23240    1.000
    N84      N        0.73540    0.12568    0.18247    1.000
    C109     C        0.95730    0.26620    0.26740    1.000
    H163     H        0.98940    0.29600    0.29730    1.000
    H164     H        0.91660    0.30390    0.24560    1.000
    C110     C        0.88470    0.20820    0.29080    1.000
    H165     H        0.92350    0.17250    0.31490    1.000
    H166     H        0.83210    0.23600    0.31280    1.000
    C111     C        0.81050    0.07230    0.19270    1.000
    H167     H        0.81820    0.02510    0.17280    1.000
    C112     C        0.75180    0.18070    0.21900    1.000
    H168     H        0.71170    0.22710    0.22290    1.000
    N85      N        0.91820    0.58820    0.24903    1.000
    N86      N        0.87920    0.65860    0.23240    1.000
    N87      N        0.01460    0.62432    0.18247    1.000
    C113     C        0.79270    0.48380    0.26740    1.000
    H169     H        0.76060    0.45400    0.29730    1.000
    H170     H        0.83340    0.44610    0.24560    1.000
    C114     C        0.86530    0.54180    0.29080    1.000
    H171     H        0.82650    0.57750    0.31490    1.000
    H172     H        0.91790    0.51400    0.31280    1.000
    C115     C        0.93950    0.67770    0.19270    1.000
    H173     H        0.93180    0.72490    0.17280    1.000
    C116     C        0.99820    0.56930    0.21900    1.000
    H174     H        0.03830    0.52290    0.22290    1.000
    N88      N        0.91820    0.08820    0.74903    1.000
    N89      N        0.87920    0.15860    0.73240    1.000
    N90      N        0.01460    0.12432    0.68247    1.000
    C117     C        0.79270    0.98380    0.76740    1.000
    H175     H        0.76060    0.95400    0.79730    1.000
    H176     H        0.83340    0.94610    0.74560    1.000
    C118     C        0.86530    0.04180    0.79080    1.000
    H177     H        0.82650    0.07750    0.81490    1.000
    H178     H        0.91790    0.01400    0.81280    1.000
    C119     C        0.93950    0.17770    0.69270    1.000
    H179     H        0.93180    0.22490    0.67280    1.000
    C120     C        0.99820    0.06930    0.71900    1.000
    H180     H        0.03830    0.02290    0.72290    1.000
    N91      N        0.41820    0.58820    0.74903    1.000
    N92      N        0.37920    0.65860    0.73240    1.000
    N93      N        0.51460    0.62432    0.68247    1.000
    C121     C        0.29270    0.48380    0.76740    1.000
    H181     H        0.26060    0.45400    0.79730    1.000
    H182     H        0.33340    0.44610    0.74560    1.000
    C122     C        0.36530    0.54180    0.79080    1.000
    H183     H        0.32650    0.57750    0.81490    1.000
    H184     H        0.41790    0.51400    0.81280    1.000
    C123     C        0.43950    0.67770    0.69270    1.000
    H185     H        0.43180    0.72490    0.67280    1.000
    C124     C        0.49820    0.56930    0.71900    1.000
    H186     H        0.53830    0.52290    0.72290    1.000
    N94      N        0.41820    0.08820    0.24903    1.000
    N95      N        0.37920    0.15860    0.23240    1.000
    N96      N        0.51460    0.12432    0.18247    1.000
    C125     C        0.29270    0.98380    0.26740    1.000
    H187     H        0.26060    0.95400    0.29730    1.000
    H188     H        0.33340    0.94610    0.24560    1.000
    C126     C        0.36530    0.04180    0.29080    1.000
    H189     H        0.32650    0.07750    0.31490    1.000
    H190     H        0.41790    0.01400    0.31280    1.000
    C127     C        0.43950    0.17770    0.19270    1.000
    H191     H        0.43180    0.22490    0.17280    1.000
    C128     C        0.49820    0.06930    0.21900    1.000
    H192     H        0.53830    0.02290    0.22290    1.000
    Cu1      Cu       0.87500    0.37500    0.87500    1.000
    Cu2      Cu       0.87500    0.87500    0.37500    1.000
    Cu3      Cu       0.37500    0.37500    0.37500    1.000
    Cu4      Cu       0.37500    0.87500    0.87500    1.000
    Cu5      Cu       0.12500    0.62500    0.12500    1.000
    Cu6      Cu       0.12500    0.12500    0.62500    1.000
    Cu7      Cu       0.62500    0.62500    0.62500    1.000
    Cu8      Cu       0.62500    0.12500    0.12500    1.000
