data_functionalizedCrystal
_audit_creation_method	'EQeq! by Chris Wilmer'
_symmetry_space_group_name_H-M	'P1'
_symmetry_Int_Tables_number	1
_symmetry_cell_setting	triclinic
loop_
_symmetry_equiv_pos_as_xyz
  x,y,z
_cell_length_a	19.2151
_cell_length_b	30.1389
_cell_length_c	13.8688
_cell_angle_alpha	90
_cell_angle_beta	128.771
_cell_angle_gamma	90
loop_
_atom_site_label
_atom_site_type_symbol
_atom_site_fract_x
_atom_site_fract_y
_atom_site_fract_z
_atom_site_charge
Mof_Ag	Ag	0.19928	0.22289	0.38637	0.64
Mof_O 	O 	0.0752	0.12273	0.2408	-0.346
Mof_O 	O 	0.1612	0.16964	0.2323	-0.263
Mof_O 	O 	0.283	0.17243	0.5325	-0.271
Mof_O 	O 	0.3339	0.21129	0.7023	-0.282
Mof_F 	F 	0.2013	0.10218	0.1486	-0.496
Mof_F 	F 	0.2571	0.08571	0.3294	-0.474
Mof_F 	F 	0.1328	0.0571	0.1785	-0.503
Mof_C 	C 	0.377	0.1411	0.736	0.287
Mof_F 	F 	0.3755	0.1353	0.82	-0.264
Mof_F 	F 	0.356	0.102	0.669	-0.194
Mof_F 	F 	0.4651	0.1441	0.784	-0.116
Mof_N 	N 	0.1136	0.01748	0.3825	-0.177
Mof_N 	N 	0.4303	0.73007	0.0954	-0.227
Mof_C 	C 	0.4843	0.83878	0.8439	-0.301
Mof_C 	C 	0.4171	0.84787	0.853	0.156
Mof_H 	H 	0.3798	0.8731	0.8124	0.043
Mof_C 	C 	0.4048	0.82029	0.9207	-0.116
Mof_H 	H 	0.3593	0.8266	0.9271	0.12
Mof_C 	C 	0.458	0.78403	0.9783	0.093
Mof_C 	C 	0.5254	0.77435	0.9721	-0.152
Mof_H 	H 	0.5621	0.749	0.0131	0.107
Mof_C 	C 	0.5386	0.8018	0.906	0.168
Mof_H 	H 	0.5854	0.7955	0.9024	-0.02
Mof_C 	C 	0.4432	0.75453	0.0451	0.076
Mof_C 	C 	0.3993	0.9119	0.6494	-0.295
Mof_C 	C 	0.3936	0.95113	0.6986	0.17
Mof_H 	H 	0.4418	0.9593	0.7813	0.015
Mof_C 	C 	0.3195	0.97793	0.6295	-0.121
Mof_H 	H 	0.3161	0.0042	0.6641	0.157
Mof_C 	C 	0.2496	0.96602	0.508	0.108
Mof_C 	C 	0.2533	0.92755	0.458	-0.122
Mof_H 	H 	0.2046	0.9194	0.3756	0.113
Mof_C 	C 	0.3284	0.90066	0.5282	0.166
Mof_H 	H 	0.3313	0.8744	0.4931	0.016
Mof_C 	C 	0.1728	0.99468	0.4362	0.148
Mof_C 	C 	0.1338	0.13286	0.2312	0.167
Mof_C 	C 	0.1813	0.0939	0.2211	0.843
Mof_C 	C 	0.3223	0.17814	0.6433	0.188
Mof_C 	C 	0.352	0.1343	0.714	0.492
Mof_F 	F 	0.337	0.099	0.662	-0.214
Mof_F 	F 	0.4434	0.1378	0.812	-0.313
Mof_F 	F 	0.3252	0.1308	0.786	-0.25
Mof_Ag	Ag	0.69928	0.72289	0.38637	0.64
Mof_O 	O 	0.5752	0.62273	0.2408	-0.357
Mof_O 	O 	0.6612	0.66964	0.2323	-0.261
Mof_O 	O 	0.783	0.67243	0.5325	-0.271
Mof_O 	O 	0.8339	0.71129	0.7023	-0.276
Mof_F 	F 	0.7013	0.60218	0.1486	-0.491
Mof_F 	F 	0.7571	0.58571	0.3294	-0.469
Mof_F 	F 	0.6328	0.5571	0.1785	-0.497
Mof_C 	C 	0.877	0.6411	0.736	0.287
Mof_F 	F 	0.8755	0.6353	0.82	-0.252
Mof_F 	F 	0.856	0.602	0.669	-0.194
Mof_F 	F 	0.9651	0.6441	0.784	-0.084
Mof_N 	N 	0.6136	0.51748	0.3825	-0.184
Mof_N 	N 	0.9303	0.23007	0.0954	-0.198
Mof_C 	C 	0.9843	0.33878	0.8439	-0.095
Mof_C 	C 	0.9171	0.34787	0.853	0.076
Mof_H 	H 	0.8798	0.3731	0.8124	0.079
Mof_C 	C 	0.9048	0.32029	0.9207	-0.074
Mof_H 	H 	0.8593	0.3266	0.9271	0.111
Mof_C 	C 	0.958	0.28403	0.9783	0.139
Mof_C 	C 	0.0254	0.27435	0.9721	-0.174
Mof_H 	H 	0.0621	0.249	0.0131	0.099
Mof_C 	C 	0.0386	0.3018	0.906	0.019
Mof_H 	H 	0.0854	0.2955	0.9024	0.021
Mof_C 	C 	0.9432	0.25453	0.0451	0.094
Mof_C 	C 	0.8993	0.4119	0.6494	-0.148
Mof_C 	C 	0.8936	0.45113	0.6986	0.086
Mof_H 	H 	0.9418	0.4593	0.7813	0.067
Mof_C 	C 	0.8195	0.47793	0.6295	-0.053
Mof_H 	H 	0.8161	0.5042	0.6641	0.141
Mof_C 	C 	0.7496	0.46602	0.508	0.063
Mof_C 	C 	0.7533	0.42755	0.458	-0.057
Mof_H 	H 	0.7046	0.4194	0.3756	0.1
Mof_C 	C 	0.8284	0.40066	0.5282	0.082
Mof_H 	H 	0.8313	0.3744	0.4931	0.057
Mof_C 	C 	0.6728	0.49468	0.4362	0.175
Mof_C 	C 	0.6338	0.63286	0.2312	0.175
Mof_C 	C 	0.6813	0.5939	0.2211	0.84
Mof_C 	C 	0.8223	0.67814	0.6433	0.193
Mof_C 	C 	0.852	0.6343	0.714	0.491
Mof_F 	F 	0.837	0.599	0.662	-0.204
Mof_F 	F 	0.9434	0.6378	0.812	-0.31
Mof_F 	F 	0.8252	0.6308	0.786	-0.249
Mof_Ag	Ag	0.80072	0.22289	0.11363	0.678
Mof_O 	O 	0.9248	0.12273	0.2592	-0.294
Mof_O 	O 	0.8388	0.16964	0.2677	-0.247
Mof_O 	O 	0.717	0.17243	0.9675	-0.275
Mof_O 	O 	0.6661	0.21129	0.7977	-0.28
Mof_F 	F 	0.7987	0.10218	0.3514	-0.486
Mof_F 	F 	0.7429	0.08571	0.1706	-0.472
Mof_F 	F 	0.8672	0.0571	0.3215	-0.479
Mof_C 	C 	0.623	0.1411	0.764	0.289
Mof_F 	F 	0.6245	0.1353	0.68	-0.266
Mof_F 	F 	0.644	0.102	0.831	-0.188
Mof_F 	F 	0.5349	0.1441	0.716	-0.117
Mof_N 	N 	0.8864	0.01748	0.1175	-0.149
Mof_N 	N 	0.5697	0.73007	0.4046	-0.227
Mof_C 	C 	0.5157	0.83878	0.6561	-0.299
Mof_C 	C 	0.5829	0.84787	0.647	0.156
Mof_H 	H 	0.6202	0.8731	0.6876	0.044
Mof_C 	C 	0.5952	0.82029	0.5793	-0.114
Mof_H 	H 	0.6407	0.8266	0.5729	0.12
Mof_C 	C 	0.542	0.78403	0.5217	0.095
Mof_C 	C 	0.4746	0.77435	0.5279	-0.145
Mof_H 	H 	0.4379	0.749	0.4869	0.1
Mof_C 	C 	0.4614	0.8018	0.594	0.165
Mof_H 	H 	0.4146	0.7955	0.5976	-0.02
Mof_C 	C 	0.5568	0.75453	0.4549	0.072
Mof_C 	C 	0.6007	0.9119	0.8506	-0.285
Mof_C 	C 	0.6064	0.95113	0.8014	0.16
Mof_H 	H 	0.5582	0.9593	0.7187	0.018
Mof_C 	C 	0.6805	0.97793	0.8705	-0.108
Mof_H 	H 	0.6839	0.0042	0.8359	0.156
Mof_C 	C 	0.7504	0.96602	0.992	0.094
Mof_C 	C 	0.7467	0.92755	0.042	-0.096
Mof_H 	H 	0.7954	0.9194	0.1244	0.122
Mof_C 	C 	0.6716	0.90066	0.9718	0.145
Mof_H 	H 	0.6687	0.8744	0.0069	0.03
Mof_C 	C 	0.8272	0.99468	0.0638	0.173
Mof_C 	C 	0.8662	0.13286	0.2688	0.168
Mof_C 	C 	0.8187	0.0939	0.2789	0.847
Mof_C 	C 	0.6777	0.17814	0.8567	0.192
Mof_C 	C 	0.648	0.1343	0.786	0.49
Mof_F 	F 	0.663	0.099	0.838	-0.217
Mof_F 	F 	0.5566	0.1378	0.688	-0.311
Mof_F 	F 	0.6748	0.1308	0.714	-0.241
Mof_Ag	Ag	0.30072	0.72289	0.11363	0.645
Mof_O 	O 	0.4248	0.62273	0.2592	-0.357
Mof_O 	O 	0.3388	0.66964	0.2677	-0.263
Mof_O 	O 	0.217	0.67243	0.9675	-0.277
Mof_O 	O 	0.1661	0.71129	0.7977	-0.288
Mof_F 	F 	0.2987	0.60218	0.3514	-0.493
Mof_F 	F 	0.2429	0.58571	0.1706	-0.478
Mof_F 	F 	0.3672	0.5571	0.3215	-0.499
Mof_C 	C 	0.123	0.6411	0.764	0.287
Mof_F 	F 	0.1245	0.6353	0.68	-0.276
Mof_F 	F 	0.144	0.602	0.831	-0.191
Mof_F 	F 	0.0349	0.6441	0.716	-0.148
Mof_N 	N 	0.3864	0.51748	0.1175	-0.185
Mof_N 	N 	0.0697	0.23007	0.4046	-0.234
Mof_C 	C 	0.0157	0.33878	0.6561	-0.287
Mof_C 	C 	0.0829	0.34787	0.647	0.101
Mof_H 	H 	0.1202	0.3731	0.6876	0.061
Mof_C 	C 	0.0952	0.32029	0.5793	-0.059
Mof_H 	H 	0.1407	0.3266	0.5729	0.098
Mof_C 	C 	0.042	0.28403	0.5217	-0.023
Mof_C 	C 	0.9746	0.27435	0.5279	-0.023
Mof_H 	H 	0.9379	0.249	0.4869	0.078
Mof_C 	C 	0.9614	0.3018	0.594	0.174
Mof_H 	H 	0.9146	0.2955	0.5976	-0.006
Mof_C 	C 	0.0568	0.25453	0.4549	0.081
Mof_C 	C 	0.1007	0.4119	0.8506	-0.212
Mof_C 	C 	0.1064	0.45113	0.8014	0.104
Mof_H 	H 	0.0582	0.4593	0.7187	0.021
Mof_C 	C 	0.1805	0.47793	0.8705	-0.075
Mof_H 	H 	0.1839	0.5042	0.8359	0.137
Mof_C 	C 	0.2504	0.46602	0.992	0.059
Mof_C 	C 	0.2467	0.42755	0.042	-0.059
Mof_H 	H 	0.2954	0.4194	0.1244	0.098
Mof_C 	C 	0.1716	0.40066	0.9718	0.086
Mof_H 	H 	0.1687	0.3744	0.0069	0.045
Mof_C 	C 	0.3272	0.49468	0.0638	0.175
Mof_C 	C 	0.3662	0.63286	0.2688	0.174
Mof_C 	C 	0.3187	0.5939	0.2789	0.842
Mof_C 	C 	0.1777	0.67814	0.8567	0.185
Mof_C 	C 	0.148	0.6343	0.786	0.493
Mof_F 	F 	0.163	0.599	0.838	-0.224
Mof_F 	F 	0.0566	0.6378	0.688	-0.314
Mof_F 	F 	0.1748	0.6308	0.714	-0.246
Mof_Ag	Ag	0.80072	0.77711	0.61363	0.673
Mof_O 	O 	0.9248	0.87727	0.7592	-0.294
Mof_O 	O 	0.8388	0.83036	0.7677	-0.247
Mof_O 	O 	0.717	0.82757	0.4675	-0.272
Mof_O 	O 	0.6661	0.78871	0.2977	-0.28
Mof_F 	F 	0.7987	0.89782	0.8514	-0.487
Mof_F 	F 	0.7429	0.91429	0.6706	-0.473
Mof_F 	F 	0.8672	0.9429	0.8215	-0.481
Mof_C 	C 	0.623	0.8589	0.264	0.289
Mof_F 	F 	0.6245	0.8647	0.18	-0.266
Mof_F 	F 	0.644	0.898	0.331	-0.187
Mof_F 	F 	0.5349	0.8559	0.216	-0.116
Mof_N 	N 	0.8864	0.98252	0.6175	-0.146
Mof_N 	N 	0.5697	0.26993	0.9046	-0.226
Mof_C 	C 	0.5157	0.16122	0.1561	-0.302
Mof_C 	C 	0.5829	0.15213	0.147	0.159
Mof_H 	H 	0.6202	0.1269	0.1876	0.043
Mof_C 	C 	0.5952	0.17971	0.0793	-0.116
Mof_H 	H 	0.6407	0.1734	0.0729	0.122
Mof_C 	C 	0.542	0.21597	0.0217	0.098
Mof_C 	C 	0.4746	0.22565	0.0279	-0.14
Mof_H 	H 	0.4379	0.251	0.9869	0.096
Mof_C 	C 	0.4614	0.1982	0.094	0.165
Mof_H 	H 	0.4146	0.2045	0.0976	-0.019
Mof_C 	C 	0.5568	0.24547	0.9549	0.067
Mof_C 	C 	0.6007	0.0881	0.3506	-0.301
Mof_C 	C 	0.6064	0.04887	0.3014	0.176
Mof_H 	H 	0.5582	0.0407	0.2187	0.014
Mof_C 	C 	0.6805	0.02207	0.3705	-0.125
Mof_H 	H 	0.6839	0.9958	0.3359	0.163
Mof_C 	C 	0.7504	0.03398	0.492	0.118
Mof_C 	C 	0.7467	0.07245	0.542	-0.127
Mof_H 	H 	0.7954	0.0806	0.6244	0.131
Mof_C 	C 	0.6716	0.09934	0.4718	0.175
Mof_H 	H 	0.6687	0.1256	0.5069	0.017
Mof_C 	C 	0.8272	0.00532	0.5638	0.162
Mof_C 	C 	0.8662	0.86714	0.7688	0.167
Mof_C 	C 	0.8187	0.9061	0.7789	0.847
Mof_C 	C 	0.6777	0.82186	0.3567	0.192
Mof_C 	C 	0.648	0.8657	0.286	0.49
Mof_F 	F 	0.663	0.901	0.338	-0.217
Mof_F 	F 	0.5566	0.8622	0.188	-0.311
Mof_F 	F 	0.6748	0.8692	0.214	-0.24
Mof_Ag	Ag	0.30072	0.27711	0.61363	0.639
Mof_O 	O 	0.4248	0.37727	0.7592	-0.357
Mof_O 	O 	0.3388	0.33036	0.7677	-0.263
Mof_O 	O 	0.217	0.32757	0.4675	-0.274
Mof_O 	O 	0.1661	0.28871	0.2977	-0.287
Mof_F 	F 	0.2987	0.39782	0.8514	-0.494
Mof_F 	F 	0.2429	0.41429	0.6706	-0.479
Mof_F 	F 	0.3672	0.4429	0.8215	-0.5
Mof_C 	C 	0.123	0.3589	0.264	0.287
Mof_F 	F 	0.1245	0.3647	0.18	-0.276
Mof_F 	F 	0.144	0.398	0.331	-0.191
Mof_F 	F 	0.0349	0.3559	0.216	-0.147
Mof_N 	N 	0.3864	0.48252	0.6175	-0.182
Mof_N 	N 	0.0697	0.76993	0.9046	-0.233
Mof_C 	C 	0.0157	0.66122	0.1561	-0.289
Mof_C 	C 	0.0829	0.65213	0.147	0.105
Mof_H 	H 	0.1202	0.6269	0.1876	0.06
Mof_C 	C 	0.0952	0.67971	0.0793	-0.062
Mof_H 	H 	0.1407	0.6734	0.0729	0.1
Mof_C 	C 	0.042	0.71597	0.0217	-0.017
Mof_C 	C 	0.9746	0.72565	0.0279	-0.018
Mof_H 	H 	0.9379	0.751	0.9869	0.073
Mof_C 	C 	0.9614	0.6982	0.094	0.174
Mof_H 	H 	0.9146	0.7045	0.0976	-0.005
Mof_C 	C 	0.0568	0.74547	0.9549	0.076
Mof_C 	C 	0.1007	0.5881	0.3506	-0.229
Mof_C 	C 	0.1064	0.54887	0.3014	0.12
Mof_H 	H 	0.0582	0.5407	0.2187	0.017
Mof_C 	C 	0.1805	0.52207	0.3705	-0.093
Mof_H 	H 	0.1839	0.4958	0.3359	0.144
Mof_C 	C 	0.2504	0.53398	0.492	0.083
Mof_C 	C 	0.2467	0.57245	0.542	-0.091
Mof_H 	H 	0.2954	0.5806	0.6244	0.108
Mof_C 	C 	0.1716	0.59934	0.4718	0.117
Mof_H 	H 	0.1687	0.6256	0.5069	0.031
Mof_C 	C 	0.3272	0.50532	0.5638	0.163
Mof_C 	C 	0.3662	0.36714	0.7688	0.174
Mof_C 	C 	0.3187	0.4061	0.7789	0.842
Mof_C 	C 	0.1777	0.32186	0.3567	0.185
Mof_C 	C 	0.148	0.3657	0.286	0.492
Mof_F 	F 	0.163	0.401	0.338	-0.224
Mof_F 	F 	0.0566	0.3622	0.188	-0.313
Mof_F 	F 	0.1748	0.3692	0.214	-0.246
Mof_Ag	Ag	0.19928	0.77711	0.88637	0.633
Mof_O 	O 	0.0752	0.87727	0.7408	-0.347
Mof_O 	O 	0.1612	0.83036	0.7323	-0.264
Mof_O 	O 	0.283	0.82757	0.0325	-0.269
Mof_O 	O 	0.3339	0.78871	0.2023	-0.282
Mof_F 	F 	0.2013	0.89782	0.6486	-0.497
Mof_F 	F 	0.2571	0.91429	0.8294	-0.475
Mof_F 	F 	0.1328	0.9429	0.6785	-0.504
Mof_C 	C 	0.377	0.8589	0.236	0.287
Mof_F 	F 	0.3755	0.8647	0.32	-0.264
Mof_F 	F 	0.356	0.898	0.169	-0.193
Mof_F 	F 	0.4651	0.8559	0.284	-0.116
Mof_N 	N 	0.1136	0.98252	0.8825	-0.174
Mof_N 	N 	0.4303	0.26993	0.5954	-0.226
Mof_C 	C 	0.4843	0.16122	0.3439	-0.304
Mof_C 	C 	0.4171	0.15213	0.353	0.159
Mof_H 	H 	0.3798	0.1269	0.3124	0.042
Mof_C 	C 	0.4048	0.17971	0.4207	-0.117
Mof_H 	H 	0.3593	0.1734	0.4271	0.122
Mof_C 	C 	0.458	0.21597	0.4783	0.097
Mof_C 	C 	0.5254	0.22565	0.4721	-0.147
Mof_H 	H 	0.5621	0.251	0.5131	0.103
Mof_C 	C 	0.5386	0.1982	0.406	0.168
Mof_H 	H 	0.5854	0.2045	0.4024	-0.018
Mof_C 	C 	0.4432	0.24547	0.5451	0.072
Mof_C 	C 	0.3993	0.0881	0.1494	-0.31
Mof_C 	C 	0.3936	0.04887	0.1986	0.184
Mof_H 	H 	0.4418	0.0407	0.2813	0.01
Mof_C 	C 	0.3195	0.02207	0.1295	-0.136
Mof_H 	H 	0.3161	0.9958	0.1641	0.163
Mof_C 	C 	0.2496	0.03398	0.008	0.13
Mof_C 	C 	0.2533	0.07245	0.958	-0.151
Mof_H 	H 	0.2046	0.0806	0.8756	0.122
Mof_C 	C 	0.3284	0.09934	0.0282	0.194
Mof_H 	H 	0.3313	0.1256	0.9931	0.004
Mof_C 	C 	0.1728	0.00532	0.9362	0.137
Mof_C 	C 	0.1338	0.86714	0.7312	0.166
Mof_C 	C 	0.1813	0.9061	0.7211	0.843
Mof_C 	C 	0.3223	0.82186	0.1433	0.188
Mof_C 	C 	0.352	0.8657	0.214	0.492
Mof_F 	F 	0.337	0.901	0.162	-0.214
Mof_F 	F 	0.4434	0.8622	0.312	-0.312
Mof_F 	F 	0.3252	0.8692	0.286	-0.25
Mof_Ag	Ag	0.69928	0.27711	0.88637	0.634
Mof_O 	O 	0.5752	0.37727	0.7408	-0.357
Mof_O 	O 	0.6612	0.33036	0.7323	-0.261
Mof_O 	O 	0.783	0.32757	0.0325	-0.268
Mof_O 	O 	0.8339	0.28871	0.2023	-0.275
Mof_F 	F 	0.7013	0.39782	0.6486	-0.492
Mof_F 	F 	0.7571	0.41429	0.8294	-0.47
Mof_F 	F 	0.6328	0.4429	0.6785	-0.498
Mof_C 	C 	0.877	0.3589	0.236	0.287
Mof_F 	F 	0.8755	0.3647	0.32	-0.251
Mof_F 	F 	0.856	0.398	0.169	-0.193
Mof_F 	F 	0.9651	0.3559	0.284	-0.083
Mof_N 	N 	0.6136	0.48252	0.8825	-0.181
Mof_N 	N 	0.9303	0.76993	0.5954	-0.197
Mof_C 	C 	0.9843	0.66122	0.3439	-0.097
Mof_C 	C 	0.9171	0.65213	0.353	0.08
Mof_H 	H 	0.8798	0.6269	0.3124	0.078
Mof_C 	C 	0.9048	0.67971	0.4207	-0.077
Mof_H 	H 	0.8593	0.6734	0.4271	0.113
Mof_C 	C 	0.958	0.71597	0.4783	0.145
Mof_C 	C 	0.0254	0.72565	0.4721	-0.17
Mof_H 	H 	0.0621	0.751	0.5131	0.095
Mof_C 	C 	0.0386	0.6982	0.406	0.019
Mof_H 	H 	0.0854	0.7045	0.4024	0.022
Mof_C 	C 	0.9432	0.74547	0.5451	0.088
Mof_C 	C 	0.8993	0.5881	0.1494	-0.165
Mof_C 	C 	0.8936	0.54887	0.1986	0.102
Mof_H 	H 	0.9418	0.5407	0.2813	0.063
Mof_C 	C 	0.8195	0.52207	0.1295	-0.071
Mof_H 	H 	0.8161	0.4958	0.1641	0.148
Mof_C 	C 	0.7496	0.53398	0.008	0.087
Mof_C 	C 	0.7533	0.57245	0.958	-0.09
Mof_H 	H 	0.7046	0.5806	0.8756	0.109
Mof_C 	C 	0.8284	0.59934	0.0282	0.114
Mof_H 	H 	0.8313	0.6256	0.9931	0.043
Mof_C 	C 	0.6728	0.50532	0.9362	0.162
Mof_C 	C 	0.6338	0.36714	0.7312	0.174
Mof_C 	C 	0.6813	0.4061	0.7211	0.841
Mof_C 	C 	0.8223	0.32186	0.1433	0.193
Mof_C 	C 	0.852	0.3657	0.214	0.491
Mof_F 	F 	0.837	0.401	0.162	-0.204
Mof_F 	F 	0.9434	0.3622	0.312	-0.309
Mof_F 	F 	0.8252	0.3692	0.286	-0.248
Mof_Ag	Ag	1.81551e-17	0.17904	0.25	0.538
Mof_Ag	Ag	1.81551e-17	0.06283	0.25	0.804
Mof_Ag	Ag	0.5	0.67904	0.25	0.651
Mof_Ag	Ag	0.5	0.56284	0.25	0.912
Mof_Ag	Ag	7.26204e-17	0.82096	0.75	0.536
Mof_Ag	Ag	7.26204e-17	0.93717	0.75	0.8
Mof_Ag	Ag	0.5	0.32096	0.75	0.65
Mof_Ag	Ag	0.5	0.43717	0.75	0.908
Mof_Si	Si	0.5	0.87547	0.75	0.874
Mof_Si	Si	7.26204e-17	0.37547	0.75	0.609
Mof_Si	Si	0.5	0.12453	0.25	0.888
Mof_Si	Si	1.81551e-17	0.62453	0.25	0.624
_end
