# CIF file generated by openbabel 3.1.0, see https://openbabel.org
data_I
_chemical_name_common 'image0'
_cell_length_a 11.4221
_cell_length_b 21.2742
_cell_length_c 19.0647
_cell_angle_alpha 90
_cell_angle_beta 95.4192
_cell_angle_gamma 90
_space_group_name_H-M_alt 'P 1'
_space_group_name_Hall 'P 1'
loop_
    _symmetry_equiv_pos_as_xyz
    x,y,z
loop_
    _atom_site_label
    _atom_site_type_symbol
    _atom_site_fract_x
    _atom_site_fract_y
    _atom_site_fract_z
    _atom_site_occupancy
    Zn1      Zn       0.61566    0.98653    0.08484    1.000
    O1       O        0.77440    0.96465    0.06814    1.000
    O2       O        0.76340    0.90544    0.16174    1.000
    O3       O        0.39720    0.57302    0.45043    1.000
    O4       O        0.51070    0.58012    0.54851    1.000
    O5       O        0.35480    0.95399    0.52815    1.000
    O6       O        0.22830    0.85707    0.58366    1.000
    O7       O        0.01050    0.79453    0.59160    1.000
    O8       O        0.22170    0.15763    0.45755    1.000
    N1       N        0.09520    0.92197    0.33609    1.000
    N2       N        0.18370    0.87298    0.43087    1.000
    H1       H        0.20087    0.86283    0.47540    1.000
    N3       N        0.53940    0.00149    0.17452    1.000
    C1       C        0.82000    0.92830    0.11630    1.000
    C2       C        0.95040    0.91727    0.11600    1.000
    C3       C        0.01360    0.89488    0.17787    1.000
    H2       H        0.97286    0.88489    0.21764    1.000
    C4       C        0.13500    0.88717    0.18150    1.000
    C5       C        0.19300    0.90300    0.12320    1.000
    H3       H        0.27615    0.89926    0.12539    1.000
    C6       C        0.13080    0.92420    0.06180    1.000
    H4       H        0.17118    0.93367    0.02172    1.000
    C7       C        0.01020    0.93170    0.05870    1.000
    H5       H        0.96832    0.94696    0.01676    1.000
    C8       C        0.19950    0.86064    0.24622    1.000
    C9       C        0.17330    0.87653    0.31432    1.000
    C10      C        0.23030    0.84654    0.37367    1.000
    C11      C        0.31610    0.80002    0.36915    1.000
    C12      C        0.34330    0.78652    0.30180    1.000
    H6       H        0.40240    0.75616    0.29554    1.000
    C13      C        0.28710    0.81586    0.24270    1.000
    H7       H        0.30974    0.80468    0.19770    1.000
    C14      C        0.37650    0.76873    0.43277    1.000
    C15      C        0.43120    0.80325    0.48770    1.000
    H8       H        0.42881    0.84785    0.48552    1.000
    C16      C        0.48980    0.77399    0.54620    1.000
    H9       H        0.52474    0.79859    0.58413    1.000
    C17      C        0.49710    0.70959    0.54900    1.000
    H10      H        0.54026    0.68960    0.58783    1.000
    C18      C        0.44130    0.67389    0.49493    1.000
    C19      C        0.38160    0.70335    0.43736    1.000
    H11      H        0.34347    0.67862    0.40048    1.000
    C20      C        0.45160    0.60357    0.49780    1.000
    C21      C        0.10610    0.91767    0.40543    1.000
    C22      C        0.04780    0.95917    0.45294    1.000
    C23      C        0.03040    0.02203    0.43580    1.000
    H12      H        0.05090    0.03726    0.39171    1.000
    C24      C        0.01660    0.93733    0.51780    1.000
    H13      H        0.02769    0.89431    0.53004    1.000
    C25      C        0.28060    0.10450    0.44060    1.000
    C26      C        0.32270    0.09360    0.37650    1.000
    H14      H        0.31562    0.12477    0.34064    1.000
    C27      C        0.37690    0.03520    0.36470    1.000
    C28      C        0.38650    0.99040    0.41660    1.000
    H15      H        0.42257    0.95124    0.40835    1.000
    C29      C        0.34360    0.00210    0.48140    1.000
    C30      C        0.29320    0.05930    0.49430    1.000
    H16      H        0.26721    0.06801    0.53922    1.000
    C31      C        0.30550    0.96020    0.59340    1.000
    H17      H        0.22389    0.97608    0.58567    1.000
    H18      H        0.35244    0.98990    0.62451    1.000
    C32      C        0.30720    0.89640    0.62580    1.000
    H19      H        0.38770    0.87871    0.62841    1.000
    H20      H        0.28295    0.89900    0.67421    1.000
    C33      C        0.21630    0.79710    0.61430    1.000
    H21      H        0.20311    0.80185    0.66460    1.000
    H22      H        0.28948    0.77263    0.61152    1.000
    C34      C        0.11580    0.76330    0.57650    1.000
    H23      H        0.12281    0.76362    0.52518    1.000
    H24      H        0.11454    0.71902    0.59254    1.000
    C35      C        0.90770    0.75880    0.57580    1.000
    H25      H        0.91317    0.71880    0.60243    1.000
    H26      H        0.89735    0.74900    0.52488    1.000
    C36      C        0.19360    0.20340    0.40390    1.000
    H27      H        0.17273    0.18241    0.35810    1.000
    H28      H        0.26217    0.23106    0.39928    1.000
    C37      C        0.42750    0.02388    0.29740    1.000
    C38      C        0.46160    0.07250    0.25520    1.000
    H29      H        0.44627    0.11478    0.26745    1.000
    C39      C        0.51670    0.06020    0.19650    1.000
    H30      H        0.54048    0.09472    0.16962    1.000
    C40      C        0.50420    0.95450    0.21350    1.000
    H31      H        0.51874    0.91269    0.19895    1.000
    C41      C        0.44850    0.96270    0.27300    1.000
    H32      H        0.42380    0.92726    0.29800    1.000
    Zn2      Zn       0.38434    0.48653    0.41516    1.000
    O9       O        0.22560    0.46465    0.43186    1.000
    O10      O        0.23660    0.40544    0.33826    1.000
    O11      O        0.60280    0.07302    0.04957    1.000
    O12      O        0.48930    0.08012    0.95149    1.000
    O13      O        0.64520    0.45399    0.97185    1.000
    O14      O        0.77170    0.35707    0.91634    1.000
    O15      O        0.98950    0.29453    0.90840    1.000
    O16      O        0.77830    0.65763    0.04245    1.000
    N4       N        0.90480    0.42197    0.16391    1.000
    N5       N        0.81630    0.37298    0.06913    1.000
    H33      H        0.79913    0.36283    0.02460    1.000
    N6       N        0.46060    0.50149    0.32548    1.000
    C42      C        0.18000    0.42830    0.38370    1.000
    C43      C        0.04960    0.41727    0.38400    1.000
    C44      C        0.98640    0.39488    0.32213    1.000
    H34      H        0.02714    0.38489    0.28236    1.000
    C45      C        0.86500    0.38717    0.31850    1.000
    C46      C        0.80700    0.40300    0.37680    1.000
    H35      H        0.72385    0.39926    0.37461    1.000
    C47      C        0.86920    0.42420    0.43820    1.000
    H36      H        0.82882    0.43367    0.47828    1.000
    C48      C        0.98980    0.43170    0.44130    1.000
    H37      H        0.03168    0.44696    0.48324    1.000
    C49      C        0.80050    0.36064    0.25378    1.000
    C50      C        0.82670    0.37653    0.18568    1.000
    C51      C        0.76970    0.34654    0.12633    1.000
    C52      C        0.68390    0.30002    0.13085    1.000
    C53      C        0.65670    0.28652    0.19820    1.000
    H38      H        0.59760    0.25616    0.20446    1.000
    C54      C        0.71290    0.31586    0.25730    1.000
    H39      H        0.69026    0.30468    0.30230    1.000
    C55      C        0.62350    0.26873    0.06723    1.000
    C56      C        0.56880    0.30325    0.01230    1.000
    H40      H        0.57119    0.34785    0.01448    1.000
    C57      C        0.51020    0.27399    0.95380    1.000
    H41      H        0.47526    0.29859    0.91587    1.000
    C58      C        0.50290    0.20959    0.95100    1.000
    H42      H        0.45974    0.18960    0.91217    1.000
    C59      C        0.55870    0.17389    0.00507    1.000
    C60      C        0.61840    0.20335    0.06264    1.000
    H43      H        0.65653    0.17862    0.09952    1.000
    C61      C        0.54840    0.10357    0.00220    1.000
    C62      C        0.89390    0.41767    0.09457    1.000
    C63      C        0.95220    0.45917    0.04706    1.000
    C64      C        0.96960    0.52203    0.06420    1.000
    H44      H        0.94910    0.53726    0.10829    1.000
    C65      C        0.98340    0.43733    0.98220    1.000
    H45      H        0.97231    0.39431    0.96996    1.000
    C66      C        0.71940    0.60450    0.05940    1.000
    C67      C        0.67730    0.59360    0.12350    1.000
    H46      H        0.68438    0.62477    0.15936    1.000
    C68      C        0.62310    0.53520    0.13530    1.000
    C69      C        0.61350    0.49040    0.08340    1.000
    H47      H        0.57743    0.45124    0.09165    1.000
    C70      C        0.65640    0.50210    0.01860    1.000
    C71      C        0.70680    0.55930    0.00570    1.000
    H48      H        0.73279    0.56801    0.96078    1.000
    C72      C        0.69450    0.46020    0.90660    1.000
    H49      H        0.77611    0.47608    0.91433    1.000
    H50      H        0.64756    0.48990    0.87549    1.000
    C73      C        0.69280    0.39640    0.87420    1.000
    H51      H        0.61230    0.37871    0.87159    1.000
    H52      H        0.71705    0.39900    0.82579    1.000
    C74      C        0.78370    0.29710    0.88570    1.000
    H53      H        0.79689    0.30185    0.83540    1.000
    H54      H        0.71052    0.27263    0.88848    1.000
    C75      C        0.88420    0.26330    0.92350    1.000
    H55      H        0.87719    0.26362    0.97482    1.000
    H56      H        0.88546    0.21902    0.90746    1.000
    C76      C        0.09230    0.25880    0.92420    1.000
    H57      H        0.08683    0.21880    0.89757    1.000
    H58      H        0.10265    0.24900    0.97512    1.000
    C77      C        0.80640    0.70340    0.09610    1.000
    H59      H        0.82727    0.68241    0.14190    1.000
    H60      H        0.73783    0.73106    0.10072    1.000
    C78      C        0.57250    0.52388    0.20260    1.000
    C79      C        0.53840    0.57250    0.24480    1.000
    H61      H        0.55373    0.61478    0.23255    1.000
    C80      C        0.48330    0.56020    0.30350    1.000
    H62      H        0.45952    0.59472    0.33038    1.000
    C81      C        0.49580    0.45450    0.28650    1.000
    H63      H        0.48126    0.41269    0.30105    1.000
    C82      C        0.55150    0.46270    0.22700    1.000
    H64      H        0.57620    0.42726    0.20200    1.000
    Zn3      Zn       0.38434    0.01347    0.91516    1.000
    O17      O        0.22560    0.03535    0.93186    1.000
    O18      O        0.23660    0.09456    0.83826    1.000
    O19      O        0.60280    0.42698    0.54957    1.000
    O20      O        0.48930    0.41988    0.45149    1.000
    O21      O        0.64520    0.04601    0.47185    1.000
    O22      O        0.77170    0.14293    0.41634    1.000
    O23      O        0.98950    0.20547    0.40840    1.000
    O24      O        0.77830    0.84237    0.54245    1.000
    N7       N        0.90480    0.07803    0.66391    1.000
    N8       N        0.81630    0.12702    0.56913    1.000
    H65      H        0.79913    0.13717    0.52460    1.000
    N9       N        0.46060    0.99851    0.82548    1.000
    C83      C        0.18000    0.07170    0.88370    1.000
    C84      C        0.04960    0.08273    0.88400    1.000
    C85      C        0.98640    0.10512    0.82213    1.000
    H66      H        0.02714    0.11511    0.78236    1.000
    C86      C        0.86500    0.11283    0.81850    1.000
    C87      C        0.80700    0.09700    0.87680    1.000
    H67      H        0.72385    0.10074    0.87461    1.000
    C88      C        0.86920    0.07580    0.93820    1.000
    H68      H        0.82882    0.06633    0.97828    1.000
    C89      C        0.98980    0.06830    0.94130    1.000
    H69      H        0.03168    0.05304    0.98324    1.000
    C90      C        0.80050    0.13936    0.75378    1.000
    C91      C        0.82670    0.12347    0.68568    1.000
    C92      C        0.76970    0.15346    0.62633    1.000
    C93      C        0.68390    0.19998    0.63085    1.000
    C94      C        0.65670    0.21348    0.69820    1.000
    H70      H        0.59760    0.24384    0.70446    1.000
    C95      C        0.71290    0.18414    0.75730    1.000
    H71      H        0.69026    0.19532    0.80230    1.000
    C96      C        0.62350    0.23127    0.56723    1.000
    C97      C        0.56880    0.19675    0.51230    1.000
    H72      H        0.57119    0.15215    0.51448    1.000
    C98      C        0.51020    0.22601    0.45380    1.000
    H73      H        0.47526    0.20141    0.41587    1.000
    C99      C        0.50290    0.29041    0.45100    1.000
    H74      H        0.45974    0.31040    0.41217    1.000
    C100     C        0.55870    0.32611    0.50507    1.000
    C101     C        0.61840    0.29665    0.56264    1.000
    H75      H        0.65653    0.32138    0.59952    1.000
    C102     C        0.54840    0.39643    0.50220    1.000
    C103     C        0.89390    0.08233    0.59457    1.000
    C104     C        0.95220    0.04083    0.54706    1.000
    C105     C        0.96960    0.97797    0.56420    1.000
    H76      H        0.94910    0.96274    0.60829    1.000
    C106     C        0.98340    0.06267    0.48220    1.000
    H77      H        0.97231    0.10569    0.46996    1.000
    C107     C        0.71940    0.89550    0.55940    1.000
    C108     C        0.67730    0.90640    0.62350    1.000
    H78      H        0.68438    0.87523    0.65936    1.000
    C109     C        0.62310    0.96480    0.63530    1.000
    C110     C        0.61350    0.00960    0.58340    1.000
    H79      H        0.57743    0.04876    0.59165    1.000
    C111     C        0.65640    0.99790    0.51860    1.000
    C112     C        0.70680    0.94070    0.50570    1.000
    H80      H        0.73279    0.93199    0.46078    1.000
    C113     C        0.69450    0.03980    0.40660    1.000
    H81      H        0.77611    0.02392    0.41433    1.000
    H82      H        0.64756    0.01010    0.37549    1.000
    C114     C        0.69280    0.10360    0.37420    1.000
    H83      H        0.61230    0.12129    0.37159    1.000
    H84      H        0.71705    0.10100    0.32579    1.000
    C115     C        0.78370    0.20290    0.38570    1.000
    H85      H        0.79689    0.19815    0.33540    1.000
    H86      H        0.71052    0.22737    0.38848    1.000
    C116     C        0.88420    0.23670    0.42350    1.000
    H87      H        0.87719    0.23638    0.47482    1.000
    H88      H        0.88546    0.28098    0.40746    1.000
    C117     C        0.09230    0.24120    0.42420    1.000
    H89      H        0.08683    0.28120    0.39757    1.000
    H90      H        0.10265    0.25100    0.47512    1.000
    C118     C        0.80640    0.79660    0.59610    1.000
    H91      H        0.82727    0.81759    0.64190    1.000
    H92      H        0.73783    0.76894    0.60072    1.000
    C119     C        0.57250    0.97612    0.70260    1.000
    C120     C        0.53840    0.92750    0.74480    1.000
    H93      H        0.55373    0.88522    0.73255    1.000
    C121     C        0.48330    0.93980    0.80350    1.000
    H94      H        0.45952    0.90528    0.83038    1.000
    C122     C        0.49580    0.04550    0.78650    1.000
    H95      H        0.48126    0.08731    0.80105    1.000
    C123     C        0.55150    0.03730    0.72700    1.000
    H96      H        0.57620    0.07274    0.70200    1.000
    Zn4      Zn       0.61566    0.51347    0.58484    1.000
    O25      O        0.77440    0.53535    0.56814    1.000
    O26      O        0.76340    0.59456    0.66174    1.000
    O27      O        0.39720    0.92698    0.95043    1.000
    O28      O        0.51070    0.91988    0.04851    1.000
    O29      O        0.35480    0.54601    0.02815    1.000
    O30      O        0.22830    0.64293    0.08366    1.000
    O31      O        0.01050    0.70547    0.09160    1.000
    O32      O        0.22170    0.34237    0.95755    1.000
    N10      N        0.09520    0.57803    0.83609    1.000
    N11      N        0.18370    0.62702    0.93087    1.000
    H97      H        0.20087    0.63717    0.97540    1.000
    N12      N        0.53940    0.49851    0.67452    1.000
    C124     C        0.82000    0.57170    0.61630    1.000
    C125     C        0.95040    0.58273    0.61600    1.000
    C126     C        0.01360    0.60512    0.67787    1.000
    H98      H        0.97286    0.61511    0.71764    1.000
    C127     C        0.13500    0.61283    0.68150    1.000
    C128     C        0.19300    0.59700    0.62320    1.000
    H99      H        0.27615    0.60074    0.62539    1.000
    C129     C        0.13080    0.57580    0.56180    1.000
    H100     H        0.17118    0.56633    0.52172    1.000
    C130     C        0.01020    0.56830    0.55870    1.000
    H101     H        0.96832    0.55304    0.51676    1.000
    C131     C        0.19950    0.63936    0.74622    1.000
    C132     C        0.17330    0.62347    0.81432    1.000
    C133     C        0.23030    0.65346    0.87367    1.000
    C134     C        0.31610    0.69998    0.86915    1.000
    C135     C        0.34330    0.71348    0.80180    1.000
    H102     H        0.40240    0.74384    0.79554    1.000
    C136     C        0.28710    0.68414    0.74270    1.000
    H103     H        0.30974    0.69532    0.69770    1.000
    C137     C        0.37650    0.73127    0.93277    1.000
    C138     C        0.43120    0.69675    0.98770    1.000
    H104     H        0.42881    0.65215    0.98552    1.000
    C139     C        0.48980    0.72601    0.04620    1.000
    H105     H        0.52474    0.70141    0.08413    1.000
    C140     C        0.49710    0.79041    0.04900    1.000
    H106     H        0.54026    0.81040    0.08783    1.000
    C141     C        0.44130    0.82611    0.99493    1.000
    C142     C        0.38160    0.79665    0.93736    1.000
    H107     H        0.34347    0.82138    0.90048    1.000
    C143     C        0.45160    0.89643    0.99780    1.000
    C144     C        0.10610    0.58233    0.90543    1.000
    C145     C        0.04780    0.54083    0.95294    1.000
    C146     C        0.03040    0.47797    0.93580    1.000
    H108     H        0.05090    0.46274    0.89171    1.000
    C147     C        0.01660    0.56267    0.01780    1.000
    H109     H        0.02769    0.60569    0.03004    1.000
    C148     C        0.28060    0.39550    0.94060    1.000
    C149     C        0.32270    0.40640    0.87650    1.000
    H110     H        0.31562    0.37523    0.84064    1.000
    C150     C        0.37690    0.46480    0.86470    1.000
    C151     C        0.38650    0.50960    0.91660    1.000
    H111     H        0.42257    0.54876    0.90835    1.000
    C152     C        0.34360    0.49790    0.98140    1.000
    C153     C        0.29320    0.44070    0.99430    1.000
    H112     H        0.26721    0.43199    0.03922    1.000
    C154     C        0.30550    0.53980    0.09340    1.000
    H113     H        0.22389    0.52392    0.08567    1.000
    H114     H        0.35244    0.51010    0.12451    1.000
    C155     C        0.30720    0.60360    0.12580    1.000
    H115     H        0.38770    0.62129    0.12841    1.000
    H116     H        0.28295    0.60100    0.17421    1.000
    C156     C        0.21630    0.70290    0.11430    1.000
    H117     H        0.20311    0.69815    0.16460    1.000
    H118     H        0.28948    0.72737    0.11152    1.000
    C157     C        0.11580    0.73670    0.07650    1.000
    H119     H        0.12281    0.73638    0.02518    1.000
    H120     H        0.11454    0.78098    0.09254    1.000
    C158     C        0.90770    0.74120    0.07580    1.000
    H121     H        0.91317    0.78120    0.10243    1.000
    H122     H        0.89735    0.75100    0.02488    1.000
    C159     C        0.19360    0.29660    0.90390    1.000
    H123     H        0.17273    0.31759    0.85810    1.000
    H124     H        0.26217    0.26894    0.89928    1.000
    C160     C        0.42750    0.47612    0.79740    1.000
    C161     C        0.46160    0.42750    0.75520    1.000
    H125     H        0.44627    0.38522    0.76745    1.000
    C162     C        0.51670    0.43980    0.69650    1.000
    H126     H        0.54048    0.40528    0.66962    1.000
    C163     C        0.50420    0.54550    0.71350    1.000
    H127     H        0.51874    0.58731    0.69895    1.000
    C164     C        0.44850    0.53730    0.77300    1.000
    H128     H        0.42380    0.57274    0.79800    1.000
