data_functionalizedCrystal
_audit_creation_method	'EQeq! by Chris Wilmer'
_symmetry_space_group_name_H-M	'P1'
_symmetry_Int_Tables_number	1
_symmetry_cell_setting	triclinic
loop_
_symmetry_equiv_pos_as_xyz
  x,y,z
_cell_length_a	9.73
_cell_length_b	10.19
_cell_length_c	19.529
_cell_angle_alpha	78.011
_cell_angle_beta	80.4
_cell_angle_gamma	87.705
loop_
_atom_site_label
_atom_site_type_symbol
_atom_site_fract_x
_atom_site_fract_y
_atom_site_fract_z
_atom_site_charge
Mof_Co	Co	0.31389	0.60439	0.27743	1.129
Mof_Co	Co	0.68611	0.39561	0.72257	1.131
Mof_Co	Co	-0	0	-0	1.01
Mof_H 	H 	0.2943	0.0718	0.2636	0.078
Mof_H 	H 	0.2638	0.833	0.457	0.085
Mof_H 	H 	0.2355	0.2334	0.4374	0.096
Mof_H 	H 	0.1552	0.8381	0.5713	0.035
Mof_H 	H 	0.3185	0.8484	0.5611	0.033
Mof_H 	H 	0.4284	0.9116	0.6535	0.081
Mof_H 	H 	0.4139	0.9219	0.7716	0.043
Mof_H 	H 	0.9954	0.9202	0.7933	0.069
Mof_H 	H 	0.0122	0.9018	0.6762	0.071
Mof_H 	H 	0.5659	0.7797	0.1992	-0.005
Mof_H 	H 	0.791	0.7641	0.1437	0.093
Mof_H 	H 	0.7793	0.3706	0.2269	0.103
Mof_H 	H 	0.5548	0.3968	0.2786	-0.009
Mof_H 	H 	0.9946	0.4608	0.1598	0.084
Mof_H 	H 	0.0169	0.616	0.1476	0.034
Mof_H 	H 	0.9124	0.3648	0.0719	0.073
Mof_H 	H 	0.783	0.4617	0.0697	0.071
Mof_H 	H 	0.1471	0.4584	0.0515	0.065
Mof_H 	H 	0.1661	0.6146	0.0363	0.052
Mof_H 	H 	0.0505	0.7657	0.2368	-0.012
Mof_H 	H 	0.8255	0.8075	0.2861	0.101
Mof_H 	H 	0.8671	0.5157	0.4537	0.093
Mof_H 	H 	0.0918	0.4822	0.3995	0.003
Mof_H 	H 	0.6144	0.7221	0.3743	0.097
Mof_H 	H 	0.6774	0.7774	0.4315	0.109
Mof_H 	H 	0.4969	0.5183	0.4036	0.054
Mof_H 	H 	0.6453	0.4515	0.4022	0.051
Mof_H 	H 	0.5222	0.7026	0.5326	0.059
Mof_H 	H 	0.4222	0.6713	0.4827	0.068
Mof_H 	H 	0.7057	0.9282	0.7364	0.065
Mof_H 	H 	0.7362	0.167	0.543	0.104
Mof_H 	H 	0.7645	0.7666	0.5626	0.103
Mof_H 	H 	0.8448	0.1619	0.4287	0.08
Mof_H 	H 	0.6815	0.1516	0.4389	0.068
Mof_H 	H 	0.5716	0.0884	0.3465	0.107
Mof_H 	H 	0.5861	0.0781	0.2284	-0.007
Mof_H 	H 	0.0046	0.0798	0.2067	-0.062
Mof_H 	H 	0.9878	0.0982	0.3238	0.135
Mof_H 	H 	0.4341	0.2203	0.8008	-0.019
Mof_H 	H 	0.209	0.2359	0.8563	0.085
Mof_H 	H 	0.2207	0.6294	0.7731	0.108
Mof_H 	H 	0.4452	0.6032	0.7214	-0.012
Mof_H 	H 	0.0054	0.5392	0.8402	0.097
Mof_H 	H 	0.9831	0.384	0.8524	0.101
Mof_H 	H 	0.0876	0.6352	0.9281	0.028
Mof_H 	H 	0.217	0.5383	0.9303	0.036
Mof_H 	H 	0.8529	0.5416	0.9485	0.037
Mof_H 	H 	0.8339	0.3854	0.9637	0.017
Mof_H 	H 	0.9495	0.2343	0.7632	-0.053
Mof_H 	H 	0.1745	0.1925	0.7139	0.127
Mof_H 	H 	0.1329	0.4843	0.5463	0.135
Mof_H 	H 	0.9082	0.5178	0.6005	-0.028
Mof_H 	H 	0.3856	0.2779	0.6257	0.103
Mof_H 	H 	0.3226	0.2226	0.5685	0.113
Mof_H 	H 	0.5031	0.4817	0.5964	0.055
Mof_H 	H 	0.3547	0.5485	0.5978	0.05
Mof_H 	H 	0.4778	0.2974	0.4674	0.054
Mof_H 	H 	0.5778	0.3287	0.5173	0.066
Mof_C 	C 	0.2652	0.3119	0.2975	0.295
Mof_C 	C 	0.2639	0.1742	0.3441	-0.006
Mof_C 	C 	0.2832	0.062	0.3127	-0.125
Mof_C 	C 	0.2853	0.9359	0.3561	0.043
Mof_C 	C 	0.3112	0.813	0.3241	0.255
Mof_C 	C 	0.2644	0.9188	0.4289	-0.11
Mof_C 	C 	0.2442	0.0307	0.4606	0.141
Mof_C 	C 	0.2462	0.1581	0.417	-0.143
Mof_C 	C 	0.2315	0.8921	0.5761	0.011
Mof_C 	C 	0.2218	0.9051	0.6523	0.062
Mof_C 	C 	0.3415	0.912	0.6817	-0.107
Mof_C 	C 	0.3331	0.9194	0.7523	0.021
Mof_C 	C 	0.2027	0.9232	0.7945	-0.081
Mof_C 	C 	0.0825	0.9173	0.7656	-0.021
Mof_C 	C 	0.0929	0.9072	0.6951	-0.085
Mof_C 	C 	0.1916	0.9327	0.8716	0.323
Mof_C 	C 	0.6087	0.6958	0.2041	0.088
Mof_C 	C 	0.7449	0.6874	0.1705	-0.185
Mof_C 	C 	0.8125	0.5635	0.1771	0.139
Mof_C 	C 	0.7378	0.4551	0.2195	-0.192
Mof_C 	C 	0.6024	0.4717	0.2507	0.095
Mof_C 	C 	0.9581	0.5477	0.1397	-0.137
Mof_C 	C 	0.8797	0.4515	0.0492	-0.157
Mof_C 	C 	0.1102	0.5435	0.0291	-0.184
Mof_C 	C 	0.0136	0.7146	0.2808	0.061
Mof_C 	C 	0.8776	0.7406	0.3105	-0.141
Mof_C 	C 	0.8199	0.6676	0.3759	0.139
Mof_C 	C 	0.9018	0.5681	0.4097	-0.136
Mof_C 	C 	0.0373	0.5483	0.3763	0.055
Mof_C 	C 	0.6736	0.6996	0.4105	-0.188
Mof_C 	C 	0.5668	0.4824	0.4326	-0.057
Mof_C 	C 	0.493	0.6334	0.5108	-0.075
Mof_C 	C 	0.7348	0.6881	0.7025	0.305
Mof_C 	C 	0.7361	0.8258	0.6559	-0.019
Mof_C 	C 	0.7168	0.938	0.6873	-0.009
Mof_C 	C 	0.7147	0.0641	0.6439	-0.037
Mof_C 	C 	0.6888	0.187	0.6759	0.27
Mof_C 	C 	0.7356	0.0812	0.5711	-0.181
Mof_C 	C 	0.7558	0.9693	0.5394	0.22
Mof_C 	C 	0.7538	0.8419	0.583	-0.14
Mof_C 	C 	0.7685	0.1079	0.4239	-0.144
Mof_C 	C 	0.7782	0.0949	0.3477	0.17
Mof_C 	C 	0.6585	0.088	0.3183	-0.223
Mof_C 	C 	0.6669	0.0806	0.2477	0.118
Mof_C 	C 	0.7973	0.0768	0.2055	-0.205
Mof_C 	C 	0.9175	0.0827	0.2344	0.189
Mof_C 	C 	0.9071	0.0928	0.3049	-0.248
Mof_C 	C 	0.8084	0.0673	0.1284	0.366
Mof_C 	C 	0.3913	0.3042	0.7959	0.102
Mof_C 	C 	0.2551	0.3126	0.8295	-0.207
Mof_C 	C 	0.1875	0.4365	0.8229	0.172
Mof_C 	C 	0.2622	0.5449	0.7805	-0.214
Mof_C 	C 	0.3976	0.5283	0.7493	0.109
Mof_C 	C 	0.0419	0.4523	0.8603	-0.242
Mof_C 	C 	0.1203	0.5485	0.9508	0.03
Mof_C 	C 	0.8898	0.4565	0.9709	0.04
Mof_C 	C 	0.9864	0.2854	0.7192	0.186
Mof_C 	C 	0.1224	0.2594	0.6895	-0.294
Mof_C 	C 	0.1801	0.3324	0.6241	0.226
Mof_C 	C 	0.0982	0.4319	0.5903	-0.286
Mof_C 	C 	0.9627	0.4517	0.6237	0.182
Mof_C 	C 	0.3264	0.3004	0.5895	-0.234
Mof_C 	C 	0.4332	0.5176	0.5674	-0.058
Mof_C 	C 	0.507	0.3666	0.4892	-0.075
Mof_N 	N 	0.5353	0.5907	0.24289	-0.251
Mof_N 	N 	0.9638	0.5589	0.06265	-0.062
Mof_N 	N 	0.0933	0.6191	0.31283	-0.232
Mof_N 	N 	0.613	0.5886	0.46458	-0.067
Mof_N 	N 	0.4647	0.4093	0.75711	-0.255
Mof_N 	N 	0.0362	0.4411	0.93735	-0.103
Mof_N 	N 	0.9067	0.3809	0.68717	-0.269
Mof_N 	N 	0.387	0.4114	0.53542	-0.062
Mof_O 	O 	0.3022	0.4059	0.32374	-0.423
Mof_O 	O 	0.2313	0.3255	0.23729	-0.306
Mof_O 	O 	0.3218	0.8228	0.25753	-0.372
Mof_O 	O 	0.3206	0.7004	0.36468	-0.374
Mof_O 	O 	0.0847	0.9945	0.89611	-0.431
Mof_O 	O 	0.286	0.8828	0.90534	-0.277
Mof_O 	O 	0.2251	0.0244	0.53251	-0.247
Mof_O 	O 	0.6978	0.5941	0.67626	-0.42
Mof_O 	O 	0.7687	0.6745	0.76271	-0.287
Mof_O 	O 	0.6782	0.1772	0.74247	-0.392
Mof_O 	O 	0.6794	0.2996	0.63532	-0.378
Mof_O 	O 	0.9153	0.0055	0.10389	-0.483
Mof_O 	O 	0.714	0.1172	0.09466	-0.335
Mof_O 	O 	0.7749	0.9756	0.46749	-0.179
_end
