data_functionalizedCrystal
_audit_creation_method	'EQeq! by Chris Wilmer'
_symmetry_space_group_name_H-M	'P1'
_symmetry_Int_Tables_number	1
_symmetry_cell_setting	triclinic
loop_
_symmetry_equiv_pos_as_xyz
  x,y,z
_cell_length_a	10.185
_cell_length_b	13.8967
_cell_length_c	22.79
_cell_angle_alpha	97.1345
_cell_angle_beta	90
_cell_angle_gamma	111.497
loop_
_atom_site_label
_atom_site_type_symbol
_atom_site_fract_x
_atom_site_fract_y
_atom_site_fract_z
_atom_site_charge
Mof_Cu	Cu	0.88846	0.5918	0.45879	0.924
Mof_Cu	Cu	0.29666	0.4082	0.04121	0.925
Mof_Cu	Cu	0.11154	0.4082	0.54121	0.925
Mof_Cu	Cu	0.70334	0.5918	0.95879	0.923
Mof_Cu	Cu	0.63042	0	0.25	0.883
Mof_Cu	Cu	0.36958	3.82217e-17	0.75	0.883
Mof_H 	H 	0.2435	0.727	0.3722	0.038
Mof_H 	H 	0.445	0.6036	0.4731	0.042
Mof_H 	H 	0.6545	0.7824	0.3519	0.041
Mof_H 	H 	0.5847	0.1956	0.3244	0.024
Mof_H 	H 	0.7186	0.9914	0.3798	0.07
Mof_H 	H 	0.6128	0.2344	0.432	0.044
Mof_H 	H 	0.7391	0.0404	0.489	0.022
Mof_H 	H 	0.7549	0.1558	0.5114	0.037
Mof_H 	H 	0.5687	0.0452	0.5561	0.088
Mof_H 	H 	0.5123	0.1048	0.5149	0.093
Mof_H 	H 	0.9834	0.6048	0.3297	0.007
Mof_H 	H 	0.6408	0.3978	0.3795	0.03
Mof_H 	H 	0.6299	0.375	0.2713	0.042
Mof_H 	H 	0.955	0.5628	0.2184	0.051
Mof_H 	H 	0.8504	0.4494	0.1952	0.055
Mof_H 	H 	0.6653	0.5084	0.1891	0.067
Mof_H 	H 	0.7877	0.5688	0.1505	0.067
Mof_H 	H 	0.7289	0.6502	0.262	0.07
Mof_H 	H 	0.8601	0.7104	0.2274	0.07
Mof_H 	H 	0.6867	0.7762	0.2142	0.056
Mof_H 	H 	0.5767	0.6644	0.1914	0.059
Mof_H 	H 	0.5764	0.5956	0.0831	-0.003
Mof_H 	H 	0.8978	0.8552	0.1386	0.043
Mof_H 	H 	0.915	0.8052	0.032	0.037
Mof_H 	H 	0.5165	0.273	0.1278	0.032
Mof_H 	H 	0.8414	0.3964	0.0269	0.038
Mof_H 	H 	0.8721	0.2176	0.1481	0.032
Mof_H 	H 	0.3891	0.8044	0.1756	0.03
Mof_H 	H 	0.7272	0.0086	0.1202	-0.069
Mof_H 	H 	0.3784	0.7656	0.068	0.049
Mof_H 	H 	0.6987	0.9596	0.011	0.071
Mof_H 	H 	0.5991	0.8442	0.9886	0.058
Mof_H 	H 	0.5235	0.9548	0.9439	0.066
Mof_H 	H 	0.4075	0.8952	0.9851	0.06
Mof_H 	H 	0.3786	0.3952	0.1703	0.007
Mof_H 	H 	0.243	0.6022	0.1205	0.032
Mof_H 	H 	0.2549	0.625	0.2287	0.043
Mof_H 	H 	0.3922	0.4372	0.2816	0.049
Mof_H 	H 	0.401	0.5506	0.3048	0.053
Mof_H 	H 	0.1569	0.4916	0.3109	0.071
Mof_H 	H 	0.2189	0.4312	0.3495	0.069
Mof_H 	H 	0.0787	0.3498	0.238	0.066
Mof_H 	H 	0.1497	0.2896	0.2726	0.062
Mof_H 	H 	0.9105	0.2238	0.2858	0.052
Mof_H 	H 	0.9123	0.3356	0.3086	0.061
Mof_H 	H 	0.9808	0.4044	0.4169	-0.009
Mof_H 	H 	0.0426	0.1448	0.3614	0.025
Mof_H 	H 	0.1098	0.1948	0.468	0.026
Mof_H 	H 	0.7565	0.273	0.6278	0.032
Mof_H 	H 	0.555	0.3964	0.5269	0.039
Mof_H 	H 	0.3455	0.2176	0.6481	0.034
Mof_H 	H 	0.4153	0.8044	0.6756	0.029
Mof_H 	H 	0.2814	0.0086	0.6202	-0.069
Mof_H 	H 	0.3872	0.7656	0.568	0.048
Mof_H 	H 	0.2609	0.9596	0.511	0.081
Mof_H 	H 	0.2451	0.8442	0.4886	0.071
Mof_H 	H 	0.4313	0.9548	0.4439	0.055
Mof_H 	H 	0.4877	0.8952	0.4851	0.05
Mof_H 	H 	0.0166	0.3952	0.6703	0.008
Mof_H 	H 	0.3592	0.6022	0.6205	0.031
Mof_H 	H 	0.3701	0.625	0.7287	0.043
Mof_H 	H 	0.045	0.4372	0.7816	0.051
Mof_H 	H 	0.1496	0.5506	0.8048	0.055
Mof_H 	H 	0.3347	0.4916	0.8109	0.068
Mof_H 	H 	0.2123	0.4312	0.8495	0.067
Mof_H 	H 	0.2711	0.3498	0.738	0.067
Mof_H 	H 	0.1399	0.2896	0.7726	0.064
Mof_H 	H 	0.3133	0.2238	0.7858	0.051
Mof_H 	H 	0.4233	0.3356	0.8086	0.06
Mof_H 	H 	0.4236	0.4044	0.9169	-0.003
Mof_H 	H 	0.1022	0.1448	0.8614	0.025
Mof_H 	H 	0.085	0.1948	0.968	0.025
Mof_H 	H 	0.4835	0.727	0.8722	0.038
Mof_H 	H 	0.1586	0.6036	0.9731	0.042
Mof_H 	H 	0.1279	0.7824	0.8519	0.043
Mof_H 	H 	0.6109	0.1956	0.8244	0.024
Mof_H 	H 	0.2728	0.9914	0.8798	0.071
Mof_H 	H 	0.6216	0.2344	0.932	0.044
Mof_H 	H 	0.3013	0.0404	0.989	0.031
Mof_H 	H 	0.4009	0.1558	0.0114	0.049
Mof_H 	H 	0.4765	0.0452	0.0561	0.078
Mof_H 	H 	0.5925	0.1048	0.0149	0.084
Mof_H 	H 	0.6214	0.6048	0.8297	0.009
Mof_H 	H 	0.757	0.3978	0.8795	0.029
Mof_H 	H 	0.7451	0.375	0.7713	0.042
Mof_H 	H 	0.6078	0.5628	0.7184	0.053
Mof_H 	H 	0.599	0.4494	0.6952	0.056
Mof_H 	H 	0.8431	0.5084	0.6891	0.065
Mof_H 	H 	0.7811	0.5688	0.6505	0.065
Mof_H 	H 	0.9213	0.6502	0.762	0.071
Mof_H 	H 	0.8503	0.7104	0.7274	0.073
Mof_H 	H 	0.0895	0.7762	0.7142	0.055
Mof_H 	H 	0.0877	0.6644	0.6914	0.058
Mof_H 	H 	0.0192	0.5956	0.5831	0.004
Mof_H 	H 	0.9574	0.8552	0.6386	0.044
Mof_H 	H 	0.8902	0.8052	0.532	0.036
Mof_C 	C 	0.32627	0.71874	0.38321	0.048
Mof_C 	C 	0.32627	0.65834	0.42823	-0.129
Mof_C 	C 	0.44666	0.64492	0.44373	0.047
Mof_C 	C 	0.5729	0.692	0.4165	-0.103
Mof_C 	C 	0.57216	0.75192	0.3713	0.04
Mof_C 	C 	0.44977	0.76594	0.3553	-0.118
Mof_C 	C 	0.191	0.609	0.4591	0.374
Mof_C 	C 	0.7071	0.6768	0.4308	0.315
Mof_C 	C 	0.4547	0.8346	0.3085	0.357
Mof_C 	C 	0.6147	0.1586	0.3493	0.021
Mof_C 	C 	0.688	0.0468	0.3794	-0.006
Mof_C 	C 	0.6301	0.1808	0.4086	-0.014
Mof_C 	C 	0.6944	0.091	0.4884	-0.001
Mof_C 	C 	0.5538	0.0522	0.515	-0.211
Mof_C 	C 	0.8964	0.5502	0.329	0.092
Mof_C 	C 	0.7092	0.4372	0.356	0.019
Mof_C 	C 	0.7023	0.4238	0.2962	-0.014
Mof_C 	C 	0.858	0.5146	0.2186	-0.053
Mof_C 	C 	0.7612	0.559	0.1909	-0.097
Mof_C 	C 	0.7631	0.6612	0.2227	-0.099
Mof_C 	C 	0.6756	0.709	0.1922	-0.055
Mof_C 	C 	0.6594	0.6538	0.0832	0.098
Mof_C 	C 	0.8358	0.797	0.1148	-0.003
Mof_C 	C 	0.8441	0.7684	0.0555	0.018
Mof_C 	C 	0.60753	0.28126	0.11679	0.056
Mof_C 	C 	0.66793	0.34166	0.07177	-0.137
Mof_C 	C 	0.80174	0.35508	0.05627	0.054
Mof_C 	C 	0.8809	0.308	0.0835	-0.118
Mof_C 	C 	0.82024	0.24808	0.1287	0.047
Mof_C 	C 	0.68383	0.23406	0.1447	-0.133
Mof_C 	C 	0.582	0.391	0.0409	0.382
Mof_C 	C 	0.0303	0.3232	0.0692	0.321
Mof_C 	C 	0.6201	0.1654	0.1915	0.362
Mof_C 	C 	0.4561	0.8414	0.1507	0.028
Mof_C 	C 	0.6412	0.9532	0.1206	0.19
Mof_C 	C 	0.4493	0.8192	0.0914	-0.008
Mof_C 	C 	0.6034	0.909	0.0116	-0.061
Mof_C 	C 	0.5016	0.9478	0.985	-0.033
Mof_C 	C 	0.3462	0.4498	0.171	0.092
Mof_C 	C 	0.272	0.5628	0.144	0.019
Mof_C 	C 	0.2785	0.5762	0.2038	-0.013
Mof_C 	C 	0.3434	0.4854	0.2814	-0.049
Mof_C 	C 	0.2022	0.441	0.3091	-0.105
Mof_C 	C 	0.1019	0.3388	0.2773	-0.088
Mof_C 	C 	0.9666	0.291	0.3078	-0.062
Mof_C 	C 	0.0056	0.3462	0.4168	0.108
Mof_C 	C 	0.0388	0.203	0.3852	-0.001
Mof_C 	C 	0.0757	0.2316	0.4445	0.013
Mof_C 	C 	0.67373	0.28126	0.61679	0.054
Mof_C 	C 	0.67373	0.34166	0.57177	-0.134
Mof_C 	C 	0.55334	0.35508	0.55627	0.051
Mof_C 	C 	0.4271	0.308	0.5835	-0.113
Mof_C 	C 	0.42784	0.24808	0.6287	0.044
Mof_C 	C 	0.55023	0.23406	0.6447	-0.132
Mof_C 	C 	0.809	0.391	0.5409	0.377
Mof_C 	C 	0.2929	0.3232	0.5692	0.316
Mof_C 	C 	0.5453	0.1654	0.6915	0.361
Mof_C 	C 	0.3853	0.8414	0.6507	0.028
Mof_C 	C 	0.312	0.9532	0.6206	0.189
Mof_C 	C 	0.3699	0.8192	0.5914	-0.01
Mof_C 	C 	0.3056	0.909	0.5116	-0.092
Mof_C 	C 	0.4462	0.9478	0.485	0.005
Mof_C 	C 	0.1036	0.4498	0.671	0.092
Mof_C 	C 	0.2908	0.5628	0.644	0.018
Mof_C 	C 	0.2977	0.5762	0.7038	-0.013
Mof_C 	C 	0.142	0.4854	0.7814	-0.052
Mof_C 	C 	0.2388	0.441	0.8091	-0.099
Mof_C 	C 	0.2369	0.3388	0.7773	-0.096
Mof_C 	C 	0.3244	0.291	0.8078	-0.056
Mof_C 	C 	0.3406	0.3462	0.9168	0.097
Mof_C 	C 	0.1642	0.203	0.8852	-0.005
Mof_C 	C 	0.1559	0.2316	0.9445	0.014
Mof_C 	C 	0.39247	0.71874	0.88321	0.046
Mof_C 	C 	0.33207	0.65834	0.92823	-0.126
Mof_C 	C 	0.19826	0.64492	0.94373	0.043
Mof_C 	C 	0.1191	0.692	0.9165	-0.098
Mof_C 	C 	0.17976	0.75192	0.8713	0.037
Mof_C 	C 	0.31617	0.76594	0.8553	-0.117
Mof_C 	C 	0.418	0.609	0.9591	0.369
Mof_C 	C 	0.9697	0.6768	0.9308	0.309
Mof_C 	C 	0.3799	0.8346	0.8085	0.356
Mof_C 	C 	0.5439	0.1586	0.8493	0.022
Mof_C 	C 	0.3588	0.0468	0.8794	-0.008
Mof_C 	C 	0.5507	0.1808	0.9086	-0.015
Mof_C 	C 	0.3966	0.091	0.9884	-0.029
Mof_C 	C 	0.4984	0.0522	0.015	-0.174
Mof_C 	C 	0.6538	0.5502	0.829	0.091
Mof_C 	C 	0.728	0.4372	0.856	0.019
Mof_C 	C 	0.7215	0.4238	0.7962	-0.014
Mof_C 	C 	0.6566	0.5146	0.7186	-0.057
Mof_C 	C 	0.7978	0.559	0.6909	-0.091
Mof_C 	C 	0.8981	0.6612	0.7227	-0.108
Mof_C 	C 	0.0334	0.709	0.6922	-0.048
Mof_C 	C 	0.9944	0.6538	0.5832	0.086
Mof_C 	C 	0.9612	0.797	0.6148	-0.008
Mof_C 	C 	0.9243	0.7684	0.5555	0.019
Mof_N 	N 	0.64888	0.07536	0.33095	-0.207
Mof_N 	N 	0.67692	0.10844	0.42748	-0.106
Mof_N 	N 	0.83127	0.51714	0.37691	-0.202
Mof_N 	N 	0.82273	0.49626	0.27975	-0.116
Mof_N 	N 	0.71892	0.72304	0.13117	-0.115
Mof_N 	N 	0.73371	0.67882	0.03617	-0.211
Mof_N 	N 	0.57352	0.92464	0.16905	-0.218
Mof_N 	N 	0.56848	0.89156	0.07252	-0.122
Mof_N 	N 	0.31413	0.48286	0.12309	-0.201
Mof_N 	N 	0.32647	0.50374	0.22025	-0.116
Mof_N 	N 	0.99588	0.27696	0.36883	-0.12
Mof_N 	N 	0.05489	0.32118	0.46383	-0.214
Mof_N 	N 	0.35112	0.92464	0.66905	-0.218
Mof_N 	N 	0.32308	0.89156	0.57252	-0.118
Mof_N 	N 	0.16873	0.48286	0.62309	-0.201
Mof_N 	N 	0.17727	0.50374	0.72025	-0.115
Mof_N 	N 	0.28108	0.27696	0.86883	-0.115
Mof_N 	N 	0.26629	0.32118	0.96383	-0.214
Mof_N 	N 	0.42648	0.07536	0.83095	-0.207
Mof_N 	N 	0.43152	0.10844	0.92748	-0.102
Mof_N 	N 	0.68587	0.51714	0.87691	-0.201
Mof_N 	N 	0.67353	0.49626	0.77975	-0.115
Mof_N 	N 	0.00412	0.72304	0.63117	-0.11
Mof_N 	N 	0.94511	0.67882	0.53617	-0.211
Mof_O 	O 	0.08237	0.61714	0.43682	-0.407
Mof_O 	O 	0.19552	0.56524	0.50261	-0.368
Mof_O 	O 	0.69663	0.60266	0.46087	-0.359
Mof_O 	O 	0.81896	0.73512	0.41383	-0.3
Mof_O 	O 	0.56902	0.87064	0.28419	-0.4
Mof_O 	O 	0.3508	0.8564	0.2996	-0.277
Mof_O 	O 	0.46523	0.38286	0.06318	-0.411
Mof_O 	O 	0.63028	0.43476	0.99739	-0.374
Mof_O 	O 	0.09397	0.39734	0.03913	-0.359
Mof_O 	O 	0.08384	0.26488	0.08617	-0.31
Mof_O 	O 	0.69838	0.12936	0.21581	-0.427
Mof_O 	O 	0.4944	0.1436	0.2004	-0.306
Mof_O 	O 	0.91763	0.38286	0.56318	-0.413
Mof_O 	O 	0.80448	0.43476	0.49739	-0.37
Mof_O 	O 	0.30337	0.39734	0.53913	-0.36
Mof_O 	O 	0.18104	0.26488	0.58617	-0.31
Mof_O 	O 	0.43098	0.12936	0.71581	-0.427
Mof_O 	O 	0.6492	0.1436	0.7004	-0.307
Mof_O 	O 	0.53477	0.61714	0.93682	-0.409
Mof_O 	O 	0.36972	0.56524	0.00261	-0.364
Mof_O 	O 	0.90603	0.60266	0.96087	-0.36
Mof_O 	O 	0.91616	0.73512	0.91383	-0.3
Mof_O 	O 	0.30162	0.87064	0.78419	-0.399
Mof_O 	O 	0.5056	0.8564	0.7996	-0.279
_end
