data_functionalizedCrystal
_audit_creation_method	'EQeq! by Chris Wilmer'
_symmetry_space_group_name_H-M	'P1'
_symmetry_Int_Tables_number	1
_symmetry_cell_setting	triclinic
loop_
_symmetry_equiv_pos_as_xyz
  x,y,z
_cell_length_a	10.5344
_cell_length_b	11.9073
_cell_length_c	14.0461
_cell_angle_alpha	106.645
_cell_angle_beta	101.977
_cell_angle_gamma	112.078
loop_
_atom_site_label
_atom_site_type_symbol
_atom_site_fract_x
_atom_site_fract_y
_atom_site_fract_z
_atom_site_charge
Mof_Co	Co	0.80851	0.00864	0.7872	1.186
Mof_Co	Co	0.44871	0.7292	0.68837	1.187
Mof_Co	Co	0.19149	0.99136	0.2128	1.185
Mof_Co	Co	0.55129	0.2708	0.31163	1.186
Mof_H 	H 	0.564	0.975	0.79	0.547
Mof_H 	H 	0.524	0.955	0.689	0.375
Mof_H 	H 	0.8458	0.8506	0.4699	0.02
Mof_H 	H 	0.8612	0.7231	0.3151	0.083
Mof_H 	H 	0.7449	0.496	0.2536	-0.002
Mof_H 	H 	0.6142	0.5123	0.4964	0.02
Mof_H 	H 	0.8618	0.4304	0.6388	0.024
Mof_H 	H 	0.0063	0.4816	0.8117	0.083
Mof_H 	H 	0.9827	0.3125	0.8668	0.002
Mof_H 	H 	0.6944	0.0443	0.5856	0.024
Mof_H 	H 	0.5604	0.8194	0.0389	0.032
Mof_H 	H 	0.6768	0.8941	0.2239	0.08
Mof_H 	H 	0.9232	0.9562	0.2925	0.005
Mof_H 	H 	0.9527	0.8928	0.0102	0.02
Mof_H 	H 	0.0067	0.2262	0.1384	0.037
Mof_H 	H 	0.0594	0.3074	0.3232	0.081
Mof_H 	H 	0.8821	0.3254	0.3893	0.006
Mof_H 	H 	0.5929	0.1658	0.1004	0.028
Mof_H 	H 	0.436	0.025	0.21	0.547
Mof_H 	H 	0.476	0.045	0.311	0.375
Mof_H 	H 	0.1542	0.1494	0.5301	0.02
Mof_H 	H 	0.1388	0.2769	0.6849	0.083
Mof_H 	H 	0.2551	0.504	0.7464	-0.002
Mof_H 	H 	0.3858	0.4877	0.5036	0.02
Mof_H 	H 	0.1382	0.5696	0.3612	0.024
Mof_H 	H 	0.9937	0.5184	0.1883	0.083
Mof_H 	H 	0.0173	0.6875	0.1332	0.002
Mof_H 	H 	0.3056	0.9557	0.4144	0.024
Mof_H 	H 	0.4396	0.1806	0.9611	0.032
Mof_H 	H 	0.3232	0.1059	0.7761	0.08
Mof_H 	H 	0.0768	0.0438	0.7075	0.005
Mof_H 	H 	0.0473	0.1072	0.9898	0.02
Mof_H 	H 	0.9933	0.7738	0.8616	0.037
Mof_H 	H 	0.9406	0.6926	0.6768	0.081
Mof_H 	H 	0.1179	0.6746	0.6107	0.006
Mof_H 	H 	0.4071	0.8342	0.8996	0.028
Mof_C 	C 	0.7004	0.7667	0.5939	0.397
Mof_C 	C 	0.7242	0.6924	0.4981	-0.146
Mof_C 	C 	0.8004	0.7568	0.4444	0.077
Mof_C 	C 	0.8089	0.6816	0.3532	-0.142
Mof_C 	C 	0.7411	0.5464	0.318	0.092
Mof_C 	C 	0.6638	0.5564	0.4584	0.091
Mof_C 	C 	0.6669	0.1906	0.4813	0.364
Mof_C 	C 	0.7629	0.23	0.5939	-0.125
Mof_C 	C 	0.8561	0.3619	0.6622	0.062
Mof_C 	C 	0.9402	0.3924	0.7644	-0.135
Mof_C 	C 	0.926	0.291	0.796	0.073
Mof_C 	C 	0.7572	0.1345	0.6321	0.077
Mof_C 	C 	0.6908	0.817	0.8882	0.374
Mof_C 	C 	0.7474	0.8503	0.0056	-0.136
Mof_C 	C 	0.6625	0.8487	0.0689	0.065
Mof_C 	C 	0.7312	0.8912	0.1779	-0.128
Mof_C 	C 	0.8782	0.9288	0.2182	0.082
Mof_C 	C 	0.8946	0.8911	0.0537	0.084
Mof_C 	C 	0.7431	0.1307	0.9804	0.353
Mof_C 	C 	0.7924	0.1892	0.1001	-0.115
Mof_C 	C 	0.9335	0.231	0.1667	0.047
Mof_C 	C 	0.9646	0.2801	0.2757	-0.125
Mof_C 	C 	0.858	0.2891	0.3145	0.072
Mof_C 	C 	0.6903	0.1978	0.146	0.067
Mof_C 	C 	0.2996	0.2333	0.4061	0.397
Mof_C 	C 	0.2758	0.3076	0.5019	-0.146
Mof_C 	C 	0.1996	0.2432	0.5556	0.077
Mof_C 	C 	0.1911	0.3184	0.6468	-0.142
Mof_C 	C 	0.2589	0.4536	0.682	0.092
Mof_C 	C 	0.3362	0.4436	0.5416	0.091
Mof_C 	C 	0.3331	0.8094	0.5187	0.364
Mof_C 	C 	0.2371	0.77	0.4061	-0.125
Mof_C 	C 	0.1439	0.6381	0.3378	0.062
Mof_C 	C 	0.0598	0.6076	0.2356	-0.135
Mof_C 	C 	0.074	0.709	0.204	0.073
Mof_C 	C 	0.2428	0.8655	0.3679	0.077
Mof_C 	C 	0.3092	0.183	0.1118	0.374
Mof_C 	C 	0.2526	0.1497	0.9944	-0.136
Mof_C 	C 	0.3375	0.1513	0.9311	0.065
Mof_C 	C 	0.2688	0.1088	0.8221	-0.128
Mof_C 	C 	0.1218	0.0712	0.7818	0.082
Mof_C 	C 	0.1054	0.1089	0.9463	0.084
Mof_C 	C 	0.2569	0.8693	0.0196	0.353
Mof_C 	C 	0.2076	0.8108	0.8999	-0.115
Mof_C 	C 	0.0665	0.769	0.8333	0.047
Mof_C 	C 	0.0354	0.7199	0.7243	-0.125
Mof_C 	C 	0.142	0.7109	0.6855	0.072
Mof_C 	C 	0.3097	0.8022	0.854	0.067
Mof_N 	N 	0.6707	0.4823	0.369	-0.227
Mof_N 	N 	0.836	0.1624	0.7321	-0.228
Mof_N 	N 	0.9605	0.9286	0.1581	-0.223
Mof_N 	N 	0.7214	0.2489	0.2516	-0.222
Mof_N 	N 	0.3293	0.5177	0.631	-0.227
Mof_N 	N 	0.164	0.8376	0.2679	-0.228
Mof_N 	N 	0.0395	0.0714	0.8419	-0.223
Mof_N 	N 	0.2786	0.7511	0.7484	-0.222
Mof_O 	O 	0.5988	0.6995	0.6182	-0.412
Mof_O 	O 	0.7848	0.8888	0.6398	-0.424
Mof_O 	O 	0.5973	0.0705	0.4237	-0.331
Mof_O 	O 	0.6665	0.2843	0.4565	-0.412
Mof_O 	O 	0.7841	0.8642	0.8492	-0.412
Mof_O 	O 	0.5534	0.7459	0.8377	-0.414
Mof_O 	O 	0.839	0.1336	0.9402	-0.414
Mof_O 	O 	0.6082	0.0805	0.9308	-0.334
Mof_O 	O 	0.5748	0.9398	0.7416	-1.109
Mof_O 	O 	0.4012	0.3005	0.3818	-0.412
Mof_O 	O 	0.2152	0.1112	0.3602	-0.424
Mof_O 	O 	0.4027	0.9295	0.5763	-0.331
Mof_O 	O 	0.3335	0.7157	0.5435	-0.412
Mof_O 	O 	0.2159	0.1358	0.1508	-0.412
Mof_O 	O 	0.4466	0.2541	0.1623	-0.414
Mof_O 	O 	0.161	0.8664	0.0598	-0.414
Mof_O 	O 	0.3918	0.9195	0.0692	-0.334
Mof_O 	O 	0.4252	0.0602	0.2584	-1.109
_end
