data_functionalizedCrystal
_audit_creation_method	'EQeq! by Chris Wilmer'
_symmetry_space_group_name_H-M	'P1'
_symmetry_Int_Tables_number	1
_symmetry_cell_setting	triclinic
loop_
_symmetry_equiv_pos_as_xyz
  x,y,z
_cell_length_a	6.4467
_cell_length_b	16.6485
_cell_length_c	21.6974
_cell_angle_alpha	90
_cell_angle_beta	90
_cell_angle_gamma	91.283
loop_
_atom_site_label
_atom_site_type_symbol
_atom_site_fract_x
_atom_site_fract_y
_atom_site_fract_z
_atom_site_charge
Mof_Na	Na	0.6117	0.53804	0.92583	2.077
Mof_Na	Na	0.3883	0.96196	0.42583	2.081
Mof_Na	Na	0.3883	0.46196	0.07417	2.078
Mof_Na	Na	0.6117	0.03804	0.57417	2.082
Mof_La	La	0.56246	0.78069	0.92227	1.867
Mof_La	La	0.43754	0.71931	0.42227	1.868
Mof_La	La	0.43754	0.21931	0.07773	1.867
Mof_La	La	0.56246	0.28069	0.57773	1.868
Mof_H 	H 	0.5435	0.645	0.7072	0.027
Mof_H 	H 	0.597	0.6464	0.6013	0.018
Mof_H 	H 	0.4034	0.8467	0.7454	0.018
Mof_H 	H 	0.4576	0.8463	0.6399	-0.037
Mof_H 	H 	0.4565	0.855	0.2072	0.028
Mof_H 	H 	0.403	0.8536	0.1013	0.018
Mof_H 	H 	0.5966	0.6533	0.2454	0.019
Mof_H 	H 	0.5424	0.6537	0.1399	-0.038
Mof_H 	H 	0.4565	0.355	0.2928	0.027
Mof_H 	H 	0.403	0.3536	0.3987	0.018
Mof_H 	H 	0.5966	0.1533	0.2546	0.018
Mof_H 	H 	0.5424	0.1537	0.3601	-0.037
Mof_H 	H 	0.5435	0.145	0.7928	0.028
Mof_H 	H 	0.597	0.1464	0.8987	0.018
Mof_H 	H 	0.4034	0.3467	0.7546	0.019
Mof_H 	H 	0.4576	0.3463	0.8601	-0.038
Mof_C 	C 	0.7941	0.71288	0.72982	-0.111
Mof_C 	C 	0.6574	0.6729	0.69091	-0.034
Mof_C 	C 	0.6894	0.674	0.62699	-0.007
Mof_C 	C 	0.8546	0.71516	0.60207	-0.128
Mof_C 	C 	0.0185	0.74562	0.64147	0.053
Mof_C 	C 	0.9867	0.74445	0.70626	0.028
Mof_C 	C 	0.1489	0.776	0.74568	-0.102
Mof_C 	C 	0.3122	0.81787	0.72004	-0.048
Mof_C 	C 	0.3444	0.8181	0.65625	0.014
Mof_C 	C 	0.2113	0.77719	0.61763	-0.131
Mof_C 	C 	0.7145	0.73425	0.79249	0.356
Mof_C 	C 	0.8357	0.74082	0.53582	0.369
Mof_C 	C 	0.1668	0.75214	0.81252	0.375
Mof_C 	C 	0.2902	0.7567	0.55443	0.363
Mof_C 	C 	0.2059	0.78712	0.22982	-0.11
Mof_C 	C 	0.3426	0.8271	0.19091	-0.035
Mof_C 	C 	0.3106	0.826	0.12699	-0.006
Mof_C 	C 	0.1454	0.78484	0.10207	-0.13
Mof_C 	C 	0.9815	0.75438	0.14147	0.055
Mof_C 	C 	0.0133	0.75555	0.20626	0.026
Mof_C 	C 	0.8511	0.724	0.24568	-0.101
Mof_C 	C 	0.6878	0.68213	0.22004	-0.049
Mof_C 	C 	0.6556	0.6819	0.15625	0.015
Mof_C 	C 	0.7887	0.72281	0.11763	-0.131
Mof_C 	C 	0.2855	0.76575	0.29249	0.356
Mof_C 	C 	0.1643	0.75918	0.03582	0.369
Mof_C 	C 	0.8332	0.74786	0.31252	0.375
Mof_C 	C 	0.7098	0.7433	0.05443	0.363
Mof_C 	C 	0.2059	0.28712	0.27018	-0.111
Mof_C 	C 	0.3426	0.3271	0.30909	-0.034
Mof_C 	C 	0.3106	0.326	0.37301	-0.007
Mof_C 	C 	0.1454	0.28484	0.39793	-0.128
Mof_C 	C 	0.9815	0.25438	0.35853	0.053
Mof_C 	C 	0.0133	0.25555	0.29374	0.028
Mof_C 	C 	0.8511	0.224	0.25432	-0.102
Mof_C 	C 	0.6878	0.18213	0.27996	-0.048
Mof_C 	C 	0.6556	0.1819	0.34375	0.014
Mof_C 	C 	0.7887	0.22281	0.38237	-0.131
Mof_C 	C 	0.2855	0.26575	0.20751	0.356
Mof_C 	C 	0.1643	0.25918	0.46418	0.369
Mof_C 	C 	0.8332	0.24786	0.18748	0.375
Mof_C 	C 	0.7098	0.2433	0.44557	0.363
Mof_C 	C 	0.7941	0.21288	0.77018	-0.11
Mof_C 	C 	0.6574	0.1729	0.80909	-0.035
Mof_C 	C 	0.6894	0.174	0.87301	-0.006
Mof_C 	C 	0.8546	0.21516	0.89793	-0.13
Mof_C 	C 	0.0185	0.24562	0.85853	0.055
Mof_C 	C 	0.9867	0.24445	0.79374	0.026
Mof_C 	C 	0.1489	0.276	0.75432	-0.101
Mof_C 	C 	0.3122	0.31787	0.77996	-0.049
Mof_C 	C 	0.3444	0.3181	0.84375	0.015
Mof_C 	C 	0.2113	0.27719	0.88237	-0.131
Mof_C 	C 	0.7145	0.23425	0.70751	0.356
Mof_C 	C 	0.8357	0.24082	0.96418	0.369
Mof_C 	C 	0.1668	0.25214	0.68748	0.375
Mof_C 	C 	0.2902	0.2567	0.94557	0.363
Mof_O 	O 	0.5945	0.68579	0.82068	-0.453
Mof_O 	O 	0.7559	0.80302	0.81412	-0.433
Mof_O 	O 	0.1019	0.68185	0.82613	-0.302
Mof_O 	O 	0.2569	0.79956	0.84943	-0.454
Mof_O 	O 	0.4065	0.80677	0.52663	-0.442
Mof_O 	O 	0.2483	0.68818	0.53208	-0.42
Mof_O 	O 	0.8985	0.81076	0.52214	-0.319
Mof_O 	O 	0.7443	0.69358	0.4979	-0.437
Mof_O 	O 	0.3545	0.64511	0.92482	-0.525
Mof_O 	O 	0.8387	0.667	0.92387	-0.489
Mof_O 	O 	0.3122	0.46337	0.9633	-0.696
Mof_O 	O 	0.4055	0.81421	0.32068	-0.453
Mof_O 	O 	0.2441	0.69698	0.31412	-0.433
Mof_O 	O 	0.8981	0.81815	0.32613	-0.301
Mof_O 	O 	0.7431	0.70044	0.34943	-0.454
Mof_O 	O 	0.5935	0.69323	0.02663	-0.442
Mof_O 	O 	0.7517	0.81182	0.03208	-0.419
Mof_O 	O 	0.1015	0.68924	0.02214	-0.32
Mof_O 	O 	0.2557	0.80642	0.9979	-0.437
Mof_O 	O 	0.6455	0.85489	0.42482	-0.526
Mof_O 	O 	0.1613	0.833	0.42387	-0.489
Mof_O 	O 	0.6878	0.03663	0.4633	-0.697
Mof_O 	O 	0.4055	0.31421	0.17932	-0.453
Mof_O 	O 	0.2441	0.19698	0.18588	-0.433
Mof_O 	O 	0.8981	0.31815	0.17387	-0.302
Mof_O 	O 	0.7431	0.20044	0.15057	-0.454
Mof_O 	O 	0.5935	0.19323	0.47337	-0.442
Mof_O 	O 	0.7517	0.31182	0.46792	-0.42
Mof_O 	O 	0.1015	0.18924	0.47786	-0.319
Mof_O 	O 	0.2557	0.30642	0.5021	-0.437
Mof_O 	O 	0.6455	0.35489	0.07518	-0.525
Mof_O 	O 	0.1613	0.333	0.07613	-0.489
Mof_O 	O 	0.6878	0.53663	0.0367	-0.696
Mof_O 	O 	0.5945	0.18579	0.67932	-0.453
Mof_O 	O 	0.7559	0.30302	0.68588	-0.433
Mof_O 	O 	0.1019	0.18185	0.67387	-0.301
Mof_O 	O 	0.2569	0.29956	0.65057	-0.454
Mof_O 	O 	0.4065	0.30677	0.97337	-0.442
Mof_O 	O 	0.2483	0.18818	0.96792	-0.419
Mof_O 	O 	0.8985	0.31076	0.97786	-0.32
Mof_O 	O 	0.7443	0.19358	0.0021	-0.437
Mof_O 	O 	0.3545	0.14511	0.57518	-0.526
Mof_O 	O 	0.8387	0.167	0.57613	-0.489
Mof_O 	O 	0.3122	0.96337	0.5367	-0.697
_end
