# CIF file generated by openbabel 3.1.0, see https://openbabel.org
data_I
_chemical_name_common 'CETVAA_clean'
_cell_length_a 11.7526
_cell_length_b 11.7526
_cell_length_c 11.8323
_cell_angle_alpha 91.7812
_cell_angle_beta 91.7812
_cell_angle_gamma 105.187
_space_group_name_H-M_alt 'P 1'
_space_group_name_Hall 'P 1'
loop_
    _symmetry_equiv_pos_as_xyz
    x,y,z
loop_
    _atom_site_label
    _atom_site_type_symbol
    _atom_site_fract_x
    _atom_site_fract_y
    _atom_site_fract_z
    _atom_site_occupancy
    Cu1      Cu       0.12945    0.73122    0.53017    1.000
    Cu2      Cu       0.73122    0.12945    0.03017    1.000
    H1       H        0.12560    0.56540    0.72510    1.000
    H2       H        0.03150    0.52190    0.89320    1.000
    H3       H        0.88980    0.79820    0.85030    1.000
    H4       H        0.98680    0.83260    0.68280    1.000
    H5       H        0.61700    0.63580    0.08860    1.000
    H6       H        0.74310    0.69890    0.94240    1.000
    H7       H        0.97440    0.53200    0.07500    1.000
    H8       H        0.85070    0.47190    0.22410    1.000
    H9       H        0.96090    0.21370    0.93200    1.000
    H10      H        0.15790    0.30430    0.97220    1.000
    H11      H        0.07710    0.35570    0.29730    1.000
    H12      H        0.88170    0.26650    0.24640    1.000
    H13      H        0.46020    0.54880    0.35580    1.000
    H14      H        0.25800    0.47940    0.31430    1.000
    H15      H        0.32590    0.30310    0.03440    1.000
    H16      H        0.52810    0.37250    0.07660    1.000
    H17      H        0.79180    0.37200    0.93870    1.000
    H18      H        0.78300    0.46180    0.76780    1.000
    H19      H        0.70230    0.13750    0.61200    1.000
    H20      H        0.71160    0.05700    0.78660    1.000
    H21      H        0.53090    0.30270    0.34140    1.000
    H22      H        0.57400    0.22600    0.51170    1.000
    H23      H        0.85740    0.50680    0.57100    1.000
    H24      H        0.81530    0.58550    0.39990    1.000
    H25      H        0.56540    0.12560    0.22510    1.000
    H26      H        0.52190    0.03150    0.39320    1.000
    H27      H        0.79820    0.88980    0.35030    1.000
    H28      H        0.83260    0.98680    0.18280    1.000
    H29      H        0.63580    0.61700    0.58860    1.000
    H30      H        0.69890    0.74310    0.44240    1.000
    H31      H        0.53200    0.97440    0.57500    1.000
    H32      H        0.47190    0.85070    0.72410    1.000
    H33      H        0.21370    0.96090    0.43200    1.000
    H34      H        0.30430    0.15790    0.47220    1.000
    H35      H        0.35570    0.07710    0.79730    1.000
    H36      H        0.26650    0.88170    0.74640    1.000
    H37      H        0.54880    0.46020    0.85580    1.000
    H38      H        0.47940    0.25800    0.81430    1.000
    H39      H        0.30310    0.32590    0.53440    1.000
    H40      H        0.37250    0.52810    0.57660    1.000
    H41      H        0.37200    0.79180    0.43870    1.000
    H42      H        0.46180    0.78300    0.26780    1.000
    H43      H        0.13750    0.70230    0.11200    1.000
    H44      H        0.05700    0.71160    0.28660    1.000
    H45      H        0.30270    0.53090    0.84140    1.000
    H46      H        0.22600    0.57400    0.01170    1.000
    H47      H        0.50680    0.85740    0.07100    1.000
    H48      H        0.58550    0.81530    0.89990    1.000
    C1       C        0.07558    0.61200    0.75016    1.000
    C2       C        0.01947    0.58541    0.85092    1.000
    C3       C        0.94468    0.65210    0.89067    1.000
    C4       C        0.93600    0.74754    0.82570    1.000
    C5       C        0.99481    0.76791    0.72560    1.000
    C6       C        0.71880    0.54396    0.17021    1.000
    C7       C        0.68918    0.61384    0.08580    1.000
    C8       C        0.76459    0.65121    0.99830    1.000
    C9       C        0.87174    0.62014    0.99066    1.000
    C10      C        0.90165    0.55297    0.07713    1.000
    C11      C        0.82747    0.51607    0.16605    1.000
    C12      C        0.98496    0.24286    0.00712    1.000
    C13      C        0.10335    0.29565    0.03094    1.000
    C14      C        0.14316    0.33648    0.14150    1.000
    C15      C        0.05607    0.32631    0.22172    1.000
    C16      C        0.93892    0.27310    0.19032    1.000
    C17      C        0.51351    0.46683    0.22054    1.000
    C18      C        0.43267    0.49869    0.29067    1.000
    C19      C        0.31236    0.45766    0.26585    1.000
    C20      C        0.27062    0.38402    0.16927    1.000
    C21      C        0.35285    0.35307    0.09978    1.000
    C22      C        0.47339    0.39409    0.12480    1.000
    C23      C        0.77239    0.32389    0.87125    1.000
    C24      C        0.76709    0.37837    0.76940    1.000
    C25      C        0.73811    0.30895    0.66931    1.000
    C26      C        0.71951    0.18781    0.67817    1.000
    C27      C        0.72591    0.14015    0.78270    1.000
    C28      C        0.66825    0.45253    0.35434    1.000
    C29      C        0.59672    0.34458    0.38798    1.000
    C30      C        0.62256    0.29934    0.48946    1.000
    C31      C        0.71870    0.35940    0.55989    1.000
    C32      C        0.79078    0.46584    0.52488    1.000
    C33      C        0.76599    0.51283    0.42274    1.000
    C34      C        0.61200    0.07558    0.25016    1.000
    C35      C        0.58541    0.01947    0.35092    1.000
    C36      C        0.65210    0.94468    0.39067    1.000
    C37      C        0.74754    0.93600    0.32570    1.000
    C38      C        0.76791    0.99481    0.22560    1.000
    C39      C        0.54396    0.71880    0.67021    1.000
    C40      C        0.61384    0.68918    0.58580    1.000
    C41      C        0.65121    0.76459    0.49830    1.000
    C42      C        0.62014    0.87174    0.49066    1.000
    C43      C        0.55297    0.90165    0.57713    1.000
    C44      C        0.51607    0.82747    0.66605    1.000
    C45      C        0.24286    0.98496    0.50712    1.000
    C46      C        0.29565    0.10335    0.53094    1.000
    C47      C        0.33648    0.14316    0.64150    1.000
    C48      C        0.32631    0.05607    0.72172    1.000
    C49      C        0.27310    0.93892    0.69032    1.000
    C50      C        0.46683    0.51351    0.72054    1.000
    C51      C        0.49869    0.43267    0.79067    1.000
    C52      C        0.45766    0.31236    0.76585    1.000
    C53      C        0.38402    0.27062    0.66927    1.000
    C54      C        0.35307    0.35285    0.59978    1.000
    C55      C        0.39409    0.47339    0.62480    1.000
    C56      C        0.32389    0.77239    0.37125    1.000
    C57      C        0.37837    0.76709    0.26940    1.000
    C58      C        0.30895    0.73811    0.16931    1.000
    C59      C        0.18781    0.71951    0.17817    1.000
    C60      C        0.14015    0.72591    0.28270    1.000
    C61      C        0.45253    0.66825    0.85434    1.000
    C62      C        0.34458    0.59672    0.88798    1.000
    C63      C        0.29934    0.62256    0.98946    1.000
    C64      C        0.35940    0.71870    0.05989    1.000
    C65      C        0.46584    0.79078    0.02488    1.000
    C66      C        0.51283    0.76599    0.92274    1.000
    N1       N        0.06248    0.70104    0.68593    1.000
    N2       N        0.90203    0.23063    0.08524    1.000
    N3       N        0.75148    0.20684    0.87896    1.000
    N4       N        0.63676    0.50174    0.25357    1.000
    N5       N        0.70104    0.06248    0.18593    1.000
    N6       N        0.23063    0.90203    0.58524    1.000
    N7       N        0.20684    0.75148    0.37896    1.000
    N8       N        0.50174    0.63676    0.75357    1.000
    Cl1      Cl       0.11570    0.53382    0.49537    1.000
    Cl2      Cl       0.96471    0.80453    0.45594    1.000
    Cl3      Cl       0.53382    0.11570    0.99537    1.000
    Cl4      Cl       0.80453    0.96471    0.95594    1.000
