data_functionalizedCrystal
_audit_creation_method	'EQeq! by Chris Wilmer'
_symmetry_space_group_name_H-M	'P1'
_symmetry_Int_Tables_number	1
_symmetry_cell_setting	triclinic
loop_
_symmetry_equiv_pos_as_xyz
  x,y,z
_cell_length_a	10.9028
_cell_length_b	10.9453
_cell_length_c	15.8533
_cell_angle_alpha	88.159
_cell_angle_beta	80.542
_cell_angle_gamma	85.314
loop_
_atom_site_label
_atom_site_type_symbol
_atom_site_fract_x
_atom_site_fract_y
_atom_site_fract_z
_atom_site_charge
Mof_Zn	Zn	0.71758	0.84228	0.5937	1.217
Mof_Zn	Zn	0.6703	0.83713	0.78476	1.218
Mof_H 	H 	0.73	0.4482	0.5679	0.055
Mof_H 	H 	0.7261	0.2388	0.567	0.048
Mof_H 	H 	0.6526	0.2311	0.8201	0.052
Mof_H 	H 	0.6604	0.4392	0.8208	0.052
Mof_H 	H 	0.2673	0.8189	0.8154	0.054
Mof_H 	H 	0.0578	0.8104	0.8113	0.051
Mof_H 	H 	0.1229	0.8593	0.5567	0.052
Mof_H 	H 	0.3302	0.8683	0.5607	0.052
Mof_H 	H 	0.5803	0.8303	0.311	0.116
Mof_H 	H 	0.564	0.8405	0.4557	-0.012
Mof_H 	H 	0.9218	0.839	0.4435	-0.012
Mof_H 	H 	0.9516	0.8307	0.2969	0.111
Mof_H 	H 	0.8055	0.7311	0.9194	-0.019
Mof_H 	H 	0.8204	0.7564	0.0613	0.107
Mof_H 	H 	0.5162	0.9606	0.9349	0.026
Mof_H 	H 	0.8669	0.8054	0.1686	0.057
Mof_H 	H 	0.6118	0.9497	0.1957	0.137
Mof_C 	C 	0.6969	0.6046	0.6936	0.395
Mof_C 	C 	0.6947	0.4667	0.6945	-0.078
Mof_C 	C 	0.7146	0.4048	0.6194	-0.019
Mof_C 	C 	0.7123	0.2789	0.619	-0.01
Mof_C 	C 	0.6902	0.2125	0.6929	-0.087
Mof_C 	C 	0.6693	0.2744	0.7686	-0.015
Mof_C 	C 	0.673	0.3993	0.7688	-0.016
Mof_C 	C 	0.688	0.0754	0.6921	0.386
Mof_C 	C 	0.4581	0.8471	0.6906	0.384
Mof_C 	C 	0.3207	0.8436	0.6884	-0.075
Mof_C 	C 	0.2382	0.8271	0.7634	-0.015
Mof_C 	C 	0.1126	0.8228	0.7609	-0.012
Mof_C 	C 	0.0671	0.8368	0.6839	-0.081
Mof_C 	C 	0.1514	0.8521	0.6089	-0.013
Mof_C 	C 	0.2753	0.8565	0.6112	-0.017
Mof_C 	C 	0.9308	0.8339	0.6825	0.39
Mof_C 	C 	0.767	0.8336	0.2888	0.179
Mof_C 	C 	0.651	0.8332	0.3364	-0.213
Mof_C 	C 	0.6432	0.8375	0.423	0.127
Mof_C 	C 	0.8526	0.8369	0.4165	0.124
Mof_C 	C 	0.8717	0.8333	0.3286	-0.208
Mof_C 	C 	0.7444	0.7826	0.9514	0.13
Mof_C 	C 	0.7559	0.798	0.0375	-0.199
Mof_C 	C 	0.6675	0.8762	0.0853	0.166
Mof_C 	C 	0.5865	0.9415	0.0423	-0.085
Mof_C 	C 	0.5782	0.9178	0.9603	0.037
Mof_N 	N 	0.6593	0.8319	0.91282	-0.26
Mof_N 	N 	0.7405	0.8376	0.46485	-0.272
Mof_N 	N 	0.7766	0.8681	0.1999	-0.118
Mof_N 	N 	0.6725	0.9069	0.1662	-0.186
Mof_O 	O 	0.8598	0.826	0.75222	-0.468
Mof_O 	O 	0.8974	0.8395	0.61031	-0.459
Mof_O 	O 	0.4912	0.8518	0.76264	-0.462
Mof_O 	O 	0.5304	0.8446	0.62053	-0.468
Mof_O 	O 	0.673	0.6551	0.76494	-0.46
Mof_O 	O 	0.7219	0.658	0.62375	-0.462
Mof_O 	O 	0.6741	0.0207	0.76345	-0.461
Mof_O 	O 	0.7005	0.0262	0.62128	-0.462
Mof_Zn	Zn	0.28242	0.15772	0.4063	1.218
Mof_Zn	Zn	0.3297	0.16287	0.21524	1.219
Mof_H 	H 	0.27	0.5518	0.4321	0.055
Mof_H 	H 	0.2739	0.7612	0.433	0.048
Mof_H 	H 	0.3474	0.7689	0.1799	0.052
Mof_H 	H 	0.3396	0.5608	0.1792	0.052
Mof_H 	H 	0.7327	0.1811	0.1846	0.054
Mof_H 	H 	0.9422	0.1896	0.1887	0.051
Mof_H 	H 	0.8771	0.1407	0.4433	0.052
Mof_H 	H 	0.6698	0.1317	0.4393	0.052
Mof_H 	H 	0.4197	0.1697	0.689	0.116
Mof_H 	H 	0.436	0.1595	0.5443	-0.012
Mof_H 	H 	0.0782	0.161	0.5565	-0.012
Mof_H 	H 	0.0484	0.1693	0.7031	0.111
Mof_H 	H 	0.1945	0.2689	0.0806	-0.019
Mof_H 	H 	0.1796	0.2436	0.9387	0.107
Mof_H 	H 	0.4838	0.0394	0.0651	0.026
Mof_H 	H 	0.1331	0.1946	0.8314	0.057
Mof_H 	H 	0.3882	0.0503	0.8043	0.137
Mof_C 	C 	0.3031	0.3954	0.3064	0.395
Mof_C 	C 	0.3053	0.5333	0.3055	-0.078
Mof_C 	C 	0.2854	0.5952	0.3806	-0.019
Mof_C 	C 	0.2877	0.7211	0.381	-0.01
Mof_C 	C 	0.3098	0.7875	0.3071	-0.087
Mof_C 	C 	0.3307	0.7256	0.2314	-0.015
Mof_C 	C 	0.327	0.6007	0.2312	-0.016
Mof_C 	C 	0.312	0.9246	0.3079	0.386
Mof_C 	C 	0.5419	0.1529	0.3094	0.384
Mof_C 	C 	0.6793	0.1564	0.3116	-0.075
Mof_C 	C 	0.7618	0.1729	0.2366	-0.015
Mof_C 	C 	0.8874	0.1772	0.2391	-0.012
Mof_C 	C 	0.9329	0.1632	0.3161	-0.081
Mof_C 	C 	0.8486	0.1479	0.3911	-0.013
Mof_C 	C 	0.7247	0.1435	0.3888	-0.017
Mof_C 	C 	0.0692	0.1661	0.3175	0.39
Mof_C 	C 	0.233	0.1664	0.7112	0.179
Mof_C 	C 	0.349	0.1668	0.6636	-0.213
Mof_C 	C 	0.3568	0.1625	0.577	0.127
Mof_C 	C 	0.1474	0.1631	0.5835	0.124
Mof_C 	C 	0.1283	0.1667	0.6714	-0.208
Mof_C 	C 	0.2556	0.2174	0.0486	0.13
Mof_C 	C 	0.2441	0.202	0.9625	-0.199
Mof_C 	C 	0.3325	0.1238	0.9147	0.166
Mof_C 	C 	0.4135	0.0585	0.9577	-0.085
Mof_C 	C 	0.4218	0.0822	0.0397	0.037
Mof_N 	N 	0.3407	0.1681	0.08718	-0.26
Mof_N 	N 	0.2595	0.1624	0.53515	-0.272
Mof_N 	N 	0.2234	0.1319	0.8001	-0.118
Mof_N 	N 	0.3275	0.0931	0.8338	-0.186
Mof_O 	O 	0.1402	0.174	0.24778	-0.468
Mof_O 	O 	0.1026	0.1605	0.38969	-0.459
Mof_O 	O 	0.5088	0.1482	0.23736	-0.462
Mof_O 	O 	0.4696	0.1554	0.37947	-0.468
Mof_O 	O 	0.327	0.3449	0.23506	-0.46
Mof_O 	O 	0.2781	0.342	0.37625	-0.462
Mof_O 	O 	0.3259	0.9793	0.23655	-0.461
Mof_O 	O 	0.2995	0.9738	0.37872	-0.462
_end
