# CIF file generated by openbabel 3.1.0, see https://openbabel.org
data_I
_chemical_name_common 'image0'
_cell_length_a 9.5711
_cell_length_b 12.438
_cell_length_c 26.565
_cell_angle_alpha 90
_cell_angle_beta 90.493
_cell_angle_gamma 90
_space_group_name_H-M_alt 'P 1'
_space_group_name_Hall 'P 1'
loop_
    _symmetry_equiv_pos_as_xyz
    x,y,z
loop_
    _atom_site_label
    _atom_site_type_symbol
    _atom_site_fract_x
    _atom_site_fract_y
    _atom_site_fract_z
    _atom_site_occupancy
    Cd1      Cd       0.31560    0.53898    0.04647    1.000
    N1       N        0.42710    0.70260    0.05470    1.000
    N2       N        0.77350    0.99390    0.03990    1.000
    N3       N        0.84960    0.08800    0.03700    1.000
    N4       N        0.21530    0.36980    0.04410    1.000
    C1       C        0.55780    0.71050    0.04260    1.000
    H1       H        0.60490    0.64660    0.03290    1.000
    C2       C        0.63330    0.80530    0.04270    1.000
    H2       H        0.72850    0.80540    0.03300    1.000
    C3       C        0.57040    0.89850    0.05690    1.000
    C4       C        0.43250    0.89120    0.07150    1.000
    H3       H        0.38510    0.95290    0.08370    1.000
    C5       C        0.36370    0.79370    0.06810    1.000
    H4       H        0.26700    0.79140    0.07580    1.000
    C6       C        0.65090    0.00070    0.05830    1.000
    C7       C        0.59080    0.10200    0.07940    1.000
    H5       H        0.65810    0.16070    0.07550    1.000
    H6       H        0.57070    0.09180    0.11510    1.000
    H7       H        0.50420    0.11990    0.06120    1.000
    C8       C        0.25180    0.29400    0.07670    1.000
    H8       H        0.33180    0.30530    0.09740    1.000
    C9       C        0.17830    0.19920    0.08180    1.000
    H9       H        0.20850    0.14630    0.10520    1.000
    C10      C        0.05940    0.18170    0.05220    1.000
    C11      C        0.02270    0.26170    0.01770    1.000
    H10      H        0.94360    0.25240    0.99630    1.000
    C12      C        0.10170    0.35470    0.01480    1.000
    H11      H        0.07500    0.40910    0.99160    1.000
    C13      C        0.97190    0.08290    0.05800    1.000
    C14      C        0.02620    0.99020    0.08750    1.000
    H12      H        0.96700    0.92720    0.08130    1.000
    H13      H        0.02550    0.00800    0.12340    1.000
    H14      H        0.12210    0.97430    0.07710    1.000
    C15      C        0.12290    0.58650    0.11800    1.000
    C16      C        0.00550    0.60810    0.15450    1.000
    C17      C        0.00050    0.56300    0.20240    1.000
    H15      H        0.06740    0.51060    0.21220    1.000
    C18      C        0.89740    0.59480    0.23580    1.000
    H16      H        0.89390    0.56400    0.26850    1.000
    C19      C        0.79940    0.67160    0.22140    1.000
    C20      C        0.80440    0.71670    0.17350    1.000
    H17      H        0.73740    0.76910    0.16370    1.000
    C21      C        0.90750    0.68490    0.14010    1.000
    H18      H        0.91090    0.71570    0.10740    1.000
    C22      C        0.90590    0.87190    0.34110    1.000
    H19      H        0.99600    0.90350    0.34390    1.000
    C23      C        0.81070    0.88420    0.37950    1.000
    C24      C        0.67970    0.83820    0.37540    1.000
    H20      H        0.61420    0.84670    0.40170    1.000
    C25      C        0.64390    0.78000    0.33290    1.000
    H21      H        0.55380    0.74840    0.33010    1.000
    C26      C        0.73910    0.76770    0.29450    1.000
    C27      C        0.87010    0.81360    0.29860    1.000
    H22      H        0.93560    0.80520    0.27230    1.000
    O1       O        0.69310    0.70830    0.25240    1.000
    C28      C        0.85640    0.93210    0.43230    1.000
    O2       O        0.22370    0.53370    0.13550    1.000
    O3       O        0.11330    0.61650    0.07330    1.000
    O4       O        0.98130    0.95430    0.43950    1.000
    O5       O        0.76040    0.93930    0.46470    1.000
    C29      C        0.01400    0.63710    0.15100    1.000
    C30      C        0.01000    0.61060    0.20170    1.000
    H23      H        0.07800    0.56380    0.21570    1.000
    C31      C        0.90520    0.65250    0.23190    1.000
    H24      H        0.90220    0.63430    0.26660    1.000
    C32      C        0.80530    0.72080    0.21130    1.000
    C33      C        0.81000    0.74730    0.16060    1.000
    H25      H        0.74140    0.79410    0.14660    1.000
    C34      C        0.91400    0.70540    0.13040    1.000
    H26      H        0.91720    0.72360    0.09570    1.000
    C35      C        0.90700    0.90420    0.34500    1.000
    H27      H        0.99480    0.93740    0.35170    1.000
    C36      C        0.81000    0.89300    0.38320    1.000
    C37      C        0.68200    0.84500    0.37340    1.000
    H28      H        0.61610    0.83710    0.39960    1.000
    C38      C        0.65100    0.80730    0.32540    1.000
    H29      H        0.56360    0.77420    0.31870    1.000
    C39      C        0.74800    0.81850    0.28720    1.000
    C40      C        0.87600    0.86690    0.29700    1.000
    H30      H        0.94220    0.87450    0.27080    1.000
    O6       O        0.70100    0.76400    0.24250    1.000
    Cd2      Cd       0.18440    0.03898    0.45353    1.000
    N5       N        0.07290    0.20260    0.44530    1.000
    N6       N        0.72650    0.49390    0.46010    1.000
    N7       N        0.65040    0.58800    0.46300    1.000
    N8       N        0.28470    0.86980    0.45590    1.000
    C41      C        0.94220    0.21050    0.45740    1.000
    H31      H        0.89510    0.14660    0.46710    1.000
    C42      C        0.86670    0.30530    0.45730    1.000
    H32      H        0.77150    0.30540    0.46700    1.000
    C43      C        0.92960    0.39850    0.44310    1.000
    C44      C        0.06750    0.39120    0.42850    1.000
    H33      H        0.11490    0.45290    0.41630    1.000
    C45      C        0.13630    0.29370    0.43190    1.000
    H34      H        0.23300    0.29140    0.42420    1.000
    C46      C        0.84910    0.50070    0.44170    1.000
    C47      C        0.90920    0.60200    0.42060    1.000
    H35      H        0.84190    0.66070    0.42450    1.000
    H36      H        0.92930    0.59180    0.38490    1.000
    H37      H        0.99580    0.61990    0.43880    1.000
    C48      C        0.24820    0.79400    0.42330    1.000
    H38      H        0.16820    0.80530    0.40260    1.000
    C49      C        0.32170    0.69920    0.41820    1.000
    H39      H        0.29150    0.64630    0.39480    1.000
    C50      C        0.44060    0.68170    0.44780    1.000
    C51      C        0.47730    0.76170    0.48230    1.000
    H40      H        0.55640    0.75240    0.50370    1.000
    C52      C        0.39830    0.85470    0.48520    1.000
    H41      H        0.42500    0.90910    0.50840    1.000
    C53      C        0.52810    0.58290    0.44200    1.000
    C54      C        0.47380    0.49020    0.41250    1.000
    H42      H        0.53300    0.42720    0.41870    1.000
    H43      H        0.47450    0.50800    0.37660    1.000
    H44      H        0.37790    0.47430    0.42290    1.000
    C55      C        0.37710    0.08650    0.38200    1.000
    C56      C        0.49450    0.10810    0.34550    1.000
    C57      C        0.49950    0.06300    0.29760    1.000
    H45      H        0.43260    0.01060    0.28780    1.000
    C58      C        0.60260    0.09480    0.26420    1.000
    H46      H        0.60610    0.06400    0.23150    1.000
    C59      C        0.70060    0.17160    0.27860    1.000
    C60      C        0.69560    0.21670    0.32650    1.000
    H47      H        0.76260    0.26910    0.33630    1.000
    C61      C        0.59250    0.18490    0.35990    1.000
    H48      H        0.58910    0.21570    0.39260    1.000
    C62      C        0.59410    0.37190    0.15890    1.000
    H49      H        0.50400    0.40350    0.15610    1.000
    C63      C        0.68930    0.38420    0.12050    1.000
    C64      C        0.82030    0.33820    0.12460    1.000
    H50      H        0.88580    0.34670    0.09830    1.000
    C65      C        0.85610    0.28000    0.16710    1.000
    H51      H        0.94620    0.24840    0.16990    1.000
    C66      C        0.76090    0.26770    0.20550    1.000
    C67      C        0.62990    0.31360    0.20140    1.000
    H52      H        0.56440    0.30520    0.22770    1.000
    O7       O        0.80690    0.20830    0.24760    1.000
    C68      C        0.64360    0.43210    0.06770    1.000
    O8       O        0.27630    0.03370    0.36450    1.000
    O9       O        0.38670    0.11650    0.42670    1.000
    O10      O        0.51870    0.45430    0.06050    1.000
    O11      O        0.73960    0.43930    0.03530    1.000
    C69      C        0.48600    0.13710    0.34900    1.000
    C70      C        0.49000    0.11060    0.29830    1.000
    H53      H        0.42200    0.06380    0.28430    1.000
    C71      C        0.59480    0.15250    0.26810    1.000
    H54      H        0.59780    0.13430    0.23340    1.000
    C72      C        0.69470    0.22080    0.28870    1.000
    C73      C        0.69000    0.24730    0.33940    1.000
    H55      H        0.75860    0.29410    0.35340    1.000
    C74      C        0.58600    0.20540    0.36960    1.000
    H56      H        0.58280    0.22360    0.40430    1.000
    C75      C        0.59300    0.40420    0.15500    1.000
    H57      H        0.50520    0.43740    0.14830    1.000
    C76      C        0.69000    0.39300    0.11680    1.000
    C77      C        0.81800    0.34500    0.12660    1.000
    H58      H        0.88390    0.33710    0.10040    1.000
    C78      C        0.84900    0.30730    0.17460    1.000
    H59      H        0.93640    0.27420    0.18130    1.000
    C79      C        0.75200    0.31850    0.21280    1.000
    C80      C        0.62400    0.36690    0.20300    1.000
    H60      H        0.55780    0.37450    0.22920    1.000
    O12      O        0.79900    0.26400    0.25750    1.000
    Cd3      Cd       0.68440    0.46102    0.95353    1.000
    N9       N        0.57290    0.29740    0.94530    1.000
    N10      N        0.22650    0.00610    0.96010    1.000
    N11      N        0.15040    0.91200    0.96300    1.000
    N12      N        0.78470    0.63020    0.95590    1.000
    C81      C        0.44220    0.28950    0.95740    1.000
    H61      H        0.39510    0.35340    0.96710    1.000
    C82      C        0.36670    0.19470    0.95730    1.000
    H62      H        0.27150    0.19460    0.96700    1.000
    C83      C        0.42960    0.10150    0.94310    1.000
    C84      C        0.56750    0.10880    0.92850    1.000
    H63      H        0.61490    0.04710    0.91630    1.000
    C85      C        0.63630    0.20630    0.93190    1.000
    H64      H        0.73300    0.20860    0.92420    1.000
    C86      C        0.34910    0.99930    0.94170    1.000
    C87      C        0.40920    0.89800    0.92060    1.000
    H65      H        0.34190    0.83930    0.92450    1.000
    H66      H        0.42930    0.90820    0.88490    1.000
    H67      H        0.49580    0.88010    0.93880    1.000
    C88      C        0.74820    0.70600    0.92330    1.000
    H68      H        0.66820    0.69470    0.90260    1.000
    C89      C        0.82170    0.80080    0.91820    1.000
    H69      H        0.79150    0.85370    0.89480    1.000
    C90      C        0.94060    0.81830    0.94780    1.000
    C91      C        0.97730    0.73830    0.98230    1.000
    H70      H        0.05640    0.74760    0.00370    1.000
    C92      C        0.89830    0.64530    0.98520    1.000
    H71      H        0.92500    0.59090    0.00840    1.000
    C93      C        0.02810    0.91710    0.94200    1.000
    C94      C        0.97380    0.00980    0.91250    1.000
    H72      H        0.03300    0.07280    0.91870    1.000
    H73      H        0.97450    0.99200    0.87660    1.000
    H74      H        0.87790    0.02570    0.92290    1.000
    C95      C        0.87710    0.41350    0.88200    1.000
    C96      C        0.99450    0.39190    0.84550    1.000
    C97      C        0.99950    0.43700    0.79760    1.000
    H75      H        0.93260    0.48940    0.78780    1.000
    C98      C        0.10260    0.40520    0.76420    1.000
    H76      H        0.10610    0.43600    0.73150    1.000
    C99      C        0.20060    0.32840    0.77860    1.000
    C100     C        0.19560    0.28330    0.82650    1.000
    H77      H        0.26260    0.23090    0.83630    1.000
    C101     C        0.09250    0.31510    0.85990    1.000
    H78      H        0.08910    0.28430    0.89260    1.000
    C102     C        0.09410    0.12810    0.65890    1.000
    H79      H        0.00400    0.09650    0.65610    1.000
    C103     C        0.18930    0.11580    0.62050    1.000
    C104     C        0.32030    0.16180    0.62460    1.000
    H80      H        0.38580    0.15330    0.59830    1.000
    C105     C        0.35610    0.22000    0.66710    1.000
    H81      H        0.44620    0.25160    0.66990    1.000
    C106     C        0.26090    0.23230    0.70550    1.000
    C107     C        0.12990    0.18640    0.70140    1.000
    H82      H        0.06440    0.19480    0.72770    1.000
    O13      O        0.30690    0.29170    0.74760    1.000
    C108     C        0.14360    0.06790    0.56770    1.000
    O14      O        0.77630    0.46630    0.86450    1.000
    O15      O        0.88670    0.38350    0.92670    1.000
    O16      O        0.01870    0.04570    0.56050    1.000
    O17      O        0.23960    0.06070    0.53530    1.000
    C109     C        0.98600    0.36290    0.84900    1.000
    C110     C        0.99000    0.38940    0.79830    1.000
    H83      H        0.92200    0.43620    0.78430    1.000
    C111     C        0.09480    0.34750    0.76810    1.000
    H84      H        0.09780    0.36570    0.73340    1.000
    C112     C        0.19470    0.27920    0.78870    1.000
    C113     C        0.19000    0.25270    0.83940    1.000
    H85      H        0.25860    0.20590    0.85340    1.000
    C114     C        0.08600    0.29460    0.86960    1.000
    H86      H        0.08280    0.27640    0.90430    1.000
    C115     C        0.09300    0.09580    0.65500    1.000
    H87      H        0.00520    0.06260    0.64830    1.000
    C116     C        0.19000    0.10700    0.61680    1.000
    C117     C        0.31800    0.15500    0.62660    1.000
    H88      H        0.38390    0.16290    0.60040    1.000
    C118     C        0.34900    0.19270    0.67460    1.000
    H89      H        0.43640    0.22580    0.68130    1.000
    C119     C        0.25200    0.18150    0.71280    1.000
    C120     C        0.12400    0.13310    0.70300    1.000
    H90      H        0.05780    0.12550    0.72920    1.000
    O18      O        0.29900    0.23600    0.75750    1.000
    Cd4      Cd       0.81560    0.96102    0.54647    1.000
    N13      N        0.92710    0.79740    0.55470    1.000
    N14      N        0.27350    0.50610    0.53990    1.000
    N15      N        0.34960    0.41200    0.53700    1.000
    N16      N        0.71530    0.13020    0.54410    1.000
    C121     C        0.05780    0.78950    0.54260    1.000
    H91      H        0.10490    0.85340    0.53290    1.000
    C122     C        0.13330    0.69470    0.54270    1.000
    H92      H        0.22850    0.69460    0.53300    1.000
    C123     C        0.07040    0.60150    0.55690    1.000
    C124     C        0.93250    0.60880    0.57150    1.000
    H93      H        0.88510    0.54710    0.58370    1.000
    C125     C        0.86370    0.70630    0.56810    1.000
    H94      H        0.76700    0.70860    0.57580    1.000
    C126     C        0.15090    0.49930    0.55830    1.000
    C127     C        0.09080    0.39800    0.57940    1.000
    H95      H        0.15810    0.33930    0.57550    1.000
    H96      H        0.07070    0.40820    0.61510    1.000
    H97      H        0.00420    0.38010    0.56120    1.000
    C128     C        0.75180    0.20600    0.57670    1.000
    H98      H        0.83180    0.19470    0.59740    1.000
    C129     C        0.67830    0.30080    0.58180    1.000
    H99      H        0.70850    0.35370    0.60520    1.000
    C130     C        0.55940    0.31830    0.55220    1.000
    C131     C        0.52270    0.23830    0.51770    1.000
    H100     H        0.44360    0.24760    0.49630    1.000
    C132     C        0.60170    0.14530    0.51480    1.000
    H101     H        0.57500    0.09090    0.49160    1.000
    C133     C        0.47190    0.41710    0.55800    1.000
    C134     C        0.52620    0.50980    0.58750    1.000
    H102     H        0.46700    0.57280    0.58130    1.000
    H103     H        0.52550    0.49200    0.62340    1.000
    H104     H        0.62210    0.52570    0.57710    1.000
    C135     C        0.62290    0.91350    0.61800    1.000
    C136     C        0.50550    0.89190    0.65450    1.000
    C137     C        0.50050    0.93700    0.70240    1.000
    H105     H        0.56740    0.98940    0.71220    1.000
    C138     C        0.39740    0.90520    0.73580    1.000
    H106     H        0.39390    0.93600    0.76850    1.000
    C139     C        0.29940    0.82840    0.72140    1.000
    C140     C        0.30440    0.78330    0.67350    1.000
    H107     H        0.23740    0.73090    0.66370    1.000
    C141     C        0.40750    0.81510    0.64010    1.000
    H108     H        0.41090    0.78430    0.60740    1.000
    C142     C        0.40590    0.62810    0.84110    1.000
    H109     H        0.49600    0.59650    0.84390    1.000
    C143     C        0.31070    0.61580    0.87950    1.000
    C144     C        0.17970    0.66180    0.87540    1.000
    H110     H        0.11420    0.65330    0.90170    1.000
    C145     C        0.14390    0.72000    0.83290    1.000
    H111     H        0.05380    0.75160    0.83010    1.000
    C146     C        0.23910    0.73230    0.79450    1.000
    C147     C        0.37010    0.68640    0.79860    1.000
    H112     H        0.43560    0.69480    0.77230    1.000
    O19      O        0.19310    0.79170    0.75240    1.000
    C148     C        0.35640    0.56790    0.93230    1.000
    O20      O        0.72370    0.96630    0.63550    1.000
    O21      O        0.61330    0.88350    0.57330    1.000
    O22      O        0.48130    0.54570    0.93950    1.000
    O23      O        0.26040    0.56070    0.96470    1.000
    C149     C        0.51400    0.86290    0.65100    1.000
    C150     C        0.51000    0.88940    0.70170    1.000
    H113     H        0.57800    0.93620    0.71570    1.000
    C151     C        0.40520    0.84750    0.73190    1.000
    H114     H        0.40220    0.86570    0.76660    1.000
    C152     C        0.30530    0.77920    0.71130    1.000
    C153     C        0.31000    0.75270    0.66060    1.000
    H115     H        0.24140    0.70590    0.64660    1.000
    C154     C        0.41400    0.79460    0.63040    1.000
    H116     H        0.41720    0.77640    0.59570    1.000
    C155     C        0.40700    0.59580    0.84500    1.000
    H117     H        0.49480    0.56260    0.85170    1.000
    C156     C        0.31000    0.60700    0.88320    1.000
    C157     C        0.18200    0.65500    0.87340    1.000
    H118     H        0.11610    0.66290    0.89960    1.000
    C158     C        0.15100    0.69270    0.82540    1.000
    H119     H        0.06360    0.72580    0.81870    1.000
    C159     C        0.24800    0.68150    0.78720    1.000
    C160     C        0.37600    0.63310    0.79700    1.000
    H120     H        0.44220    0.62550    0.77080    1.000
    O24      O        0.20100    0.73600    0.74250    1.000
