data_functionalizedCrystal
_audit_creation_method	'EQeq! by Chris Wilmer'
_symmetry_space_group_name_H-M	'P1'
_symmetry_Int_Tables_number	1
_symmetry_cell_setting	triclinic
loop_
_symmetry_equiv_pos_as_xyz
  x,y,z
_cell_length_a	7.261
_cell_length_b	7.261
_cell_length_c	8.0811
_cell_angle_alpha	90
_cell_angle_beta	90
_cell_angle_gamma	120
loop_
_atom_site_label
_atom_site_type_symbol
_atom_site_fract_x
_atom_site_fract_y
_atom_site_fract_z
_atom_site_charge
Mof_O 	O 	0.6915	0.1114	0.10668	-0.32
Mof_O 	O 	0.8886	0.5801	0.10668	-0.263
Mof_O 	O 	0.4199	0.3085	0.10668	-0.353
Mof_O 	O 	0.3085	0.8886	0.60668	-0.317
Mof_O 	O 	0.1114	0.4199	0.60668	-0.35
Mof_O 	O 	0.5801	0.6915	0.60668	-0.34
Mof_O 	O 	0.1114	0.6915	0.89332	-0.247
Mof_O 	O 	0.5801	0.8886	0.89332	-0.213
Mof_O 	O 	0.3085	0.4199	0.89332	-0.281
Mof_O 	O 	0.8886	0.3085	0.39332	-0.3
Mof_O 	O 	0.4199	0.1114	0.39332	-0.362
Mof_O 	O 	0.6915	0.5801	0.39332	-0.345
Mof_Ni	Ni	0.66667	0.33333	0.25	1.141
Mof_Ni	Ni	0.33333	0.66667	0.75	1.144
Mof_C 	C 	0.5564	0	-0	0.221
Mof_H 	H 	0.4283	0	-0	-0.058
Mof_C 	C 	3.85147e-17	0.5564	-0	0.184
Mof_H 	H 	-0	0.4283	-0	-0.052
Mof_C 	C 	0.4436	0.4436	-0	0.291
Mof_H 	H 	0.5717	0.5717	-0	-0.058
Mof_C 	C 	0.4436	0	0.5	0.355
Mof_H 	H 	0.5717	0	0.5	-0.07
Mof_C 	C 	8.88107e-18	0.4436	0.5	0.323
Mof_H 	H 	4.73957e-17	0.5717	0.5	-0.067
Mof_C 	C 	0.5564	0.5564	0.5	0.426
Mof_H 	H 	0.4283	0.4283	0.5	-0.089
_end
