data_functionalizedCrystal
_audit_creation_method	'EQeq! by Chris Wilmer'
_symmetry_space_group_name_H-M	'P1'
_symmetry_Int_Tables_number	1
_symmetry_cell_setting	triclinic
loop_
_symmetry_equiv_pos_as_xyz
  x,y,z
_cell_length_a	8.502
_cell_length_b	9.431
_cell_length_c	12.93
_cell_angle_alpha	90
_cell_angle_beta	104.77
_cell_angle_gamma	90
loop_
_atom_site_label
_atom_site_type_symbol
_atom_site_fract_x
_atom_site_fract_y
_atom_site_fract_z
_atom_site_charge
Mof_N 	N 	0.7185	0.1295	0.9981	-0.057
Mof_N 	N 	0.5504	0.0463	0.175	-0.129
Mof_N 	N 	0.3373	0.1898	0.9597	-0.069
Mof_N 	N 	0.2185	0.6295	0.9981	-0.048
Mof_N 	N 	0.0504	0.5463	0.175	-0.12
Mof_N 	N 	0.8373	0.6898	0.9597	-0.009
Mof_N 	N 	0.2815	0.1295	0.5019	-0.144
Mof_N 	N 	0.4496	0.0463	0.325	-0.137
Mof_N 	N 	0.6627	0.1898	0.5403	-0.114
Mof_N 	N 	0.7815	0.6295	0.5019	-0.078
Mof_N 	N 	0.9496	0.5463	0.325	-0.033
Mof_N 	N 	0.1627	0.6898	0.5403	-0.113
Mof_N 	N 	0.2815	0.8705	0.0019	-0.082
Mof_N 	N 	0.4496	0.9537	0.825	-0.043
Mof_N 	N 	0.6627	0.8102	0.0403	-0.065
Mof_N 	N 	0.7815	0.3705	0.0019	-0.095
Mof_N 	N 	0.9496	0.4537	0.825	-0.014
Mof_N 	N 	0.1627	0.3102	0.0403	-0.135
Mof_N 	N 	0.7185	0.8705	0.4981	-0.051
Mof_N 	N 	0.5504	0.9537	0.675	-0.055
Mof_N 	N 	0.3373	0.8102	0.4597	-0.078
Mof_N 	N 	0.2185	0.3705	0.4981	-0.123
Mof_N 	N 	0.0504	0.4537	0.675	-0.12
Mof_N 	N 	0.8373	0.3102	0.4597	-0.085
Mof_Mn	Mn	0.5	0	-0	0.56
Mof_Mn	Mn	6.29515e-33	0.5	-0	0.591
Mof_Mn	Mn	0.5	0	0.5	0.645
Mof_Mn	Mn	2.83508e-17	0.5	0.5	0.675
Mof_N 	N 	0.5	0.0436	0.25	-0.033
Mof_N 	N 	1.78897e-33	0.5436	0.25	-0.074
Mof_N 	N 	0.5	0.9564	0.75	0.008
Mof_N 	N 	5.67016e-17	0.4564	0.75	-0.071
Mof_N 	N 	0.75	0.25	-0	-0.058
Mof_N 	N 	0.25	0.25	0.5	-0.033
Mof_N 	N 	0.25	0.75	-0	-0.062
Mof_N 	N 	0.75	0.75	0.5	-0.002
Mof_N 	N 	0.25	0.25	-0	-0.075
Mof_N 	N 	0.75	0.25	0.5	-0.016
Mof_N 	N 	0.75	0.75	-0	-0.042
Mof_N 	N 	0.25	0.75	0.5	-0.016
_end
