data_functionalizedCrystal
_audit_creation_method	'EQeq! by Chris Wilmer'
_symmetry_space_group_name_H-M	'P1'
_symmetry_Int_Tables_number	1
_symmetry_cell_setting	triclinic
loop_
_symmetry_equiv_pos_as_xyz
  x,y,z
_cell_length_a	21.2954
_cell_length_b	21.2954
_cell_length_c	16.9594
_cell_angle_alpha	90.0292
_cell_angle_beta	89.9814
_cell_angle_gamma	89.9549
loop_
_atom_site_label
_atom_site_type_symbol
_atom_site_fract_x
_atom_site_fract_y
_atom_site_fract_z
_atom_site_charge
Mof_Zn	Zn	0.96232	0.25037	0.55308	1.209
Mof_Zn	Zn	0.96223	0.35564	0.68527	1.21
Mof_Zn	Zn	0.85705	0.25042	0.68525	1.215
Mof_Zn	Zn	0.85701	0.35563	0.55313	1.214
Mof_O 	O 	0.90966	0.30302	0.61918	-0.972
Mof_O 	O 	0.0504	0.26432	0.5706	-0.485
Mof_O 	O 	0.94826	0.34171	0.79587	-0.499
Mof_O 	O 	0.87107	0.16232	0.66769	-0.487
Mof_O 	O 	0.05033	0.34166	0.66772	-0.482
Mof_O 	O 	0.94841	0.16229	0.57059	-0.504
Mof_O 	O 	0.87099	0.2644	0.79586	-0.491
Mof_O 	O 	0.76896	0.26439	0.66773	-0.486
Mof_O 	O 	0.871	0.34165	0.44251	-0.535
Mof_O 	O 	0.76893	0.34169	0.57067	-0.488
Mof_O 	O 	0.94837	0.26431	0.44248	-0.507
Mof_O 	O 	0.94822	0.44373	0.66776	-0.506
Mof_O 	O 	0.87092	0.44372	0.57069	-0.485
Mof_C 	C 	0.7461	0.30305	0.6192	0.384
Mof_C 	C 	0.67614	0.30307	0.61919	-0.107
Mof_C 	C 	0.64332	0.26287	0.56855	0.115
Mof_C 	C 	0.57758	0.26285	0.56854	0.063
Mof_C 	C 	0.54465	0.30305	0.61918	-0.015
Mof_C 	C 	0.57747	0.34326	0.66983	-0.033
Mof_C 	C 	0.64321	0.34327	0.66984	0.028
Mof_N 	N 	0.44138	0.35813	0.62535	-0.08
Mof_N 	N 	0.37893	0.35812	0.62534	-0.077
Mof_C 	C 	0.34658	0.30302	0.61916	0.105
Mof_N 	N 	0.37904	0.24793	0.61298	-0.075
Mof_N 	N 	0.4415	0.24795	0.61298	-0.068
Mof_C 	C 	0.47337	0.30304	0.61918	0.127
Mof_C 	C 	0.24248	0.26279	0.56851	-0.041
Mof_C 	C 	0.17674	0.26277	0.56851	0.022
Mof_C 	C 	0.17663	0.34319	0.6698	0.022
Mof_C 	C 	0.24237	0.3432	0.6698	-0.041
Mof_C 	C 	0.27529	0.303	0.61915	0.013
Mof_C 	C 	0.90957	0.46657	0.61922	0.389
Mof_C 	C 	0.9096	0.53653	0.6192	-0.146
Mof_C 	C 	0.94988	0.56938	0.6697	0.049
Mof_C 	C 	0.94991	0.63513	0.66968	-0.066
Mof_C 	C 	0.90964	0.66802	0.61917	0.04
Mof_C 	C 	0.86935	0.63516	0.56866	-0.105
Mof_C 	C 	0.86933	0.56942	0.56868	0.173
Mof_N 	N 	0.85458	0.7713	0.61314	-0.076
Mof_N 	N 	0.8546	0.83375	0.61313	-0.078
Mof_C 	C 	0.90971	0.86609	0.61911	0.113
Mof_N 	N 	0.9648	0.83362	0.62512	-0.073
Mof_N 	N 	0.96478	0.77117	0.62514	-0.078
Mof_C 	C 	0.90967	0.7393	0.61914	0.096
Mof_C 	C 	0.95004	0.97023	0.66959	0.051
Mof_C 	C 	0.95007	0.03597	0.66956	0.142
Mof_C 	C 	0.8695	0.036	0.56855	0.176
Mof_C 	C 	0.86948	0.97026	0.56857	-0.083
Mof_C 	C 	0.90974	0.93738	0.6191	0.001
Mof_C 	C 	0.07385	0.30299	0.61916	0.362
Mof_C 	C 	0.14381	0.30297	0.61915	-0.088
Mof_C 	C 	0.90969	0.30297	0.41301	0.393
Mof_C 	C 	0.90971	0.30296	0.32515	-0.131
Mof_C 	C 	0.90976	0.13882	0.61911	0.397
Mof_C 	C 	0.9098	0.06886	0.61905	-0.172
Mof_C 	C 	0.86943	0.34321	0.2839	0.142
Mof_C 	C 	0.94999	0.26268	0.28386	-0.001
Mof_C 	C 	0.95	0.26266	0.20131	0.049
Mof_C 	C 	0.90973	0.30291	0.16006	-0.033
Mof_C 	C 	0.86944	0.34319	0.20134	-0.014
Mof_C 	C 	0.99029	0.22237	0.16002	-0.13
Mof_C 	C 	0.9903	0.22235	0.07747	0.157
Mof_C 	C 	0.95003	0.26261	0.03621	-0.128
Mof_C 	C 	0.90974	0.30289	0.0775	0.085
Mof_C 	C 	0.86947	0.34315	0.03624	-0.074
Mof_C 	C 	0.82918	0.38344	0.07754	0.008
Mof_C 	C 	0.82917	0.38345	0.16009	-0.028
Mof_C 	C 	0.95004	0.26259	0.95366	0.199
Mof_C 	C 	0.86948	0.34313	0.95369	0.172
Mof_C 	C 	0.90966	0.30301	0.82455	0.424
Mof_C 	C 	0.90976	0.30285	0.9124	-0.184
Mof_H 	H 	0.26929	0.23006	0.52727	0.059
Mof_O 	O 	0.99353	0.0714	0.72403	-0.231
Mof_H 	H 	0.02556	0.10128	0.68861	0.137
Mof_H 	H 	0.98267	0.54261	0.71084	0.039
Mof_O 	O 	0.99348	0.21915	0.90912	-0.266
Mof_H 	H 	0.02149	0.19117	0.95168	0.188
Mof_O 	O 	0.03375	0.17891	0.03293	-0.257
Mof_H 	H 	0.08315	0.1897	0.04876	0.13
Mof_O 	O 	0.67883	0.2195	0.51394	-0.222
Mof_H 	H 	0.64497	0.19154	0.47873	0.115
Mof_H 	H 	0.55066	0.37599	0.71106	0.054
Mof_H 	H 	0.15002	0.23003	0.52727	0.051
Mof_H 	H 	0.66993	0.37601	0.71108	0.035
Mof_H 	H 	0.14982	0.37592	0.71103	0.051
Mof_H 	H 	0.83667	0.94351	0.52746	0.078
Mof_H 	H 	0.26909	0.37594	0.71104	0.056
Mof_H 	H 	0.98278	0.2299	0.31745	0.048
Mof_H 	H 	0.98272	0.66188	0.7108	0.058
Mof_O 	O 	0.82606	0.07147	0.51407	-0.231
Mof_H 	H 	0.83284	0.1227	0.52255	0.113
Mof_O 	O 	0.99348	0.93475	0.72405	-0.197
Mof_H 	H 	0.96533	0.90485	0.76432	0.125
Mof_H 	H 	0.83657	0.66195	0.52754	0.075
Mof_O 	O 	0.82603	0.38655	0.90919	-0.242
Mof_H 	H 	0.79802	0.41456	0.95178	0.113
Mof_H 	H 	0.79638	0.41621	0.04393	0.032
Mof_O 	O 	0.82586	0.53399	0.51423	-0.222
Mof_H 	H 	0.83662	0.54656	0.45217	0.121
Mof_O 	O 	0.54218	0.21949	0.51391	-0.199
Mof_H 	H 	0.57612	0.19154	0.47869	0.112
Mof_H 	H 	0.79637	0.41625	0.19371	0.061
Mof_O 	O 	0.82598	0.38666	0.32843	-0.245
Mof_H 	H 	0.83273	0.37991	0.39276	0.18
Mof_H 	H 	0.02307	0.1896	0.19361	0.088
_end
