data_functionalizedCrystal
_audit_creation_method	'EQeq! by Chris Wilmer'
_symmetry_space_group_name_H-M	'P1'
_symmetry_Int_Tables_number	1
_symmetry_cell_setting	triclinic
loop_
_symmetry_equiv_pos_as_xyz
  x,y,z
_cell_length_a	8.5771
_cell_length_b	13.2483
_cell_length_c	13.8125
_cell_angle_alpha	118.658
_cell_angle_beta	90.0702
_cell_angle_gamma	90
loop_
_atom_site_label
_atom_site_type_symbol
_atom_site_fract_x
_atom_site_fract_y
_atom_site_fract_z
_atom_site_charge
Mof_Cu	Cu	0.94992	0.00148	0.5909	0.912
Mof_Cu	Cu	0.05008	0.99852	0.4091	0.912
Mof_Cu	Cu	0.55008	0.41058	0.4091	0.915
Mof_Cu	Cu	0.44992	0.58942	0.5909	0.915
Mof_H 	H 	0.9101	0.5817	0.357	-0.037
Mof_H 	H 	0.2749	0.2618	0.599	0.179
Mof_H 	H 	0.5145	0.8817	0.9426	0.06
Mof_H 	H 	0.4101	0.7753	0.357	-0.04
Mof_H 	H 	0.5921	0.8436	0.273	0.17
Mof_H 	H 	0.6328	0.6594	0.2894	0.169
Mof_H 	H 	0.3121	0.1977	0.215	0.098
Mof_H 	H 	0.995	0.5791	0.6288	0.183
Mof_H 	H 	0.9855	0.9391	0.0574	0.063
Mof_H 	H 	0.0082	0.3756	0.5254	-0.016
Mof_H 	H 	0.6017	0.145	0.931	0.079
Mof_H 	H 	0.9918	0.6244	0.4746	-0.016
Mof_H 	H 	0.1017	0.786	0.931	0.079
Mof_H 	H 	0.2651	0.6479	0.8028	0.008
Mof_H 	H 	0.6879	0.8023	0.785	0.098
Mof_H 	H 	0.7651	0.1549	0.8028	0.008
Mof_H 	H 	0.8983	0.214	0.069	0.079
Mof_H 	H 	0.4918	0.8502	0.4746	-0.02
Mof_H 	H 	0.0899	0.4183	0.643	-0.036
Mof_H 	H 	0.3983	0.855	0.069	0.079
Mof_H 	H 	0.2251	0.6628	0.401	0.179
Mof_H 	H 	0.0145	0.0609	0.9426	0.063
Mof_H 	H 	0.005	0.4209	0.3712	0.183
Mof_H 	H 	0.8486	0.8226	0.661	0.016
Mof_H 	H 	0.7349	0.3521	0.1972	0.008
Mof_H 	H 	0.5899	0.2247	0.643	-0.04
Mof_H 	H 	0.8121	0.0173	0.215	0.097
Mof_H 	H 	0.1514	0.1774	0.339	0.016
Mof_H 	H 	0.1328	0.63	0.2894	0.167
Mof_H 	H 	0.9079	0.5706	0.727	0.17
Mof_H 	H 	0.505	0.9503	0.3712	0.184
Mof_H 	H 	0.5082	0.1498	0.5254	-0.02
Mof_H 	H 	0.6514	0.1616	0.339	0.015
Mof_H 	H 	0.8672	0.37	0.7106	0.167
Mof_H 	H 	0.4079	0.1564	0.727	0.17
Mof_H 	H 	0.495	0.0497	0.6288	0.184
Mof_H 	H 	0.2349	0.8451	0.1972	0.008
Mof_H 	H 	0.4855	0.1183	0.0574	0.06
Mof_H 	H 	0.0921	0.4294	0.273	0.17
Mof_H 	H 	0.1879	0.9827	0.785	0.097
Mof_H 	H 	0.3672	0.3406	0.7106	0.169
Mof_H 	H 	0.3486	0.8384	0.661	0.015
Mof_H 	H 	0.7749	0.3372	0.599	0.179
Mof_H 	H 	0.7251	0.7382	0.401	0.18
Mof_C 	C 	0.6212	0.70633	0.37042	-0.46
Mof_C 	C 	0.7502	0.0826	0.8002	0.073
Mof_C 	C 	0.9677	0.00238	0.04444	-0.083
Mof_C 	C 	0.8476	0.20035	0.12274	-0.154
Mof_C 	C 	0.6524	0.07761	0.87726	-0.157
Mof_C 	C 	0.2969	0.12376	0.20862	-0.159
Mof_C 	C 	0.571	0.62792	0.41624	0.454
Mof_C 	C 	0.929	0.21168	0.58376	0.453
Mof_C 	C 	0.7031	0.87624	0.79138	-0.159
Mof_C 	C 	0.3788	0.29367	0.62958	-0.46
Mof_C 	C 	0.2355	0.47047	0.40712	0.453
Mof_C 	C 	0.2645	0.06335	0.59288	0.453
Mof_C 	C 	0.071	0.78832	0.41624	0.453
Mof_C 	C 	0.4677	0.04206	0.04444	-0.08
Mof_C 	C 	0.8788	0.33591	0.62958	-0.457
Mof_C 	C 	0.7969	0.08486	0.20862	-0.159
Mof_C 	C 	0.7645	0.52953	0.59288	0.453
Mof_C 	C 	0.429	0.37208	0.58376	0.454
Mof_C 	C 	0.2498	0.9174	0.1998	0.073
Mof_C 	C 	0.0792	0.46738	0.35404	-0.463
Mof_C 	C 	0.2991	0.82846	0.71738	0.09
Mof_C 	C 	0.2009	0.11108	0.28262	0.091
Mof_C 	C 	0.1289	0.9034	0.875	0.111
Mof_C 	C 	0.5323	0.95794	0.95556	-0.08
Mof_C 	C 	0.7355	0.93665	0.40712	0.453
Mof_C 	C 	0.0323	0.99762	0.95556	-0.083
Mof_C 	C 	0.8711	0.0966	0.125	0.111
Mof_C 	C 	0.1524	0.79965	0.87726	-0.154
Mof_C 	C 	0.9208	0.53262	0.64596	-0.463
Mof_C 	C 	0.7991	0.88892	0.71738	0.091
Mof_C 	C 	0.4888	0.1939	0.6058	0.246
Mof_C 	C 	0.4208	0.11334	0.64596	-0.466
Mof_C 	C 	0.6289	0.9716	0.875	0.114
Mof_C 	C 	0.1212	0.66409	0.37042	-0.457
Mof_C 	C 	0.2502	0.7176	0.8002	0.077
Mof_C 	C 	0.9888	0.4119	0.6058	0.238
Mof_C 	C 	0.5112	0.8061	0.3942	0.246
Mof_C 	C 	0.7009	0.17154	0.28262	0.09
Mof_C 	C 	0.5792	0.88666	0.35404	-0.466
Mof_C 	C 	0.0112	0.5881	0.3942	0.238
Mof_C 	C 	0.3711	0.0284	0.125	0.114
Mof_C 	C 	0.7498	0.2824	0.1998	0.077
Mof_C 	C 	0.3476	0.92239	0.12274	-0.157
Mof_C 	C 	0.2031	0.91514	0.79138	-0.159
Mof_N 	N 	0.82494	0.99095	0.72208	-0.19
Mof_N 	N 	0.67506	0.26887	0.27792	-0.193
Mof_N 	N 	0.17506	0.00905	0.27792	-0.19
Mof_N 	N 	0.32494	0.73113	0.72208	-0.193
Mof_O 	O 	0.0944	0.83435	0.35652	-0.436
Mof_O 	O 	0.16227	0.04979	0.65128	-0.431
Mof_O 	O 	0.74715	0.45452	0.49382	-0.436
Mof_O 	O 	0.4056	0.47783	0.64348	-0.435
Mof_O 	O 	0.9056	0.16565	0.64348	-0.436
Mof_O 	O 	0.5944	0.52217	0.35652	-0.435
Mof_O 	O 	0.98666	0.16218	0.48814	-0.433
Mof_O 	O 	0.51334	0.67404	0.51186	-0.432
Mof_O 	O 	0.01334	0.83782	0.51186	-0.433
Mof_O 	O 	0.75285	0.9607	0.50618	-0.434
Mof_O 	O 	0.33773	0.39851	0.34872	-0.434
Mof_O 	O 	0.25285	0.54548	0.50618	-0.436
Mof_O 	O 	0.24715	0.0393	0.49382	-0.434
Mof_O 	O 	0.83773	0.95021	0.34872	-0.431
Mof_O 	O 	0.48666	0.32596	0.48814	-0.432
Mof_O 	O 	0.66227	0.60149	0.65128	-0.434
_end
