# CIF file generated by openbabel 3.1.0, see https://openbabel.org
data_I
_chemical_name_common 'image0'
_cell_length_a 9.341
_cell_length_b 8.892
_cell_length_c 9.48
_cell_angle_alpha 90
_cell_angle_beta 117.6
_cell_angle_gamma 90
_space_group_name_H-M_alt 'P 1'
_space_group_name_Hall 'P 1'
loop_
    _symmetry_equiv_pos_as_xyz
    x,y,z
loop_
    _atom_site_label
    _atom_site_type_symbol
    _atom_site_fract_x
    _atom_site_fract_y
    _atom_site_fract_z
    _atom_site_occupancy
    P1       P        0.83700    0.89970    0.06690    1.000
    P2       P        0.13760    0.65860    0.46760    1.000
    O1       O        0.00970    0.85460    0.11810    1.000
    O2       O        0.24220    0.73260    0.40340    1.000
    O3       O        0.74810    0.94430    0.89080    1.000
    O4       O        0.24450    0.54850    0.59450    1.000
    O5       O        0.98590    0.58760    0.33870    1.000
    O6       O        0.73750    0.77480    0.09270    1.000
    O7       O        0.84620    0.03900    0.17220    1.000
    O8       O        0.08010    0.78330    0.54990    1.000
    P3       P        0.66300    0.89970    0.43310    1.000
    P4       P        0.36240    0.65860    0.03240    1.000
    O9       O        0.49030    0.85460    0.38190    1.000
    O10      O        0.25780    0.73260    0.09660    1.000
    O11      O        0.75190    0.94430    0.60920    1.000
    O12      O        0.25550    0.54850    0.90550    1.000
    O13      O        0.51410    0.58760    0.16130    1.000
    O14      O        0.76250    0.77480    0.40730    1.000
    O15      O        0.65380    0.03900    0.32780    1.000
    O16      O        0.41990    0.78330    0.95010    1.000
    P5       P        0.16300    0.10030    0.93310    1.000
    P6       P        0.86240    0.34140    0.53240    1.000
    O17      O        0.99030    0.14540    0.88190    1.000
    O18      O        0.75780    0.26740    0.59660    1.000
    O19      O        0.25190    0.05570    0.10920    1.000
    O20      O        0.75550    0.45150    0.40550    1.000
    O21      O        0.01410    0.41240    0.66130    1.000
    O22      O        0.26250    0.22520    0.90730    1.000
    O23      O        0.15380    0.96100    0.82780    1.000
    O24      O        0.91990    0.21670    0.45010    1.000
    P7       P        0.33700    0.10030    0.56690    1.000
    P8       P        0.63760    0.34140    0.96760    1.000
    O25      O        0.50970    0.14540    0.61810    1.000
    O26      O        0.74220    0.26740    0.90340    1.000
    O27      O        0.24810    0.05570    0.39080    1.000
    O28      O        0.74450    0.45150    0.09450    1.000
    O29      O        0.48590    0.41240    0.83870    1.000
    O30      O        0.23750    0.22520    0.59270    1.000
    O31      O        0.34620    0.96100    0.67220    1.000
    O32      O        0.58010    0.21670    0.04990    1.000
    Fe1      Fe       0.25000    0.88180    0.25000    1.000
    Fe2      Fe       0.75000    0.11820    0.75000    1.000
    Fe3      Fe       0.75000    0.60420    0.25000    1.000
    Fe4      Fe       0.25000    0.39580    0.75000    1.000
