# CIF file generated by openbabel 3.1.0, see https://openbabel.org
data_I
_chemical_name_common 'UJEFOE_clean'
_cell_length_a 8.2568
_cell_length_b 12.3524
_cell_length_c 17.501
_cell_angle_alpha 97.3828
_cell_angle_beta 90
_cell_angle_gamma 109.525
_space_group_name_H-M_alt 'P 1'
_space_group_name_Hall 'P 1'
loop_
    _symmetry_equiv_pos_as_xyz
    x,y,z
loop_
    _atom_site_label
    _atom_site_type_symbol
    _atom_site_fract_x
    _atom_site_fract_y
    _atom_site_fract_z
    _atom_site_occupancy
    Yb1      Yb       0.31469    0.00000    0.75000    1.000
    Yb2      Yb       0.68531    0.00000    0.25000    1.000
    Yb3      Yb       0.50000    0.00000    0.00000    1.000
    Yb4      Yb       0.50000    0.00000    0.50000    1.000
    H1       H        0.83000    0.50540    0.73500    1.000
    H2       H        0.00330    0.69720    0.76210    1.000
    H3       H        0.24400    0.62240    0.94030    1.000
    H4       H        0.14360    0.42120    0.97490    1.000
    H5       H        0.94940    0.23420    0.95640    1.000
    H6       H        0.72650    0.30500    0.77120    1.000
    H7       H        0.38320    0.43100    0.13260    1.000
    H8       H        0.30190    0.24240    0.07220    1.000
    H9       H        0.47670    0.35720    0.87020    1.000
    H10      H        0.32460    0.49460    0.76500    1.000
    H11      H        0.30610    0.30280    0.73790    1.000
    H12      H        0.62160    0.37760    0.55970    1.000
    H13      H        0.72240    0.57880    0.52510    1.000
    H14      H        0.71520    0.76580    0.54360    1.000
    H15      H        0.42150    0.69500    0.72880    1.000
    H16      H        0.95220    0.56900    0.36740    1.000
    H17      H        0.05950    0.75760    0.42780    1.000
    H18      H        0.11950    0.64280    0.62980    1.000
    H19      H        0.17000    0.49460    0.26500    1.000
    H20      H        0.99670    0.30280    0.23790    1.000
    H21      H        0.75600    0.37760    0.05970    1.000
    H22      H        0.85640    0.57880    0.02510    1.000
    H23      H        0.05060    0.76580    0.04360    1.000
    H24      H        0.27350    0.69500    0.22880    1.000
    H25      H        0.61680    0.56900    0.86740    1.000
    H26      H        0.69810    0.75760    0.92780    1.000
    H27      H        0.52330    0.64280    0.12980    1.000
    H28      H        0.67540    0.50540    0.23500    1.000
    H29      H        0.69390    0.69720    0.26210    1.000
    H30      H        0.37840    0.62240    0.44030    1.000
    H31      H        0.27760    0.42120    0.47490    1.000
    H32      H        0.28480    0.23420    0.45640    1.000
    H33      H        0.57850    0.30500    0.27120    1.000
    H34      H        0.04780    0.43100    0.63260    1.000
    H35      H        0.94050    0.24240    0.57220    1.000
    H36      H        0.88050    0.35720    0.37020    1.000
    C1       C        0.25370    0.80140    0.87110    1.000
    C2       C        0.68180    0.13520    0.85330    1.000
    C3       C        0.92300    0.44580    0.82460    1.000
    C4       C        0.91120    0.52880    0.77750    1.000
    C5       C        0.01520    0.64180    0.79280    1.000
    C6       C        0.14180    0.67720    0.85460    1.000
    C7       C        0.15815    0.59810    0.89960    1.000
    C8       C        0.04880    0.48040    0.88630    1.000
    C9       C        0.05760    0.39880    0.93430    1.000
    C10      C        0.94330    0.28760    0.92300    1.000
    C11      C        0.81700    0.25220    0.86240    1.000
    C12      C        0.80920    0.32980    0.81310    1.000
    C13      C        0.33250    0.16040    0.92420    1.000
    C14      C        0.48470    0.51020    0.03990    1.000
    C15      C        0.40390    0.41640    0.07950    1.000
    C16      C        0.35410    0.30480    0.04380    1.000
    C17      C        0.38070    0.28180    0.96330    1.000
    C18      C        0.45920    0.37260    0.92360    1.000
    C19      C        0.45230    0.19860    0.62890    1.000
    C20      C        0.54660    0.86480    0.64670    1.000
    C21      C        0.47720    0.55420    0.67540    1.000
    C22      C        0.38240    0.47120    0.72250    1.000
    C23      C        0.37340    0.35820    0.70720    1.000
    C24      C        0.46460    0.32280    0.64540    1.000
    C25      C        0.56005    0.40190    0.60040    1.000
    C26      C        0.56840    0.51960    0.61370    1.000
    C27      C        0.65880    0.60120    0.56570    1.000
    C28      C        0.65570    0.71240    0.57700    1.000
    C29      C        0.56480    0.74780    0.63760    1.000
    C30      C        0.47940    0.67020    0.68690    1.000
    C31      C        0.17210    0.83960    0.57580    1.000
    C32      C        0.97450    0.48980    0.46010    1.000
    C33      C        0.98750    0.58360    0.42050    1.000
    C34      C        0.04930    0.69520    0.45620    1.000
    C35      C        0.09890    0.71820    0.53670    1.000
    C36      C        0.08660    0.62740    0.57640    1.000
    C37      C        0.74630    0.19860    0.12890    1.000
    C38      C        0.31820    0.86480    0.14670    1.000
    C39      C        0.07700    0.55420    0.17540    1.000
    C40      C        0.08880    0.47120    0.22250    1.000
    C41      C        0.98480    0.35820    0.20720    1.000
    C42      C        0.85820    0.32280    0.14540    1.000
    C43      C        0.84185    0.40190    0.10040    1.000
    C44      C        0.95120    0.51960    0.11370    1.000
    C45      C        0.94240    0.60120    0.06570    1.000
    C46      C        0.05670    0.71240    0.07700    1.000
    C47      C        0.18300    0.74780    0.13760    1.000
    C48      C        0.19080    0.67020    0.18690    1.000
    C49      C        0.66750    0.83960    0.07580    1.000
    C50      C        0.51530    0.48980    0.96010    1.000
    C51      C        0.59610    0.58360    0.92050    1.000
    C52      C        0.64590    0.69520    0.95620    1.000
    C53      C        0.61930    0.71820    0.03670    1.000
    C54      C        0.54080    0.62740    0.07640    1.000
    C55      C        0.54770    0.80140    0.37110    1.000
    C56      C        0.45340    0.13520    0.35330    1.000
    C57      C        0.52280    0.44580    0.32460    1.000
    C58      C        0.61760    0.52880    0.27750    1.000
    C59      C        0.62660    0.64180    0.29280    1.000
    C60      C        0.53540    0.67720    0.35460    1.000
    C61      C        0.43995    0.59810    0.39960    1.000
    C62      C        0.43160    0.48040    0.38630    1.000
    C63      C        0.34120    0.39880    0.43430    1.000
    C64      C        0.34430    0.28760    0.42300    1.000
    C65      C        0.43520    0.25220    0.36240    1.000
    C66      C        0.52060    0.32980    0.31310    1.000
    C67      C        0.82790    0.16040    0.42420    1.000
    C68      C        0.02550    0.51020    0.53990    1.000
    C69      C        0.01250    0.41640    0.57950    1.000
    C70      C        0.95070    0.30480    0.54380    1.000
    C71      C        0.90110    0.28180    0.46330    1.000
    C72      C        0.91340    0.37260    0.42360    1.000
    O1       O        0.23768    0.86956    0.82730    1.000
    O2       O        0.35857    0.83254    0.92900    1.000
    O3       O        0.59018    0.10296    0.79250    1.000
    O4       O        0.66444    0.07428    0.90790    1.000
    O5       O        0.31181    0.14082    0.85245    1.000
    O6       O        0.31415    0.08030    0.96684    1.000
    O7       O        0.36812    0.13044    0.67270    1.000
    O8       O        0.52603    0.16746    0.57100    1.000
    O9       O        0.48722    0.89704    0.70750    1.000
    O10      O        0.59016    0.92572    0.59210    1.000
    O11      O        0.17099    0.85918    0.64755    1.000
    O12      O        0.23385    0.91970    0.53316    1.000
    O13      O        0.76232    0.13044    0.17270    1.000
    O14      O        0.64143    0.16746    0.07100    1.000
    O15      O        0.40982    0.89704    0.20750    1.000
    O16      O        0.33556    0.92572    0.09210    1.000
    O17      O        0.68819    0.85918    0.14755    1.000
    O18      O        0.68585    0.91970    0.03316    1.000
    O19      O        0.63188    0.86956    0.32730    1.000
    O20      O        0.47397    0.83254    0.42900    1.000
    O21      O        0.51278    0.10296    0.29250    1.000
    O22      O        0.40984    0.07428    0.40790    1.000
    O23      O        0.82901    0.14082    0.35245    1.000
    O24      O        0.76615    0.08030    0.46684    1.000
