data_functionalizedCrystal
_audit_creation_method	'EQeq! by Chris Wilmer'
_symmetry_space_group_name_H-M	'P1'
_symmetry_Int_Tables_number	1
_symmetry_cell_setting	triclinic
loop_
_symmetry_equiv_pos_as_xyz
  x,y,z
_cell_length_a	19.619
_cell_length_b	15.5116
_cell_length_c	13.2862
_cell_angle_alpha	90
_cell_angle_beta	94.343
_cell_angle_gamma	90
loop_
_atom_site_label
_atom_site_type_symbol
_atom_site_fract_x
_atom_site_fract_y
_atom_site_fract_z
_atom_site_charge
Mof_Zn	Zn	0.26816	0.04166	0.66058	1.213
Mof_O 	O 	0.3306	0.9517	0.7071	-0.443
Mof_O 	O 	0.249	0.9036	0.798	-0.302
Mof_O 	O 	0.3252	0.9823	0.9764	-0.304
Mof_O 	O 	0.3116	0.8726	0.0775	-0.443
Mof_O 	O 	0.5465	0.6255	0.8191	-0.225
Mof_N 	N 	0.1721	0.0184	0.5995	-0.269
Mof_N 	N 	0.2583	0.119	0.7854	-0.258
Mof_C 	C 	0.3094	0.9043	0.7758	0.325
Mof_C 	C 	0.3621	0.8487	0.8291	-0.041
Mof_C 	C 	0.4023	0.7942	0.7743	-0.022
Mof_H 	H 	0.3957	0.7929	0.7043	0.058
Mof_C 	C 	0.4516	0.7425	0.8227	-0.023
Mof_C 	C 	0.4627	0.7432	0.9246	-0.047
Mof_H 	H 	0.4968	0.7091	0.9565	0.062
Mof_C 	C 	0.4227	0.7952	0.9805	-0.007
Mof_H 	H 	0.4299	0.7951	0.0505	0.045
Mof_C 	C 	0.3724	0.8471	0.9353	-0.048
Mof_C 	C 	0.333	0.9065	0.9986	0.334
Mof_C 	C 	0.1269	0.9726	0.6455	0.077
Mof_H 	H 	0.1413	0.9449	0.7054	0.001
Mof_C 	C 	0.0592	0.9635	0.6093	-0.116
Mof_H 	H 	0.029	0.9312	0.6448	0.069
Mof_C 	C 	0.0375	0.0028	0.5208	0.043
Mof_C 	C 	0.0841	0.05	0.4721	-0.115
Mof_H 	H 	0.0712	0.0766	0.4109	0.074
Mof_C 	C 	0.1497	0.0578	0.5138	0.072
Mof_H 	H 	0.1801	0.092	0.4811	0.006
Mof_C 	C 	0.2086	0.1156	0.8427	0.115
Mof_H 	H 	0.1731	0.0776	0.8245	-0.01
Mof_C 	C 	0.2033	0.1629	0.9274	-0.144
Mof_H 	H 	0.1664	0.1548	0.9662	0.092
Mof_C 	C 	0.2519	0.2219	0.9555	0.039
Mof_C 	C 	0.2851	0.2556	0.8704	-0.027
Mof_C 	C 	0.2885	0.1982	0.7884	0.042
Mof_C 	C 	0.3203	0.2003	0.9154	-0.007
Mof_C 	C 	0.3198	0.1468	0.8308	0.017
Mof_Zn	Zn	0.76816	0.54166	0.66058	1.212
Mof_O 	O 	0.8306	0.4517	0.7071	-0.442
Mof_O 	O 	0.749	0.4036	0.798	-0.303
Mof_O 	O 	0.8252	0.4823	0.9764	-0.304
Mof_O 	O 	0.8116	0.3726	0.0775	-0.438
Mof_O 	O 	0.0465	0.1255	0.8191	-0.224
Mof_N 	N 	0.6721	0.5184	0.5995	-0.272
Mof_N 	N 	0.7583	0.619	0.7854	-0.259
Mof_C 	C 	0.8094	0.4043	0.7758	0.323
Mof_C 	C 	0.8621	0.3487	0.8291	-0.037
Mof_C 	C 	0.9023	0.2942	0.7743	-0.031
Mof_H 	H 	0.8957	0.2929	0.7043	0.064
Mof_C 	C 	0.9516	0.2425	0.8227	-0.003
Mof_C 	C 	0.9627	0.2432	0.9246	-0.053
Mof_H 	H 	0.9968	0.2091	0.9565	0.068
Mof_C 	C 	0.9227	0.2952	0.9805	-0.011
Mof_H 	H 	0.9299	0.2951	0.0505	0.052
Mof_C 	C 	0.8724	0.3471	0.9353	-0.047
Mof_C 	C 	0.833	0.4065	0.9986	0.329
Mof_C 	C 	0.6269	0.4726	0.6455	0.086
Mof_H 	H 	0.6413	0.4449	0.7054	-0.002
Mof_C 	C 	0.5592	0.4635	0.6093	-0.133
Mof_H 	H 	0.529	0.4312	0.6448	0.081
Mof_C 	C 	0.5375	0.5028	0.5208	0.073
Mof_C 	C 	0.5841	0.55	0.4721	-0.133
Mof_H 	H 	0.5712	0.5766	0.4109	0.083
Mof_C 	C 	0.6497	0.5578	0.5138	0.082
Mof_H 	H 	0.6801	0.592	0.4811	0.003
Mof_C 	C 	0.7086	0.6156	0.8427	0.117
Mof_H 	H 	0.6731	0.5776	0.8245	-0.009
Mof_C 	C 	0.7033	0.6629	0.9274	-0.147
Mof_H 	H 	0.6664	0.6548	0.9662	0.095
Mof_C 	C 	0.7519	0.7219	0.9555	0.044
Mof_C 	C 	0.7851	0.7556	0.8704	-0.027
Mof_C 	C 	0.7885	0.6982	0.7884	0.042
Mof_C 	C 	0.8203	0.7003	0.9154	-0.005
Mof_C 	C 	0.8198	0.6468	0.8308	0.02
Mof_Zn	Zn	0.73184	0.04166	0.83942	1.212
Mof_O 	O 	0.6694	0.9517	0.7929	-0.443
Mof_O 	O 	0.751	0.9036	0.702	-0.302
Mof_O 	O 	0.6748	0.9823	0.5236	-0.306
Mof_O 	O 	0.6884	0.8726	0.4225	-0.441
Mof_O 	O 	0.4535	0.6255	0.6809	-0.226
Mof_N 	N 	0.8279	0.0184	0.9005	-0.271
Mof_N 	N 	0.7417	0.119	0.7146	-0.259
Mof_C 	C 	0.6906	0.9043	0.7242	0.325
Mof_C 	C 	0.6379	0.8487	0.6709	-0.043
Mof_C 	C 	0.5977	0.7942	0.7257	-0.021
Mof_H 	H 	0.6043	0.7929	0.7957	0.058
Mof_C 	C 	0.5484	0.7425	0.6773	-0.025
Mof_C 	C 	0.5373	0.7432	0.5754	-0.044
Mof_H 	H 	0.5032	0.7091	0.5435	0.06
Mof_C 	C 	0.5773	0.7952	0.5195	-0.013
Mof_H 	H 	0.5701	0.7951	0.4495	0.048
Mof_C 	C 	0.6276	0.8471	0.5647	-0.045
Mof_C 	C 	0.667	0.9065	0.5014	0.331
Mof_C 	C 	0.8731	0.9726	0.8545	0.092
Mof_H 	H 	0.8587	0.9449	0.7946	-0.003
Mof_C 	C 	0.9408	0.9635	0.8907	-0.136
Mof_H 	H 	0.971	0.9312	0.8552	0.088
Mof_C 	C 	0.9625	0.0028	0.9792	0.085
Mof_C 	C 	0.9159	0.05	0.0279	-0.122
Mof_H 	H 	0.9288	0.0766	0.0891	0.084
Mof_C 	C 	0.8503	0.0578	0.9862	0.065
Mof_H 	H 	0.8199	0.092	0.0189	0.011
Mof_C 	C 	0.7914	0.1156	0.6573	0.117
Mof_H 	H 	0.8269	0.0776	0.6755	-0.01
Mof_C 	C 	0.7967	0.1629	0.5726	-0.147
Mof_H 	H 	0.8336	0.1548	0.5338	0.096
Mof_C 	C 	0.7481	0.2219	0.5445	0.044
Mof_C 	C 	0.7149	0.2556	0.6296	-0.027
Mof_C 	C 	0.7115	0.1982	0.7116	0.042
Mof_C 	C 	0.6797	0.2003	0.5846	-0.007
Mof_C 	C 	0.6802	0.1468	0.6692	0.018
Mof_Zn	Zn	0.23184	0.54166	0.83942	1.212
Mof_O 	O 	0.1694	0.4517	0.7929	-0.446
Mof_O 	O 	0.251	0.4036	0.702	-0.303
Mof_O 	O 	0.1748	0.4823	0.5236	-0.307
Mof_O 	O 	0.1884	0.3726	0.4225	-0.442
Mof_O 	O 	0.9535	0.1255	0.6809	-0.209
Mof_N 	N 	0.3279	0.5184	0.9005	-0.271
Mof_N 	N 	0.2417	0.619	0.7146	-0.258
Mof_C 	C 	0.1906	0.4043	0.7242	0.325
Mof_C 	C 	0.1379	0.3487	0.6709	-0.042
Mof_C 	C 	0.0977	0.2942	0.7257	-0.026
Mof_H 	H 	0.1043	0.2929	0.7957	0.058
Mof_C 	C 	0.0484	0.2425	0.6773	-0.019
Mof_C 	C 	0.0373	0.2432	0.5754	-0.05
Mof_H 	H 	0.0032	0.2091	0.5435	0.057
Mof_C 	C 	0.0773	0.2952	0.5195	-0.011
Mof_H 	H 	0.0701	0.2951	0.4495	0.045
Mof_C 	C 	0.1276	0.3471	0.5647	-0.048
Mof_C 	C 	0.167	0.4065	0.5014	0.331
Mof_C 	C 	0.3731	0.4726	0.8545	0.084
Mof_H 	H 	0.3587	0.4449	0.7946	-0.001
Mof_C 	C 	0.4408	0.4635	0.8907	-0.13
Mof_H 	H 	0.471	0.4312	0.8552	0.079
Mof_C 	C 	0.4625	0.5028	0.9792	0.067
Mof_C 	C 	0.4159	0.55	0.0279	-0.128
Mof_H 	H 	0.4288	0.5766	0.0891	0.081
Mof_C 	C 	0.3503	0.5578	0.9862	0.078
Mof_H 	H 	0.3199	0.592	0.0189	0.004
Mof_C 	C 	0.2914	0.6156	0.6573	0.117
Mof_H 	H 	0.3269	0.5776	0.6755	-0.009
Mof_C 	C 	0.2967	0.6629	0.5726	-0.147
Mof_H 	H 	0.3336	0.6548	0.5338	0.095
Mof_C 	C 	0.2481	0.7219	0.5445	0.044
Mof_C 	C 	0.2149	0.7556	0.6296	-0.028
Mof_C 	C 	0.2115	0.6982	0.7116	0.042
Mof_C 	C 	0.1797	0.7003	0.5846	-0.009
Mof_C 	C 	0.1802	0.6468	0.6692	0.017
Mof_Zn	Zn	0.73184	0.95834	0.33942	1.212
Mof_O 	O 	0.6694	0.0483	0.2929	-0.443
Mof_O 	O 	0.751	0.0964	0.202	-0.302
Mof_O 	O 	0.6748	0.0177	0.0236	-0.305
Mof_O 	O 	0.6884	0.1274	0.9225	-0.445
Mof_O 	O 	0.4535	0.3745	0.1809	-0.225
Mof_N 	N 	0.8279	0.9816	0.4005	-0.276
Mof_N 	N 	0.7417	0.881	0.2146	-0.259
Mof_C 	C 	0.6906	0.0957	0.2242	0.324
Mof_C 	C 	0.6379	0.1513	0.1709	-0.04
Mof_C 	C 	0.5977	0.2058	0.2257	-0.024
Mof_H 	H 	0.6043	0.2071	0.2957	0.059
Mof_C 	C 	0.5484	0.2575	0.1773	-0.021
Mof_C 	C 	0.5373	0.2568	0.0754	-0.051
Mof_H 	H 	0.5032	0.2909	0.0435	0.063
Mof_C 	C 	0.5773	0.2048	0.0195	-0.001
Mof_H 	H 	0.5701	0.2049	0.9495	0.042
Mof_C 	C 	0.6276	0.1529	0.0647	-0.051
Mof_C 	C 	0.667	0.0935	0.0014	0.337
Mof_C 	C 	0.8731	0.0274	0.3545	0.098
Mof_H 	H 	0.8587	0.0551	0.2946	-0.005
Mof_C 	C 	0.9408	0.0365	0.3907	-0.15
Mof_H 	H 	0.971	0.0688	0.3552	0.093
Mof_C 	C 	0.9625	0.9972	0.4792	0.102
Mof_C 	C 	0.9159	0.95	0.5279	-0.151
Mof_H 	H 	0.9288	0.9234	0.5891	0.093
Mof_C 	C 	0.8503	0.9422	0.4862	0.092
Mof_H 	H 	0.8199	0.908	0.5189	-0.001
Mof_C 	C 	0.7914	0.8844	0.1573	0.116
Mof_H 	H 	0.8269	0.9224	0.1755	-0.01
Mof_C 	C 	0.7967	0.8371	0.0726	-0.147
Mof_H 	H 	0.8336	0.8452	0.0338	0.096
Mof_C 	C 	0.7481	0.7781	0.0445	0.043
Mof_C 	C 	0.7149	0.7444	0.1296	-0.027
Mof_C 	C 	0.7115	0.8018	0.2116	0.042
Mof_C 	C 	0.6797	0.7997	0.0846	-0.007
Mof_C 	C 	0.6802	0.8532	0.1692	0.017
Mof_Zn	Zn	0.23184	0.45834	0.33942	1.212
Mof_O 	O 	0.1694	0.5483	0.2929	-0.446
Mof_O 	O 	0.251	0.5964	0.202	-0.303
Mof_O 	O 	0.1748	0.5177	0.0236	-0.307
Mof_O 	O 	0.1884	0.6274	0.9225	-0.441
Mof_O 	O 	0.9535	0.8745	0.1809	-0.209
Mof_N 	N 	0.3279	0.4816	0.4005	-0.272
Mof_N 	N 	0.2417	0.381	0.2146	-0.259
Mof_C 	C 	0.1906	0.5957	0.2242	0.325
Mof_C 	C 	0.1379	0.6513	0.1709	-0.042
Mof_C 	C 	0.0977	0.7058	0.2257	-0.025
Mof_H 	H 	0.1043	0.7071	0.2957	0.058
Mof_C 	C 	0.0484	0.7575	0.1773	-0.02
Mof_C 	C 	0.0373	0.7568	0.0754	-0.048
Mof_H 	H 	0.0032	0.7909	0.0435	0.056
Mof_C 	C 	0.0773	0.7048	0.0195	-0.014
Mof_H 	H 	0.0701	0.7049	0.9495	0.047
Mof_C 	C 	0.1276	0.6529	0.0647	-0.047
Mof_C 	C 	0.167	0.5935	0.0014	0.33
Mof_C 	C 	0.3731	0.5274	0.3545	0.086
Mof_H 	H 	0.3587	0.5551	0.2946	-0.002
Mof_C 	C 	0.4408	0.5365	0.3907	-0.133
Mof_H 	H 	0.471	0.5688	0.3552	0.081
Mof_C 	C 	0.4625	0.4972	0.4792	0.073
Mof_C 	C 	0.4159	0.45	0.5279	-0.133
Mof_H 	H 	0.4288	0.4234	0.5891	0.083
Mof_C 	C 	0.3503	0.4422	0.4862	0.081
Mof_H 	H 	0.3199	0.408	0.5189	0.003
Mof_C 	C 	0.2914	0.3844	0.1573	0.118
Mof_H 	H 	0.3269	0.4224	0.1755	-0.01
Mof_C 	C 	0.2967	0.3371	0.0726	-0.149
Mof_H 	H 	0.3336	0.3452	0.0338	0.097
Mof_C 	C 	0.2481	0.2781	0.0445	0.048
Mof_C 	C 	0.2149	0.2444	0.1296	-0.028
Mof_C 	C 	0.2115	0.3018	0.2116	0.042
Mof_C 	C 	0.1797	0.2997	0.0846	-0.009
Mof_C 	C 	0.1802	0.3532	0.1692	0.017
Mof_Zn	Zn	0.26816	0.95834	0.16058	1.212
Mof_O 	O 	0.3306	0.0483	0.2071	-0.443
Mof_O 	O 	0.249	0.0964	0.298	-0.303
Mof_O 	O 	0.3252	0.0177	0.4764	-0.305
Mof_O 	O 	0.3116	0.1274	0.5775	-0.441
Mof_O 	O 	0.5465	0.3745	0.3191	-0.225
Mof_N 	N 	0.1721	0.9816	0.0995	-0.267
Mof_N 	N 	0.2583	0.881	0.2854	-0.259
Mof_C 	C 	0.3094	0.0957	0.2758	0.325
Mof_C 	C 	0.3621	0.1513	0.3291	-0.043
Mof_C 	C 	0.4023	0.2058	0.2743	-0.021
Mof_H 	H 	0.3957	0.2071	0.2043	0.058
Mof_C 	C 	0.4516	0.2575	0.3227	-0.025
Mof_C 	C 	0.4627	0.2568	0.4246	-0.044
Mof_H 	H 	0.4968	0.2909	0.4565	0.06
Mof_C 	C 	0.4227	0.2048	0.4805	-0.013
Mof_H 	H 	0.4299	0.2049	0.5505	0.048
Mof_C 	C 	0.3724	0.1529	0.4353	-0.045
Mof_C 	C 	0.333	0.0935	0.4986	0.33
Mof_C 	C 	0.1269	0.0274	0.1455	0.077
Mof_H 	H 	0.1413	0.0551	0.2054	0.001
Mof_C 	C 	0.0592	0.0365	0.1093	-0.109
Mof_H 	H 	0.029	0.0688	0.1448	0.068
Mof_C 	C 	0.0375	0.9972	0.0208	0.037
Mof_C 	C 	0.0841	0.95	0.9721	-0.1
Mof_H 	H 	0.0712	0.9234	0.9109	0.069
Mof_C 	C 	0.1497	0.9422	0.0138	0.056
Mof_H 	H 	0.1801	0.908	0.9811	0.013
Mof_C 	C 	0.2086	0.8844	0.3427	0.116
Mof_H 	H 	0.1731	0.9224	0.3245	-0.01
Mof_C 	C 	0.2033	0.8371	0.4274	-0.146
Mof_H 	H 	0.1664	0.8452	0.4662	0.094
Mof_C 	C 	0.2519	0.7781	0.4555	0.043
Mof_C 	C 	0.2851	0.7444	0.3704	-0.027
Mof_C 	C 	0.2885	0.8018	0.2884	0.042
Mof_C 	C 	0.3203	0.7997	0.4154	-0.007
Mof_C 	C 	0.3198	0.8532	0.3308	0.018
Mof_Zn	Zn	0.76816	0.45834	0.16058	1.212
Mof_O 	O 	0.8306	0.5483	0.2071	-0.442
Mof_O 	O 	0.749	0.5964	0.298	-0.302
Mof_O 	O 	0.8252	0.5177	0.4764	-0.305
Mof_O 	O 	0.8116	0.6274	0.5775	-0.441
Mof_O 	O 	0.0465	0.8745	0.3191	-0.223
Mof_N 	N 	0.6721	0.4816	0.0995	-0.274
Mof_N 	N 	0.7583	0.381	0.2854	-0.259
Mof_C 	C 	0.8094	0.5957	0.2758	0.322
Mof_C 	C 	0.8621	0.6513	0.3291	-0.034
Mof_C 	C 	0.9023	0.7058	0.2743	-0.034
Mof_H 	H 	0.8957	0.7071	0.2043	0.065
Mof_C 	C 	0.9516	0.7575	0.3227	0.001
Mof_C 	C 	0.9627	0.7568	0.4246	-0.06
Mof_H 	H 	0.9968	0.7909	0.4565	0.071
Mof_C 	C 	0.9227	0.7048	0.4805	-0
Mof_H 	H 	0.9299	0.7049	0.5505	0.047
Mof_C 	C 	0.8724	0.6529	0.4353	-0.051
Mof_C 	C 	0.833	0.5935	0.4986	0.333
Mof_C 	C 	0.6269	0.5274	0.1455	0.089
Mof_H 	H 	0.6413	0.5551	0.2054	-0.003
Mof_C 	C 	0.5592	0.5365	0.1093	-0.139
Mof_H 	H 	0.529	0.5688	0.1448	0.083
Mof_C 	C 	0.5375	0.4972	0.0208	0.081
Mof_C 	C 	0.5841	0.45	0.9721	-0.144
Mof_H 	H 	0.5712	0.4234	0.9109	0.087
Mof_C 	C 	0.6497	0.4422	0.0138	0.091
Mof_H 	H 	0.6801	0.408	0.9811	-0.002
Mof_C 	C 	0.7086	0.3844	0.3427	0.116
Mof_H 	H 	0.6731	0.4224	0.3245	-0.009
Mof_C 	C 	0.7033	0.3371	0.4274	-0.146
Mof_H 	H 	0.6664	0.3452	0.4662	0.095
Mof_C 	C 	0.7519	0.2781	0.4555	0.043
Mof_C 	C 	0.7851	0.2444	0.3704	-0.027
Mof_C 	C 	0.7885	0.3018	0.2884	0.042
Mof_C 	C 	0.8203	0.2997	0.4154	-0.005
Mof_C 	C 	0.8198	0.3532	0.3308	0.02
Mof_S 	S 	0.5	0.6729	0.75	0.282
Mof_S 	S 	-7.0496e-18	0.1729	0.75	0.247
Mof_S 	S 	0.5	0.3271	0.25	0.281
Mof_S 	S 	-1.7624e-18	0.8271	0.25	0.246
_end
