# CIF file generated by openbabel 3.1.0, see https://openbabel.org
data_I
_chemical_name_common 'YEQRIV_clean'
_cell_length_a 8.798
_cell_length_b 15.627
_cell_length_c 17.969
_cell_angle_alpha 105.46
_cell_angle_beta 98.58
_cell_angle_gamma 98.15
_space_group_name_H-M_alt 'P 1'
_space_group_name_Hall 'P 1'
loop_
    _symmetry_equiv_pos_as_xyz
    x,y,z
loop_
    _atom_site_label
    _atom_site_type_symbol
    _atom_site_fract_x
    _atom_site_fract_y
    _atom_site_fract_z
    _atom_site_occupancy
    Eu1      Eu       0.82668    0.16992    0.77584    1.000
    Eu2      Eu       0.17332    0.83008    0.22416    1.000
    K1       K        0.94140    0.29655    0.38712    1.000
    K2       K        0.05860    0.70345    0.61288    1.000
    Ni1      Ni       0.00000    0.00000    0.00000    1.000
    Ni2      Ni       0.00000    0.00000    0.50000    1.000
    Ni3      Ni       0.00000    0.50000    0.00000    1.000
    Ni4      Ni       0.50000    0.50000    0.50000    1.000
    C1       C        0.94350    0.06120    0.92640    1.000
    C2       C        0.83260    0.90510    0.95030    1.000
    C3       C        0.96280    0.06100    0.59790    1.000
    C4       C        0.92860    0.08660    0.45710    1.000
    C5       C        0.91750    0.38370    0.93210    1.000
    C6       C        0.83900    0.49170    0.05620    1.000
    C7       C        0.61550    0.41890    0.44980    1.000
    C8       C        0.33850    0.40500    0.48770    1.000
    C9       C        0.05650    0.93880    0.07360    1.000
    C10      C        0.16740    0.09490    0.04970    1.000
    C11      C        0.03720    0.93900    0.40210    1.000
    C12      C        0.07140    0.91340    0.54290    1.000
    C13      C        0.08250    0.61630    0.06790    1.000
    C14      C        0.16100    0.50830    0.94380    1.000
    C15      C        0.38450    0.58110    0.55020    1.000
    C16      C        0.66150    0.59500    0.51230    1.000
    N1       N        0.91190    0.10040    0.88310    1.000
    N2       N        0.72740    0.84640    0.92340    1.000
    N3       N        0.93390    0.09780    0.65750    1.000
    N4       N        0.88200    0.13990    0.43030    1.000
    N5       N        0.86940    0.31350    0.88830    1.000
    N6       N        0.74370    0.48600    0.09260    1.000
    N7       N        0.69100    0.37130    0.42070    1.000
    N8       N        0.23680    0.34790    0.47980    1.000
    N9       N        0.08810    0.89960    0.11690    1.000
    N10      N        0.27260    0.15360    0.07660    1.000
    N11      N        0.06610    0.90220    0.34250    1.000
    N12      N        0.11800    0.86010    0.56970    1.000
    N13      N        0.13060    0.68650    0.11170    1.000
    N14      N        0.25630    0.51400    0.90740    1.000
    N15      N        0.30900    0.62870    0.57930    1.000
    N16      N        0.76320    0.65210    0.52020    1.000
