# CIF file generated by openbabel 3.1.0, see https://openbabel.org
data_I
_chemical_name_common 'ALUKOI_clean'
_cell_length_a 16.1086
_cell_length_b 16.1086
_cell_length_c 27.9632
_cell_angle_alpha 79.9799
_cell_angle_beta 79.9799
_cell_angle_gamma 63.0188
_space_group_name_H-M_alt 'P 1'
_space_group_name_Hall 'P 1'
loop_
    _symmetry_equiv_pos_as_xyz
    x,y,z
loop_
    _atom_site_label
    _atom_site_type_symbol
    _atom_site_fract_x
    _atom_site_fract_y
    _atom_site_fract_z
    _atom_site_occupancy
    Sm1      Sm       0.53125    0.06657    0.04610    1.000
    Sm2      Sm       0.93343    0.46875    0.45390    1.000
    Sm3      Sm       0.46875    0.93343    0.95390    1.000
    Sm4      Sm       0.06657    0.53125    0.54610    1.000
    H1       H        0.63320    0.06500    0.20280    1.000
    H2       H        0.70760    0.10620    0.25370    1.000
    H3       H        0.84060    0.19500    0.13370    1.000
    H4       H        0.75990    0.16010    0.08550    1.000
    H5       H        0.32570    0.82710    0.09000    1.000
    H6       H        0.26120    0.76760    0.15830    1.000
    H7       H        0.36760    0.86500    0.24240    1.000
    H8       H        0.42910    0.93370    0.17070    1.000
    H9       H        0.82330    0.78910    0.05610    1.000
    H10      H        0.94970    0.64650    0.04280    1.000
    H11      H        0.80640    0.58800    0.96110    1.000
    H12      H        0.68200    0.73220    0.96890    1.000
    H13      H        0.93500    0.36680    0.29720    1.000
    H14      H        0.89380    0.29240    0.24630    1.000
    H15      H        0.80500    0.15940    0.36630    1.000
    H16      H        0.83990    0.24010    0.41450    1.000
    H17      H        0.17290    0.67430    0.41000    1.000
    H18      H        0.23240    0.73880    0.34170    1.000
    H19      H        0.13500    0.63240    0.25760    1.000
    H20      H        0.06630    0.57090    0.32930    1.000
    H21      H        0.21090    0.17670    0.44390    1.000
    H22      H        0.35350    0.05030    0.45720    1.000
    H23      H        0.41200    0.19360    0.53890    1.000
    H24      H        0.26780    0.31800    0.53110    1.000
    H25      H        0.36680    0.93500    0.79720    1.000
    H26      H        0.29240    0.89380    0.74630    1.000
    H27      H        0.15940    0.80500    0.86630    1.000
    H28      H        0.24010    0.83990    0.91450    1.000
    H29      H        0.67430    0.17290    0.91000    1.000
    H30      H        0.73880    0.23240    0.84170    1.000
    H31      H        0.63240    0.13500    0.75760    1.000
    H32      H        0.57090    0.06630    0.82930    1.000
    H33      H        0.17670    0.21090    0.94390    1.000
    H34      H        0.05030    0.35350    0.95720    1.000
    H35      H        0.19360    0.41200    0.03890    1.000
    H36      H        0.31800    0.26780    0.03110    1.000
    H37      H        0.06500    0.63320    0.70280    1.000
    H38      H        0.10620    0.70760    0.75370    1.000
    H39      H        0.19500    0.84060    0.63370    1.000
    H40      H        0.16010    0.75990    0.58550    1.000
    H41      H        0.82710    0.32570    0.59000    1.000
    H42      H        0.76760    0.26120    0.65830    1.000
    H43      H        0.86500    0.36760    0.74240    1.000
    H44      H        0.93370    0.42910    0.67070    1.000
    H45      H        0.78910    0.82330    0.55610    1.000
    H46      H        0.64650    0.94970    0.54280    1.000
    H47      H        0.58800    0.80640    0.46110    1.000
    H48      H        0.73220    0.68200    0.46890    1.000
    C1       C        0.64529    0.07709    0.10971    1.000
    C2       C        0.70540    0.09220    0.13885    1.000
    C3       C        0.67793    0.08653    0.18965    1.000
    C4       C        0.71993    0.11453    0.21991    1.000
    C5       C        0.77960    0.15420    0.19912    1.000
    C6       C        0.79958    0.16898    0.14747    1.000
    C7       C        0.75581    0.14301    0.11908    1.000
    C8       C        0.42113    0.92393    0.07698    1.000
    C9       C        0.38147    0.88707    0.12269    1.000
    C10      C        0.33298    0.83678    0.12057    1.000
    C11      C        0.29481    0.80021    0.16113    1.000
    C12      C        0.30707    0.81227    0.20493    1.000
    C13      C        0.35839    0.85979    0.21140    1.000
    C14      C        0.39610    0.90010    0.16837    1.000
    C15      C        0.66537    0.87017    0.01899    1.000
    C16      C        0.74074    0.77674    0.01253    1.000
    C17      C        0.82067    0.75007    0.03603    1.000
    C18      C        0.89520    0.66460    0.02860    1.000
    C19      C        0.88955    0.60215    0.99860    1.000
    C20      C        0.81084    0.62904    0.97900    1.000
    C21      C        0.73537    0.71497    0.98395    1.000
    C22      C        0.92291    0.35471    0.39029    1.000
    C23      C        0.90780    0.29460    0.36115    1.000
    C24      C        0.91347    0.32207    0.31035    1.000
    C25      C        0.88547    0.28007    0.28009    1.000
    C26      C        0.84580    0.22040    0.30088    1.000
    C27      C        0.83102    0.20042    0.35253    1.000
    C28      C        0.85699    0.24419    0.38092    1.000
    C29      C        0.07607    0.57887    0.42302    1.000
    C30      C        0.11293    0.61853    0.37731    1.000
    C31      C        0.16322    0.66702    0.37943    1.000
    C32      C        0.19979    0.70519    0.33887    1.000
    C33      C        0.18773    0.69293    0.29507    1.000
    C34      C        0.14021    0.64161    0.28860    1.000
    C35      C        0.09990    0.60390    0.33163    1.000
    C36      C        0.12983    0.33463    0.48101    1.000
    C37      C        0.22326    0.25926    0.48747    1.000
    C38      C        0.24993    0.17933    0.46397    1.000
    C39      C        0.33540    0.10480    0.47140    1.000
    C40      C        0.39785    0.11045    0.50140    1.000
    C41      C        0.37096    0.18916    0.52100    1.000
    C42      C        0.28503    0.26463    0.51605    1.000
    C43      C        0.35471    0.92291    0.89029    1.000
    C44      C        0.29460    0.90780    0.86115    1.000
    C45      C        0.32207    0.91347    0.81035    1.000
    C46      C        0.28007    0.88547    0.78009    1.000
    C47      C        0.22040    0.84580    0.80088    1.000
    C48      C        0.20042    0.83102    0.85253    1.000
    C49      C        0.24419    0.85699    0.88092    1.000
    C50      C        0.57887    0.07607    0.92302    1.000
    C51      C        0.61853    0.11293    0.87731    1.000
    C52      C        0.66702    0.16322    0.87943    1.000
    C53      C        0.70519    0.19979    0.83887    1.000
    C54      C        0.69293    0.18773    0.79507    1.000
    C55      C        0.64161    0.14021    0.78860    1.000
    C56      C        0.60390    0.09990    0.83163    1.000
    C57      C        0.33463    0.12983    0.98101    1.000
    C58      C        0.25926    0.22326    0.98747    1.000
    C59      C        0.17933    0.24993    0.96397    1.000
    C60      C        0.10480    0.33540    0.97140    1.000
    C61      C        0.11045    0.39785    0.00140    1.000
    C62      C        0.18916    0.37096    0.02100    1.000
    C63      C        0.26463    0.28503    0.01605    1.000
    C64      C        0.07709    0.64529    0.60971    1.000
    C65      C        0.09220    0.70540    0.63885    1.000
    C66      C        0.08653    0.67793    0.68965    1.000
    C67      C        0.11453    0.71993    0.71991    1.000
    C68      C        0.15420    0.77960    0.69912    1.000
    C69      C        0.16898    0.79958    0.64747    1.000
    C70      C        0.14301    0.75581    0.61908    1.000
    C71      C        0.92393    0.42113    0.57698    1.000
    C72      C        0.88707    0.38147    0.62269    1.000
    C73      C        0.83678    0.33298    0.62057    1.000
    C74      C        0.80021    0.29481    0.66113    1.000
    C75      C        0.81227    0.30707    0.70493    1.000
    C76      C        0.85979    0.35839    0.71140    1.000
    C77      C        0.90010    0.39610    0.66837    1.000
    C78      C        0.87017    0.66537    0.51899    1.000
    C79      C        0.77674    0.74074    0.51253    1.000
    C80      C        0.75007    0.82067    0.53603    1.000
    C81      C        0.66460    0.89520    0.52860    1.000
    C82      C        0.60215    0.88955    0.49860    1.000
    C83      C        0.62904    0.81084    0.47900    1.000
    C84      C        0.71497    0.73537    0.48395    1.000
    N1       N        0.82001    0.19101    0.22520    1.000
    N2       N        0.27595    0.77435    0.24909    1.000
    N3       N        0.95578    0.51538    0.99502    1.000
    N4       N        0.80899    0.17999    0.27480    1.000
    N5       N        0.22565    0.72405    0.25091    1.000
    N6       N        0.48462    0.04422    0.50498    1.000
    N7       N        0.17999    0.80899    0.77480    1.000
    N8       N        0.72405    0.22565    0.75091    1.000
    N9       N        0.04422    0.48462    0.00498    1.000
    N10      N        0.19101    0.82001    0.72520    1.000
    N11      N        0.77435    0.27595    0.74909    1.000
    N12      N        0.51538    0.95578    0.49502    1.000
    O1       O        0.59047    0.04213    0.12601    1.000
    O2       O        0.65658    0.10354    0.06314    1.000
    O3       O        0.40814    0.91496    0.03498    1.000
    O4       O        0.46905    0.96401    0.08607    1.000
    O5       O        0.59699    0.89603    0.99714    1.000
    O6       O        0.67558    0.92066    0.04619    1.000
    O7       O        0.95787    0.40953    0.37399    1.000
    O8       O        0.89646    0.34342    0.43686    1.000
    O9       O        0.08504    0.59186    0.46502    1.000
    O10      O        0.03599    0.53095    0.41393    1.000
    O11      O        0.10397    0.40301    0.50286    1.000
    O12      O        0.07934    0.32442    0.45381    1.000
    O13      O        0.40953    0.95787    0.87399    1.000
    O14      O        0.34342    0.89646    0.93686    1.000
    O15      O        0.59186    0.08504    0.96502    1.000
    O16      O        0.53095    0.03599    0.91393    1.000
    O17      O        0.40301    0.10397    0.00286    1.000
    O18      O        0.32442    0.07934    0.95381    1.000
    O19      O        0.04213    0.59047    0.62601    1.000
    O20      O        0.10354    0.65658    0.56314    1.000
    O21      O        0.91496    0.40814    0.53498    1.000
    O22      O        0.96401    0.46905    0.58607    1.000
    O23      O        0.89603    0.59699    0.49714    1.000
    O24      O        0.92066    0.67558    0.54619    1.000
