data_functionalizedCrystal
_audit_creation_method	'EQeq! by Chris Wilmer'
_symmetry_space_group_name_H-M	'P1'
_symmetry_Int_Tables_number	1
_symmetry_cell_setting	triclinic
loop_
_symmetry_equiv_pos_as_xyz
  x,y,z
_cell_length_a	15.446
_cell_length_b	15.446
_cell_length_c	9.907
_cell_angle_alpha	90
_cell_angle_beta	90
_cell_angle_gamma	90
loop_
_atom_site_label
_atom_site_type_symbol
_atom_site_fract_x
_atom_site_fract_y
_atom_site_fract_z
_atom_site_charge
Mof_O 	O 	0.62807	0.47006	0.1219	-0.615
Mof_C 	C 	0.75632	0.6161	0.8801	0.261
Mof_H 	H 	0.7397	0.5908	0.799	-0.04
Mof_C 	C 	0.80502	0.68993	0.88	-0.282
Mof_H 	H 	0.8217	0.7146	0.7983	0.143
Mof_O 	O 	0.37193	0.52994	0.1219	-0.612
Mof_C 	C 	0.24368	0.3839	0.8801	0.219
Mof_H 	H 	0.2603	0.4092	0.799	-0.028
Mof_C 	C 	0.19498	0.31007	0.88	-0.236
Mof_H 	H 	0.1783	0.2854	0.7983	0.119
Mof_O 	O 	0.52994	0.62807	0.1219	-0.613
Mof_C 	C 	0.3839	0.75632	0.8801	0.258
Mof_H 	H 	0.4092	0.7397	0.799	-0.038
Mof_C 	C 	0.31007	0.80502	0.88	-0.278
Mof_H 	H 	0.2854	0.8217	0.7983	0.141
Mof_O 	O 	0.47006	0.37193	0.1219	-0.613
Mof_C 	C 	0.6161	0.24368	0.8801	0.23
Mof_H 	H 	0.5908	0.2603	0.799	-0.031
Mof_C 	C 	0.68993	0.19498	0.88	-0.248
Mof_H 	H 	0.7146	0.1783	0.7983	0.125
Mof_O 	O 	0.37193	0.47006	0.3781	-0.615
Mof_C 	C 	0.24368	0.6161	0.6199	0.217
Mof_H 	H 	0.2603	0.5908	0.701	-0.027
Mof_C 	C 	0.19498	0.68993	0.62	-0.267
Mof_H 	H 	0.1783	0.7146	0.7017	0.131
Mof_O 	O 	0.62807	0.52994	0.3781	-0.615
Mof_C 	C 	0.75632	0.3839	0.6199	0.245
Mof_H 	H 	0.7397	0.4092	0.701	-0.034
Mof_C 	C 	0.80502	0.31007	0.62	-0.299
Mof_H 	H 	0.8217	0.2854	0.7017	0.148
Mof_O 	O 	0.47006	0.62807	0.3781	-0.616
Mof_C 	C 	0.6161	0.75632	0.6199	0.251
Mof_H 	H 	0.5908	0.7397	0.701	-0.036
Mof_C 	C 	0.68993	0.80502	0.62	-0.306
Mof_H 	H 	0.7146	0.8217	0.7017	0.152
Mof_O 	O 	0.52994	0.37193	0.3781	-0.614
Mof_C 	C 	0.3839	0.24368	0.6199	0.205
Mof_H 	H 	0.4092	0.2603	0.701	-0.023
Mof_C 	C 	0.31007	0.19498	0.62	-0.251
Mof_H 	H 	0.2854	0.1783	0.7017	0.123
Mof_O 	O 	0.37193	0.52994	0.8781	-0.602
Mof_C 	C 	0.24368	0.3839	0.1199	0.206
Mof_H 	H 	0.2603	0.4092	0.201	-0.025
Mof_C 	C 	0.19498	0.31007	0.12	-0.248
Mof_H 	H 	0.1783	0.2854	0.2017	0.12
Mof_O 	O 	0.62807	0.47006	0.8781	-0.603
Mof_C 	C 	0.75632	0.6161	0.1199	0.248
Mof_H 	H 	0.7397	0.5908	0.201	-0.037
Mof_C 	C 	0.80502	0.68993	0.12	-0.298
Mof_H 	H 	0.8217	0.7146	0.2017	0.145
Mof_O 	O 	0.47006	0.37193	0.8781	-0.603
Mof_C 	C 	0.6161	0.24368	0.1199	0.217
Mof_H 	H 	0.5908	0.2603	0.201	-0.029
Mof_C 	C 	0.68993	0.19498	0.12	-0.262
Mof_H 	H 	0.7146	0.1783	0.2017	0.126
Mof_O 	O 	0.52994	0.62807	0.8781	-0.602
Mof_C 	C 	0.3839	0.75632	0.1199	0.243
Mof_H 	H 	0.4092	0.7397	0.201	-0.036
Mof_C 	C 	0.31007	0.80502	0.12	-0.292
Mof_H 	H 	0.2854	0.8217	0.2017	0.142
Mof_O 	O 	0.62807	0.52994	0.6219	-0.616
Mof_C 	C 	0.75632	0.3839	0.3801	0.244
Mof_H 	H 	0.7397	0.4092	0.299	-0.036
Mof_C 	C 	0.80502	0.31007	0.38	-0.299
Mof_H 	H 	0.8217	0.2854	0.2983	0.144
Mof_O 	O 	0.37193	0.47006	0.6219	-0.615
Mof_C 	C 	0.24368	0.6161	0.3801	0.216
Mof_H 	H 	0.2603	0.5908	0.299	-0.029
Mof_C 	C 	0.19498	0.68993	0.38	-0.267
Mof_H 	H 	0.1783	0.7146	0.2983	0.128
Mof_O 	O 	0.52994	0.37193	0.6219	-0.614
Mof_C 	C 	0.3839	0.24368	0.3801	0.204
Mof_H 	H 	0.4092	0.2603	0.299	-0.025
Mof_C 	C 	0.31007	0.19498	0.38	-0.251
Mof_H 	H 	0.2854	0.1783	0.2983	0.121
Mof_O 	O 	0.47006	0.62807	0.6219	-0.616
Mof_C 	C 	0.6161	0.75632	0.3801	0.25
Mof_H 	H 	0.5908	0.7397	0.299	-0.038
Mof_C 	C 	0.68993	0.80502	0.38	-0.307
Mof_H 	H 	0.7146	0.8217	0.2983	0.148
Mof_Sm	Sm	0.5	0.5	0.25	2.947
Mof_Sm	Sm	0.5	0.5	0.75	2.954
Mof_Zn	Zn	-3.01161e-33	-5.34006e-33	0.96823	0.765
Mof_Zn	Zn	-1.3912e-33	-2.67003e-33	0.53177	0.756
Mof_Zn	Zn	-9.04748e-35	-1.66877e-34	0.03177	0.751
Mof_Zn	Zn	1.12602e-33	0	0.46823	0.756
Mof_S 	S 	0.68047	0.47637	-0	0.811
Mof_N 	N 	0.87112	0.96958	-0	-0.281
Mof_O 	O 	0.74927	0.41352	-0	-0.34
Mof_C 	C 	0.73207	0.57967	-0	-0.318
Mof_C 	C 	0.82984	0.72846	-0	0.229
Mof_C 	C 	0.88352	0.81189	-0	-0.238
Mof_C 	C 	0.83641	0.88959	-0	0.172
Mof_C 	C 	0.74239	0.89506	-0	-0.204
Mof_H 	H 	0.7034	0.8492	-0	0.13
Mof_C 	C 	0.7231	0.9807	-0	0.1
Mof_H 	H 	0.6679	0.0047	-0	-0.021
Mof_C 	C 	0.80434	0.0285	-0	0.01
Mof_S 	S 	0.31953	0.52363	-0	0.801
Mof_N 	N 	0.12888	0.03042	-0	-0.342
Mof_O 	O 	0.25073	0.58648	-0	-0.34
Mof_C 	C 	0.26793	0.42033	-0	-0.289
Mof_C 	C 	0.17016	0.27154	-0	0.163
Mof_C 	C 	0.11648	0.18811	-0	-0.124
Mof_C 	C 	0.16359	0.11041	-0	0.067
Mof_C 	C 	0.25761	0.10494	-0	-0.003
Mof_H 	H 	0.2966	0.1508	-0	0.051
Mof_C 	C 	0.2769	0.0193	-0	-0.268
Mof_H 	H 	0.3321	0.9953	-0	0.159
Mof_C 	C 	0.19566	0.9715	-0	0.232
Mof_S 	S 	0.52363	0.68047	-0	0.809
Mof_N 	N 	0.03042	0.87112	-0	-0.337
Mof_O 	O 	0.58648	0.74927	-0	-0.34
Mof_C 	C 	0.42033	0.73207	-0	-0.314
Mof_C 	C 	0.27154	0.82984	-0	0.223
Mof_C 	C 	0.18811	0.88352	-0	-0.226
Mof_C 	C 	0.11041	0.83641	-0	0.119
Mof_C 	C 	0.10494	0.74239	-0	-0.038
Mof_H 	H 	0.1508	0.7034	-0	0.064
Mof_C 	C 	0.0193	0.7231	-0	-0.237
Mof_H 	H 	0.9953	0.6679	-0	0.145
Mof_C 	C 	0.9715	0.80434	-0	0.222
Mof_S 	S 	0.47637	0.31953	-0	0.803
Mof_N 	N 	0.96958	0.12888	-0	-0.275
Mof_O 	O 	0.41352	0.25073	-0	-0.34
Mof_C 	C 	0.57967	0.26793	-0	-0.297
Mof_C 	C 	0.72846	0.17016	-0	0.18
Mof_C 	C 	0.81189	0.11648	-0	-0.153
Mof_C 	C 	0.88959	0.16359	-0	0.135
Mof_C 	C 	0.89506	0.25761	-0	-0.196
Mof_H 	H 	0.8492	0.2966	-0	0.128
Mof_C 	C 	0.9807	0.2769	-0	0.119
Mof_H 	H 	0.0047	0.3321	-0	-0.03
Mof_C 	C 	0.0285	0.19566	-0	-0.017
Mof_S 	S 	0.31953	0.47637	0.5	0.819
Mof_N 	N 	0.12888	0.96958	0.5	-0.271
Mof_O 	O 	0.25073	0.41352	0.5	-0.339
Mof_C 	C 	0.26793	0.57967	0.5	-0.284
Mof_C 	C 	0.17016	0.72846	0.5	0.198
Mof_C 	C 	0.11648	0.81189	0.5	-0.154
Mof_C 	C 	0.16359	0.88959	0.5	0.14
Mof_C 	C 	0.25761	0.89506	0.5	-0.2
Mof_H 	H 	0.2966	0.8492	0.5	0.132
Mof_C 	C 	0.2769	0.9807	0.5	0.132
Mof_H 	H 	0.3321	0.0047	0.5	-0.033
Mof_C 	C 	0.19566	0.0285	0.5	-0.02
Mof_S 	S 	0.68047	0.52363	0.5	0.827
Mof_N 	N 	0.87112	0.03042	0.5	-0.337
Mof_O 	O 	0.74927	0.58648	0.5	-0.338
Mof_C 	C 	0.73207	0.42033	0.5	-0.3
Mof_C 	C 	0.82984	0.27154	0.5	0.244
Mof_C 	C 	0.88352	0.18811	0.5	-0.232
Mof_C 	C 	0.83641	0.11041	0.5	0.124
Mof_C 	C 	0.74239	0.10494	0.5	-0.031
Mof_H 	H 	0.7034	0.1508	0.5	0.065
Mof_C 	C 	0.7231	0.0193	0.5	-0.247
Mof_H 	H 	0.6679	0.9953	0.5	0.154
Mof_C 	C 	0.80434	0.9715	0.5	0.235
Mof_S 	S 	0.47637	0.68047	0.5	0.829
Mof_N 	N 	0.96958	0.87112	0.5	-0.277
Mof_O 	O 	0.41352	0.74927	0.5	-0.338
Mof_C 	C 	0.57967	0.73207	0.5	-0.305
Mof_C 	C 	0.72846	0.82984	0.5	0.254
Mof_C 	C 	0.81189	0.88352	0.5	-0.245
Mof_C 	C 	0.88959	0.83641	0.5	0.181
Mof_C 	C 	0.89506	0.74239	0.5	-0.208
Mof_H 	H 	0.8492	0.7034	0.5	0.136
Mof_C 	C 	0.9807	0.7231	0.5	0.113
Mof_H 	H 	0.0047	0.6679	0.5	-0.023
Mof_C 	C 	0.0285	0.80434	0.5	0.008
Mof_S 	S 	0.52363	0.31953	0.5	0.817
Mof_N 	N 	0.03042	0.12888	0.5	-0.343
Mof_O 	O 	0.58648	0.25073	0.5	-0.338
Mof_C 	C 	0.42033	0.26793	0.5	-0.275
Mof_C 	C 	0.27154	0.17016	0.5	0.177
Mof_C 	C 	0.18811	0.11648	0.5	-0.123
Mof_C 	C 	0.11041	0.16359	0.5	0.068
Mof_C 	C 	0.10494	0.25761	0.5	0.006
Mof_H 	H 	0.1508	0.2966	0.5	0.051
Mof_C 	C 	0.0193	0.2769	0.5	-0.28
Mof_H 	H 	0.9953	0.3321	0.5	0.168
Mof_C 	C 	0.9715	0.19566	0.5	0.245
Mof_O 	O 	-3.53642e-33	-5.34006e-33	0.75	-0.497
Mof_O 	O 	-7.33803e-34	0	0.25	-0.501
_end
