# CIF file generated by openbabel 3.1.0, see https://openbabel.org
data_I
_chemical_name_common 'XAKVIP_clean'
_cell_length_a 10.387
_cell_length_b 13.009
_cell_length_c 22.102
_cell_angle_alpha 90
_cell_angle_beta 90
_cell_angle_gamma 90
_space_group_name_H-M_alt 'P 1'
_space_group_name_Hall 'P 1'
loop_
    _symmetry_equiv_pos_as_xyz
    x,y,z
loop_
    _atom_site_label
    _atom_site_type_symbol
    _atom_site_fract_x
    _atom_site_fract_y
    _atom_site_fract_z
    _atom_site_occupancy
    Ce1      Ce       0.69691    0.45159    0.52079    1.000
    Ce2      Ce       0.28583    0.53889    0.74509    1.000
    Ce3      Ce       0.30309    0.04841    0.02079    1.000
    Ce4      Ce       0.71417    0.96111    0.24509    1.000
    Ce5      Ce       0.19691    0.54841    0.97921    1.000
    Ce6      Ce       0.78583    0.46111    0.75491    1.000
    Ce7      Ce       0.80309    0.95159    0.47921    1.000
    Ce8      Ce       0.21417    0.03889    0.25491    1.000
    Ce9      Ce       0.30309    0.54841    0.47921    1.000
    Ce10     Ce       0.71417    0.46111    0.25491    1.000
    Ce11     Ce       0.69691    0.95159    0.97921    1.000
    Ce12     Ce       0.28583    0.03889    0.75491    1.000
    Ce13     Ce       0.80309    0.45159    0.02079    1.000
    Ce14     Ce       0.21417    0.53889    0.24509    1.000
    Ce15     Ce       0.19691    0.04841    0.52079    1.000
    Ce16     Ce       0.78583    0.96111    0.74509    1.000
    H1       H        0.47390    0.32650    0.46700    1.000
    H2       H        0.57500    0.17510    0.46250    1.000
    H3       H        0.59880    0.22090    0.40380    1.000
    H4       H        0.52610    0.17350    0.96700    1.000
    H5       H        0.42500    0.32490    0.96250    1.000
    H6       H        0.40120    0.27910    0.90380    1.000
    H7       H        0.97390    0.67350    0.03300    1.000
    H8       H        0.07500    0.82490    0.03750    1.000
    H9       H        0.09880    0.77910    0.09620    1.000
    H10      H        0.02610    0.82650    0.53300    1.000
    H11      H        0.92500    0.67510    0.53750    1.000
    H12      H        0.90120    0.72090    0.59620    1.000
    H13      H        0.52610    0.67350    0.53300    1.000
    H14      H        0.42500    0.82490    0.53750    1.000
    H15      H        0.40120    0.77910    0.59620    1.000
    H16      H        0.47390    0.82650    0.03300    1.000
    H17      H        0.57500    0.67510    0.03750    1.000
    H18      H        0.59880    0.72090    0.09620    1.000
    H19      H        0.02610    0.32650    0.96700    1.000
    H20      H        0.92500    0.17510    0.96250    1.000
    H21      H        0.90120    0.22090    0.90380    1.000
    H22      H        0.97390    0.17350    0.46700    1.000
    H23      H        0.07500    0.32490    0.46250    1.000
    H24      H        0.09880    0.27910    0.40380    1.000
    C1       C        0.01480    0.47820    0.53181    1.000
    C2       C        0.44640    0.48890    0.61366    1.000
    C3       C        0.56120    0.48820    0.65763    1.000
    C4       C        0.33540    0.28810    0.77826    1.000
    C5       C        0.22750    0.28600    0.72970    1.000
    C6       C        0.61830    0.22830    0.44320    1.000
    C7       C        0.76000    0.22610    0.45722    1.000
    C8       C        0.98520    0.02180    0.03181    1.000
    C9       C        0.55360    0.01110    0.11366    1.000
    C10      C        0.43880    0.01180    0.15763    1.000
    C11      C        0.66460    0.21190    0.27826    1.000
    C12      C        0.77250    0.21400    0.22970    1.000
    C13      C        0.38170    0.27170    0.94320    1.000
    C14      C        0.24000    0.27390    0.95722    1.000
    C15      C        0.51480    0.52180    0.96819    1.000
    C16      C        0.94640    0.51110    0.88634    1.000
    C17      C        0.06120    0.51180    0.84237    1.000
    C18      C        0.83540    0.71190    0.72174    1.000
    C19      C        0.72750    0.71400    0.77030    1.000
    C20      C        0.11830    0.77170    0.05680    1.000
    C21      C        0.26000    0.77390    0.04278    1.000
    C22      C        0.48520    0.97820    0.46819    1.000
    C23      C        0.05360    0.98890    0.38634    1.000
    C24      C        0.93880    0.98820    0.34237    1.000
    C25      C        0.16460    0.78810    0.22174    1.000
    C26      C        0.27250    0.78600    0.27030    1.000
    C27      C        0.88170    0.72830    0.55680    1.000
    C28      C        0.74000    0.72610    0.54278    1.000
    C29      C        0.98520    0.52180    0.46819    1.000
    C30      C        0.55360    0.51110    0.38634    1.000
    C31      C        0.43880    0.51180    0.34237    1.000
    C32      C        0.66460    0.71190    0.22174    1.000
    C33      C        0.77250    0.71400    0.27030    1.000
    C34      C        0.38170    0.77170    0.55680    1.000
    C35      C        0.24000    0.77390    0.54278    1.000
    C36      C        0.01480    0.97820    0.96819    1.000
    C37      C        0.44640    0.98890    0.88634    1.000
    C38      C        0.56120    0.98820    0.84237    1.000
    C39      C        0.33540    0.78810    0.72174    1.000
    C40      C        0.22750    0.78600    0.77030    1.000
    C41      C        0.61830    0.72830    0.05680    1.000
    C42      C        0.76000    0.72610    0.04278    1.000
    C43      C        0.48520    0.47820    0.03181    1.000
    C44      C        0.05360    0.48890    0.11366    1.000
    C45      C        0.93880    0.48820    0.15763    1.000
    C46      C        0.16460    0.28810    0.27826    1.000
    C47      C        0.27250    0.28600    0.22970    1.000
    C48      C        0.88170    0.22830    0.94320    1.000
    C49      C        0.74000    0.22610    0.95722    1.000
    C50      C        0.51480    0.02180    0.53181    1.000
    C51      C        0.94640    0.01110    0.61366    1.000
    C52      C        0.06120    0.01180    0.65763    1.000
    C53      C        0.83540    0.21190    0.77826    1.000
    C54      C        0.72750    0.21400    0.72970    1.000
    C55      C        0.11830    0.27170    0.44320    1.000
    C56      C        0.26000    0.27390    0.45722    1.000
    O1       O        0.91790    0.45670    0.56338    1.000
    O2       O        0.87080    0.53260    0.45387    1.000
    O3       O        0.46960    0.47090    0.55786    1.000
    O4       O        0.33950    0.50880    0.63422    1.000
    O5       O        0.67270    0.47720    0.63619    1.000
    O6       O        0.53580    0.49790    0.71293    1.000
    O7       O        0.36940    0.37600    0.79544    1.000
    O8       O        0.37830    0.70420    0.70397    1.000
    O9       O        0.19170    0.37150    0.70905    1.000
    O10      O        0.18600    0.70020    0.78731    1.000
    O11      O        0.56900    0.32330    0.46279    1.000
    O12      O        0.81570    0.30960    0.46830    1.000
    O13      O        0.68270    0.64020    0.54400    1.000
    O14      O        0.08210    0.04330    0.06338    1.000
    O15      O        0.12920    0.96740    0.95387    1.000
    O16      O        0.53040    0.02910    0.05786    1.000
    O17      O        0.66050    0.99120    0.13422    1.000
    O18      O        0.32730    0.02280    0.13619    1.000
    O19      O        0.46420    0.00210    0.21293    1.000
    O20      O        0.63060    0.12400    0.29544    1.000
    O21      O        0.62170    0.79580    0.20397    1.000
    O22      O        0.80830    0.12850    0.20905    1.000
    O23      O        0.81400    0.79980    0.28731    1.000
    O24      O        0.43100    0.17670    0.96279    1.000
    O25      O        0.18430    0.19040    0.96830    1.000
    O26      O        0.31730    0.85980    0.04400    1.000
    O27      O        0.41790    0.54330    0.93662    1.000
    O28      O        0.37080    0.46740    0.04613    1.000
    O29      O        0.96960    0.52910    0.94214    1.000
    O30      O        0.83950    0.49120    0.86578    1.000
    O31      O        0.17270    0.52280    0.86381    1.000
    O32      O        0.03580    0.50210    0.78707    1.000
    O33      O        0.86940    0.62400    0.70456    1.000
    O34      O        0.87830    0.29580    0.79603    1.000
    O35      O        0.69170    0.62850    0.79095    1.000
    O36      O        0.68600    0.29980    0.71269    1.000
    O37      O        0.06900    0.67670    0.03721    1.000
    O38      O        0.31570    0.69040    0.03170    1.000
    O39      O        0.18270    0.35980    0.95600    1.000
    O40      O        0.58210    0.95670    0.43662    1.000
    O41      O        0.62920    0.03260    0.54613    1.000
    O42      O        0.03040    0.97090    0.44214    1.000
    O43      O        0.16050    0.00880    0.36578    1.000
    O44      O        0.82730    0.97720    0.36381    1.000
    O45      O        0.96420    0.99790    0.28707    1.000
    O46      O        0.13060    0.87600    0.20456    1.000
    O47      O        0.12170    0.20420    0.29603    1.000
    O48      O        0.30830    0.87150    0.29095    1.000
    O49      O        0.31400    0.20020    0.21269    1.000
    O50      O        0.93100    0.82330    0.53721    1.000
    O51      O        0.68430    0.80960    0.53170    1.000
    O52      O        0.81730    0.14020    0.45600    1.000
    O53      O        0.08210    0.54330    0.43662    1.000
    O54      O        0.12920    0.46740    0.54613    1.000
    O55      O        0.53040    0.52910    0.44214    1.000
    O56      O        0.66050    0.49120    0.36578    1.000
    O57      O        0.32730    0.52280    0.36381    1.000
    O58      O        0.46420    0.50210    0.28707    1.000
    O59      O        0.63060    0.62400    0.20456    1.000
    O60      O        0.62170    0.29580    0.29603    1.000
    O61      O        0.80830    0.62850    0.29095    1.000
    O62      O        0.81400    0.29980    0.21269    1.000
    O63      O        0.43100    0.67670    0.53721    1.000
    O64      O        0.18430    0.69040    0.53170    1.000
    O65      O        0.31730    0.35980    0.45600    1.000
    O66      O        0.91790    0.95670    0.93662    1.000
    O67      O        0.87080    0.03260    0.04613    1.000
    O68      O        0.46960    0.97090    0.94214    1.000
    O69      O        0.33950    0.00880    0.86578    1.000
    O70      O        0.67270    0.97720    0.86381    1.000
    O71      O        0.53580    0.99790    0.78707    1.000
    O72      O        0.36940    0.87600    0.70456    1.000
    O73      O        0.37830    0.20420    0.79603    1.000
    O74      O        0.19170    0.87150    0.79095    1.000
    O75      O        0.18600    0.20020    0.71269    1.000
    O76      O        0.56900    0.82330    0.03721    1.000
    O77      O        0.81570    0.80960    0.03170    1.000
    O78      O        0.68270    0.14020    0.95600    1.000
    O79      O        0.58210    0.45670    0.06338    1.000
    O80      O        0.62920    0.53260    0.95387    1.000
    O81      O        0.03040    0.47090    0.05786    1.000
    O82      O        0.16050    0.50880    0.13422    1.000
    O83      O        0.82730    0.47720    0.13619    1.000
    O84      O        0.96420    0.49790    0.21293    1.000
    O85      O        0.13060    0.37600    0.29544    1.000
    O86      O        0.12170    0.70420    0.20397    1.000
    O87      O        0.30830    0.37150    0.20905    1.000
    O88      O        0.31400    0.70020    0.28731    1.000
    O89      O        0.93100    0.32330    0.96279    1.000
    O90      O        0.68430    0.30960    0.96830    1.000
    O91      O        0.81730    0.64020    0.04400    1.000
    O92      O        0.41790    0.04330    0.56338    1.000
    O93      O        0.37080    0.96740    0.45387    1.000
    O94      O        0.96960    0.02910    0.55786    1.000
    O95      O        0.83950    0.99120    0.63422    1.000
    O96      O        0.17270    0.02280    0.63619    1.000
    O97      O        0.03580    0.00210    0.71293    1.000
    O98      O        0.86940    0.12400    0.79544    1.000
    O99      O        0.87830    0.79580    0.70397    1.000
    O100     O        0.69170    0.12850    0.70905    1.000
    O101     O        0.68600    0.79980    0.78731    1.000
    O102     O        0.06900    0.17670    0.46279    1.000
    O103     O        0.31570    0.19040    0.46830    1.000
    O104     O        0.18270    0.85980    0.54400    1.000
