# CIF file generated by openbabel 3.1.0, see https://openbabel.org
data_I
_chemical_name_common 'image0'
_cell_length_a 20.4926
_cell_length_b 20.4926
_cell_length_c 20.4926
_cell_angle_alpha 90
_cell_angle_beta 90
_cell_angle_gamma 90
_space_group_name_H-M_alt 'P 1'
_space_group_name_Hall 'P 1'
loop_
    _symmetry_equiv_pos_as_xyz
    x,y,z
loop_
    _atom_site_label
    _atom_site_type_symbol
    _atom_site_fract_x
    _atom_site_fract_y
    _atom_site_fract_z
    _atom_site_occupancy
    O1       O        0.13380    0.80810    0.24380    1.000
    O2       O        0.06120    0.88110    0.21230    1.000
    N1       N        0.99790    0.65150    0.01120    1.000
    H1       H        0.96110    0.66490    0.99380    1.000
    N2       N        0.99010    0.57600    0.93130    1.000
    C1       C        0.08730    0.82700    0.20740    1.000
    C2       C        0.06560    0.77990    0.15610    1.000
    C3       C        0.01460    0.79600    0.11450    1.000
    H2       H        0.99430    0.83740    0.11820    1.000
    C4       C        0.99330    0.75280    0.06810    1.000
    H3       H        0.95860    0.76480    0.03970    1.000
    C5       C        0.02230    0.69050    0.06210    1.000
    C6       C        0.07410    0.67570    0.10460    1.000
    H4       H        0.09580    0.63490    0.10080    1.000
    C7       C        0.09330    0.71860    0.15070    1.000
    H5       H        0.12670    0.70630    0.18030    1.000
    C8       C        0.02310    0.59620    0.98520    1.000
    O3       O        0.36620    0.19190    0.74380    1.000
    O4       O        0.43880    0.11890    0.71230    1.000
    N3       N        0.50210    0.34850    0.51120    1.000
    H6       H        0.53890    0.33510    0.49380    1.000
    N4       N        0.50990    0.42400    0.43130    1.000
    C9       C        0.41270    0.17300    0.70740    1.000
    C10      C        0.43440    0.22010    0.65610    1.000
    C11      C        0.48540    0.20400    0.61450    1.000
    H7       H        0.50570    0.16260    0.61820    1.000
    C12      C        0.50670    0.24720    0.56810    1.000
    H8       H        0.54140    0.23520    0.53970    1.000
    C13      C        0.47770    0.30950    0.56210    1.000
    C14      C        0.42590    0.32430    0.60460    1.000
    H9       H        0.40420    0.36510    0.60080    1.000
    C15      C        0.40670    0.28140    0.65070    1.000
    H10      H        0.37330    0.29370    0.68030    1.000
    C16      C        0.47690    0.40380    0.48520    1.000
    O5       O        0.86620    0.30810    0.25620    1.000
    O6       O        0.93880    0.38110    0.28770    1.000
    N5       N        0.00210    0.15150    0.48880    1.000
    H11      H        0.03890    0.16490    0.50620    1.000
    N6       N        0.00990    0.07600    0.56870    1.000
    C17      C        0.91270    0.32700    0.29260    1.000
    C18      C        0.93440    0.27990    0.34390    1.000
    C19      C        0.98540    0.29600    0.38550    1.000
    H12      H        0.00570    0.33740    0.38180    1.000
    C20      C        0.00670    0.25280    0.43190    1.000
    H13      H        0.04140    0.26480    0.46030    1.000
    C21      C        0.97770    0.19050    0.43790    1.000
    C22      C        0.92590    0.17570    0.39540    1.000
    H14      H        0.90420    0.13490    0.39920    1.000
    C23      C        0.90670    0.21860    0.34930    1.000
    H15      H        0.87330    0.20630    0.31970    1.000
    C24      C        0.97690    0.09620    0.51480    1.000
    O7       O        0.63380    0.69190    0.75620    1.000
    O8       O        0.56120    0.61890    0.78770    1.000
    N7       N        0.49790    0.84850    0.98880    1.000
    H16      H        0.46110    0.83510    0.00620    1.000
    N8       N        0.49010    0.92400    0.06870    1.000
    C25      C        0.58730    0.67300    0.79260    1.000
    C26      C        0.56560    0.72010    0.84390    1.000
    C27      C        0.51460    0.70400    0.88550    1.000
    H17      H        0.49430    0.66260    0.88180    1.000
    C28      C        0.49330    0.74720    0.93190    1.000
    H18      H        0.45860    0.73520    0.96030    1.000
    C29      C        0.52230    0.80950    0.93790    1.000
    C30      C        0.57410    0.82430    0.89540    1.000
    H19      H        0.59580    0.86510    0.89920    1.000
    C31      C        0.59330    0.78140    0.84930    1.000
    H20      H        0.62670    0.79370    0.81970    1.000
    C32      C        0.52310    0.90380    0.01480    1.000
    O9       O        0.24380    0.13380    0.80810    1.000
    O10      O        0.21230    0.06120    0.88110    1.000
    N9       N        0.01120    0.99790    0.65150    1.000
    H21      H        0.99380    0.96110    0.66490    1.000
    N10      N        0.93130    0.99010    0.57600    1.000
    C33      C        0.20740    0.08730    0.82700    1.000
    C34      C        0.15610    0.06560    0.77990    1.000
    C35      C        0.11450    0.01460    0.79600    1.000
    H22      H        0.11820    0.99430    0.83740    1.000
    C36      C        0.06810    0.99330    0.75280    1.000
    H23      H        0.03970    0.95860    0.76480    1.000
    C37      C        0.06210    0.02230    0.69050    1.000
    C38      C        0.10460    0.07410    0.67570    1.000
    H24      H        0.10080    0.09580    0.63490    1.000
    C39      C        0.15070    0.09330    0.71860    1.000
    H25      H        0.18030    0.12670    0.70630    1.000
    C40      C        0.98520    0.02310    0.59620    1.000
    O11      O        0.74380    0.36620    0.19190    1.000
    O12      O        0.71230    0.43880    0.11890    1.000
    N11      N        0.51120    0.50210    0.34850    1.000
    H26      H        0.49380    0.53890    0.33510    1.000
    N12      N        0.43130    0.50990    0.42400    1.000
    C41      C        0.70740    0.41270    0.17300    1.000
    C42      C        0.65610    0.43440    0.22010    1.000
    C43      C        0.61450    0.48540    0.20400    1.000
    H27      H        0.61820    0.50570    0.16260    1.000
    C44      C        0.56810    0.50670    0.24720    1.000
    H28      H        0.53970    0.54140    0.23520    1.000
    C45      C        0.56210    0.47770    0.30950    1.000
    C46      C        0.60460    0.42590    0.32430    1.000
    H29      H        0.60080    0.40420    0.36510    1.000
    C47      C        0.65070    0.40670    0.28140    1.000
    H30      H        0.68030    0.37330    0.29370    1.000
    C48      C        0.48520    0.47690    0.40380    1.000
    O13      O        0.25620    0.86620    0.30810    1.000
    O14      O        0.28770    0.93880    0.38110    1.000
    N13      N        0.48880    0.00210    0.15150    1.000
    H31      H        0.50620    0.03890    0.16490    1.000
    N14      N        0.56870    0.00990    0.07600    1.000
    C49      C        0.29260    0.91270    0.32700    1.000
    C50      C        0.34390    0.93440    0.27990    1.000
    C51      C        0.38550    0.98540    0.29600    1.000
    H32      H        0.38180    0.00570    0.33740    1.000
    C52      C        0.43190    0.00670    0.25280    1.000
    H33      H        0.46030    0.04140    0.26480    1.000
    C53      C        0.43790    0.97770    0.19050    1.000
    C54      C        0.39540    0.92590    0.17570    1.000
    H34      H        0.39920    0.90420    0.13490    1.000
    C55      C        0.34930    0.90670    0.21860    1.000
    H35      H        0.31970    0.87330    0.20630    1.000
    C56      C        0.51480    0.97690    0.09620    1.000
    O15      O        0.75620    0.63380    0.69190    1.000
    O16      O        0.78770    0.56120    0.61890    1.000
    N15      N        0.98880    0.49790    0.84850    1.000
    H36      H        0.00620    0.46110    0.83510    1.000
    N16      N        0.06870    0.49010    0.92400    1.000
    C57      C        0.79260    0.58730    0.67300    1.000
    C58      C        0.84390    0.56560    0.72010    1.000
    C59      C        0.88550    0.51460    0.70400    1.000
    H37      H        0.88180    0.49430    0.66260    1.000
    C60      C        0.93190    0.49330    0.74720    1.000
    H38      H        0.96030    0.45860    0.73520    1.000
    C61      C        0.93790    0.52230    0.80950    1.000
    C62      C        0.89540    0.57410    0.82430    1.000
    H39      H        0.89920    0.59580    0.86510    1.000
    C63      C        0.84930    0.59330    0.78140    1.000
    H40      H        0.81970    0.62670    0.79370    1.000
    C64      C        0.01480    0.52310    0.90380    1.000
    O17      O        0.80810    0.24380    0.13380    1.000
    O18      O        0.88110    0.21230    0.06120    1.000
    N17      N        0.65150    0.01120    0.99790    1.000
    H41      H        0.66490    0.99380    0.96110    1.000
    N18      N        0.57600    0.93130    0.99010    1.000
    C65      C        0.82700    0.20740    0.08730    1.000
    C66      C        0.77990    0.15610    0.06560    1.000
    C67      C        0.79600    0.11450    0.01460    1.000
    H42      H        0.83740    0.11820    0.99430    1.000
    C68      C        0.75280    0.06810    0.99330    1.000
    H43      H        0.76480    0.03970    0.95860    1.000
    C69      C        0.69050    0.06210    0.02230    1.000
    C70      C        0.67570    0.10460    0.07410    1.000
    H44      H        0.63490    0.10080    0.09580    1.000
    C71      C        0.71860    0.15070    0.09330    1.000
    H45      H        0.70630    0.18030    0.12670    1.000
    C72      C        0.59620    0.98520    0.02310    1.000
    O19      O        0.19190    0.74380    0.36620    1.000
    O20      O        0.11890    0.71230    0.43880    1.000
    N19      N        0.34850    0.51120    0.50210    1.000
    H46      H        0.33510    0.49380    0.53890    1.000
    N20      N        0.42400    0.43130    0.50990    1.000
    C73      C        0.17300    0.70740    0.41270    1.000
    C74      C        0.22010    0.65610    0.43440    1.000
    C75      C        0.20400    0.61450    0.48540    1.000
    H47      H        0.16260    0.61820    0.50570    1.000
    C76      C        0.24720    0.56810    0.50670    1.000
    H48      H        0.23520    0.53970    0.54140    1.000
    C77      C        0.30950    0.56210    0.47770    1.000
    C78      C        0.32430    0.60460    0.42590    1.000
    H49      H        0.36510    0.60080    0.40420    1.000
    C79      C        0.28140    0.65070    0.40670    1.000
    H50      H        0.29370    0.68030    0.37330    1.000
    C80      C        0.40380    0.48520    0.47690    1.000
    O21      O        0.30810    0.25620    0.86620    1.000
    O22      O        0.38110    0.28770    0.93880    1.000
    N21      N        0.15150    0.48880    0.00210    1.000
    H51      H        0.16490    0.50620    0.03890    1.000
    N22      N        0.07600    0.56870    0.00990    1.000
    C81      C        0.32700    0.29260    0.91270    1.000
    C82      C        0.27990    0.34390    0.93440    1.000
    C83      C        0.29600    0.38550    0.98540    1.000
    H52      H        0.33740    0.38180    0.00570    1.000
    C84      C        0.25280    0.43190    0.00670    1.000
    H53      H        0.26480    0.46030    0.04140    1.000
    C85      C        0.19050    0.43790    0.97770    1.000
    C86      C        0.17570    0.39540    0.92590    1.000
    H54      H        0.13490    0.39920    0.90420    1.000
    C87      C        0.21860    0.34930    0.90670    1.000
    H55      H        0.20630    0.31970    0.87330    1.000
    C88      C        0.09620    0.51480    0.97690    1.000
    O23      O        0.69190    0.75620    0.63380    1.000
    O24      O        0.61890    0.78770    0.56120    1.000
    N23      N        0.84850    0.98880    0.49790    1.000
    H56      H        0.83510    0.00620    0.46110    1.000
    N24      N        0.92400    0.06870    0.49010    1.000
    C89      C        0.67300    0.79260    0.58730    1.000
    C90      C        0.72010    0.84390    0.56560    1.000
    C91      C        0.70400    0.88550    0.51460    1.000
    H57      H        0.66260    0.88180    0.49430    1.000
    C92      C        0.74720    0.93190    0.49330    1.000
    H58      H        0.73520    0.96030    0.45860    1.000
    C93      C        0.80950    0.93790    0.52230    1.000
    C94      C        0.82430    0.89540    0.57410    1.000
    H59      H        0.86510    0.89920    0.59580    1.000
    C95      C        0.78140    0.84930    0.59330    1.000
    H60      H        0.79370    0.81970    0.62670    1.000
    C96      C        0.90380    0.01480    0.52310    1.000
    Sm1      Sm       0.15332    0.84668    0.34668    1.000
    Sm2      Sm       0.34668    0.15332    0.84668    1.000
    Sm3      Sm       0.84668    0.34668    0.15332    1.000
    Sm4      Sm       0.65332    0.65332    0.65332    1.000
    O25      O        0.23440    0.61710    0.17940    1.000
    O26      O        0.20860    0.53320    0.11620    1.000
    N25      N        0.00730    0.49040    0.34970    1.000
    H61      H        0.98820    0.45360    0.33840    1.000
    N26      N        0.01160    0.57100    0.42950    1.000
    C97      C        0.20170    0.56620    0.16650    1.000
    C98      C        0.15190    0.54610    0.21690    1.000
    C99      C        0.14700    0.57850    0.27490    1.000
    H62      H        0.17590    0.61360    0.28370    1.000
    C100     C        0.10070    0.56140    0.32110    1.000
    H63      H        0.09840    0.58420    0.36140    1.000
    C101     C        0.05760    0.51040    0.30800    1.000
    C102     C        0.06260    0.47770    0.24830    1.000
    H64      H        0.03330    0.44310    0.23860    1.000
    C103     C        0.10900    0.49480    0.20400    1.000
    H65      H        0.11230    0.47170    0.16400    1.000
    C104     C        0.98330    0.51820    0.40460    1.000
    O27      O        0.26560    0.38290    0.67940    1.000
    O28      O        0.29140    0.46680    0.61620    1.000
    N27      N        0.49270    0.50960    0.84970    1.000
    H66      H        0.51180    0.54640    0.83840    1.000
    N28      N        0.48840    0.42900    0.92950    1.000
    C105     C        0.29830    0.43380    0.66650    1.000
    C106     C        0.34810    0.45390    0.71690    1.000
    C107     C        0.35300    0.42150    0.77490    1.000
    H67      H        0.32410    0.38640    0.78370    1.000
    C108     C        0.39930    0.43860    0.82110    1.000
    H68      H        0.40160    0.41580    0.86140    1.000
    C109     C        0.44240    0.48960    0.80800    1.000
    C110     C        0.43740    0.52230    0.74830    1.000
    H69      H        0.46670    0.55690    0.73860    1.000
    C111     C        0.39100    0.50520    0.70400    1.000
    H70      H        0.38770    0.52830    0.66400    1.000
    C112     C        0.51670    0.48180    0.90460    1.000
    O29      O        0.76560    0.11710    0.32060    1.000
    O30      O        0.79140    0.03320    0.38380    1.000
    N29      N        0.99270    0.99040    0.15030    1.000
    H71      H        0.01180    0.95360    0.16160    1.000
    N30      N        0.98840    0.07100    0.07050    1.000
    C113     C        0.79830    0.06620    0.33350    1.000
    C114     C        0.84810    0.04610    0.28310    1.000
    C115     C        0.85300    0.07850    0.22510    1.000
    H72      H        0.82410    0.11360    0.21630    1.000
    C116     C        0.89930    0.06140    0.17890    1.000
    H73      H        0.90160    0.08420    0.13860    1.000
    C117     C        0.94240    0.01040    0.19200    1.000
    C118     C        0.93740    0.97770    0.25170    1.000
    H74      H        0.96670    0.94310    0.26140    1.000
    C119     C        0.89100    0.99480    0.29600    1.000
    H75      H        0.88770    0.97170    0.33600    1.000
    C120     C        0.01670    0.01820    0.09540    1.000
    O31      O        0.73440    0.88290    0.82060    1.000
    O32      O        0.70860    0.96680    0.88380    1.000
    N31      N        0.50730    0.00960    0.65030    1.000
    H76      H        0.48820    0.04640    0.66160    1.000
    N32      N        0.51160    0.92900    0.57050    1.000
    C121     C        0.70170    0.93380    0.83350    1.000
    C122     C        0.65190    0.95390    0.78310    1.000
    C123     C        0.64700    0.92150    0.72510    1.000
    H77      H        0.67590    0.88640    0.71630    1.000
    C124     C        0.60070    0.93860    0.67890    1.000
    H78      H        0.59840    0.91580    0.63860    1.000
    C125     C        0.55760    0.98960    0.69200    1.000
    C126     C        0.56260    0.02230    0.75170    1.000
    H79      H        0.53330    0.05690    0.76140    1.000
    C127     C        0.60900    0.00520    0.79600    1.000
    H80      H        0.61230    0.02830    0.83600    1.000
    C128     C        0.48330    0.98180    0.59540    1.000
    O33      O        0.17940    0.23440    0.61710    1.000
    O34      O        0.11620    0.20860    0.53320    1.000
    N33      N        0.34970    0.00730    0.49040    1.000
    H81      H        0.33840    0.98820    0.45360    1.000
    N34      N        0.42950    0.01160    0.57100    1.000
    C129     C        0.16650    0.20170    0.56620    1.000
    C130     C        0.21690    0.15190    0.54610    1.000
    C131     C        0.27490    0.14700    0.57850    1.000
    H82      H        0.28370    0.17590    0.61360    1.000
    C132     C        0.32110    0.10070    0.56140    1.000
    H83      H        0.36140    0.09840    0.58420    1.000
    C133     C        0.30800    0.05760    0.51040    1.000
    C134     C        0.24830    0.06260    0.47770    1.000
    H84      H        0.23860    0.03330    0.44310    1.000
    C135     C        0.20400    0.10900    0.49480    1.000
    H85      H        0.16400    0.11230    0.47170    1.000
    C136     C        0.40460    0.98330    0.51820    1.000
    O35      O        0.67940    0.26560    0.38290    1.000
    O36      O        0.61620    0.29140    0.46680    1.000
    N35      N        0.84970    0.49270    0.50960    1.000
    H86      H        0.83840    0.51180    0.54640    1.000
    N36      N        0.92950    0.48840    0.42900    1.000
    C137     C        0.66650    0.29830    0.43380    1.000
    C138     C        0.71690    0.34810    0.45390    1.000
    C139     C        0.77490    0.35300    0.42150    1.000
    H87      H        0.78370    0.32410    0.38640    1.000
    C140     C        0.82110    0.39930    0.43860    1.000
    H88      H        0.86140    0.40160    0.41580    1.000
    C141     C        0.80800    0.44240    0.48960    1.000
    C142     C        0.74830    0.43740    0.52230    1.000
    H89      H        0.73860    0.46670    0.55690    1.000
    C143     C        0.70400    0.39100    0.50520    1.000
    H90      H        0.66400    0.38770    0.52830    1.000
    C144     C        0.90460    0.51670    0.48180    1.000
    O37      O        0.32060    0.76560    0.11710    1.000
    O38      O        0.38380    0.79140    0.03320    1.000
    N37      N        0.15030    0.99270    0.99040    1.000
    H91      H        0.16160    0.01180    0.95360    1.000
    N38      N        0.07050    0.98840    0.07100    1.000
    C145     C        0.33350    0.79830    0.06620    1.000
    C146     C        0.28310    0.84810    0.04610    1.000
    C147     C        0.22510    0.85300    0.07850    1.000
    H92      H        0.21630    0.82410    0.11360    1.000
    C148     C        0.17890    0.89930    0.06140    1.000
    H93      H        0.13860    0.90160    0.08420    1.000
    C149     C        0.19200    0.94240    0.01040    1.000
    C150     C        0.25170    0.93740    0.97770    1.000
    H94      H        0.26140    0.96670    0.94310    1.000
    C151     C        0.29600    0.89100    0.99480    1.000
    H95      H        0.33600    0.88770    0.97170    1.000
    C152     C        0.09540    0.01670    0.01820    1.000
    O39      O        0.82060    0.73440    0.88290    1.000
    O40      O        0.88380    0.70860    0.96680    1.000
    N39      N        0.65030    0.50730    0.00960    1.000
    H96      H        0.66160    0.48820    0.04640    1.000
    N40      N        0.57050    0.51160    0.92900    1.000
    C153     C        0.83350    0.70170    0.93380    1.000
    C154     C        0.78310    0.65190    0.95390    1.000
    C155     C        0.72510    0.64700    0.92150    1.000
    H97      H        0.71630    0.67590    0.88640    1.000
    C156     C        0.67890    0.60070    0.93860    1.000
    H98      H        0.63860    0.59840    0.91580    1.000
    C157     C        0.69200    0.55760    0.98960    1.000
    C158     C        0.75170    0.56260    0.02230    1.000
    H99      H        0.76140    0.53330    0.05690    1.000
    C159     C        0.79600    0.60900    0.00520    1.000
    H100     H        0.83600    0.61230    0.02830    1.000
    C160     C        0.59540    0.48330    0.98180    1.000
    O41      O        0.61710    0.17940    0.23440    1.000
    O42      O        0.53320    0.11620    0.20860    1.000
    N41      N        0.49040    0.34970    0.00730    1.000
    H101     H        0.45360    0.33840    0.98820    1.000
    N42      N        0.57100    0.42950    0.01160    1.000
    C161     C        0.56620    0.16650    0.20170    1.000
    C162     C        0.54610    0.21690    0.15190    1.000
    C163     C        0.57850    0.27490    0.14700    1.000
    H102     H        0.61360    0.28370    0.17590    1.000
    C164     C        0.56140    0.32110    0.10070    1.000
    H103     H        0.58420    0.36140    0.09840    1.000
    C165     C        0.51040    0.30800    0.05760    1.000
    C166     C        0.47770    0.24830    0.06260    1.000
    H104     H        0.44310    0.23860    0.03330    1.000
    C167     C        0.49480    0.20400    0.10900    1.000
    H105     H        0.47170    0.16400    0.11230    1.000
    C168     C        0.51820    0.40460    0.98330    1.000
    O43      O        0.38290    0.67940    0.26560    1.000
    O44      O        0.46680    0.61620    0.29140    1.000
    N43      N        0.50960    0.84970    0.49270    1.000
    H106     H        0.54640    0.83840    0.51180    1.000
    N44      N        0.42900    0.92950    0.48840    1.000
    C169     C        0.43380    0.66650    0.29830    1.000
    C170     C        0.45390    0.71690    0.34810    1.000
    C171     C        0.42150    0.77490    0.35300    1.000
    H107     H        0.38640    0.78370    0.32410    1.000
    C172     C        0.43860    0.82110    0.39930    1.000
    H108     H        0.41580    0.86140    0.40160    1.000
    C173     C        0.48960    0.80800    0.44240    1.000
    C174     C        0.52230    0.74830    0.43740    1.000
    H109     H        0.55690    0.73860    0.46670    1.000
    C175     C        0.50520    0.70400    0.39100    1.000
    H110     H        0.52830    0.66400    0.38770    1.000
    C176     C        0.48180    0.90460    0.51670    1.000
    O45      O        0.11710    0.32060    0.76560    1.000
    O46      O        0.03320    0.38380    0.79140    1.000
    N45      N        0.99040    0.15030    0.99270    1.000
    H111     H        0.95360    0.16160    0.01180    1.000
    N46      N        0.07100    0.07050    0.98840    1.000
    C177     C        0.06620    0.33350    0.79830    1.000
    C178     C        0.04610    0.28310    0.84810    1.000
    C179     C        0.07850    0.22510    0.85300    1.000
    H112     H        0.11360    0.21630    0.82410    1.000
    C180     C        0.06140    0.17890    0.89930    1.000
    H113     H        0.08420    0.13860    0.90160    1.000
    C181     C        0.01040    0.19200    0.94240    1.000
    C182     C        0.97770    0.25170    0.93740    1.000
    H114     H        0.94310    0.26140    0.96670    1.000
    C183     C        0.99480    0.29600    0.89100    1.000
    H115     H        0.97170    0.33600    0.88770    1.000
    C184     C        0.01820    0.09540    0.01670    1.000
    O47      O        0.88290    0.82060    0.73440    1.000
    O48      O        0.96680    0.88380    0.70860    1.000
    N47      N        0.00960    0.65030    0.50730    1.000
    H116     H        0.04640    0.66160    0.48820    1.000
    N48      N        0.92900    0.57050    0.51160    1.000
    C185     C        0.93380    0.83350    0.70170    1.000
    C186     C        0.95390    0.78310    0.65190    1.000
    C187     C        0.92150    0.72510    0.64700    1.000
    H117     H        0.88640    0.71630    0.67590    1.000
    C188     C        0.93860    0.67890    0.60070    1.000
    H118     H        0.91580    0.63860    0.59840    1.000
    C189     C        0.98960    0.69200    0.55760    1.000
    C190     C        0.02230    0.75170    0.56260    1.000
    H119     H        0.05690    0.76140    0.53330    1.000
    C191     C        0.00520    0.79600    0.60900    1.000
    H120     H        0.02830    0.83600    0.61230    1.000
    C192     C        0.98180    0.59540    0.48330    1.000
    Sm5      Sm       0.33357    0.66643    0.16643    1.000
    Sm6      Sm       0.16643    0.33357    0.66643    1.000
    Sm7      Sm       0.66643    0.16643    0.33357    1.000
    Sm8      Sm       0.83357    0.83357    0.83357    1.000
