# CIF file generated by openbabel 3.1.0, see https://openbabel.org
data_I
_chemical_name_common 'XUMVAD_clean'
_cell_length_a 13.7038
_cell_length_b 13.7038
_cell_length_c 16.2156
_cell_angle_alpha 66.6203
_cell_angle_beta 66.6203
_cell_angle_gamma 74.9858
_space_group_name_H-M_alt 'P 1'
_space_group_name_Hall 'P 1'
loop_
    _symmetry_equiv_pos_as_xyz
    x,y,z
loop_
    _atom_site_label
    _atom_site_type_symbol
    _atom_site_fract_x
    _atom_site_fract_y
    _atom_site_fract_z
    _atom_site_occupancy
    Dy1      Dy       0.45462    0.16301    0.49778    1.000
    Dy2      Dy       0.83699    0.54538    0.00222    1.000
    Dy3      Dy       0.54538    0.83699    0.50222    1.000
    Dy4      Dy       0.16301    0.45462    0.99778    1.000
    H1       H        0.22500    0.33780    0.74430    1.000
    H2       H        0.91850    0.46050    0.77680    1.000
    H3       H        0.09080    0.34420    0.56260    1.000
    H4       H        0.12880    0.07920    0.65430    1.000
    H5       H        0.66220    0.77500    0.75570    1.000
    H6       H        0.53950    0.08150    0.72320    1.000
    H7       H        0.65580    0.90920    0.93740    1.000
    H8       H        0.92080    0.87120    0.84570    1.000
    H9       H        0.77500    0.66220    0.25570    1.000
    H10      H        0.08150    0.53950    0.22320    1.000
    H11      H        0.90920    0.65580    0.43740    1.000
    H12      H        0.87120    0.92080    0.34570    1.000
    H13      H        0.33780    0.22500    0.24430    1.000
    H14      H        0.46050    0.91850    0.27680    1.000
    H15      H        0.34420    0.09080    0.06260    1.000
    H16      H        0.07920    0.12880    0.15430    1.000
    H17      H        0.23310    0.76690    0.75000    1.000
    H18      H        0.76690    0.23310    0.25000    1.000
    C1       C        0.27640    0.27820    0.59050    1.000
    C2       C        0.17410    0.33170    0.64520    1.000
    C3       C        0.16610    0.35530    0.72420    1.000
    C4       C        0.07120    0.40440    0.77320    1.000
    C5       C        0.98290    0.42850    0.74430    1.000
    C6       C        0.99210    0.40430    0.66670    1.000
    C7       C        0.08650    0.35770    0.61590    1.000
    C8       C        0.06360    0.42900    0.85780    1.000
    C9       C        0.31050    0.94950    0.62420    1.000
    C10      C        0.19880    0.92600    0.68990    1.000
    C11      C        0.11570    0.00910    0.69180    1.000
    C12      C        0.72180    0.72360    0.90950    1.000
    C13      C        0.66830    0.82590    0.85480    1.000
    C14      C        0.64470    0.83390    0.77580    1.000
    C15      C        0.59560    0.92880    0.72680    1.000
    C16      C        0.57150    0.01710    0.75570    1.000
    C17      C        0.59570    0.00790    0.83330    1.000
    C18      C        0.64230    0.91350    0.88410    1.000
    C19      C        0.57100    0.93640    0.64220    1.000
    C20      C        0.05050    0.68950    0.87580    1.000
    C21      C        0.07400    0.80120    0.81010    1.000
    C22      C        0.99090    0.88430    0.80820    1.000
    C23      C        0.72360    0.72180    0.40950    1.000
    C24      C        0.82590    0.66830    0.35480    1.000
    C25      C        0.83390    0.64470    0.27580    1.000
    C26      C        0.92880    0.59560    0.22680    1.000
    C27      C        0.01710    0.57150    0.25570    1.000
    C28      C        0.00790    0.59570    0.33330    1.000
    C29      C        0.91350    0.64230    0.38410    1.000
    C30      C        0.93640    0.57100    0.14220    1.000
    C31      C        0.68950    0.05050    0.37580    1.000
    C32      C        0.80120    0.07400    0.31010    1.000
    C33      C        0.88430    0.99090    0.30820    1.000
    C34      C        0.27820    0.27640    0.09050    1.000
    C35      C        0.33170    0.17410    0.14520    1.000
    C36      C        0.35530    0.16610    0.22420    1.000
    C37      C        0.40440    0.07120    0.27320    1.000
    C38      C        0.42850    0.98290    0.24430    1.000
    C39      C        0.40430    0.99210    0.16670    1.000
    C40      C        0.35770    0.08650    0.11590    1.000
    C41      C        0.42900    0.06360    0.35780    1.000
    C42      C        0.94950    0.31050    0.12420    1.000
    C43      C        0.92600    0.19880    0.18990    1.000
    C44      C        0.00910    0.11570    0.19180    1.000
    C45      C        0.17730    0.82270    0.75000    1.000
    C46      C        0.01370    0.98630    0.75000    1.000
    C47      C        0.82270    0.17730    0.25000    1.000
    C48      C        0.98630    0.01370    0.25000    1.000
    N1       N        0.89900    0.42760    0.63480    1.000
    N2       N        0.57240    0.10100    0.86520    1.000
    N3       N        0.10100    0.57240    0.36520    1.000
    N4       N        0.42760    0.89900    0.13480    1.000
    N5       N        0.92580    0.07420    0.75000    1.000
    N6       N        0.07420    0.92580    0.25000    1.000
    O1       O        0.28010    0.27170    0.51470    1.000
    O2       O        0.35090    0.23750    0.62500    1.000
    O3       O        0.14680    0.41020    0.87800    1.000
    O4       O        0.97350    0.46930    0.90090    1.000
    O5       O        0.91110    0.41730    0.56140    1.000
    O6       O        0.81400    0.45860    0.68610    1.000
    O7       O        0.32580    0.04640    0.58660    1.000
    O8       O        0.37870    0.87230    0.61120    1.000
    O9       O        0.83560    0.05200    0.79730    1.000
    O10      O        0.72830    0.71990    0.98530    1.000
    O11      O        0.76250    0.64910    0.87500    1.000
    O12      O        0.58980    0.85320    0.62200    1.000
    O13      O        0.53070    0.02650    0.59910    1.000
    O14      O        0.58270    0.08890    0.93860    1.000
    O15      O        0.54140    0.18600    0.81390    1.000
    O16      O        0.95360    0.67420    0.91340    1.000
    O17      O        0.12770    0.62130    0.88880    1.000
    O18      O        0.94800    0.16440    0.70270    1.000
    O19      O        0.71990    0.72830    0.48530    1.000
    O20      O        0.64910    0.76250    0.37500    1.000
    O21      O        0.85320    0.58980    0.12200    1.000
    O22      O        0.02650    0.53070    0.09910    1.000
    O23      O        0.08890    0.58270    0.43860    1.000
    O24      O        0.18600    0.54140    0.31390    1.000
    O25      O        0.67420    0.95360    0.41340    1.000
    O26      O        0.62130    0.12770    0.38880    1.000
    O27      O        0.16440    0.94800    0.20270    1.000
    O28      O        0.27170    0.28010    0.01470    1.000
    O29      O        0.23750    0.35090    0.12500    1.000
    O30      O        0.41020    0.14680    0.37800    1.000
    O31      O        0.46930    0.97350    0.40090    1.000
    O32      O        0.41730    0.91110    0.06140    1.000
    O33      O        0.45860    0.81400    0.18610    1.000
    O34      O        0.04640    0.32580    0.08660    1.000
    O35      O        0.87230    0.37870    0.11120    1.000
    O36      O        0.05200    0.83560    0.29730    1.000
