data_functionalizedCrystal
_audit_creation_method	'EQeq! by Chris Wilmer'
_symmetry_space_group_name_H-M	'P1'
_symmetry_Int_Tables_number	1
_symmetry_cell_setting	triclinic
loop_
_symmetry_equiv_pos_as_xyz
  x,y,z
_cell_length_a	10.6678
_cell_length_b	10.6678
_cell_length_c	10.6678
_cell_angle_alpha	105.965
_cell_angle_beta	105.965
_cell_angle_gamma	105.965
loop_
_atom_site_label
_atom_site_type_symbol
_atom_site_fract_x
_atom_site_fract_y
_atom_site_fract_z
_atom_site_charge
Mof_Cd	Cd	0.98507	0.25033	0.71544	0.497
Mof_Cd	Cd	0.71544	0.98507	0.25033	0.497
Mof_Cd	Cd	0.25033	0.71544	0.98507	0.497
Mof_Cd	Cd	0.01493	0.74967	0.28456	0.497
Mof_Cd	Cd	0.28456	0.01493	0.74967	0.497
Mof_Cd	Cd	0.74967	0.28456	0.01493	0.497
Mof_H 	H 	0.3012	0.3579	0.136	0.243
Mof_H 	H 	0.1369	0.2908	0.0608	0.241
Mof_H 	H 	0.136	0.3012	0.3579	0.243
Mof_H 	H 	0.0608	0.1369	0.2908	0.241
Mof_H 	H 	0.3579	0.136	0.3012	0.243
Mof_H 	H 	0.2908	0.0608	0.1369	0.241
Mof_H 	H 	0.6988	0.6421	0.864	0.243
Mof_H 	H 	0.8631	0.7092	0.9392	0.241
Mof_H 	H 	0.864	0.6988	0.6421	0.243
Mof_H 	H 	0.9392	0.8631	0.7092	0.241
Mof_H 	H 	0.6421	0.864	0.6988	0.243
Mof_H 	H 	0.7092	0.9392	0.8631	0.241
Mof_C 	C 	0.2353	0.2177	0.9347	0.481
Mof_C 	C 	0.2237	0.3307	0.0481	-0.645
Mof_C 	C 	0.2253	0.4612	0.0183	0.487
Mof_C 	C 	0.9347	0.2353	0.2177	0.481
Mof_C 	C 	0.0481	0.2237	0.3307	-0.645
Mof_C 	C 	0.0183	0.2253	0.4612	0.487
Mof_C 	C 	0.2177	0.9347	0.2353	0.481
Mof_C 	C 	0.3307	0.0481	0.2237	-0.645
Mof_C 	C 	0.4612	0.0183	0.2253	0.487
Mof_C 	C 	0.7647	0.7823	0.0653	0.481
Mof_C 	C 	0.7763	0.6693	0.9519	-0.645
Mof_C 	C 	0.7747	0.5388	0.9817	0.487
Mof_C 	C 	0.0653	0.7647	0.7823	0.481
Mof_C 	C 	0.9519	0.7763	0.6693	-0.645
Mof_C 	C 	0.9817	0.7747	0.5388	0.487
Mof_C 	C 	0.7823	0.0653	0.7647	0.481
Mof_C 	C 	0.6693	0.9519	0.7763	-0.645
Mof_C 	C 	0.5388	0.9817	0.7747	0.487
Mof_O 	O 	0.1446	0.1642	0.811	-0.337
Mof_O 	O 	0.3337	0.1771	0.9678	-0.329
Mof_O 	O 	0.1343	0.4514	0.9076	-0.325
Mof_O 	O 	0.3167	0.5781	0.1055	-0.313
Mof_O 	O 	0.811	0.1446	0.1642	-0.337
Mof_O 	O 	0.9678	0.3337	0.1771	-0.329
Mof_O 	O 	0.9076	0.1343	0.4514	-0.325
Mof_O 	O 	0.1055	0.3167	0.5781	-0.313
Mof_O 	O 	0.1642	0.811	0.1446	-0.337
Mof_O 	O 	0.1771	0.9678	0.3337	-0.329
Mof_O 	O 	0.4514	0.9076	0.1343	-0.325
Mof_O 	O 	0.5781	0.1055	0.3167	-0.313
Mof_O 	O 	0.8554	0.8358	0.189	-0.337
Mof_O 	O 	0.6663	0.8229	0.0322	-0.329
Mof_O 	O 	0.8657	0.5486	0.0924	-0.325
Mof_O 	O 	0.6833	0.4219	0.8945	-0.313
Mof_O 	O 	0.189	0.8554	0.8358	-0.337
Mof_O 	O 	0.0322	0.6663	0.8229	-0.329
Mof_O 	O 	0.0924	0.8657	0.5486	-0.325
Mof_O 	O 	0.8945	0.6833	0.4219	-0.313
Mof_O 	O 	0.8358	0.189	0.8554	-0.337
Mof_O 	O 	0.8229	0.0322	0.6663	-0.329
Mof_O 	O 	0.5486	0.0924	0.8657	-0.325
Mof_O 	O 	0.4219	0.8945	0.6833	-0.313
_end
