data_functionalizedCrystal
_audit_creation_method	'EQeq! by Chris Wilmer'
_symmetry_space_group_name_H-M	'P1'
_symmetry_Int_Tables_number	1
_symmetry_cell_setting	triclinic
loop_
_symmetry_equiv_pos_as_xyz
  x,y,z
_cell_length_a	13.577
_cell_length_b	13.577
_cell_length_c	15.5394
_cell_angle_alpha	90
_cell_angle_beta	90
_cell_angle_gamma	90
loop_
_atom_site_label
_atom_site_type_symbol
_atom_site_fract_x
_atom_site_fract_y
_atom_site_fract_z
_atom_site_charge
Mof_S 	S 	0.2233	0.28496	0.10754	0.022
Mof_O 	O 	0.3067	0.1052	0.2903	-0.509
Mof_O 	O 	0.3529	0.1149	0.156	-0.477
Mof_O 	O 	0.0262	0.497	0.1233	-0.499
Mof_O 	O 	0.1207	0.4531	0.0155	-0.456
Mof_C 	C 	0.23	0.2249	0.2036	-0.095
Mof_C 	C 	0.1652	0.2625	0.2627	-0.027
Mof_H 	H 	0.1554	0.2368	0.3175	0.042
Mof_C 	C 	0.115	0.3457	0.2293	-0.025
Mof_H 	H 	0.0715	0.3836	0.2615	0.045
Mof_C 	C 	0.1366	0.3644	0.1464	-0.088
Mof_C 	C 	0.2998	0.1432	0.2167	0.326
Mof_C 	C 	0.0925	0.4429	0.0913	0.313
Mof_S 	S 	0.7767	0.71504	0.60754	0.161
Mof_O 	O 	0.6933	0.8948	0.7903	-0.382
Mof_O 	O 	0.6471	0.8851	0.656	-0.305
Mof_O 	O 	0.9738	0.503	0.6233	-0.347
Mof_O 	O 	0.8793	0.5469	0.5155	-0.334
Mof_C 	C 	0.77	0.7751	0.7036	-0.056
Mof_C 	C 	0.8348	0.7375	0.7627	0.006
Mof_H 	H 	0.8446	0.7632	0.8175	0.093
Mof_C 	C 	0.885	0.6543	0.7293	0
Mof_H 	H 	0.9285	0.6164	0.7615	0.099
Mof_C 	C 	0.8634	0.6356	0.6464	-0.048
Mof_C 	C 	0.7002	0.8568	0.7167	0.325
Mof_C 	C 	0.9075	0.5571	0.5913	0.311
Mof_S 	S 	0.71504	0.2233	0.35754	0.101
Mof_O 	O 	0.8948	0.3067	0.5403	-0.402
Mof_O 	O 	0.8851	0.3529	0.406	-0.319
Mof_O 	O 	0.503	0.0262	0.3733	-0.504
Mof_O 	O 	0.5469	0.1207	0.2655	-0.442
Mof_C 	C 	0.7751	0.23	0.4536	-0.06
Mof_C 	C 	0.7375	0.1652	0.5127	-0.031
Mof_H 	H 	0.7632	0.1554	0.5675	0.067
Mof_C 	C 	0.6543	0.115	0.4793	-0.001
Mof_H 	H 	0.6164	0.0715	0.5115	0.043
Mof_C 	C 	0.6356	0.1366	0.3964	-0.094
Mof_C 	C 	0.8568	0.2998	0.4667	0.313
Mof_C 	C 	0.5571	0.0925	0.3413	0.325
Mof_S 	S 	0.28496	0.7767	0.85754	0.097
Mof_O 	O 	0.1052	0.6933	0.0403	-0.509
Mof_O 	O 	0.1149	0.6471	0.906	-0.448
Mof_O 	O 	0.497	0.9738	0.8733	-0.347
Mof_O 	O 	0.4531	0.8793	0.7655	-0.346
Mof_C 	C 	0.2249	0.77	0.9536	-0.018
Mof_C 	C 	0.2625	0.8348	0.0127	-0.162
Mof_H 	H 	0.2368	0.8446	0.0675	0.12
Mof_C 	C 	0.3457	0.885	0.9793	0.165
Mof_H 	H 	0.3836	0.9285	0.0115	0.011
Mof_C 	C 	0.3644	0.8634	0.8964	-0.103
Mof_C 	C 	0.1432	0.7002	0.9667	0.354
Mof_C 	C 	0.4429	0.9075	0.8413	0.327
Mof_S 	S 	0.7767	0.28496	0.89246	0.103
Mof_O 	O 	0.6933	0.1052	0.7097	-0.495
Mof_O 	O 	0.6471	0.1149	0.844	-0.46
Mof_O 	O 	0.9738	0.497	0.8767	-0.33
Mof_O 	O 	0.8793	0.4531	0.9845	-0.318
Mof_C 	C 	0.77	0.2249	0.7964	-0.095
Mof_C 	C 	0.8348	0.2625	0.7373	0.013
Mof_H 	H 	0.8446	0.2368	0.6825	0.064
Mof_C 	C 	0.885	0.3457	0.7707	-0.025
Mof_H 	H 	0.9285	0.3836	0.7385	0.1
Mof_C 	C 	0.8634	0.3644	0.8536	-0.039
Mof_C 	C 	0.7002	0.1432	0.7833	0.341
Mof_C 	C 	0.9075	0.4429	0.9087	0.298
Mof_S 	S 	0.2233	0.71504	0.39246	0.107
Mof_O 	O 	0.3067	0.8948	0.2097	-0.401
Mof_O 	O 	0.3529	0.8851	0.344	-0.313
Mof_O 	O 	0.0262	0.503	0.3767	-0.504
Mof_O 	O 	0.1207	0.5469	0.4845	-0.439
Mof_C 	C 	0.23	0.7751	0.2964	-0.062
Mof_C 	C 	0.1652	0.7375	0.2373	-0.029
Mof_H 	H 	0.1554	0.7632	0.1825	0.064
Mof_C 	C 	0.115	0.6543	0.2707	-0.002
Mof_H 	H 	0.0715	0.6164	0.2385	0.045
Mof_C 	C 	0.1366	0.6356	0.3536	-0.093
Mof_C 	C 	0.2998	0.8568	0.2833	0.313
Mof_C 	C 	0.0925	0.5571	0.4087	0.325
Mof_S 	S 	0.28496	0.2233	0.64246	0.042
Mof_O 	O 	0.1052	0.3067	0.4597	-0.51
Mof_O 	O 	0.1149	0.3529	0.594	-0.47
Mof_O 	O 	0.497	0.0262	0.6267	-0.505
Mof_O 	O 	0.4531	0.1207	0.7345	-0.447
Mof_C 	C 	0.2249	0.23	0.5464	-0.096
Mof_C 	C 	0.2625	0.1652	0.4873	-0.026
Mof_H 	H 	0.2368	0.1554	0.4325	0.041
Mof_C 	C 	0.3457	0.115	0.5207	-0.025
Mof_H 	H 	0.3836	0.0715	0.4885	0.045
Mof_C 	C 	0.3644	0.1366	0.6036	-0.087
Mof_C 	C 	0.1432	0.2998	0.5333	0.328
Mof_C 	C 	0.4429	0.0925	0.6587	0.314
Mof_S 	S 	0.71504	0.7767	0.14246	0.155
Mof_O 	O 	0.8948	0.6933	0.9597	-0.352
Mof_O 	O 	0.8851	0.6471	0.094	-0.303
Mof_O 	O 	0.503	0.9738	0.1267	-0.34
Mof_O 	O 	0.5469	0.8793	0.2345	-0.324
Mof_C 	C 	0.7751	0.77	0.0464	-0.131
Mof_C 	C 	0.7375	0.8348	0.9873	0.174
Mof_H 	H 	0.7632	0.8446	0.9325	0.036
Mof_C 	C 	0.6543	0.885	0.0207	-0.186
Mof_H 	H 	0.6164	0.9285	0.9885	0.185
Mof_C 	C 	0.6356	0.8634	0.1036	0.013
Mof_C 	C 	0.8568	0.7002	0.0333	0.31
Mof_C 	C 	0.5571	0.9075	0.1587	0.283
Mof_In	In	0.42385	0	0.25	1.881
Mof_In	In	0.57615	0	0.75	1.888
Mof_In	In	-6.66702e-33	0.42385	0.5	1.902
Mof_In	In	-0	0.57615	-0	1.805
_end
