# CIF file generated by openbabel 3.1.0, see https://openbabel.org
data_I
_chemical_name_common 'image0'
_cell_length_a 11.0644
_cell_length_b 13.989
_cell_length_c 18.3866
_cell_angle_alpha 90
_cell_angle_beta 103.381
_cell_angle_gamma 90
_space_group_name_H-M_alt 'P 1'
_space_group_name_Hall 'P 1'
loop_
    _symmetry_equiv_pos_as_xyz
    x,y,z
loop_
    _atom_site_label
    _atom_site_type_symbol
    _atom_site_fract_x
    _atom_site_fract_y
    _atom_site_fract_z
    _atom_site_occupancy
    V1       V        0.97910    0.22070    0.27505    1.000
    V2       V        0.21977    0.46372    0.22693    1.000
    P1       P        0.25030    0.31043    0.35998    1.000
    P2       P        0.74095    0.16729    0.14219    1.000
    P3       P        0.03491    0.43901    0.33747    1.000
    P4       P        0.95681    0.03978    0.16414    1.000
    F1       F        0.60990    0.25260    0.43305    1.000
    F2       F        0.38600    0.22641    0.06401    1.000
    O1       O        0.35290    0.25610    0.41243    1.000
    O2       O        0.30330    0.37962    0.31007    1.000
    O3       O        0.09940    0.49788    0.28622    1.000
    O4       O        0.95760    0.50130    0.37574    1.000
    O5       O        0.95790    0.35838    0.29108    1.000
    O6       O        0.16220    0.23777    0.31203    1.000
    O7       O        0.03150    0.11850    0.21339    1.000
    O8       O        0.82710    0.23723    0.19486    1.000
    O9       O        0.03700    0.98019    0.12610    1.000
    O10      O        0.88960    0.97760    0.21187    1.000
    O11      O        0.68300    0.09522    0.18737    1.000
    O12      O        0.64220    0.22510    0.08990    1.000
    O13      O        0.14740    0.39420    0.16281    1.000
    C1       C        0.15880    0.38290    0.40670    1.000
    H1       H        0.21060    0.43160    0.43610    1.000
    H2       H        0.12370    0.34380    0.44020    1.000
    C2       C        0.83780    0.09920    0.09490    1.000
    H3       H        0.87570    0.14130    0.06460    1.000
    H4       H        0.78800    0.05230    0.06220    1.000
    O14      O        0.39600    0.57860    0.28020    1.000
    O15      O        0.06700    0.31100    0.16030    1.000
    V3       V        0.01550    0.25700    0.22730    1.000
    V4       V        0.27380    0.51440    0.27350    1.000
    V5       V        0.47910    0.72070    0.27505    1.000
    V6       V        0.71977    0.96372    0.22693    1.000
    P5       P        0.75030    0.81043    0.35998    1.000
    P6       P        0.24095    0.66729    0.14219    1.000
    P7       P        0.53491    0.93901    0.33747    1.000
    P8       P        0.45681    0.53978    0.16414    1.000
    F3       F        0.10990    0.75260    0.43305    1.000
    F4       F        0.88600    0.72641    0.06401    1.000
    O16      O        0.85290    0.75610    0.41243    1.000
    O17      O        0.80330    0.87962    0.31007    1.000
    O18      O        0.59940    0.99788    0.28622    1.000
    O19      O        0.45760    0.00130    0.37574    1.000
    O20      O        0.45790    0.85838    0.29108    1.000
    O21      O        0.66220    0.73777    0.31203    1.000
    O22      O        0.53150    0.61850    0.21339    1.000
    O23      O        0.32710    0.73723    0.19486    1.000
    O24      O        0.53700    0.48019    0.12610    1.000
    O25      O        0.38960    0.47760    0.21187    1.000
    O26      O        0.18300    0.59522    0.18737    1.000
    O27      O        0.14220    0.72510    0.08990    1.000
    O28      O        0.64740    0.89420    0.16281    1.000
    C3       C        0.65880    0.88290    0.40670    1.000
    H5       H        0.71060    0.93160    0.43610    1.000
    H6       H        0.62370    0.84380    0.44020    1.000
    C4       C        0.33780    0.59920    0.09490    1.000
    H7       H        0.37570    0.64130    0.06460    1.000
    H8       H        0.28800    0.55230    0.06220    1.000
    O29      O        0.89600    0.07860    0.28020    1.000
    O30      O        0.56700    0.81100    0.16030    1.000
    V7       V        0.51550    0.75700    0.22730    1.000
    V8       V        0.77380    0.01440    0.27350    1.000
    V9       V        0.02090    0.22070    0.72495    1.000
    V10      V        0.78023    0.46372    0.77307    1.000
    P9       P        0.74970    0.31043    0.64002    1.000
    P10      P        0.25905    0.16729    0.85781    1.000
    P11      P        0.96509    0.43901    0.66253    1.000
    P12      P        0.04319    0.03978    0.83586    1.000
    F5       F        0.39010    0.25260    0.56695    1.000
    F6       F        0.61400    0.22641    0.93599    1.000
    O31      O        0.64710    0.25610    0.58757    1.000
    O32      O        0.69670    0.37962    0.68993    1.000
    O33      O        0.90060    0.49788    0.71378    1.000
    O34      O        0.04240    0.50130    0.62426    1.000
    O35      O        0.04210    0.35838    0.70892    1.000
    O36      O        0.83780    0.23777    0.68797    1.000
    O37      O        0.96850    0.11850    0.78661    1.000
    O38      O        0.17290    0.23723    0.80514    1.000
    O39      O        0.96300    0.98019    0.87390    1.000
    O40      O        0.11040    0.97760    0.78813    1.000
    O41      O        0.31700    0.09522    0.81263    1.000
    O42      O        0.35780    0.22510    0.91010    1.000
    O43      O        0.85260    0.39420    0.83719    1.000
    C5       C        0.84120    0.38290    0.59330    1.000
    H9       H        0.78940    0.43160    0.56390    1.000
    H10      H        0.87630    0.34380    0.55980    1.000
    C6       C        0.16220    0.09920    0.90510    1.000
    H11      H        0.12430    0.14130    0.93540    1.000
    H12      H        0.21200    0.05230    0.93780    1.000
    O44      O        0.60400    0.57860    0.71980    1.000
    O45      O        0.93300    0.31100    0.83970    1.000
    V11      V        0.98450    0.25700    0.77270    1.000
    V12      V        0.72620    0.51440    0.72650    1.000
    V13      V        0.52090    0.72070    0.72495    1.000
    V14      V        0.28023    0.96372    0.77307    1.000
    P13      P        0.24970    0.81043    0.64002    1.000
    P14      P        0.75905    0.66729    0.85781    1.000
    P15      P        0.46509    0.93901    0.66253    1.000
    P16      P        0.54319    0.53978    0.83586    1.000
    F7       F        0.89010    0.75260    0.56695    1.000
    F8       F        0.11400    0.72641    0.93599    1.000
    O46      O        0.14710    0.75610    0.58757    1.000
    O47      O        0.19670    0.87962    0.68993    1.000
    O48      O        0.40060    0.99788    0.71378    1.000
    O49      O        0.54240    0.00130    0.62426    1.000
    O50      O        0.54210    0.85838    0.70892    1.000
    O51      O        0.33780    0.73777    0.68797    1.000
    O52      O        0.46850    0.61850    0.78661    1.000
    O53      O        0.67290    0.73723    0.80514    1.000
    O54      O        0.46300    0.48019    0.87390    1.000
    O55      O        0.61040    0.47760    0.78813    1.000
    O56      O        0.81700    0.59522    0.81263    1.000
    O57      O        0.85780    0.72510    0.91010    1.000
    O58      O        0.35260    0.89420    0.83719    1.000
    C7       C        0.34120    0.88290    0.59330    1.000
    H13      H        0.28940    0.93160    0.56390    1.000
    H14      H        0.37630    0.84380    0.55980    1.000
    C8       C        0.66220    0.59920    0.90510    1.000
    H15      H        0.62430    0.64130    0.93540    1.000
    H16      H        0.71200    0.55230    0.93780    1.000
    O59      O        0.10400    0.07860    0.71980    1.000
    O60      O        0.43300    0.81100    0.83970    1.000
    V15      V        0.48450    0.75700    0.77270    1.000
    V16      V        0.22620    0.01440    0.72650    1.000
    V17      V        0.50000    0.27460    0.50000    1.000
    V18      V        0.00000    0.77460    0.50000    1.000
    V19      V        0.50000    0.20429    0.00000    1.000
    V20      V        0.00000    0.70429    0.00000    1.000
