# CIF file generated by openbabel 3.1.0, see https://openbabel.org
data_I
_chemical_name_common 'image0'
_cell_length_a 19.8027
_cell_length_b 19.8027
_cell_length_c 19.8027
_cell_angle_alpha 90
_cell_angle_beta 90
_cell_angle_gamma 90
_space_group_name_H-M_alt 'P 1'
_space_group_name_Hall 'P 1'
loop_
    _symmetry_equiv_pos_as_xyz
    x,y,z
loop_
    _atom_site_label
    _atom_site_type_symbol
    _atom_site_fract_x
    _atom_site_fract_y
    _atom_site_fract_z
    _atom_site_occupancy
    O1       O        0.70636    0.45450    0.34776    1.000
    C1       C        0.76930    0.44560    0.35600    1.000
    C2       C        0.81400    0.47380    0.30200    1.000
    C3       C        0.88400    0.47240    0.30360    1.000
    H1       H        0.90700    0.45330    0.33990    1.000
    O2       O        0.79510    0.41510    0.40470    1.000
    O3       O        0.20636    0.95450    0.84776    1.000
    C4       C        0.26930    0.94560    0.85600    1.000
    C5       C        0.31400    0.97380    0.80200    1.000
    C6       C        0.38400    0.97240    0.80360    1.000
    H2       H        0.40700    0.95330    0.83990    1.000
    O4       O        0.29510    0.91510    0.90470    1.000
    O5       O        0.79364    0.54550    0.84776    1.000
    C7       C        0.73070    0.55440    0.85600    1.000
    C8       C        0.68600    0.52620    0.80200    1.000
    C9       C        0.61600    0.52760    0.80360    1.000
    H3       H        0.59300    0.54670    0.83990    1.000
    O6       O        0.70490    0.58490    0.90470    1.000
    O7       O        0.29364    0.04550    0.34776    1.000
    C10      C        0.23070    0.05440    0.35600    1.000
    C11      C        0.18600    0.02620    0.30200    1.000
    C12      C        0.11600    0.02760    0.30360    1.000
    H4       H        0.09300    0.04670    0.33990    1.000
    O8       O        0.20490    0.08490    0.40470    1.000
    O9       O        0.29364    0.95450    0.15224    1.000
    C13      C        0.23070    0.94560    0.14400    1.000
    C14      C        0.18600    0.97380    0.19800    1.000
    C15      C        0.11600    0.97240    0.19640    1.000
    H5       H        0.09300    0.95330    0.16010    1.000
    O10      O        0.20490    0.91510    0.09530    1.000
    O11      O        0.79364    0.45450    0.65224    1.000
    C16      C        0.73070    0.44560    0.64400    1.000
    C17      C        0.68600    0.47380    0.69800    1.000
    C18      C        0.61600    0.47240    0.69640    1.000
    H6       H        0.59300    0.45330    0.66010    1.000
    O12      O        0.70490    0.41510    0.59530    1.000
    O13      O        0.20636    0.04550    0.65224    1.000
    C19      C        0.26930    0.05440    0.64400    1.000
    C20      C        0.31400    0.02620    0.69800    1.000
    C21      C        0.38400    0.02760    0.69640    1.000
    H7       H        0.40700    0.04670    0.66010    1.000
    O14      O        0.29510    0.08490    0.59530    1.000
    O15      O        0.70636    0.54550    0.15224    1.000
    C22      C        0.76930    0.55440    0.14400    1.000
    C23      C        0.81400    0.52620    0.19800    1.000
    C24      C        0.88400    0.52760    0.19640    1.000
    H8       H        0.90700    0.54670    0.16010    1.000
    O16      O        0.79510    0.58490    0.09530    1.000
    O17      O        0.34776    0.70636    0.45450    1.000
    C25      C        0.35600    0.76930    0.44560    1.000
    C26      C        0.30200    0.81400    0.47380    1.000
    C27      C        0.30360    0.88400    0.47240    1.000
    H9       H        0.33990    0.90700    0.45330    1.000
    O18      O        0.40470    0.79510    0.41510    1.000
    O19      O        0.84776    0.20636    0.95450    1.000
    C28      C        0.85600    0.26930    0.94560    1.000
    C29      C        0.80200    0.31400    0.97380    1.000
    C30      C        0.80360    0.38400    0.97240    1.000
    H10      H        0.83990    0.40700    0.95330    1.000
    O20      O        0.90470    0.29510    0.91510    1.000
    O21      O        0.84776    0.79364    0.54550    1.000
    C31      C        0.85600    0.73070    0.55440    1.000
    C32      C        0.80200    0.68600    0.52620    1.000
    C33      C        0.80360    0.61600    0.52760    1.000
    H11      H        0.83990    0.59300    0.54670    1.000
    O22      O        0.90470    0.70490    0.58490    1.000
    O23      O        0.34776    0.29364    0.04550    1.000
    C34      C        0.35600    0.23070    0.05440    1.000
    C35      C        0.30200    0.18600    0.02620    1.000
    C36      C        0.30360    0.11600    0.02760    1.000
    H12      H        0.33990    0.09300    0.04670    1.000
    O24      O        0.40470    0.20490    0.08490    1.000
    O25      O        0.15224    0.29364    0.95450    1.000
    C37      C        0.14400    0.23070    0.94560    1.000
    C38      C        0.19800    0.18600    0.97380    1.000
    C39      C        0.19640    0.11600    0.97240    1.000
    H13      H        0.16010    0.09300    0.95330    1.000
    O26      O        0.09530    0.20490    0.91510    1.000
    O27      O        0.65224    0.79364    0.45450    1.000
    C40      C        0.64400    0.73070    0.44560    1.000
    C41      C        0.69800    0.68600    0.47380    1.000
    C42      C        0.69640    0.61600    0.47240    1.000
    H14      H        0.66010    0.59300    0.45330    1.000
    O28      O        0.59530    0.70490    0.41510    1.000
    O29      O        0.65224    0.20636    0.04550    1.000
    C43      C        0.64400    0.26930    0.05440    1.000
    C44      C        0.69800    0.31400    0.02620    1.000
    C45      C        0.69640    0.38400    0.02760    1.000
    H15      H        0.66010    0.40700    0.04670    1.000
    O30      O        0.59530    0.29510    0.08490    1.000
    O31      O        0.15224    0.70636    0.54550    1.000
    C46      C        0.14400    0.76930    0.55440    1.000
    C47      C        0.19800    0.81400    0.52620    1.000
    C48      C        0.19640    0.88400    0.52760    1.000
    H16      H        0.16010    0.90700    0.54670    1.000
    O32      O        0.09530    0.79510    0.58490    1.000
    O33      O        0.45450    0.34776    0.70636    1.000
    C49      C        0.44560    0.35600    0.76930    1.000
    C50      C        0.47380    0.30200    0.81400    1.000
    C51      C        0.47240    0.30360    0.88400    1.000
    H17      H        0.45330    0.33990    0.90700    1.000
    O34      O        0.41510    0.40470    0.79510    1.000
    O35      O        0.95450    0.84776    0.20636    1.000
    C52      C        0.94560    0.85600    0.26930    1.000
    C53      C        0.97380    0.80200    0.31400    1.000
    C54      C        0.97240    0.80360    0.38400    1.000
    H18      H        0.95330    0.83990    0.40700    1.000
    O36      O        0.91510    0.90470    0.29510    1.000
    O37      O        0.54550    0.84776    0.79364    1.000
    C55      C        0.55440    0.85600    0.73070    1.000
    C56      C        0.52620    0.80200    0.68600    1.000
    C57      C        0.52760    0.80360    0.61600    1.000
    H19      H        0.54670    0.83990    0.59300    1.000
    O38      O        0.58490    0.90470    0.70490    1.000
    O39      O        0.04550    0.34776    0.29364    1.000
    C58      C        0.05440    0.35600    0.23070    1.000
    C59      C        0.02620    0.30200    0.18600    1.000
    C60      C        0.02760    0.30360    0.11600    1.000
    H20      H        0.04670    0.33990    0.09300    1.000
    O40      O        0.08490    0.40470    0.20490    1.000
    O41      O        0.95450    0.15224    0.29364    1.000
    C61      C        0.94560    0.14400    0.23070    1.000
    C62      C        0.97380    0.19800    0.18600    1.000
    C63      C        0.97240    0.19640    0.11600    1.000
    H21      H        0.95330    0.16010    0.09300    1.000
    O42      O        0.91510    0.09530    0.20490    1.000
    O43      O        0.45450    0.65224    0.79364    1.000
    C64      C        0.44560    0.64400    0.73070    1.000
    C65      C        0.47380    0.69800    0.68600    1.000
    C66      C        0.47240    0.69640    0.61600    1.000
    H22      H        0.45330    0.66010    0.59300    1.000
    O44      O        0.41510    0.59530    0.70490    1.000
    O45      O        0.04550    0.65224    0.20636    1.000
    C67      C        0.05440    0.64400    0.26930    1.000
    C68      C        0.02620    0.69800    0.31400    1.000
    C69      C        0.02760    0.69640    0.38400    1.000
    H23      H        0.04670    0.66010    0.40700    1.000
    O46      O        0.08490    0.59530    0.29510    1.000
    O47      O        0.54550    0.15224    0.70636    1.000
    C70      C        0.55440    0.14400    0.76930    1.000
    C71      C        0.52620    0.19800    0.81400    1.000
    C72      C        0.52760    0.19640    0.88400    1.000
    H24      H        0.54670    0.16010    0.90700    1.000
    O48      O        0.58490    0.09530    0.79510    1.000
    O49      O        0.29364    0.54550    0.65224    1.000
    C73      C        0.23070    0.55440    0.64400    1.000
    C74      C        0.18600    0.52620    0.69800    1.000
    C75      C        0.11600    0.52760    0.69640    1.000
    H25      H        0.09300    0.54670    0.66010    1.000
    O50      O        0.20490    0.58490    0.59530    1.000
    O51      O        0.79364    0.04550    0.15224    1.000
    C76      C        0.73070    0.05440    0.14400    1.000
    C77      C        0.68600    0.02620    0.19800    1.000
    C78      C        0.61600    0.02760    0.19640    1.000
    H26      H        0.59300    0.04670    0.16010    1.000
    O52      O        0.70490    0.08490    0.09530    1.000
    O53      O        0.20636    0.45450    0.15224    1.000
    C79      C        0.26930    0.44560    0.14400    1.000
    C80      C        0.31400    0.47380    0.19800    1.000
    C81      C        0.38400    0.47240    0.19640    1.000
    H27      H        0.40700    0.45330    0.16010    1.000
    O54      O        0.29510    0.41510    0.09530    1.000
    O55      O        0.70636    0.95450    0.65224    1.000
    C82      C        0.76930    0.94560    0.64400    1.000
    C83      C        0.81400    0.97380    0.69800    1.000
    C84      C        0.88400    0.97240    0.69640    1.000
    H28      H        0.90700    0.95330    0.66010    1.000
    O56      O        0.79510    0.91510    0.59530    1.000
    O57      O        0.70636    0.04550    0.84776    1.000
    C85      C        0.76930    0.05440    0.85600    1.000
    C86      C        0.81400    0.02620    0.80200    1.000
    C87      C        0.88400    0.02760    0.80360    1.000
    H29      H        0.90700    0.04670    0.83990    1.000
    O58      O        0.79510    0.08490    0.90470    1.000
    O59      O        0.20636    0.54550    0.34776    1.000
    C88      C        0.26930    0.55440    0.35600    1.000
    C89      C        0.31400    0.52620    0.30200    1.000
    C90      C        0.38400    0.52760    0.30360    1.000
    H30      H        0.40700    0.54670    0.33990    1.000
    O60      O        0.29510    0.58490    0.40470    1.000
    O61      O        0.79364    0.95450    0.34776    1.000
    C91      C        0.73070    0.94560    0.35600    1.000
    C92      C        0.68600    0.97380    0.30200    1.000
    C93      C        0.61600    0.97240    0.30360    1.000
    H31      H        0.59300    0.95330    0.33990    1.000
    O62      O        0.70490    0.91510    0.40470    1.000
    O63      O        0.29364    0.45450    0.84776    1.000
    C94      C        0.23070    0.44560    0.85600    1.000
    C95      C        0.18600    0.47380    0.80200    1.000
    C96      C        0.11600    0.47240    0.80360    1.000
    H32      H        0.09300    0.45330    0.83990    1.000
    O64      O        0.20490    0.41510    0.90470    1.000
    O65      O        0.65224    0.29364    0.54550    1.000
    C97      C        0.64400    0.23070    0.55440    1.000
    C98      C        0.69800    0.18600    0.52620    1.000
    C99      C        0.69640    0.11600    0.52760    1.000
    H33      H        0.66010    0.09300    0.54670    1.000
    O66      O        0.59530    0.20490    0.58490    1.000
    O67      O        0.15224    0.79364    0.04550    1.000
    C100     C        0.14400    0.73070    0.05440    1.000
    C101     C        0.19800    0.68600    0.02620    1.000
    C102     C        0.19640    0.61600    0.02760    1.000
    H34      H        0.16010    0.59300    0.04670    1.000
    O68      O        0.09530    0.70490    0.08490    1.000
    O69      O        0.15224    0.20636    0.45450    1.000
    C103     C        0.14400    0.26930    0.44560    1.000
    C104     C        0.19800    0.31400    0.47380    1.000
    C105     C        0.19640    0.38400    0.47240    1.000
    H35      H        0.16010    0.40700    0.45330    1.000
    O70      O        0.09530    0.29510    0.41510    1.000
    O71      O        0.65224    0.70636    0.95450    1.000
    C106     C        0.64400    0.76930    0.94560    1.000
    C107     C        0.69800    0.81400    0.97380    1.000
    C108     C        0.69640    0.88400    0.97240    1.000
    H36      H        0.66010    0.90700    0.95330    1.000
    O72      O        0.59530    0.79510    0.91510    1.000
    O73      O        0.84776    0.70636    0.04550    1.000
    C109     C        0.85600    0.76930    0.05440    1.000
    C110     C        0.80200    0.81400    0.02620    1.000
    C111     C        0.80360    0.88400    0.02760    1.000
    H37      H        0.83990    0.90700    0.04670    1.000
    O74      O        0.90470    0.79510    0.08490    1.000
    O75      O        0.34776    0.20636    0.54550    1.000
    C112     C        0.35600    0.26930    0.55440    1.000
    C113     C        0.30200    0.31400    0.52620    1.000
    C114     C        0.30360    0.38400    0.52760    1.000
    H38      H        0.33990    0.40700    0.54670    1.000
    O76      O        0.40470    0.29510    0.58490    1.000
    O77      O        0.34776    0.79364    0.95450    1.000
    C115     C        0.35600    0.73070    0.94560    1.000
    C116     C        0.30200    0.68600    0.97380    1.000
    C117     C        0.30360    0.61600    0.97240    1.000
    H39      H        0.33990    0.59300    0.95330    1.000
    O78      O        0.40470    0.70490    0.91510    1.000
    O79      O        0.84776    0.29364    0.45450    1.000
    C118     C        0.85600    0.23070    0.44560    1.000
    C119     C        0.80200    0.18600    0.47380    1.000
    C120     C        0.80360    0.11600    0.47240    1.000
    H40      H        0.83990    0.09300    0.45330    1.000
    O80      O        0.90470    0.20490    0.41510    1.000
    O81      O        0.54550    0.65224    0.29364    1.000
    C121     C        0.55440    0.64400    0.23070    1.000
    C122     C        0.52620    0.69800    0.18600    1.000
    C123     C        0.52760    0.69640    0.11600    1.000
    H41      H        0.54670    0.66010    0.09300    1.000
    O82      O        0.58490    0.59530    0.20490    1.000
    O83      O        0.04550    0.15224    0.79364    1.000
    C124     C        0.05440    0.14400    0.73070    1.000
    C125     C        0.02620    0.19800    0.68600    1.000
    C126     C        0.02760    0.19640    0.61600    1.000
    H42      H        0.04670    0.16010    0.59300    1.000
    O84      O        0.08490    0.09530    0.70490    1.000
    O85      O        0.45450    0.15224    0.20636    1.000
    C127     C        0.44560    0.14400    0.26930    1.000
    C128     C        0.47380    0.19800    0.31400    1.000
    C129     C        0.47240    0.19640    0.38400    1.000
    H43      H        0.45330    0.16010    0.40700    1.000
    O86      O        0.41510    0.09530    0.29510    1.000
    O87      O        0.95450    0.65224    0.70636    1.000
    C130     C        0.94560    0.64400    0.76930    1.000
    C131     C        0.97380    0.69800    0.81400    1.000
    C132     C        0.97240    0.69640    0.88400    1.000
    H44      H        0.95330    0.66010    0.90700    1.000
    O88      O        0.91510    0.59530    0.79510    1.000
    O89      O        0.04550    0.84776    0.70636    1.000
    C133     C        0.05440    0.85600    0.76930    1.000
    C134     C        0.02620    0.80200    0.81400    1.000
    C135     C        0.02760    0.80360    0.88400    1.000
    H45      H        0.04670    0.83990    0.90700    1.000
    O90      O        0.08490    0.90470    0.79510    1.000
    O91      O        0.54550    0.34776    0.20636    1.000
    C136     C        0.55440    0.35600    0.26930    1.000
    C137     C        0.52620    0.30200    0.31400    1.000
    C138     C        0.52760    0.30360    0.38400    1.000
    H46      H        0.54670    0.33990    0.40700    1.000
    O92      O        0.58490    0.40470    0.29510    1.000
    O93      O        0.95450    0.34776    0.79364    1.000
    C139     C        0.94560    0.35600    0.73070    1.000
    C140     C        0.97380    0.30200    0.68600    1.000
    C141     C        0.97240    0.30360    0.61600    1.000
    H47      H        0.95330    0.33990    0.59300    1.000
    O94      O        0.91510    0.40470    0.70490    1.000
    O95      O        0.45450    0.84776    0.29364    1.000
    C142     C        0.44560    0.85600    0.23070    1.000
    C143     C        0.47380    0.80200    0.18600    1.000
    C144     C        0.47240    0.80360    0.11600    1.000
    H48      H        0.45330    0.83990    0.09300    1.000
    O96      O        0.41510    0.90470    0.20490    1.000
    Eu1      Eu       0.65219    0.50000    0.25000    1.000
    N1       N        0.77950    0.50000    0.25000    1.000
    C145     C        0.91850    0.50000    0.25000    1.000
    H49      H        0.96550    0.50000    0.25000    1.000
    Eu2      Eu       0.84781    0.50000    0.75000    1.000
    N2       N        0.72050    0.50000    0.75000    1.000
    C146     C        0.58150    0.50000    0.75000    1.000
    H50      H        0.53450    0.50000    0.75000    1.000
    Eu3      Eu       0.34781    0.00000    0.25000    1.000
    N3       N        0.22050    0.00000    0.25000    1.000
    C147     C        0.08150    0.00000    0.25000    1.000
    H51      H        0.03450    0.00000    0.25000    1.000
    Eu4      Eu       0.15219    0.00000    0.75000    1.000
    N4       N        0.27950    0.00000    0.75000    1.000
    C148     C        0.41850    0.00000    0.75000    1.000
    H52      H        0.46550    0.00000    0.75000    1.000
    Eu5      Eu       0.25000    0.65219    0.50000    1.000
    N5       N        0.25000    0.77950    0.50000    1.000
    C149     C        0.25000    0.91850    0.50000    1.000
    H53      H        0.25000    0.96550    0.50000    1.000
    Eu6      Eu       0.75000    0.84781    0.50000    1.000
    N6       N        0.75000    0.72050    0.50000    1.000
    C150     C        0.75000    0.58150    0.50000    1.000
    H54      H        0.75000    0.53450    0.50000    1.000
    Eu7      Eu       0.25000    0.34781    0.00000    1.000
    N7       N        0.25000    0.22050    0.00000    1.000
    C151     C        0.25000    0.08150    0.00000    1.000
    H55      H        0.25000    0.03450    0.00000    1.000
    Eu8      Eu       0.75000    0.15219    0.00000    1.000
    N8       N        0.75000    0.27950    0.00000    1.000
    C152     C        0.75000    0.41850    0.00000    1.000
    H56      H        0.75000    0.46550    0.00000    1.000
    Eu9      Eu       0.50000    0.25000    0.65219    1.000
    N9       N        0.50000    0.25000    0.77950    1.000
    C153     C        0.50000    0.25000    0.91850    1.000
    H57      H        0.50000    0.25000    0.96550    1.000
    Eu10     Eu       0.50000    0.75000    0.84781    1.000
    N10      N        0.50000    0.75000    0.72050    1.000
    C154     C        0.50000    0.75000    0.58150    1.000
    H58      H        0.50000    0.75000    0.53450    1.000
    Eu11     Eu       0.00000    0.25000    0.34781    1.000
    N11      N        0.00000    0.25000    0.22050    1.000
    C155     C        0.00000    0.25000    0.08150    1.000
    H59      H        0.00000    0.25000    0.03450    1.000
    Eu12     Eu       0.00000    0.75000    0.15219    1.000
    N12      N        0.00000    0.75000    0.27950    1.000
    C156     C        0.00000    0.75000    0.41850    1.000
    H60      H        0.00000    0.75000    0.46550    1.000
    Eu13     Eu       0.34781    0.50000    0.75000    1.000
    N13      N        0.22050    0.50000    0.75000    1.000
    C157     C        0.08150    0.50000    0.75000    1.000
    H61      H        0.03450    0.50000    0.75000    1.000
    Eu14     Eu       0.15219    0.50000    0.25000    1.000
    N14      N        0.27950    0.50000    0.25000    1.000
    C158     C        0.41850    0.50000    0.25000    1.000
    H62      H        0.46550    0.50000    0.25000    1.000
    Eu15     Eu       0.65219    0.00000    0.75000    1.000
    N15      N        0.77950    0.00000    0.75000    1.000
    C159     C        0.91850    0.00000    0.75000    1.000
    H63      H        0.96550    0.00000    0.75000    1.000
    Eu16     Eu       0.84781    0.00000    0.25000    1.000
    N16      N        0.72050    0.00000    0.25000    1.000
    C160     C        0.58150    0.00000    0.25000    1.000
    H64      H        0.53450    0.00000    0.25000    1.000
    Eu17     Eu       0.75000    0.34781    0.50000    1.000
    N17      N        0.75000    0.22050    0.50000    1.000
    C161     C        0.75000    0.08150    0.50000    1.000
    H65      H        0.75000    0.03450    0.50000    1.000
    Eu18     Eu       0.25000    0.15219    0.50000    1.000
    N18      N        0.25000    0.27950    0.50000    1.000
    C162     C        0.25000    0.41850    0.50000    1.000
    H66      H        0.25000    0.46550    0.50000    1.000
    Eu19     Eu       0.75000    0.65219    0.00000    1.000
    N19      N        0.75000    0.77950    0.00000    1.000
    C163     C        0.75000    0.91850    0.00000    1.000
    H67      H        0.75000    0.96550    0.00000    1.000
    Eu20     Eu       0.25000    0.84781    0.00000    1.000
    N20      N        0.25000    0.72050    0.00000    1.000
    C164     C        0.25000    0.58150    0.00000    1.000
    H68      H        0.25000    0.53450    0.00000    1.000
    Eu21     Eu       0.50000    0.75000    0.34781    1.000
    N21      N        0.50000    0.75000    0.22050    1.000
    C165     C        0.50000    0.75000    0.08150    1.000
    H69      H        0.50000    0.75000    0.03450    1.000
    Eu22     Eu       0.50000    0.25000    0.15219    1.000
    N22      N        0.50000    0.25000    0.27950    1.000
    C166     C        0.50000    0.25000    0.41850    1.000
    H70      H        0.50000    0.25000    0.46550    1.000
    Eu23     Eu       0.00000    0.75000    0.65219    1.000
    N23      N        0.00000    0.75000    0.77950    1.000
    C167     C        0.00000    0.75000    0.91850    1.000
    H71      H        0.00000    0.75000    0.96550    1.000
    Eu24     Eu       0.00000    0.25000    0.84781    1.000
    N24      N        0.00000    0.25000    0.72050    1.000
    C168     C        0.00000    0.25000    0.58150    1.000
    H72      H        0.00000    0.25000    0.53450    1.000
