data_functionalizedCrystal
_audit_creation_method	'EQeq! by Chris Wilmer'
_symmetry_space_group_name_H-M	'P1'
_symmetry_Int_Tables_number	1
_symmetry_cell_setting	triclinic
loop_
_symmetry_equiv_pos_as_xyz
  x,y,z
_cell_length_a	26.5757
_cell_length_b	26.5757
_cell_length_c	5.2077
_cell_angle_alpha	90
_cell_angle_beta	90
_cell_angle_gamma	90
loop_
_atom_site_label
_atom_site_type_symbol
_atom_site_fract_x
_atom_site_fract_y
_atom_site_fract_z
_atom_site_charge
Mof_Zn	Zn	0.27147	0.21421	0.9333	1.224
Mof_O 	O 	0.2226	0.2545	0.103	-0.768
Mof_H 	H 	0.2018	0.2655	0.9909	0.276
Mof_N 	N 	0.2512	0.1418	0.918	-0.272
Mof_C 	C 	0.2665	0.1041	0.059	0.101
Mof_H 	H 	0.2915	0.1068	0.1831	-0.015
Mof_N 	N 	0.2419	0.0606	0.0051	-0.172
Mof_C 	C 	0.2126	0.1217	0.7558	0.026
Mof_O 	O 	0.2757	0.8327	0.352	-0.499
Mof_C 	C 	0.1831	0.144	0.5692	-0.137
Mof_H 	H 	0.1865	0.178	0.5309	0.037
Mof_O 	O 	0.3137	0.8695	0.673	-0.234
Mof_C 	C 	0.1482	0.1145	0.4403	0.041
Mof_C 	C 	0.1184	0.1358	0.252	-0.104
Mof_H 	H 	0.1224	0.1697	0.2142	0.064
Mof_C 	C 	0.0828	0.1084	0.117	-0.004
Mof_H 	H 	0.063	0.1234	0.9913	0.032
Mof_C 	C 	0.0776	0.0577	0.1754	-0.037
Mof_H 	H 	0.0541	0.0383	0.0878	0.04
Mof_C 	C 	0.1073	0.0359	0.363	-0.076
Mof_H 	H 	0.1033	0.0019	0.4003	0.06
Mof_C 	C 	0.143	0.0637	0.4988	0.046
Mof_C 	C 	0.1725	0.0411	0.687	-0.14
Mof_H 	H 	0.1695	0.007	0.7243	0.082
Mof_C 	C 	0.2064	0.0712	0.817	0.085
Mof_C 	C 	0.2557	0.0122	0.111	0.169
Mof_C 	C 	0.283	0.9219	0.327	-0.172
Mof_C 	C 	0.3049	0.0045	0.183	1.434
Mof_H 	H 	0.3283	0.03	0.1577	-0.466
Mof_C 	C 	0.3202	0.9589	0.294	-1.365
Mof_H 	H 	0.3534	0.9534	0.3423	0.529
Mof_C 	C 	0.2324	0.9264	0.258	-1.271
Mof_H 	H 	0.2087	0.901	0.2814	0.476
Mof_C 	C 	0.2211	0.9734	0.151	1.248
Mof_H 	H 	0.188	0.9792	0.1031	-0.408
Mof_C 	C 	0.2967	0.8714	0.445	0.402
Mof_O 	O 	0.3479	0.8738	0.52	-0.178
Mof_C 	C 	0.2741	0.0102	0.359	-1.682
Mof_H 	H 	0.2773	0.0399	0.4524	0.617
Mof_C 	C 	0.288	0.9654	0.472	1.468
Mof_H 	H 	0.3003	0.9644	0.6387	-0.468
Mof_C 	C 	0.2646	0.9221	0.079	1.288
Mof_H 	H 	0.2612	0.8924	0.9865	-0.377
Mof_C 	C 	0.2514	0.9678	0.974	-1.437
Mof_H 	H 	0.2392	0.9688	0.8065	0.535
Mof_Zn	Zn	0.77147	0.71421	0.4333	1.227
Mof_O 	O 	0.7226	0.7545	0.603	-0.806
Mof_H 	H 	0.7018	0.7655	0.4909	0.298
Mof_N 	N 	0.7512	0.6418	0.418	-0.273
Mof_C 	C 	0.7665	0.6041	0.559	0.112
Mof_H 	H 	0.7915	0.6068	0.6831	-0.02
Mof_N 	N 	0.7419	0.5606	0.5051	-0.165
Mof_C 	C 	0.7126	0.6217	0.2558	0.03
Mof_O 	O 	0.7757	0.3327	0.852	-0.489
Mof_C 	C 	0.6831	0.644	0.0692	-0.1
Mof_H 	H 	0.6865	0.678	0.0309	0.035
Mof_O 	O 	0.8137	0.3695	0.173	-0.252
Mof_C 	C 	0.6482	0.6145	0.9403	0.012
Mof_C 	C 	0.6184	0.6358	0.752	-0.067
Mof_H 	H 	0.6224	0.6697	0.7142	0.047
Mof_C 	C 	0.5828	0.6084	0.617	-0.044
Mof_H 	H 	0.563	0.6234	0.4913	0.042
Mof_C 	C 	0.5776	0.5577	0.6754	-0.013
Mof_H 	H 	0.5541	0.5383	0.5878	0.03
Mof_C 	C 	0.6073	0.5359	0.863	-0.095
Mof_H 	H 	0.6033	0.5019	0.9003	0.062
Mof_C 	C 	0.643	0.5637	0.9988	0.045
Mof_C 	C 	0.6725	0.5411	0.187	-0.127
Mof_H 	H 	0.6695	0.507	0.2243	0.075
Mof_C 	C 	0.7064	0.5712	0.317	0.084
Mof_C 	C 	0.7557	0.5122	0.611	0.166
Mof_C 	C 	0.783	0.4219	0.827	-0.119
Mof_C 	C 	0.8049	0.5045	0.683	0.035
Mof_H 	H 	0.8283	0.53	0.6577	0.025
Mof_C 	C 	0.8202	0.4589	0.794	-0.075
Mof_H 	H 	0.8534	0.4534	0.8423	0.07
Mof_C 	C 	0.7324	0.4264	0.758	-0.214
Mof_H 	H 	0.7087	0.401	0.7814	0.106
Mof_C 	C 	0.7211	0.4734	0.651	0.14
Mof_H 	H 	0.688	0.4792	0.6031	-0.021
Mof_C 	C 	0.7967	0.3714	0.945	0.368
Mof_O 	O 	0.8479	0.3738	0.02	-0.148
Mof_C 	C 	0.7741	0.5102	0.859	-0.228
Mof_H 	H 	0.7773	0.5399	0.9524	0.105
Mof_C 	C 	0.788	0.4654	0.972	0.095
Mof_H 	H 	0.8003	0.4644	0.1387	0.024
Mof_C 	C 	0.7646	0.4221	0.579	0.266
Mof_H 	H 	0.7612	0.3924	0.4865	-0.048
Mof_C 	C 	0.7514	0.4678	0.474	-0.345
Mof_H 	H 	0.7392	0.4688	0.3065	0.155
Mof_Zn	Zn	0.72853	0.78579	0.9333	1.223
Mof_O 	O 	0.7774	0.7455	0.103	-0.769
Mof_H 	H 	0.7982	0.7345	0.9909	0.275
Mof_N 	N 	0.7488	0.8582	0.918	-0.273
Mof_C 	C 	0.7335	0.8959	0.059	0.101
Mof_H 	H 	0.7085	0.8932	0.1831	-0.015
Mof_N 	N 	0.7581	0.9394	0.0051	-0.172
Mof_C 	C 	0.7874	0.8783	0.7558	0.026
Mof_O 	O 	0.7243	0.1673	0.352	-0.499
Mof_C 	C 	0.8169	0.856	0.5692	-0.137
Mof_H 	H 	0.8135	0.822	0.5309	0.037
Mof_O 	O 	0.6863	0.1305	0.673	-0.234
Mof_C 	C 	0.8518	0.8855	0.4403	0.041
Mof_C 	C 	0.8816	0.8642	0.252	-0.104
Mof_H 	H 	0.8776	0.8303	0.2142	0.064
Mof_C 	C 	0.9172	0.8916	0.117	-0.004
Mof_H 	H 	0.937	0.8766	0.9913	0.032
Mof_C 	C 	0.9224	0.9423	0.1754	-0.037
Mof_H 	H 	0.9459	0.9617	0.0878	0.04
Mof_C 	C 	0.8927	0.9641	0.363	-0.076
Mof_H 	H 	0.8967	0.9981	0.4003	0.06
Mof_C 	C 	0.857	0.9363	0.4988	0.046
Mof_C 	C 	0.8275	0.9589	0.687	-0.14
Mof_H 	H 	0.8305	0.993	0.7243	0.082
Mof_C 	C 	0.7936	0.9288	0.817	0.085
Mof_C 	C 	0.7443	0.9878	0.111	0.169
Mof_C 	C 	0.717	0.0781	0.327	-0.172
Mof_C 	C 	0.6951	0.9955	0.183	1.434
Mof_H 	H 	0.6717	0.97	0.1577	-0.466
Mof_C 	C 	0.6798	0.0411	0.294	-1.365
Mof_H 	H 	0.6466	0.0466	0.3423	0.529
Mof_C 	C 	0.7676	0.0736	0.258	-1.271
Mof_H 	H 	0.7913	0.099	0.2814	0.476
Mof_C 	C 	0.7789	0.0266	0.151	1.248
Mof_H 	H 	0.812	0.0208	0.1031	-0.408
Mof_C 	C 	0.7033	0.1286	0.445	0.402
Mof_O 	O 	0.6521	0.1262	0.52	-0.178
Mof_C 	C 	0.7259	0.9898	0.359	-1.682
Mof_H 	H 	0.7227	0.9601	0.4524	0.617
Mof_C 	C 	0.712	0.0346	0.472	1.468
Mof_H 	H 	0.6997	0.0356	0.6387	-0.468
Mof_C 	C 	0.7354	0.0779	0.079	1.288
Mof_H 	H 	0.7388	0.1076	0.9865	-0.377
Mof_C 	C 	0.7486	0.0322	0.974	-1.437
Mof_H 	H 	0.7608	0.0312	0.8065	0.535
Mof_Zn	Zn	0.22853	0.28579	0.4333	1.227
Mof_O 	O 	0.2774	0.2455	0.603	-0.806
Mof_H 	H 	0.2982	0.2345	0.4909	0.298
Mof_N 	N 	0.2488	0.3582	0.418	-0.273
Mof_C 	C 	0.2335	0.3959	0.559	0.112
Mof_H 	H 	0.2085	0.3932	0.6831	-0.02
Mof_N 	N 	0.2581	0.4394	0.5051	-0.165
Mof_C 	C 	0.2874	0.3783	0.2558	0.03
Mof_O 	O 	0.2243	0.6673	0.852	-0.489
Mof_C 	C 	0.3169	0.356	0.0692	-0.1
Mof_H 	H 	0.3135	0.322	0.0309	0.035
Mof_O 	O 	0.1863	0.6305	0.173	-0.252
Mof_C 	C 	0.3518	0.3855	0.9403	0.012
Mof_C 	C 	0.3816	0.3642	0.752	-0.067
Mof_H 	H 	0.3776	0.3303	0.7142	0.047
Mof_C 	C 	0.4172	0.3916	0.617	-0.044
Mof_H 	H 	0.437	0.3766	0.4913	0.042
Mof_C 	C 	0.4224	0.4423	0.6754	-0.013
Mof_H 	H 	0.4459	0.4617	0.5878	0.03
Mof_C 	C 	0.3927	0.4641	0.863	-0.095
Mof_H 	H 	0.3967	0.4981	0.9003	0.062
Mof_C 	C 	0.357	0.4363	0.9988	0.045
Mof_C 	C 	0.3275	0.4589	0.187	-0.127
Mof_H 	H 	0.3305	0.493	0.2243	0.075
Mof_C 	C 	0.2936	0.4288	0.317	0.084
Mof_C 	C 	0.2443	0.4878	0.611	0.166
Mof_C 	C 	0.217	0.5781	0.827	-0.119
Mof_C 	C 	0.1951	0.4955	0.683	0.035
Mof_H 	H 	0.1717	0.47	0.6577	0.025
Mof_C 	C 	0.1798	0.5411	0.794	-0.075
Mof_H 	H 	0.1466	0.5466	0.8423	0.07
Mof_C 	C 	0.2676	0.5736	0.758	-0.214
Mof_H 	H 	0.2913	0.599	0.7814	0.106
Mof_C 	C 	0.2789	0.5266	0.651	0.14
Mof_H 	H 	0.312	0.5208	0.6031	-0.021
Mof_C 	C 	0.2033	0.6286	0.945	0.368
Mof_O 	O 	0.1521	0.6262	0.02	-0.148
Mof_C 	C 	0.2259	0.4898	0.859	-0.228
Mof_H 	H 	0.2227	0.4601	0.9524	0.105
Mof_C 	C 	0.212	0.5346	0.972	0.095
Mof_H 	H 	0.1997	0.5356	0.1387	0.024
Mof_C 	C 	0.2354	0.5779	0.579	0.266
Mof_H 	H 	0.2388	0.6076	0.4865	-0.048
Mof_C 	C 	0.2486	0.5322	0.474	-0.345
Mof_H 	H 	0.2608	0.5312	0.3065	0.155
Mof_Zn	Zn	0.21421	0.72853	0.0667	1.223
Mof_O 	O 	0.2545	0.7774	0.897	-0.769
Mof_H 	H 	0.2655	0.7982	0.0091	0.275
Mof_N 	N 	0.1418	0.7488	0.082	-0.273
Mof_C 	C 	0.1041	0.7335	0.941	0.101
Mof_H 	H 	0.1068	0.7085	0.8169	-0.015
Mof_N 	N 	0.0606	0.7581	0.9949	-0.172
Mof_C 	C 	0.1217	0.7874	0.2442	0.026
Mof_O 	O 	0.8327	0.7243	0.648	-0.499
Mof_C 	C 	0.144	0.8169	0.4308	-0.137
Mof_H 	H 	0.178	0.8135	0.4691	0.037
Mof_O 	O 	0.8695	0.6863	0.327	-0.234
Mof_C 	C 	0.1145	0.8518	0.5597	0.041
Mof_C 	C 	0.1358	0.8816	0.748	-0.104
Mof_H 	H 	0.1697	0.8776	0.7858	0.064
Mof_C 	C 	0.1084	0.9172	0.883	-0.004
Mof_H 	H 	0.1234	0.937	0.0087	0.032
Mof_C 	C 	0.0577	0.9224	0.8246	-0.037
Mof_H 	H 	0.0383	0.9459	0.9122	0.04
Mof_C 	C 	0.0359	0.8927	0.637	-0.076
Mof_H 	H 	0.0019	0.8967	0.5997	0.06
Mof_C 	C 	0.0637	0.857	0.5012	0.046
Mof_C 	C 	0.0411	0.8275	0.313	-0.14
Mof_H 	H 	0.007	0.8305	0.2757	0.082
Mof_C 	C 	0.0712	0.7936	0.183	0.085
Mof_C 	C 	0.0122	0.7443	0.889	0.169
Mof_C 	C 	0.9219	0.717	0.673	-0.172
Mof_C 	C 	0.0045	0.6951	0.817	1.434
Mof_H 	H 	0.03	0.6717	0.8423	-0.466
Mof_C 	C 	0.9589	0.6798	0.706	-1.365
Mof_H 	H 	0.9534	0.6466	0.6577	0.529
Mof_C 	C 	0.9264	0.7676	0.742	-1.271
Mof_H 	H 	0.901	0.7913	0.7186	0.476
Mof_C 	C 	0.9734	0.7789	0.849	1.248
Mof_H 	H 	0.9792	0.812	0.8969	-0.408
Mof_C 	C 	0.8714	0.7033	0.555	0.402
Mof_O 	O 	0.8738	0.6521	0.48	-0.178
Mof_C 	C 	0.0102	0.7259	0.641	-1.682
Mof_H 	H 	0.0399	0.7227	0.5476	0.617
Mof_C 	C 	0.9654	0.712	0.528	1.468
Mof_H 	H 	0.9644	0.6997	0.3613	-0.468
Mof_C 	C 	0.9221	0.7354	0.921	1.288
Mof_H 	H 	0.8924	0.7388	0.0135	-0.377
Mof_C 	C 	0.9678	0.7486	0.026	-1.437
Mof_H 	H 	0.9688	0.7608	0.1935	0.535
Mof_Zn	Zn	0.71421	0.22853	0.5667	1.227
Mof_O 	O 	0.7545	0.2774	0.397	-0.806
Mof_H 	H 	0.7655	0.2982	0.5091	0.298
Mof_N 	N 	0.6418	0.2488	0.582	-0.273
Mof_C 	C 	0.6041	0.2335	0.441	0.112
Mof_H 	H 	0.6068	0.2085	0.3169	-0.02
Mof_N 	N 	0.5606	0.2581	0.4949	-0.165
Mof_C 	C 	0.6217	0.2874	0.7442	0.03
Mof_O 	O 	0.3327	0.2243	0.148	-0.489
Mof_C 	C 	0.644	0.3169	0.9308	-0.1
Mof_H 	H 	0.678	0.3135	0.9691	0.035
Mof_O 	O 	0.3695	0.1863	0.827	-0.252
Mof_C 	C 	0.6145	0.3518	0.0597	0.012
Mof_C 	C 	0.6358	0.3816	0.248	-0.067
Mof_H 	H 	0.6697	0.3776	0.2858	0.047
Mof_C 	C 	0.6084	0.4172	0.383	-0.044
Mof_H 	H 	0.6234	0.437	0.5087	0.042
Mof_C 	C 	0.5577	0.4224	0.3246	-0.013
Mof_H 	H 	0.5383	0.4459	0.4122	0.03
Mof_C 	C 	0.5359	0.3927	0.137	-0.095
Mof_H 	H 	0.5019	0.3967	0.0997	0.062
Mof_C 	C 	0.5637	0.357	0.0012	0.045
Mof_C 	C 	0.5411	0.3275	0.813	-0.127
Mof_H 	H 	0.507	0.3305	0.7757	0.075
Mof_C 	C 	0.5712	0.2936	0.683	0.084
Mof_C 	C 	0.5122	0.2443	0.389	0.166
Mof_C 	C 	0.4219	0.217	0.173	-0.119
Mof_C 	C 	0.5045	0.1951	0.317	0.035
Mof_H 	H 	0.53	0.1717	0.3423	0.025
Mof_C 	C 	0.4589	0.1798	0.206	-0.075
Mof_H 	H 	0.4534	0.1466	0.1577	0.07
Mof_C 	C 	0.4264	0.2676	0.242	-0.214
Mof_H 	H 	0.401	0.2913	0.2186	0.106
Mof_C 	C 	0.4734	0.2789	0.349	0.14
Mof_H 	H 	0.4792	0.312	0.3969	-0.021
Mof_C 	C 	0.3714	0.2033	0.055	0.368
Mof_O 	O 	0.3738	0.1521	0.98	-0.148
Mof_C 	C 	0.5102	0.2259	0.141	-0.228
Mof_H 	H 	0.5399	0.2227	0.0476	0.105
Mof_C 	C 	0.4654	0.212	0.028	0.095
Mof_H 	H 	0.4644	0.1997	0.8613	0.024
Mof_C 	C 	0.4221	0.2354	0.421	0.266
Mof_H 	H 	0.3924	0.2388	0.5135	-0.048
Mof_C 	C 	0.4678	0.2486	0.526	-0.345
Mof_H 	H 	0.4688	0.2608	0.6935	0.155
Mof_Zn	Zn	0.78579	0.27147	0.0667	1.223
Mof_O 	O 	0.7455	0.2226	0.897	-0.769
Mof_H 	H 	0.7345	0.2018	0.0091	0.275
Mof_N 	N 	0.8582	0.2512	0.082	-0.273
Mof_C 	C 	0.8959	0.2665	0.941	0.101
Mof_H 	H 	0.8932	0.2915	0.8169	-0.015
Mof_N 	N 	0.9394	0.2419	0.9949	-0.172
Mof_C 	C 	0.8783	0.2126	0.2442	0.026
Mof_O 	O 	0.1673	0.2757	0.648	-0.499
Mof_C 	C 	0.856	0.1831	0.4308	-0.137
Mof_H 	H 	0.822	0.1865	0.4691	0.037
Mof_O 	O 	0.1305	0.3137	0.327	-0.234
Mof_C 	C 	0.8855	0.1482	0.5597	0.041
Mof_C 	C 	0.8642	0.1184	0.748	-0.104
Mof_H 	H 	0.8303	0.1224	0.7858	0.064
Mof_C 	C 	0.8916	0.0828	0.883	-0.004
Mof_H 	H 	0.8766	0.063	0.0087	0.032
Mof_C 	C 	0.9423	0.0776	0.8246	-0.037
Mof_H 	H 	0.9617	0.0541	0.9122	0.04
Mof_C 	C 	0.9641	0.1073	0.637	-0.076
Mof_H 	H 	0.9981	0.1033	0.5997	0.06
Mof_C 	C 	0.9363	0.143	0.5012	0.046
Mof_C 	C 	0.9589	0.1725	0.313	-0.14
Mof_H 	H 	0.993	0.1695	0.2757	0.082
Mof_C 	C 	0.9288	0.2064	0.183	0.085
Mof_C 	C 	0.9878	0.2557	0.889	0.169
Mof_C 	C 	0.0781	0.283	0.673	-0.172
Mof_C 	C 	0.9955	0.3049	0.817	1.434
Mof_H 	H 	0.97	0.3283	0.8423	-0.466
Mof_C 	C 	0.0411	0.3202	0.706	-1.365
Mof_H 	H 	0.0466	0.3534	0.6577	0.529
Mof_C 	C 	0.0736	0.2324	0.742	-1.271
Mof_H 	H 	0.099	0.2087	0.7186	0.476
Mof_C 	C 	0.0266	0.2211	0.849	1.248
Mof_H 	H 	0.0208	0.188	0.8969	-0.408
Mof_C 	C 	0.1286	0.2967	0.555	0.402
Mof_O 	O 	0.1262	0.3479	0.48	-0.178
Mof_C 	C 	0.9898	0.2741	0.641	-1.682
Mof_H 	H 	0.9601	0.2773	0.5476	0.617
Mof_C 	C 	0.0346	0.288	0.528	1.468
Mof_H 	H 	0.0356	0.3003	0.3613	-0.468
Mof_C 	C 	0.0779	0.2646	0.921	1.288
Mof_H 	H 	0.1076	0.2612	0.0135	-0.377
Mof_C 	C 	0.0322	0.2514	0.026	-1.437
Mof_H 	H 	0.0312	0.2392	0.1935	0.535
Mof_Zn	Zn	0.28579	0.77147	0.5667	1.227
Mof_O 	O 	0.2455	0.7226	0.397	-0.806
Mof_H 	H 	0.2345	0.7018	0.5091	0.298
Mof_N 	N 	0.3582	0.7512	0.582	-0.273
Mof_C 	C 	0.3959	0.7665	0.441	0.112
Mof_H 	H 	0.3932	0.7915	0.3169	-0.02
Mof_N 	N 	0.4394	0.7419	0.4949	-0.165
Mof_C 	C 	0.3783	0.7126	0.7442	0.03
Mof_O 	O 	0.6673	0.7757	0.148	-0.489
Mof_C 	C 	0.356	0.6831	0.9308	-0.1
Mof_H 	H 	0.322	0.6865	0.9691	0.035
Mof_O 	O 	0.6305	0.8137	0.827	-0.252
Mof_C 	C 	0.3855	0.6482	0.0597	0.012
Mof_C 	C 	0.3642	0.6184	0.248	-0.067
Mof_H 	H 	0.3303	0.6224	0.2858	0.047
Mof_C 	C 	0.3916	0.5828	0.383	-0.044
Mof_H 	H 	0.3766	0.563	0.5087	0.042
Mof_C 	C 	0.4423	0.5776	0.3246	-0.013
Mof_H 	H 	0.4617	0.5541	0.4122	0.03
Mof_C 	C 	0.4641	0.6073	0.137	-0.095
Mof_H 	H 	0.4981	0.6033	0.0997	0.062
Mof_C 	C 	0.4363	0.643	0.0012	0.045
Mof_C 	C 	0.4589	0.6725	0.813	-0.127
Mof_H 	H 	0.493	0.6695	0.7757	0.075
Mof_C 	C 	0.4288	0.7064	0.683	0.084
Mof_C 	C 	0.4878	0.7557	0.389	0.166
Mof_C 	C 	0.5781	0.783	0.173	-0.119
Mof_C 	C 	0.4955	0.8049	0.317	0.035
Mof_H 	H 	0.47	0.8283	0.3423	0.025
Mof_C 	C 	0.5411	0.8202	0.206	-0.075
Mof_H 	H 	0.5466	0.8534	0.1577	0.07
Mof_C 	C 	0.5736	0.7324	0.242	-0.214
Mof_H 	H 	0.599	0.7087	0.2186	0.106
Mof_C 	C 	0.5266	0.7211	0.349	0.14
Mof_H 	H 	0.5208	0.688	0.3969	-0.021
Mof_C 	C 	0.6286	0.7967	0.055	0.368
Mof_O 	O 	0.6262	0.8479	0.98	-0.148
Mof_C 	C 	0.4898	0.7741	0.141	-0.228
Mof_H 	H 	0.4601	0.7773	0.0476	0.105
Mof_C 	C 	0.5346	0.788	0.028	0.095
Mof_H 	H 	0.5356	0.8003	0.8613	0.024
Mof_C 	C 	0.5779	0.7646	0.421	0.266
Mof_H 	H 	0.6076	0.7612	0.5135	-0.048
Mof_C 	C 	0.5322	0.7514	0.526	-0.345
Mof_H 	H 	0.5312	0.7392	0.6935	0.155
_end
