data_functionalizedCrystal
_audit_creation_method	'EQeq! by Chris Wilmer'
_symmetry_space_group_name_H-M	'P1'
_symmetry_Int_Tables_number	1
_symmetry_cell_setting	triclinic
loop_
_symmetry_equiv_pos_as_xyz
  x,y,z
_cell_length_a	18.4202
_cell_length_b	9.551
_cell_length_c	33.879
_cell_angle_alpha	90
_cell_angle_beta	92.718
_cell_angle_gamma	90
loop_
_atom_site_label
_atom_site_type_symbol
_atom_site_fract_x
_atom_site_fract_y
_atom_site_fract_z
_atom_site_charge
Mof_Mn	Mn	0.47987	0.64725	0.02827	0.884
Mof_C 	C 	0.6107	0.8315	0.0509	0.457
Mof_C 	C 	0.666	0.871	0.0833	-0.313
Mof_C 	C 	0.7176	0.9716	0.0767	0.336
Mof_H 	H 	0.7172	0.0162	0.0523	-0.085
Mof_C 	C 	0.7698	0.0078	0.1053	-0.461
Mof_H 	H 	0.8054	0.0731	0.1	0.207
Mof_C 	C 	0.7682	0.9456	0.1418	0.428
Mof_C 	C 	0.716	0.846	0.1495	-0.422
Mof_H 	H 	0.7151	0.805	0.1743	0.19
Mof_C 	C 	0.6658	0.8078	0.1201	0.284
Mof_H 	H 	0.6315	0.7392	0.125	-0.054
Mof_C 	C 	0.9871	0.8108	0.4499	0.506
Mof_C 	C 	0.9688	0.8051	0.4078	-0.36
Mof_C 	C 	0.9839	0.9163	0.3826	0.371
Mof_H 	H 	0.0074	0.9952	0.393	-0.097
Mof_C 	C 	0.9652	0.9124	0.3433	-0.443
Mof_H 	H 	0.976	0.9869	0.3269	0.211
Mof_C 	C 	0.9294	0.7937	0.3281	0.422
Mof_C 	C 	0.9151	0.6828	0.3517	-0.432
Mof_H 	H 	0.8924	0.6035	0.3411	0.196
Mof_C 	C 	0.9341	0.6881	0.391	0.317
Mof_H 	H 	0.9237	0.6122	0.407	-0.063
Mof_C 	C 	0.569	0.8519	0.4188	0.417
Mof_C 	C 	0.5983	0.9113	0.382	-0.204
Mof_C 	C 	0.6206	0.8216	0.3529	0.162
Mof_H 	H 	0.6133	0.7258	0.3555	-0.002
Mof_C 	C 	0.654	0.8733	0.3198	-0.279
Mof_H 	H 	0.6678	0.8131	0.2999	0.144
Mof_C 	C 	0.6662	0.0156	0.317	0.306
Mof_C 	C 	0.6407	0.1059	0.345	-0.289
Mof_H 	H 	0.6463	0.2021	0.342	0.154
Mof_C 	C 	0.6069	0.0539	0.3775	0.16
Mof_H 	H 	0.5899	0.115	0.3963	-0.013
Mof_C 	C 	0.8153	0.9615	0.2089	0.49
Mof_C 	C 	0.8689	0.8869	0.2292	-0.526
Mof_H 	H 	0.9072	0.847	0.2163	0.256
Mof_C 	C 	0.8639	0.8732	0.2691	0.486
Mof_C 	C 	0.8078	0.9319	0.2892	-0.527
Mof_H 	H 	0.8056	0.921	0.3164	0.224
Mof_C 	C 	0.7557	0.0062	0.2681	0.469
Mof_C 	C 	0.7586	0.0243	0.2277	-0.539
Mof_H 	H 	0.7236	0.0767	0.2136	0.234
Mof_O 	O 	0.5985	0.9189	0.02441	-0.406
Mof_O 	O 	0.582	0.7109	0.05311	-0.397
Mof_O 	O 	0.0101	0.9251	0.4654	-0.494
Mof_O 	O 	0.9753	0.7081	0.47258	-0.45
Mof_O 	O 	0.565	0.7212	0.4212	-0.405
Mof_O 	O 	0.5516	0.9313	0.4461	-0.394
Mof_O 	O 	0.8241	0.9825	0.16857	-0.377
Mof_O 	O 	0.9155	0.7837	0.28772	-0.366
Mof_O 	O 	0.6994	0.0753	0.2853	-0.353
Mof_Mn	Mn	0.97987	0.14725	0.02827	0.897
Mof_C 	C 	0.1107	0.3315	0.0509	0.436
Mof_C 	C 	0.166	0.371	0.0833	-0.264
Mof_C 	C 	0.2176	0.4716	0.0767	0.23
Mof_H 	H 	0.2172	0.5162	0.0523	-0.04
Mof_C 	C 	0.2698	0.5078	0.1053	-0.357
Mof_H 	H 	0.3054	0.5731	0.1	0.174
Mof_C 	C 	0.2682	0.4456	0.1418	0.363
Mof_C 	C 	0.216	0.346	0.1495	-0.369
Mof_H 	H 	0.2151	0.305	0.1743	0.169
Mof_C 	C 	0.1658	0.3078	0.1201	0.231
Mof_H 	H 	0.1315	0.2392	0.125	-0.043
Mof_C 	C 	0.4871	0.3108	0.4499	0.453
Mof_C 	C 	0.4688	0.3051	0.4078	-0.309
Mof_C 	C 	0.4839	0.4163	0.3826	0.264
Mof_H 	H 	0.5074	0.4952	0.393	-0.046
Mof_C 	C 	0.4652	0.4124	0.3433	-0.379
Mof_H 	H 	0.476	0.4869	0.3269	0.177
Mof_C 	C 	0.4294	0.2937	0.3281	0.381
Mof_C 	C 	0.4151	0.1828	0.3517	-0.392
Mof_H 	H 	0.3924	0.1035	0.3411	0.176
Mof_C 	C 	0.4341	0.1881	0.391	0.267
Mof_H 	H 	0.4237	0.1122	0.407	-0.054
Mof_C 	C 	0.069	0.3519	0.4188	0.43
Mof_C 	C 	0.0983	0.4113	0.382	-0.257
Mof_C 	C 	0.1206	0.3216	0.3529	0.205
Mof_H 	H 	0.1133	0.2258	0.3555	-0.023
Mof_C 	C 	0.154	0.3733	0.3198	-0.339
Mof_H 	H 	0.1678	0.3131	0.2999	0.158
Mof_C 	C 	0.1662	0.5156	0.317	0.353
Mof_C 	C 	0.1407	0.6059	0.345	-0.337
Mof_H 	H 	0.1463	0.7021	0.342	0.168
Mof_C 	C 	0.1069	0.5539	0.3775	0.217
Mof_H 	H 	0.0899	0.615	0.3963	-0.035
Mof_C 	C 	0.3153	0.4615	0.2089	0.468
Mof_C 	C 	0.3689	0.3869	0.2292	-0.52
Mof_H 	H 	0.4072	0.347	0.2163	0.247
Mof_C 	C 	0.3639	0.3732	0.2691	0.483
Mof_C 	C 	0.3078	0.4319	0.2892	-0.546
Mof_H 	H 	0.3056	0.421	0.3164	0.228
Mof_C 	C 	0.2557	0.5062	0.2681	0.485
Mof_C 	C 	0.2586	0.5243	0.2277	-0.521
Mof_H 	H 	0.2236	0.5767	0.2136	0.231
Mof_O 	O 	0.0985	0.4189	0.02441	-0.411
Mof_O 	O 	0.082	0.2109	0.05311	-0.409
Mof_O 	O 	0.5101	0.4251	0.4654	-0.464
Mof_O 	O 	0.4753	0.2081	0.47258	-0.451
Mof_O 	O 	0.065	0.2212	0.4212	-0.413
Mof_O 	O 	0.0516	0.4313	0.4461	-0.409
Mof_O 	O 	0.3241	0.4825	0.16857	-0.366
Mof_O 	O 	0.4155	0.2837	0.28772	-0.363
Mof_O 	O 	0.1994	0.5753	0.2853	-0.366
Mof_Mn	Mn	0.52013	0.64725	0.47173	0.897
Mof_C 	C 	0.3893	0.8315	0.4491	0.456
Mof_C 	C 	0.334	0.871	0.4167	-0.312
Mof_C 	C 	0.2824	0.9716	0.4233	0.335
Mof_H 	H 	0.2828	0.0162	0.4477	-0.082
Mof_C 	C 	0.2302	0.0078	0.3947	-0.46
Mof_H 	H 	0.1946	0.0731	0.4	0.207
Mof_C 	C 	0.2318	0.9456	0.3582	0.427
Mof_C 	C 	0.284	0.846	0.3505	-0.421
Mof_H 	H 	0.2849	0.805	0.3257	0.191
Mof_C 	C 	0.3342	0.8078	0.3799	0.284
Mof_H 	H 	0.3685	0.7392	0.375	-0.054
Mof_C 	C 	0.0129	0.8108	0.0501	0.393
Mof_C 	C 	0.0312	0.8051	0.0922	-0.245
Mof_C 	C 	0.0161	0.9163	0.1174	0.148
Mof_H 	H 	0.9926	0.9952	0.107	0.017
Mof_C 	C 	0.0348	0.9124	0.1567	-0.306
Mof_H 	H 	0.024	0.9869	0.1731	0.145
Mof_C 	C 	0.0706	0.7937	0.1719	0.334
Mof_C 	C 	0.0849	0.6828	0.1483	-0.343
Mof_H 	H 	0.1076	0.6035	0.1589	0.16
Mof_C 	C 	0.0659	0.6881	0.109	0.209
Mof_H 	H 	0.0763	0.6122	0.093	-0.033
Mof_C 	C 	0.431	0.8519	0.0812	0.416
Mof_C 	C 	0.4017	0.9113	0.118	-0.204
Mof_C 	C 	0.3794	0.8216	0.1471	0.162
Mof_H 	H 	0.3867	0.7258	0.1445	-0.002
Mof_C 	C 	0.346	0.8733	0.1802	-0.279
Mof_H 	H 	0.3322	0.8131	0.2001	0.144
Mof_C 	C 	0.3338	0.0156	0.183	0.305
Mof_C 	C 	0.3593	0.1059	0.155	-0.289
Mof_H 	H 	0.3537	0.2021	0.158	0.153
Mof_C 	C 	0.3931	0.0539	0.1225	0.159
Mof_H 	H 	0.4101	0.115	0.1037	-0.013
Mof_C 	C 	0.1847	0.9615	0.2911	0.483
Mof_C 	C 	0.1311	0.8869	0.2708	-0.52
Mof_H 	H 	0.0928	0.847	0.2837	0.241
Mof_C 	C 	0.1361	0.8732	0.2309	0.473
Mof_C 	C 	0.1922	0.9319	0.2108	-0.52
Mof_H 	H 	0.1944	0.921	0.1836	0.222
Mof_C 	C 	0.2443	0.0062	0.2319	0.464
Mof_C 	C 	0.2414	0.0243	0.2723	-0.535
Mof_H 	H 	0.2764	0.0767	0.2864	0.232
Mof_O 	O 	0.4015	0.9189	0.47559	-0.404
Mof_O 	O 	0.418	0.7109	0.44689	-0.396
Mof_O 	O 	0.9899	0.9251	0.0346	-0.425
Mof_O 	O 	0.0247	0.7081	0.02742	-0.443
Mof_O 	O 	0.435	0.7212	0.0788	-0.404
Mof_O 	O 	0.4484	0.9313	0.0539	-0.394
Mof_O 	O 	0.1759	0.9825	0.33143	-0.381
Mof_O 	O 	0.0845	0.7837	0.21228	-0.354
Mof_O 	O 	0.3006	0.0753	0.2147	-0.352
Mof_Mn	Mn	0.02013	0.14725	0.47173	0.864
Mof_C 	C 	0.8893	0.3315	0.4491	0.433
Mof_C 	C 	0.834	0.371	0.4167	-0.254
Mof_C 	C 	0.7824	0.4716	0.4233	0.224
Mof_H 	H 	0.7828	0.5162	0.4477	-0.035
Mof_C 	C 	0.7302	0.5078	0.3947	-0.352
Mof_H 	H 	0.6946	0.5731	0.4	0.172
Mof_C 	C 	0.7318	0.4456	0.3582	0.359
Mof_C 	C 	0.784	0.346	0.3505	-0.363
Mof_H 	H 	0.7849	0.305	0.3257	0.169
Mof_C 	C 	0.8342	0.3078	0.3799	0.226
Mof_H 	H 	0.8685	0.2392	0.375	-0.034
Mof_C 	C 	0.5129	0.3108	0.0501	0.452
Mof_C 	C 	0.5312	0.3051	0.0922	-0.309
Mof_C 	C 	0.5161	0.4163	0.1174	0.263
Mof_H 	H 	0.4926	0.4952	0.107	-0.046
Mof_C 	C 	0.5348	0.4124	0.1567	-0.379
Mof_H 	H 	0.524	0.4869	0.1731	0.177
Mof_C 	C 	0.5706	0.2937	0.1719	0.38
Mof_C 	C 	0.5849	0.1828	0.1483	-0.392
Mof_H 	H 	0.6076	0.1035	0.1589	0.176
Mof_C 	C 	0.5659	0.1881	0.109	0.266
Mof_H 	H 	0.5763	0.1122	0.093	-0.054
Mof_C 	C 	0.931	0.3519	0.0812	0.431
Mof_C 	C 	0.9017	0.4113	0.118	-0.245
Mof_C 	C 	0.8794	0.3216	0.1471	0.202
Mof_H 	H 	0.8867	0.2258	0.1445	-0.017
Mof_C 	C 	0.846	0.3733	0.1802	-0.33
Mof_H 	H 	0.8322	0.3131	0.2001	0.159
Mof_C 	C 	0.8338	0.5156	0.183	0.351
Mof_C 	C 	0.8593	0.6059	0.155	-0.326
Mof_H 	H 	0.8537	0.7021	0.158	0.169
Mof_C 	C 	0.8931	0.5539	0.1225	0.214
Mof_H 	H 	0.9101	0.615	0.1037	-0.022
Mof_C 	C 	0.6847	0.4615	0.2911	0.467
Mof_C 	C 	0.6311	0.3869	0.2708	-0.519
Mof_H 	H 	0.5928	0.347	0.2837	0.246
Mof_C 	C 	0.6361	0.3732	0.2309	0.482
Mof_C 	C 	0.6922	0.4319	0.2108	-0.545
Mof_H 	H 	0.6944	0.421	0.1836	0.227
Mof_C 	C 	0.7443	0.5062	0.2319	0.484
Mof_C 	C 	0.7414	0.5243	0.2723	-0.519
Mof_H 	H 	0.7764	0.5767	0.2864	0.231
Mof_O 	O 	0.9015	0.4189	0.47559	-0.393
Mof_O 	O 	0.918	0.2109	0.44689	-0.379
Mof_O 	O 	0.4899	0.4251	0.0346	-0.469
Mof_O 	O 	0.5247	0.2081	0.02742	-0.456
Mof_O 	O 	0.935	0.2212	0.0788	-0.411
Mof_O 	O 	0.9484	0.4313	0.0539	-0.391
Mof_O 	O 	0.6759	0.4825	0.33143	-0.365
Mof_O 	O 	0.5845	0.2837	0.21228	-0.363
Mof_O 	O 	0.8006	0.5753	0.2147	-0.363
Mof_Mn	Mn	0.52013	0.35275	0.97173	0.912
Mof_C 	C 	0.3893	0.1685	0.9491	0.416
Mof_C 	C 	0.334	0.129	0.9167	-0.208
Mof_C 	C 	0.2824	0.0284	0.9233	0.131
Mof_H 	H 	0.2828	0.9838	0.9477	0.007
Mof_C 	C 	0.2302	0.9922	0.8947	-0.261
Mof_H 	H 	0.1946	0.9269	0.9	0.144
Mof_C 	C 	0.2318	0.0544	0.8582	0.303
Mof_C 	C 	0.284	0.154	0.8505	-0.316
Mof_H 	H 	0.2849	0.195	0.8257	0.151
Mof_C 	C 	0.3342	0.1922	0.8799	0.179
Mof_H 	H 	0.3685	0.2608	0.875	-0.02
Mof_C 	C 	0.0129	0.1892	0.5501	0.396
Mof_C 	C 	0.0312	0.1949	0.5922	-0.251
Mof_C 	C 	0.0161	0.0837	0.6174	0.152
Mof_H 	H 	0.9926	0.0048	0.607	0.007
Mof_C 	C 	0.0348	0.0876	0.6567	-0.311
Mof_H 	H 	0.024	0.0131	0.6731	0.141
Mof_C 	C 	0.0706	0.2063	0.6719	0.337
Mof_C 	C 	0.0849	0.3172	0.6483	-0.347
Mof_H 	H 	0.1076	0.3965	0.6589	0.162
Mof_C 	C 	0.0659	0.3119	0.609	0.213
Mof_H 	H 	0.0763	0.3878	0.593	-0.035
Mof_C 	C 	0.431	0.1481	0.5812	0.445
Mof_C 	C 	0.4017	0.0887	0.618	-0.288
Mof_C 	C 	0.3794	0.1784	0.6471	0.237
Mof_H 	H 	0.3867	0.2742	0.6445	-0.028
Mof_C 	C 	0.346	0.1267	0.6802	-0.377
Mof_H 	H 	0.3322	0.1869	0.7001	0.173
Mof_C 	C 	0.3338	0.9844	0.683	0.39
Mof_C 	C 	0.3593	0.8941	0.655	-0.366
Mof_H 	H 	0.3537	0.7979	0.658	0.181
Mof_C 	C 	0.3931	0.9461	0.6225	0.261
Mof_H 	H 	0.4101	0.885	0.6037	-0.042
Mof_C 	C 	0.1847	0.0385	0.7911	0.449
Mof_C 	C 	0.1311	0.1131	0.7708	-0.513
Mof_H 	H 	0.0928	0.153	0.7837	0.237
Mof_C 	C 	0.1361	0.1268	0.7309	0.478
Mof_C 	C 	0.1922	0.0681	0.7108	-0.559
Mof_H 	H 	0.1944	0.079	0.6836	0.229
Mof_C 	C 	0.2443	0.9938	0.7319	0.496
Mof_C 	C 	0.2414	0.9757	0.7723	-0.505
Mof_H 	H 	0.2764	0.9233	0.7864	0.229
Mof_O 	O 	0.4015	0.0811	0.97559	-0.395
Mof_O 	O 	0.418	0.2891	0.94689	-0.386
Mof_O 	O 	0.9899	0.0749	0.5346	-0.432
Mof_O 	O 	0.0247	0.2919	0.52742	-0.439
Mof_O 	O 	0.435	0.2788	0.5788	-0.413
Mof_O 	O 	0.4484	0.0687	0.5539	-0.412
Mof_O 	O 	0.1759	0.0175	0.83143	-0.355
Mof_O 	O 	0.0845	0.2163	0.71228	-0.357
Mof_O 	O 	0.3006	0.9247	0.7147	-0.373
Mof_Mn	Mn	0.02013	0.85275	0.97173	0.898
Mof_C 	C 	0.8893	0.6685	0.9491	0.431
Mof_C 	C 	0.834	0.629	0.9167	-0.247
Mof_C 	C 	0.7824	0.5284	0.9233	0.22
Mof_H 	H 	0.7828	0.4838	0.9477	-0.031
Mof_C 	C 	0.7302	0.4922	0.8947	-0.348
Mof_H 	H 	0.6946	0.4269	0.9	0.172
Mof_C 	C 	0.7318	0.5544	0.8582	0.357
Mof_C 	C 	0.784	0.654	0.8505	-0.359
Mof_H 	H 	0.7849	0.695	0.8257	0.169
Mof_C 	C 	0.8342	0.6922	0.8799	0.222
Mof_H 	H 	0.8685	0.7608	0.875	-0.028
Mof_C 	C 	0.5129	0.6892	0.5501	0.452
Mof_C 	C 	0.5312	0.6949	0.5922	-0.305
Mof_C 	C 	0.5161	0.5837	0.6174	0.261
Mof_H 	H 	0.4926	0.5048	0.607	-0.045
Mof_C 	C 	0.5348	0.5876	0.6567	-0.377
Mof_H 	H 	0.524	0.5131	0.6731	0.175
Mof_C 	C 	0.5706	0.7063	0.6719	0.379
Mof_C 	C 	0.5849	0.8172	0.6483	-0.389
Mof_H 	H 	0.6076	0.8965	0.6589	0.181
Mof_C 	C 	0.5659	0.8119	0.609	0.265
Mof_H 	H 	0.5763	0.8878	0.593	-0.046
Mof_C 	C 	0.931	0.6481	0.5812	0.431
Mof_C 	C 	0.9017	0.5887	0.618	-0.242
Mof_C 	C 	0.8794	0.6784	0.6471	0.201
Mof_H 	H 	0.8867	0.7742	0.6445	-0.01
Mof_C 	C 	0.846	0.6267	0.6802	-0.328
Mof_H 	H 	0.8322	0.6869	0.7001	0.161
Mof_C 	C 	0.8338	0.4844	0.683	0.351
Mof_C 	C 	0.8593	0.3941	0.655	-0.325
Mof_H 	H 	0.8537	0.2979	0.658	0.169
Mof_C 	C 	0.8931	0.4461	0.6225	0.212
Mof_H 	H 	0.9101	0.385	0.6037	-0.021
Mof_C 	C 	0.6847	0.5385	0.7911	0.466
Mof_C 	C 	0.6311	0.6131	0.7708	-0.519
Mof_H 	H 	0.5928	0.653	0.7837	0.246
Mof_C 	C 	0.6361	0.6268	0.7309	0.482
Mof_C 	C 	0.6922	0.5681	0.7108	-0.545
Mof_H 	H 	0.6944	0.579	0.6836	0.227
Mof_C 	C 	0.7443	0.4938	0.7319	0.484
Mof_C 	C 	0.7414	0.4757	0.7723	-0.519
Mof_H 	H 	0.7764	0.4233	0.7864	0.231
Mof_O 	O 	0.9015	0.5811	0.97559	-0.382
Mof_O 	O 	0.918	0.7891	0.94689	-0.372
Mof_O 	O 	0.4899	0.5749	0.5346	-0.463
Mof_O 	O 	0.5247	0.7919	0.52742	-0.445
Mof_O 	O 	0.935	0.7788	0.5788	-0.406
Mof_O 	O 	0.9484	0.5687	0.5539	-0.391
Mof_O 	O 	0.6759	0.5175	0.83143	-0.364
Mof_O 	O 	0.5845	0.7163	0.71228	-0.36
Mof_O 	O 	0.8006	0.4247	0.7147	-0.362
Mof_Mn	Mn	0.47987	0.35275	0.52827	0.896
Mof_C 	C 	0.6107	0.1685	0.5509	0.418
Mof_C 	C 	0.666	0.129	0.5833	-0.209
Mof_C 	C 	0.7176	0.0284	0.5767	0.129
Mof_H 	H 	0.7172	0.9838	0.5523	0.006
Mof_C 	C 	0.7698	0.9922	0.6053	-0.258
Mof_H 	H 	0.8054	0.9269	0.6	0.143
Mof_C 	C 	0.7682	0.0544	0.6418	0.302
Mof_C 	C 	0.716	0.154	0.6495	-0.315
Mof_H 	H 	0.7151	0.195	0.6743	0.151
Mof_C 	C 	0.6658	0.1922	0.6201	0.178
Mof_H 	H 	0.6315	0.2608	0.625	-0.02
Mof_C 	C 	0.9871	0.1892	0.9499	0.507
Mof_C 	C 	0.9688	0.1949	0.9078	-0.364
Mof_C 	C 	0.9839	0.0837	0.8826	0.372
Mof_H 	H 	0.0074	0.0048	0.893	-0.105
Mof_C 	C 	0.9652	0.0876	0.8433	-0.447
Mof_H 	H 	0.976	0.0131	0.8269	0.206
Mof_C 	C 	0.9294	0.2063	0.8281	0.423
Mof_C 	C 	0.9151	0.3172	0.8517	-0.434
Mof_H 	H 	0.8924	0.3965	0.8411	0.197
Mof_C 	C 	0.9341	0.3119	0.891	0.318
Mof_H 	H 	0.9237	0.3878	0.907	-0.064
Mof_C 	C 	0.569	0.1481	0.9188	0.443
Mof_C 	C 	0.5983	0.0887	0.882	-0.285
Mof_C 	C 	0.6206	0.1784	0.8529	0.236
Mof_H 	H 	0.6133	0.2742	0.8555	-0.028
Mof_C 	C 	0.654	0.1267	0.8198	-0.376
Mof_H 	H 	0.6678	0.1869	0.7999	0.172
Mof_C 	C 	0.6662	0.9844	0.817	0.389
Mof_C 	C 	0.6407	0.8941	0.845	-0.364
Mof_H 	H 	0.6463	0.7979	0.842	0.181
Mof_C 	C 	0.6069	0.9461	0.8775	0.259
Mof_H 	H 	0.5899	0.885	0.8963	-0.04
Mof_C 	C 	0.8153	0.0385	0.7089	0.455
Mof_C 	C 	0.8689	0.1131	0.7292	-0.519
Mof_H 	H 	0.9072	0.153	0.7163	0.252
Mof_C 	C 	0.8639	0.1268	0.7691	0.491
Mof_C 	C 	0.8078	0.0681	0.7892	-0.566
Mof_H 	H 	0.8056	0.079	0.8164	0.232
Mof_C 	C 	0.7557	0.9938	0.7681	0.501
Mof_C 	C 	0.7586	0.9757	0.7277	-0.509
Mof_H 	H 	0.7236	0.9233	0.7136	0.23
Mof_O 	O 	0.5985	0.0811	0.52441	-0.406
Mof_O 	O 	0.582	0.2891	0.55311	-0.388
Mof_O 	O 	0.0101	0.0749	0.9654	-0.499
Mof_O 	O 	0.9753	0.2919	0.97258	-0.439
Mof_O 	O 	0.565	0.2788	0.9212	-0.413
Mof_O 	O 	0.5516	0.0687	0.9461	-0.404
Mof_O 	O 	0.8241	0.0175	0.66857	-0.351
Mof_O 	O 	0.9155	0.2163	0.78772	-0.368
Mof_O 	O 	0.6994	0.9247	0.7853	-0.373
Mof_Mn	Mn	0.97987	0.85275	0.52827	0.93
Mof_C 	C 	0.1107	0.6685	0.5509	0.436
Mof_C 	C 	0.166	0.629	0.5833	-0.26
Mof_C 	C 	0.2176	0.5284	0.5767	0.228
Mof_H 	H 	0.2172	0.4838	0.5523	-0.037
Mof_C 	C 	0.2698	0.4922	0.6053	-0.354
Mof_H 	H 	0.3054	0.4269	0.6	0.173
Mof_C 	C 	0.2682	0.5544	0.6418	0.361
Mof_C 	C 	0.216	0.654	0.6495	-0.366
Mof_H 	H 	0.2151	0.695	0.6743	0.17
Mof_C 	C 	0.1658	0.6922	0.6201	0.229
Mof_H 	H 	0.1315	0.7608	0.625	-0.038
Mof_C 	C 	0.4871	0.6892	0.9499	0.45
Mof_C 	C 	0.4688	0.6949	0.9078	-0.302
Mof_C 	C 	0.4839	0.5837	0.8826	0.26
Mof_H 	H 	0.5074	0.5048	0.893	-0.045
Mof_C 	C 	0.4652	0.5876	0.8433	-0.376
Mof_H 	H 	0.476	0.5131	0.8269	0.175
Mof_C 	C 	0.4294	0.7063	0.8281	0.379
Mof_C 	C 	0.4151	0.8172	0.8517	-0.387
Mof_H 	H 	0.3924	0.8965	0.8411	0.181
Mof_C 	C 	0.4341	0.8119	0.891	0.263
Mof_H 	H 	0.4237	0.8878	0.907	-0.045
Mof_C 	C 	0.069	0.6481	0.9188	0.427
Mof_C 	C 	0.0983	0.5887	0.882	-0.252
Mof_C 	C 	0.1206	0.6784	0.8529	0.202
Mof_H 	H 	0.1133	0.7742	0.8555	-0.016
Mof_C 	C 	0.154	0.6267	0.8198	-0.335
Mof_H 	H 	0.1678	0.6869	0.7999	0.16
Mof_C 	C 	0.1662	0.4844	0.817	0.352
Mof_C 	C 	0.1407	0.3941	0.845	-0.334
Mof_H 	H 	0.1463	0.2979	0.842	0.168
Mof_C 	C 	0.1069	0.4461	0.8775	0.214
Mof_H 	H 	0.0899	0.385	0.8963	-0.034
Mof_C 	C 	0.3153	0.5385	0.7089	0.467
Mof_C 	C 	0.3689	0.6131	0.7292	-0.52
Mof_H 	H 	0.4072	0.653	0.7163	0.247
Mof_C 	C 	0.3639	0.6268	0.7691	0.483
Mof_C 	C 	0.3078	0.5681	0.7892	-0.546
Mof_H 	H 	0.3056	0.579	0.8164	0.228
Mof_C 	C 	0.2557	0.4938	0.7681	0.485
Mof_C 	C 	0.2586	0.4757	0.7277	-0.521
Mof_H 	H 	0.2236	0.4233	0.7136	0.231
Mof_O 	O 	0.0985	0.5811	0.52441	-0.409
Mof_O 	O 	0.082	0.7891	0.55311	-0.404
Mof_O 	O 	0.5101	0.5749	0.9654	-0.457
Mof_O 	O 	0.4753	0.7919	0.97258	-0.433
Mof_O 	O 	0.065	0.7788	0.9212	-0.407
Mof_O 	O 	0.0516	0.5687	0.9461	-0.401
Mof_O 	O 	0.3241	0.5175	0.66857	-0.365
Mof_O 	O 	0.4155	0.7163	0.78772	-0.36
Mof_O 	O 	0.1994	0.4247	0.7853	-0.365
Mof_Mn	Mn	0.5	0	-0	0.973
Mof_Mn	Mn	-0	0.5	-0	0.952
Mof_Mn	Mn	0.5	0	0.5	0.998
Mof_Mn	Mn	9.54762e-18	0.5	0.5	0.976
_end
