data_functionalizedCrystal
_audit_creation_method	'EQeq! by Chris Wilmer'
_symmetry_space_group_name_H-M	'P1'
_symmetry_Int_Tables_number	1
_symmetry_cell_setting	triclinic
loop_
_symmetry_equiv_pos_as_xyz
  x,y,z
_cell_length_a	10.85
_cell_length_b	11.534
_cell_length_c	13.608
_cell_angle_alpha	66.17
_cell_angle_beta	81.4
_cell_angle_gamma	63.15
loop_
_atom_site_label
_atom_site_type_symbol
_atom_site_fract_x
_atom_site_fract_y
_atom_site_fract_z
_atom_site_charge
Mof_Co	Co	0.44208	0.07515	0.79178	1.159
Mof_Co	Co	0.55792	0.92485	0.20822	1.176
Mof_Co	Co	-0	0	-0	1.088
Mof_H 	H 	0.1599	0.3107	0.7872	-0.009
Mof_H 	H 	0.9683	0.4661	0.6748	0.13
Mof_H 	H 	0.2031	0.4044	0.4298	0.084
Mof_H 	H 	0.385	0.2486	0.549	-0.007
Mof_H 	H 	0.825	0.3305	0.9127	-0.01
Mof_H 	H 	0.822	0.5283	0.9133	0.079
Mof_H 	H 	0.185	0.2924	0.0754	0.101
Mof_H 	H 	0.1791	0.1012	0.0694	-0.018
Mof_H 	H 	0.8558	0.0838	0.1935	0.029
Mof_H 	H 	0.8732	0.0104	0.3751	0.013
Mof_H 	H 	0.2235	0.6788	0.3762	0.067
Mof_H 	H 	0.1961	0.7629	0.1937	0.015
Mof_H 	H 	0.9006	0.7807	0.7332	0.002
Mof_H 	H 	0.8674	0.8702	0.5505	0.091
Mof_H 	H 	0.2771	0.6787	0.5314	0.091
Mof_H 	H 	0.2934	0.5966	0.7152	0.022
Mof_H 	H 	0.544	0.6638	0.8701	0.205
Mof_H 	H 	0.3836	0.7191	0.8722	0.203
Mof_H 	H 	0.5893	0.6153	0.0514	0.191
Mof_H 	H 	0.4346	0.6415	0.0719	0.194
Mof_H 	H 	0.5624	0.8763	0.972	0.275
Mof_H 	H 	0.8401	0.6893	0.2128	0.022
Mof_H 	H 	0.0317	0.5339	0.3252	0.021
Mof_H 	H 	0.7969	0.5956	0.5702	0.08
Mof_H 	H 	0.615	0.7514	0.451	0.005
Mof_H 	H 	0.175	0.6695	0.0873	0.001
Mof_H 	H 	0.178	0.4717	0.0867	0.067
Mof_H 	H 	0.815	0.7076	0.9246	0.076
Mof_H 	H 	0.8209	0.8988	0.9306	0.001
Mof_H 	H 	0.1442	0.9162	0.8065	-0.048
Mof_H 	H 	0.1268	0.9896	0.6249	0.186
Mof_H 	H 	0.7765	0.3212	0.6238	0.115
Mof_H 	H 	0.8039	0.2371	0.8063	-0.004
Mof_H 	H 	0.0994	0.2193	0.2668	0.013
Mof_H 	H 	0.1326	0.1298	0.4495	0.073
Mof_H 	H 	0.7229	0.3213	0.4686	0.075
Mof_H 	H 	0.7066	0.4034	0.2848	0.023
Mof_H 	H 	0.456	0.3362	0.1299	0.177
Mof_H 	H 	0.6164	0.2809	0.1278	0.175
Mof_H 	H 	0.4107	0.3847	0.9486	0.184
Mof_H 	H 	0.5654	0.3585	0.9281	0.182
Mof_H 	H 	0.4376	0.1237	0.028	0.227
Mof_C 	C 	0.1683	0.3277	0.7143	0.122
Mof_C 	C 	0.0522	0.4223	0.6467	-0.216
Mof_C 	C 	0.0612	0.4516	0.5377	0.069
Mof_C 	C 	0.1901	0.3856	0.5028	-0.15
Mof_C 	C 	0.2994	0.2923	0.5751	0.094
Mof_C 	C 	0.8987	0.3222	0.9464	0.127
Mof_C 	C 	0.896	0.442	0.947	-0.136
Mof_C 	C 	0.0019	0.4362	0.997	0.116
Mof_C 	C 	0.1093	0.3036	0.042	-0.219
Mof_C 	C 	0.1051	0.1883	0.0379	0.054
Mof_C 	C 	0.9307	0.0005	0.2307	-0.013
Mof_C 	C 	0.941	0.9574	0.3402	0.057
Mof_C 	C 	0.0523	0.835	0.3992	-0.043
Mof_C 	C 	0.1473	0.7622	0.3411	-0.078
Mof_C 	C 	0.1292	0.8131	0.2309	0.039
Mof_C 	C 	0.978	0.7597	0.6919	0.116
Mof_C 	C 	0.9564	0.8138	0.5815	-0.124
Mof_C 	C 	0.0691	0.7827	0.5183	0.069
Mof_C 	C 	0.1975	0.7011	0.5703	-0.144
Mof_C 	C 	0.2059	0.6529	0.6817	0.083
Mof_C 	C 	0.4456	0.8429	0.7387	0.485
Mof_C 	C 	0.4578	0.748	0.8583	-0.555
Mof_C 	C 	0.454	0.8055	0.9431	0.337
Mof_C 	C 	0.4971	0.6857	0.0541	-0.571
Mof_C 	C 	0.496	0.7357	0.1428	0.469
Mof_C 	C 	0.3075	0.9216	0.9436	0.251
Mof_C 	C 	0.8317	0.6723	0.2857	0.048
Mof_C 	C 	0.9478	0.5777	0.3533	-0.037
Mof_C 	C 	0.9388	0.5484	0.4623	0.051
Mof_C 	C 	0.8099	0.6144	0.4972	-0.122
Mof_C 	C 	0.7006	0.7077	0.4249	0.081
Mof_C 	C 	0.1013	0.6778	0.0536	0.026
Mof_C 	C 	0.104	0.558	0.053	-0.16
Mof_C 	C 	0.9981	0.5638	0.003	0.037
Mof_C 	C 	0.8907	0.6964	0.958	-0.091
Mof_C 	C 	0.8949	0.8117	0.9621	0.119
Mof_C 	C 	0.0693	0.9995	0.7693	0.223
Mof_C 	C 	0.059	0.0426	0.6598	-0.373
Mof_C 	C 	0.9477	0.165	0.6008	0.188
Mof_C 	C 	0.8527	0.2378	0.6589	-0.215
Mof_C 	C 	0.8708	0.1869	0.7691	0.132
Mof_C 	C 	0.022	0.2403	0.3081	0.028
Mof_C 	C 	0.0436	0.1862	0.4185	-0.153
Mof_C 	C 	0.9309	0.2173	0.4817	0.046
Mof_C 	C 	0.8025	0.2989	0.4297	-0.111
Mof_C 	C 	0.7941	0.3471	0.3183	0.074
Mof_C 	C 	0.5544	0.1571	0.2613	0.473
Mof_C 	C 	0.5422	0.252	0.1417	-0.511
Mof_C 	C 	0.546	0.1945	0.0569	0.248
Mof_C 	C 	0.5029	0.3143	0.9459	-0.448
Mof_C 	C 	0.504	0.2643	0.8572	0.448
Mof_C 	C 	0.6925	0.0784	0.0564	0.2
Mof_N 	N 	0.2902	0.2603	0.6809	-0.245
Mof_N 	N 	0.0024	0.1932	0.9921	-0.216
Mof_N 	N 	0.022	0.9297	0.1746	-0.21
Mof_N 	N 	0.1003	0.6803	0.7432	-0.152
Mof_N 	N 	0.7098	0.7397	0.3191	-0.224
Mof_N 	N 	0.9976	0.8068	0.0079	-0.212
Mof_N 	N 	0.978	0.0703	0.8254	-0.247
Mof_N 	N 	0.8997	0.3197	0.2568	-0.111
Mof_O 	O 	0.4387	0.9628	0.70871	-0.439
Mof_O 	O 	0.4445	0.7897	0.676	-0.299
Mof_O 	O 	0.5507	0.8656	0.9136	-0.518
Mof_O 	O 	0.2186	0.8838	0.99821	-0.35
Mof_O 	O 	0.2863	0.0455	0.8887	-0.401
Mof_O 	O 	0.4643	0.6777	0.235	-0.335
Mof_O 	O 	0.5293	0.8367	0.11345	-0.483
Mof_O 	O 	0.5613	0.0372	0.29129	-0.465
Mof_O 	O 	0.5555	0.2103	0.324	-0.303
Mof_O 	O 	0.4493	0.1344	0.0864	-0.514
Mof_O 	O 	0.7814	0.1162	0.00179	-0.396
Mof_O 	O 	0.7137	0.9545	0.1113	-0.361
Mof_O 	O 	0.5357	0.3223	0.765	-0.327
Mof_O 	O 	0.4707	0.1633	0.88655	-0.454
_end
