# CIF file generated by openbabel 3.1.0, see https://openbabel.org
data_I
_chemical_name_common 'image0'
_cell_length_a 7.307
_cell_length_b 24.96
_cell_length_c 7.27
_cell_angle_alpha 90
_cell_angle_beta 90
_cell_angle_gamma 90
_space_group_name_H-M_alt 'P 1'
_space_group_name_Hall 'P 1'
loop_
    _symmetry_equiv_pos_as_xyz
    x,y,z
loop_
    _atom_site_label
    _atom_site_type_symbol
    _atom_site_fract_x
    _atom_site_fract_y
    _atom_site_fract_z
    _atom_site_occupancy
    Zn1      Zn       0.94633    0.78031    0.87380    1.000
    O1       O        0.10470    0.74100    0.07060    1.000
    O2       O        0.30840    0.67960    0.16120    1.000
    O3       O        0.10800    0.73950    0.67790    1.000
    O4       O        0.31450    0.67960    0.59150    1.000
    C1       C        0.19740    0.69790    0.04980    1.000
    C2       C        0.16050    0.66512    0.87240    1.000
    H1       H        0.24060    0.63310    0.87150    1.000
    H2       H        0.03190    0.65270    0.87270    1.000
    C3       C        0.19430    0.69690    0.70380    1.000
    C4       C        0.44460    0.87905    0.86950    1.000
    C5       C        0.32130    0.83709    0.89080    1.000
    H3       H        0.36380    0.80270    0.92680    1.000
    N1       N        0.13590    0.84547    0.85930    1.000
    C6       C        0.07370    0.89581    0.80660    1.000
    C7       C        0.19700    0.93777    0.78530    1.000
    C8       C        0.38240    0.92939    0.81680    1.000
    C9       C        0.51800    0.97450    0.80000    1.000
    C10      C        0.08020    0.89525    0.92350    1.000
    C11      C        0.19750    0.93910    0.92600    1.000
    C12      C        0.38510    0.93060    0.91200    1.000
    C13      C        0.52150    0.97350    0.91100    1.000
    Zn2      Zn       0.05367    0.21969    0.87380    1.000
    O5       O        0.89530    0.25900    0.07060    1.000
    O6       O        0.69160    0.32040    0.16120    1.000
    O7       O        0.89200    0.26050    0.67790    1.000
    O8       O        0.68550    0.32040    0.59150    1.000
    C14      C        0.80260    0.30210    0.04980    1.000
    C15      C        0.83950    0.33488    0.87240    1.000
    H4       H        0.75940    0.36690    0.87150    1.000
    H5       H        0.96810    0.34730    0.87270    1.000
    C16      C        0.80570    0.30310    0.70380    1.000
    C17      C        0.55540    0.12095    0.86950    1.000
    C18      C        0.67870    0.16291    0.89080    1.000
    H6       H        0.63620    0.19730    0.92680    1.000
    N2       N        0.86410    0.15453    0.85930    1.000
    C19      C        0.92630    0.10419    0.80660    1.000
    C20      C        0.80300    0.06223    0.78530    1.000
    C21      C        0.61760    0.07061    0.81680    1.000
    C22      C        0.48200    0.02550    0.80000    1.000
    C23      C        0.91980    0.10475    0.92350    1.000
    C24      C        0.80250    0.06090    0.92600    1.000
    C25      C        0.61490    0.06940    0.91200    1.000
    C26      C        0.47850    0.02650    0.91100    1.000
    Zn3      Zn       0.44633    0.71969    0.37380    1.000
    O9       O        0.60470    0.75900    0.57060    1.000
    O10      O        0.80840    0.82040    0.66120    1.000
    O11      O        0.60800    0.76050    0.17790    1.000
    O12      O        0.81450    0.82040    0.09150    1.000
    C27      C        0.69740    0.80210    0.54980    1.000
    C28      C        0.66050    0.83488    0.37240    1.000
    H7       H        0.74060    0.86690    0.37150    1.000
    H8       H        0.53190    0.84730    0.37270    1.000
    C29      C        0.69430    0.80310    0.20380    1.000
    C30      C        0.94460    0.62095    0.36950    1.000
    C31      C        0.82130    0.66291    0.39080    1.000
    H9       H        0.86380    0.69730    0.42680    1.000
    N3       N        0.63590    0.65453    0.35930    1.000
    C32      C        0.57370    0.60419    0.30660    1.000
    C33      C        0.69700    0.56223    0.28530    1.000
    C34      C        0.88240    0.57061    0.31680    1.000
    C35      C        0.01800    0.52550    0.30000    1.000
    C36      C        0.58020    0.60475    0.42350    1.000
    C37      C        0.69750    0.56090    0.42600    1.000
    C38      C        0.88510    0.56940    0.41200    1.000
    C39      C        0.02150    0.52650    0.41100    1.000
    Zn4      Zn       0.55367    0.28031    0.37380    1.000
    O13      O        0.39530    0.24100    0.57060    1.000
    O14      O        0.19160    0.17960    0.66120    1.000
    O15      O        0.39200    0.23950    0.17790    1.000
    O16      O        0.18550    0.17960    0.09150    1.000
    C40      C        0.30260    0.19790    0.54980    1.000
    C41      C        0.33950    0.16512    0.37240    1.000
    H10      H        0.25940    0.13310    0.37150    1.000
    H11      H        0.46810    0.15270    0.37270    1.000
    C42      C        0.30570    0.19690    0.20380    1.000
    C43      C        0.05540    0.37905    0.36950    1.000
    C44      C        0.17870    0.33709    0.39080    1.000
    H12      H        0.13620    0.30270    0.42680    1.000
    N4       N        0.36410    0.34547    0.35930    1.000
    C45      C        0.42630    0.39581    0.30660    1.000
    C46      C        0.30300    0.43777    0.28530    1.000
    C47      C        0.11760    0.42939    0.31680    1.000
    C48      C        0.98200    0.47450    0.30000    1.000
    C49      C        0.41980    0.39525    0.42350    1.000
    C50      C        0.30250    0.43910    0.42600    1.000
    C51      C        0.11490    0.43060    0.41200    1.000
    C52      C        0.97850    0.47350    0.41100    1.000
