data_functionalizedCrystal
_audit_creation_method	'EQeq! by Chris Wilmer'
_symmetry_space_group_name_H-M	'P1'
_symmetry_Int_Tables_number	1
_symmetry_cell_setting	triclinic
loop_
_symmetry_equiv_pos_as_xyz
  x,y,z
_cell_length_a	14.605
_cell_length_b	14.931
_cell_length_c	16.946
_cell_angle_alpha	112.16
_cell_angle_beta	103.198
_cell_angle_gamma	100.39
loop_
_atom_site_label
_atom_site_type_symbol
_atom_site_fract_x
_atom_site_fract_y
_atom_site_fract_z
_atom_site_charge
Mof_Cd	Cd	0.36024	0.44122	0.59463	0.421
Mof_Cd	Cd	0.63976	0.55878	0.40537	0.421
Mof_Cd	Cd	0.07268	0.12623	0.13401	0.432
Mof_Cd	Cd	0.92732	0.87377	0.86599	0.432
Mof_H 	H 	0.1196	0.4662	0.1174	0.1
Mof_H 	H 	0.8744	0.1248	0.3459	0.054
Mof_H 	H 	0.1512	0.3425	0.158	-0.003
Mof_H 	H 	0.7333	0.0113	0.6534	0.283
Mof_H 	H 	0.6912	0.3148	0.8922	0.04
Mof_H 	H 	0.1282	0.0645	0.43	0.103
Mof_H 	H 	0.9101	0.4359	0.9423	0.065
Mof_H 	H 	0.5203	0.8652	0.1806	0.06
Mof_H 	H 	0.9142	0.768	0.3422	0.103
Mof_H 	H 	0.276	0.2236	0.0505	0.28
Mof_H 	H 	0.9083	0.146	0.9776	0.016
Mof_H 	H 	0.5106	0.0063	0.4286	0.063
Mof_H 	H 	0.8702	0.2645	0.9319	0.095
Mof_H 	H 	0.5834	0.721	0.1442	0.065
Mof_H 	H 	0.724	0.7764	0.9495	0.28
Mof_H 	H 	0.4181	0.9623	0.214	0.043
Mof_H 	H 	0.4716	0.14	0.3994	0.101
Mof_H 	H 	0.4907	0.5261	0.8508	0.182
Mof_H 	H 	0.3577	0.1734	0.7246	0.056
Mof_H 	H 	0.4797	0.1348	0.8194	0.06
Mof_H 	H 	0.2318	0.6176	0.5052	0.291
Mof_H 	H 	0.5284	0.86	0.6006	0.101
Mof_H 	H 	0.6998	0.9554	0.4179	0.048
Mof_H 	H 	0.1229	0.9387	0.8091	0.035
Mof_H 	H 	0.2099	0.4632	0.8831	0.051
Mof_H 	H 	0.9902	0.0574	0.5799	0.065
Mof_H 	H 	0.2454	0.2037	0.4527	0.017
Mof_H 	H 	0.8002	0.632	0.3286	0.011
Mof_H 	H 	0.8153	0.1054	0.4525	0.05
Mof_H 	H 	0.8488	0.6575	0.842	-0.003
Mof_H 	H 	0.6536	0.5528	0.8486	0.075
Mof_H 	H 	0.1831	0.7646	0.4278	0.091
Mof_H 	H 	0.4963	0.8349	0.3526	0.092
Mof_H 	H 	0.7198	0.3125	0.1548	0.051
Mof_H 	H 	0.7203	0.0556	0.8969	0.056
Mof_H 	H 	0.2712	0.8221	0.4108	0.094
Mof_H 	H 	0.3088	0.6852	0.1078	0.04
Mof_H 	H 	0.898	0.4958	0.2128	0.043
Mof_H 	H 	0.5037	0.1651	0.6474	0.092
Mof_H 	H 	0.5093	0.4739	0.1492	0.182
Mof_H 	H 	0.2667	0.9887	0.3466	0.283
Mof_H 	H 	0.3236	0.4336	0.286	0.047
Mof_H 	H 	0.4412	0.2926	0.4437	0.017
Mof_H 	H 	0.0917	0.854	0.0224	0.016
Mof_H 	H 	0.7682	0.3824	0.4948	0.291
Mof_H 	H 	0.6764	0.5664	0.714	0.047
Mof_H 	H 	0.8804	0.5338	0.8826	0.1
Mof_H 	H 	0.6423	0.8266	0.2754	0.056
Mof_H 	H 	0.1603	0.3114	0.8895	0.056
Mof_H 	H 	0.051	0.601	0.2985	0.075
Mof_H 	H 	0.102	0.5042	0.7872	0.043
Mof_H 	H 	0.8771	0.0613	0.1909	0.035
Mof_H 	H 	0.8169	0.2354	0.5722	0.091
Mof_H 	H 	0.1298	0.7355	0.0681	0.095
Mof_H 	H 	0.3002	0.0446	0.5821	0.048
Mof_H 	H 	0.5588	0.7074	0.5563	0.017
Mof_H 	H 	0.949	0.399	0.7015	0.075
Mof_H 	H 	0.2437	0.8269	0.9576	0.062
Mof_H 	H 	0.3481	0.5332	0.0644	0.06
Mof_H 	H 	0.3464	0.4472	0.1514	0.075
Mof_H 	H 	0.2802	0.6875	0.8452	0.051
Mof_H 	H 	0.0899	0.5641	0.0577	0.065
Mof_H 	H 	0.4894	0.9937	0.5714	0.063
Mof_H 	H 	0.4166	0.279	0.8558	0.065
Mof_H 	H 	0.7901	0.5368	0.1169	0.051
Mof_H 	H 	0.6519	0.4668	0.9356	0.06
Mof_H 	H 	0.2797	0.9444	0.1031	0.056
Mof_H 	H 	0.3781	0.3332	0.9346	0.095
Mof_H 	H 	0.4718	0.319	0.6853	0.009
Mof_H 	H 	0.7546	0.7963	0.5473	0.017
Mof_H 	H 	0.1256	0.8752	0.6541	0.054
Mof_H 	H 	0.6219	0.6668	0.0654	0.095
Mof_H 	H 	0.5819	0.0377	0.786	0.043
Mof_H 	H 	0.7364	0.2523	0.7663	0.073
Mof_H 	H 	0.9665	0.8506	0.1606	0.045
Mof_H 	H 	0.7288	0.1779	0.5892	0.094
Mof_H 	H 	0.5282	0.681	0.3147	0.009
Mof_H 	H 	0.8718	0.9355	0.57	0.103
Mof_H 	H 	0.1847	0.8946	0.5475	0.05
Mof_H 	H 	0.1998	0.368	0.6714	0.011
Mof_H 	H 	0.2636	0.7477	0.2337	0.073
Mof_H 	H 	0.0098	0.9426	0.4201	0.065
Mof_H 	H 	0.8397	0.6886	0.1105	0.056
Mof_H 	H 	0.7563	0.1731	0.0424	0.062
Mof_H 	H 	0.0858	0.232	0.6578	0.103
Mof_H 	H 	0.0335	0.1494	0.8394	0.045
Mof_C 	C 	0.8981	0.10072	0.75215	-0.165
Mof_C 	C 	0.3049	0.49259	0.30231	0.003
Mof_C 	C 	0.71942	0.47215	0.62045	-0.153
Mof_C 	C 	0.827	0.0649	0.3307	-0.043
Mof_C 	C 	0.9832	0.9541	0.4667	-0.09
Mof_C 	C 	0.2074	0.9466	0.6057	-0.035
Mof_C 	C 	0.9901	0.38	0.7389	-0.086
Mof_C 	C 	0.6875	0.8866	0.2876	-0.076
Mof_C 	C 	0.4716	0.6357	0.9368	0.179
Mof_C 	C 	0.0915	0.1315	0.5417	0.134
Mof_C 	C 	0.1419	0.1254	0.48027	-0.177
Mof_C 	C 	0.0453	0.71479	0.2598	0.039
Mof_C 	C 	0.8826	0.6716	0.1484	-0.047
Mof_C 	C 	0.1679	0.87416	0.30664	0.213
Mof_C 	C 	0.0936	0.3267	0.1119	0.106
Mof_C 	C 	0.0486	0.78862	0.99373	0.102
Mof_C 	C 	0.5103	0.8109	0.3959	-0.17
Mof_C 	C 	0.8321	0.12584	0.69336	0.213
Mof_C 	C 	0.7209	0.313	0.78221	-0.086
Mof_C 	C 	0.8597	0.21637	0.68665	-0.063
Mof_C 	C 	0.4645	0.85539	0.13518	-0.069
Mof_C 	C 	0.2773	0.0367	0.6267	-0.023
Mof_C 	C 	0.281	0.1032	0.78339	0.034
Mof_C 	C 	0.1473	0.4188	0.848	-0.047
Mof_C 	C 	0.3064	0.6496	0.1423	-0.022
Mof_C 	C 	0.249	0.6169	0.40278	0.218
Mof_C 	C 	0.8461	0.94385	0.02236	0.338
Mof_C 	C 	0.4709	0.1739	0.4579	-0.175
Mof_C 	C 	0.28058	0.52785	0.37955	-0.153
Mof_C 	C 	0.5291	0.8261	0.5421	-0.175
Mof_C 	C 	0.8663	0.00528	0.76297	0.325
Mof_C 	C 	0.1699	0.999	0.82492	0.023
Mof_C 	C 	0.20104	0.07304	0.91182	-0.167
Mof_C 	C 	0.8301	0.001	0.17508	0.023
Mof_C 	C 	0.1337	0.99472	0.23703	0.325
Mof_C 	C 	0.0168	0.0459	0.5333	-0.09
Mof_C 	C 	0.5986	0.72423	0.09231	-0.101
Mof_C 	C 	0.4897	0.1891	0.6041	-0.17
Mof_C 	C 	0.8837	0.7758	0.3858	-0.186
Mof_C 	C 	0.30236	0.54364	0.24668	-0.007
Mof_C 	C 	0.556	0.22098	0.95419	0.021
Mof_C 	C 	0.2123	0.7646	0.38176	-0.111
Mof_C 	C 	0.9181	0.5568	0.2098	-0.011
Mof_C 	C 	0.9902	0.16662	0.80199	0.011
Mof_C 	C 	0.0819	0.4432	0.7902	-0.011
Mof_C 	C 	0.0099	0.62	0.2611	-0.086
Mof_C 	C 	0.6116	0.37324	0.13181	-0.133
Mof_C 	C 	0.4526	0.266	0.4854	0.105
Mof_C 	C 	0.1174	0.3284	0.8516	-0.047
Mof_C 	C 	0.2985	0.8328	0.0021	-0.065
Mof_C 	C 	0.9705	0.45446	0.98614	-0.086
Mof_C 	C 	0.719	0.8968	0.21661	0.034
Mof_C 	C 	0.4014	0.27577	0.90769	-0.101
Mof_C 	C 	0.5296	0.71795	0.3733	0.096
Mof_C 	C 	0.7931	0.9883	0.24071	-0.015
Mof_C 	C 	0.9547	0.28521	0.7402	0.039
Mof_C 	C 	0.751	0.3831	0.59722	0.218
Mof_C 	C 	0.70796	0.52423	0.55994	0.315
Mof_C 	C 	0.0098	0.83338	0.19801	0.011
Mof_C 	C 	0.7556	0.33109	0.64992	-0.056
Mof_C 	C 	0.1539	0.05615	0.97764	0.338
Mof_C 	C 	0.27509	0.1645	0.93572	0.224
Mof_C 	C 	0.5117	0.8677	0.4828	0.127
Mof_C 	C 	0.3637	0.5526	0.7715	0.315
Mof_C 	C 	0.7877	0.2354	0.61824	-0.111
Mof_C 	C 	0.9064	0.6733	0.8881	0.106
Mof_C 	C 	0.7227	0.9633	0.3733	-0.023
Mof_C 	C 	0.4883	0.1323	0.5172	0.127
Mof_C 	C 	0.8138	0.6941	0.3774	0.11
Mof_C 	C 	0.4966	0.28668	0.97605	-0.029
Mof_C 	C 	0.29204	0.47577	0.44006	0.315
Mof_C 	C 	0.8581	0.8746	0.51973	-0.177
Mof_C 	C 	0.5355	0.14461	0.86482	-0.069
Mof_C 	C 	0.72491	0.8355	0.06428	0.224
Mof_C 	C 	0.27411	0.63427	0.27229	0.039
Mof_C 	C 	0.6798	0.0964	0.9114	-0.034
Mof_C 	C 	0.5284	0.3643	0.0632	0.179
Mof_C 	C 	0.79896	0.92696	0.08818	-0.167
Mof_C 	C 	0.9914	0.37973	0.01798	0.127
Mof_C 	C 	0.6936	0.3504	0.8577	-0.022
Mof_C 	C 	0.3294	0.5071	0.16816	-0.056
Mof_C 	C 	0.1163	0.2242	0.6142	-0.186
Mof_C 	C 	0.5004	0.0291	0.4842	-0.076
Mof_C 	C 	0.0715	0.7177	0.02187	-0.178
Mof_C 	C 	0.2791	0.687	0.21779	-0.086
Mof_C 	C 	0.5034	0.71332	0.02395	-0.029
Mof_C 	C 	0.3341	0.6926	0.88997	-0.012
Mof_C 	C 	0.9246	0.5986	0.9127	-0.178
Mof_C 	C 	0.3309	0.5584	0.1164	-0.039
Mof_C 	C 	0.1862	0.3059	0.6226	0.11
Mof_C 	C 	0.0754	0.4014	0.0873	-0.178
Mof_C 	C 	0.9779	0.7396	0.2013	-0.018
Mof_C 	C 	0.5964	0.0858	0.8449	-0.023
Mof_C 	C 	0.4036	0.9142	0.1551	-0.023
Mof_C 	C 	0.7879	0.79017	0.50574	0.103
Mof_C 	C 	0.444	0.77902	0.04581	0.021
Mof_C 	C 	0.642	0.23195	0.02107	0.011
Mof_C 	C 	0.2444	0.66891	0.35008	-0.056
Mof_C 	C 	0.0086	0.62027	0.98202	0.127
Mof_C 	C 	0.5474	0.734	0.5146	0.105
Mof_C 	C 	0.1019	0.89928	0.24785	-0.165
Mof_C 	C 	0.9285	0.2823	0.97813	-0.178
Mof_C 	C 	0.6659	0.3074	0.11003	-0.012
Mof_C 	C 	0.0221	0.2604	0.7987	-0.018
Mof_C 	C 	0.2069	0.0117	0.75929	-0.015
Mof_C 	C 	0.173	0.9351	0.6693	-0.043
Mof_C 	C 	0.9514	0.21138	0.00627	0.102
Mof_C 	C 	0.9085	0.8685	0.4583	0.134
Mof_C 	C 	0.69764	0.45636	0.75332	-0.007
Mof_C 	C 	0.7015	0.1672	0.9979	-0.065
Mof_C 	C 	0.6951	0.50741	0.69769	0.003
Mof_C 	C 	0.3186	0.17937	0.87509	-0.057
Mof_C 	C 	0.3202	0.9036	0.0886	-0.034
Mof_C 	C 	0.8527	0.5812	0.152	-0.047
Mof_C 	C 	0.7926	0.0534	0.3943	-0.035
Mof_C 	C 	0.4704	0.28205	0.6267	0.096
Mof_C 	C 	0.3125	0.1134	0.7124	-0.076
Mof_C 	C 	0.6706	0.4929	0.83184	-0.056
Mof_C 	C 	0.0295	0.54554	0.01386	-0.086
Mof_C 	C 	0.6363	0.4474	0.2285	0.315
Mof_C 	C 	0.1403	0.78363	0.31335	-0.063
Mof_C 	C 	0.2121	0.20983	0.49426	0.103
Mof_C 	C 	0.4996	0.9709	0.5158	-0.076
Mof_C 	C 	0.72589	0.36573	0.72771	0.039
Mof_C 	C 	0.6691	0.4416	0.8836	-0.039
Mof_C 	C 	0.358	0.76805	0.97893	0.011
Mof_C 	C 	0.3884	0.62676	0.86819	-0.133
Mof_C 	C 	0.6814	0.82063	0.12491	-0.057
Mof_N 	N 	0.2351	0.30046	0.56451	-0.157
Mof_N 	N 	0.03279	0.2329	0.07286	-0.16
Mof_N 	N 	0.55016	0.68003	0.43281	-0.158
Mof_N 	N 	0.7649	0.69954	0.43549	-0.157
Mof_N 	N 	0.44984	0.31997	0.56719	-0.158
Mof_N 	N 	0.96721	0.7671	0.92714	-0.16
Mof_O 	O 	0.32577	0.40111	0.42048	-0.265
Mof_O 	O 	0.81485	0.87327	0.94276	-0.299
Mof_O 	O 	0.08885	0.97579	0.95361	-0.288
Mof_O 	O 	0.4176	0.49423	0.75226	-0.301
Mof_O 	O 	0.2958	0.55064	0.71102	-0.263
Mof_O 	O 	0.25943	0.93931	0.35749	-0.437
Mof_O 	O 	0.72973	0.48938	0.48819	-0.288
Mof_O 	O 	0.47834	0.43369	0.08149	-0.294
Mof_O 	O 	0.74057	0.06069	0.64251	-0.437
Mof_O 	O 	0.22322	0.65275	0.47846	-0.431
Mof_O 	O 	0.5824	0.50577	0.24774	-0.301
Mof_O 	O 	0.78162	0.94437	0.71449	-0.277
Mof_O 	O 	0.67423	0.59889	0.57952	-0.265
Mof_O 	O 	0.18515	0.12673	0.05724	-0.299
Mof_O 	O 	0.77678	0.34725	0.52154	-0.431
Mof_O 	O 	0.7042	0.44936	0.28898	-0.263
Mof_O 	O 	0.30524	0.24065	0.02008	-0.416
Mof_O 	O 	0.69476	0.75935	0.97992	-0.416
Mof_O 	O 	0.27027	0.51062	0.51181	-0.288
Mof_O 	O 	0.52166	0.56631	0.91851	-0.294
Mof_O 	O 	0.07303	0.00651	0.17916	-0.287
Mof_O 	O 	0.21838	0.05563	0.28551	-0.277
Mof_O 	O 	0.91115	0.02421	0.04639	-0.288
Mof_O 	O 	0.92697	0.99349	0.82084	-0.287
_end
