# CIF file generated by openbabel 3.1.0, see https://openbabel.org
data_I
_chemical_name_common 'image0'
_cell_length_a 23.0599
_cell_length_b 11.005
_cell_length_c 20.9497
_cell_angle_alpha 90
_cell_angle_beta 106.369
_cell_angle_gamma 90
_space_group_name_H-M_alt 'P 1'
_space_group_name_Hall 'P 1'
loop_
    _symmetry_equiv_pos_as_xyz
    x,y,z
loop_
    _atom_site_label
    _atom_site_type_symbol
    _atom_site_fract_x
    _atom_site_fract_y
    _atom_site_fract_z
    _atom_site_occupancy
    Eu1      Eu       0.64038    0.82025    0.85820    1.000
    O1       O        0.81540    0.39140    0.97030    1.000
    O2       O        0.90730    0.23190    0.75790    1.000
    O3       O        0.88030    0.42150    0.75230    1.000
    O4       O        0.07600    0.32330    0.93380    1.000
    O5       O        0.02590    0.30930    0.82800    1.000
    O6       O        0.61610    0.03560    0.86830    1.000
    O7       O        0.71160    0.99160    0.87740    1.000
    O8       O        0.56880    0.47810    0.79230    1.000
    O9       O        0.61970    0.61180    0.86710    1.000
    O10      O        0.70910    0.77360    0.96060    1.000
    C1       C        0.86480    0.36770    0.94740    1.000
    C2       C        0.85940    0.35550    0.88080    1.000
    H1       H        0.82070    0.35760    0.84920    1.000
    C3       C        0.91210    0.33960    0.85970    1.000
    C4       C        0.96890    0.33420    0.90590    1.000
    C5       C        0.97080    0.35410    0.97360    1.000
    H2       H        0.00930    0.35720    0.00560    1.000
    C6       C        0.92060    0.36910    0.99540    1.000
    H3       H        0.92360    0.37990    0.04120    1.000
    C7       C        0.90030    0.33200    0.78530    1.000
    C8       C        0.02660    0.32080    0.88930    1.000
    C9       C        0.75840    0.35570    0.93020    1.000
    C10      C        0.74500    0.23570    0.91940    1.000
    H4       H        0.77580    0.17650    0.93450    1.000
    C11      C        0.68620    0.19920    0.88640    1.000
    C12      C        0.64280    0.28720    0.86220    1.000
    H5       H        0.60250    0.26440    0.83950    1.000
    C13      C        0.65870    0.41090    0.87150    1.000
    C14      C        0.71600    0.44500    0.90770    1.000
    H6       H        0.72590    0.52820    0.91690    1.000
    C15      C        0.67070    0.07010    0.87830    1.000
    C16      C        0.61240    0.50790    0.84230    1.000
    C17      C        0.76670    0.77630    0.98160    1.000
    H7       H        0.79120    0.81310    0.95670    1.000
    Eu2      Eu       0.14038    0.32025    0.85820    1.000
    O11      O        0.31540    0.89140    0.97030    1.000
    O12      O        0.40730    0.73190    0.75790    1.000
    O13      O        0.38030    0.92150    0.75230    1.000
    O14      O        0.57600    0.82330    0.93380    1.000
    O15      O        0.52590    0.80930    0.82800    1.000
    O16      O        0.11610    0.53560    0.86830    1.000
    O17      O        0.21160    0.49160    0.87740    1.000
    O18      O        0.06880    0.97810    0.79230    1.000
    O19      O        0.11970    0.11180    0.86710    1.000
    O20      O        0.20910    0.27360    0.96060    1.000
    C18      C        0.36480    0.86770    0.94740    1.000
    C19      C        0.35940    0.85550    0.88080    1.000
    H8       H        0.32070    0.85760    0.84920    1.000
    C20      C        0.41210    0.83960    0.85970    1.000
    C21      C        0.46890    0.83420    0.90590    1.000
    C22      C        0.47080    0.85410    0.97360    1.000
    H9       H        0.50930    0.85720    0.00560    1.000
    C23      C        0.42060    0.86910    0.99540    1.000
    H10      H        0.42360    0.87990    0.04120    1.000
    C24      C        0.40030    0.83200    0.78530    1.000
    C25      C        0.52660    0.82080    0.88930    1.000
    C26      C        0.25840    0.85570    0.93020    1.000
    C27      C        0.24500    0.73570    0.91940    1.000
    H11      H        0.27580    0.67650    0.93450    1.000
    C28      C        0.18620    0.69920    0.88640    1.000
    C29      C        0.14280    0.78720    0.86220    1.000
    H12      H        0.10250    0.76440    0.83950    1.000
    C30      C        0.15870    0.91090    0.87150    1.000
    C31      C        0.21600    0.94500    0.90770    1.000
    H13      H        0.22590    0.02820    0.91690    1.000
    C32      C        0.17070    0.57010    0.87830    1.000
    C33      C        0.11240    0.00790    0.84230    1.000
    C34      C        0.26670    0.27630    0.98160    1.000
    H14      H        0.29120    0.31310    0.95670    1.000
    Eu3      Eu       0.35962    0.82025    0.64180    1.000
    O21      O        0.18460    0.39140    0.52970    1.000
    O22      O        0.09270    0.23190    0.74210    1.000
    O23      O        0.11970    0.42150    0.74770    1.000
    O24      O        0.92400    0.32330    0.56620    1.000
    O25      O        0.97410    0.30930    0.67200    1.000
    O26      O        0.38390    0.03560    0.63170    1.000
    O27      O        0.28840    0.99160    0.62260    1.000
    O28      O        0.43120    0.47810    0.70770    1.000
    O29      O        0.38030    0.61180    0.63290    1.000
    O30      O        0.29090    0.77360    0.53940    1.000
    C35      C        0.13520    0.36770    0.55260    1.000
    C36      C        0.14060    0.35550    0.61920    1.000
    H15      H        0.17930    0.35760    0.65080    1.000
    C37      C        0.08790    0.33960    0.64030    1.000
    C38      C        0.03110    0.33420    0.59410    1.000
    C39      C        0.02920    0.35410    0.52640    1.000
    H16      H        0.99070    0.35720    0.49440    1.000
    C40      C        0.07940    0.36910    0.50460    1.000
    H17      H        0.07640    0.37990    0.45880    1.000
    C41      C        0.09970    0.33200    0.71470    1.000
    C42      C        0.97340    0.32080    0.61070    1.000
    C43      C        0.24160    0.35570    0.56980    1.000
    C44      C        0.25500    0.23570    0.58060    1.000
    H18      H        0.22420    0.17650    0.56550    1.000
    C45      C        0.31380    0.19920    0.61360    1.000
    C46      C        0.35720    0.28720    0.63780    1.000
    H19      H        0.39750    0.26440    0.66050    1.000
    C47      C        0.34130    0.41090    0.62850    1.000
    C48      C        0.28400    0.44500    0.59230    1.000
    H20      H        0.27410    0.52820    0.58310    1.000
    C49      C        0.32930    0.07010    0.62170    1.000
    C50      C        0.38760    0.50790    0.65770    1.000
    C51      C        0.23330    0.77630    0.51840    1.000
    H21      H        0.20880    0.81310    0.54330    1.000
    Eu4      Eu       0.85962    0.32025    0.64180    1.000
    O31      O        0.68460    0.89140    0.52970    1.000
    O32      O        0.59270    0.73190    0.74210    1.000
    O33      O        0.61970    0.92150    0.74770    1.000
    O34      O        0.42400    0.82330    0.56620    1.000
    O35      O        0.47410    0.80930    0.67200    1.000
    O36      O        0.88390    0.53560    0.63170    1.000
    O37      O        0.78840    0.49160    0.62260    1.000
    O38      O        0.93120    0.97810    0.70770    1.000
    O39      O        0.88030    0.11180    0.63290    1.000
    O40      O        0.79090    0.27360    0.53940    1.000
    C52      C        0.63520    0.86770    0.55260    1.000
    C53      C        0.64060    0.85550    0.61920    1.000
    H22      H        0.67930    0.85760    0.65080    1.000
    C54      C        0.58790    0.83960    0.64030    1.000
    C55      C        0.53110    0.83420    0.59410    1.000
    C56      C        0.52920    0.85410    0.52640    1.000
    H23      H        0.49070    0.85720    0.49440    1.000
    C57      C        0.57940    0.86910    0.50460    1.000
    H24      H        0.57640    0.87990    0.45880    1.000
    C58      C        0.59970    0.83200    0.71470    1.000
    C59      C        0.47340    0.82080    0.61070    1.000
    C60      C        0.74160    0.85570    0.56980    1.000
    C61      C        0.75500    0.73570    0.58060    1.000
    H25      H        0.72420    0.67650    0.56550    1.000
    C62      C        0.81380    0.69920    0.61360    1.000
    C63      C        0.85720    0.78720    0.63780    1.000
    H26      H        0.89750    0.76440    0.66050    1.000
    C64      C        0.84130    0.91090    0.62850    1.000
    C65      C        0.78400    0.94500    0.59230    1.000
    H27      H        0.77410    0.02820    0.58310    1.000
    C66      C        0.82930    0.57010    0.62170    1.000
    C67      C        0.88760    0.00790    0.65770    1.000
    C68      C        0.73330    0.27630    0.51840    1.000
    H28      H        0.70880    0.31310    0.54330    1.000
    Eu5      Eu       0.35962    0.17975    0.14180    1.000
    O41      O        0.18460    0.60860    0.02970    1.000
    O42      O        0.09270    0.76810    0.24210    1.000
    O43      O        0.11970    0.57850    0.24770    1.000
    O44      O        0.92400    0.67670    0.06620    1.000
    O45      O        0.97410    0.69070    0.17200    1.000
    O46      O        0.38390    0.96440    0.13170    1.000
    O47      O        0.28840    0.00840    0.12260    1.000
    O48      O        0.43120    0.52190    0.20770    1.000
    O49      O        0.38030    0.38820    0.13290    1.000
    O50      O        0.29090    0.22640    0.03940    1.000
    C69      C        0.13520    0.63230    0.05260    1.000
    C70      C        0.14060    0.64450    0.11920    1.000
    H29      H        0.17930    0.64240    0.15080    1.000
    C71      C        0.08790    0.66040    0.14030    1.000
    C72      C        0.03110    0.66580    0.09410    1.000
    C73      C        0.02920    0.64590    0.02640    1.000
    H30      H        0.99070    0.64280    0.99440    1.000
    C74      C        0.07940    0.63090    0.00460    1.000
    H31      H        0.07640    0.62010    0.95880    1.000
    C75      C        0.09970    0.66800    0.21470    1.000
    C76      C        0.97340    0.67920    0.11070    1.000
    C77      C        0.24160    0.64430    0.06980    1.000
    C78      C        0.25500    0.76430    0.08060    1.000
    H32      H        0.22420    0.82350    0.06550    1.000
    C79      C        0.31380    0.80080    0.11360    1.000
    C80      C        0.35720    0.71280    0.13780    1.000
    H33      H        0.39750    0.73560    0.16050    1.000
    C81      C        0.34130    0.58910    0.12850    1.000
    C82      C        0.28400    0.55500    0.09230    1.000
    H34      H        0.27410    0.47180    0.08310    1.000
    C83      C        0.32930    0.92990    0.12170    1.000
    C84      C        0.38760    0.49210    0.15770    1.000
    C85      C        0.23330    0.22370    0.01840    1.000
    H35      H        0.20880    0.18690    0.04330    1.000
    Eu6      Eu       0.85962    0.67975    0.14180    1.000
    O51      O        0.68460    0.10860    0.02970    1.000
    O52      O        0.59270    0.26810    0.24210    1.000
    O53      O        0.61970    0.07850    0.24770    1.000
    O54      O        0.42400    0.17670    0.06620    1.000
    O55      O        0.47410    0.19070    0.17200    1.000
    O56      O        0.88390    0.46440    0.13170    1.000
    O57      O        0.78840    0.50840    0.12260    1.000
    O58      O        0.93120    0.02190    0.20770    1.000
    O59      O        0.88030    0.88820    0.13290    1.000
    O60      O        0.79090    0.72640    0.03940    1.000
    C86      C        0.63520    0.13230    0.05260    1.000
    C87      C        0.64060    0.14450    0.11920    1.000
    H36      H        0.67930    0.14240    0.15080    1.000
    C88      C        0.58790    0.16040    0.14030    1.000
    C89      C        0.53110    0.16580    0.09410    1.000
    C90      C        0.52920    0.14590    0.02640    1.000
    H37      H        0.49070    0.14280    0.99440    1.000
    C91      C        0.57940    0.13090    0.00460    1.000
    H38      H        0.57640    0.12010    0.95880    1.000
    C92      C        0.59970    0.16800    0.21470    1.000
    C93      C        0.47340    0.17920    0.11070    1.000
    C94      C        0.74160    0.14430    0.06980    1.000
    C95      C        0.75500    0.26430    0.08060    1.000
    H39      H        0.72420    0.32350    0.06550    1.000
    C96      C        0.81380    0.30080    0.11360    1.000
    C97      C        0.85720    0.21280    0.13780    1.000
    H40      H        0.89750    0.23560    0.16050    1.000
    C98      C        0.84130    0.08910    0.12850    1.000
    C99      C        0.78400    0.05500    0.09230    1.000
    H41      H        0.77410    0.97180    0.08310    1.000
    C100     C        0.82930    0.42990    0.12170    1.000
    C101     C        0.88760    0.99210    0.15770    1.000
    C102     C        0.73330    0.72370    0.01840    1.000
    H42      H        0.70880    0.68690    0.04330    1.000
    Eu7      Eu       0.64038    0.17975    0.35820    1.000
    O61      O        0.81540    0.60860    0.47030    1.000
    O62      O        0.90730    0.76810    0.25790    1.000
    O63      O        0.88030    0.57850    0.25230    1.000
    O64      O        0.07600    0.67670    0.43380    1.000
    O65      O        0.02590    0.69070    0.32800    1.000
    O66      O        0.61610    0.96440    0.36830    1.000
    O67      O        0.71160    0.00840    0.37740    1.000
    O68      O        0.56880    0.52190    0.29230    1.000
    O69      O        0.61970    0.38820    0.36710    1.000
    O70      O        0.70910    0.22640    0.46060    1.000
    C103     C        0.86480    0.63230    0.44740    1.000
    C104     C        0.85940    0.64450    0.38080    1.000
    H43      H        0.82070    0.64240    0.34920    1.000
    C105     C        0.91210    0.66040    0.35970    1.000
    C106     C        0.96890    0.66580    0.40590    1.000
    C107     C        0.97080    0.64590    0.47360    1.000
    H44      H        0.00930    0.64280    0.50560    1.000
    C108     C        0.92060    0.63090    0.49540    1.000
    H45      H        0.92360    0.62010    0.54120    1.000
    C109     C        0.90030    0.66800    0.28530    1.000
    C110     C        0.02660    0.67920    0.38930    1.000
    C111     C        0.75840    0.64430    0.43020    1.000
    C112     C        0.74500    0.76430    0.41940    1.000
    H46      H        0.77580    0.82350    0.43450    1.000
    C113     C        0.68620    0.80080    0.38640    1.000
    C114     C        0.64280    0.71280    0.36220    1.000
    H47      H        0.60250    0.73560    0.33950    1.000
    C115     C        0.65870    0.58910    0.37150    1.000
    C116     C        0.71600    0.55500    0.40770    1.000
    H48      H        0.72590    0.47180    0.41690    1.000
    C117     C        0.67070    0.92990    0.37830    1.000
    C118     C        0.61240    0.49210    0.34230    1.000
    C119     C        0.76670    0.22370    0.48160    1.000
    H49      H        0.79120    0.18690    0.45670    1.000
    Eu8      Eu       0.14038    0.67975    0.35820    1.000
    O71      O        0.31540    0.10860    0.47030    1.000
    O72      O        0.40730    0.26810    0.25790    1.000
    O73      O        0.38030    0.07850    0.25230    1.000
    O74      O        0.57600    0.17670    0.43380    1.000
    O75      O        0.52590    0.19070    0.32800    1.000
    O76      O        0.11610    0.46440    0.36830    1.000
    O77      O        0.21160    0.50840    0.37740    1.000
    O78      O        0.06880    0.02190    0.29230    1.000
    O79      O        0.11970    0.88820    0.36710    1.000
    O80      O        0.20910    0.72640    0.46060    1.000
    C120     C        0.36480    0.13230    0.44740    1.000
    C121     C        0.35940    0.14450    0.38080    1.000
    H50      H        0.32070    0.14240    0.34920    1.000
    C122     C        0.41210    0.16040    0.35970    1.000
    C123     C        0.46890    0.16580    0.40590    1.000
    C124     C        0.47080    0.14590    0.47360    1.000
    H51      H        0.50930    0.14280    0.50560    1.000
    C125     C        0.42060    0.13090    0.49540    1.000
    H52      H        0.42360    0.12010    0.54120    1.000
    C126     C        0.40030    0.16800    0.28530    1.000
    C127     C        0.52660    0.17920    0.38930    1.000
    C128     C        0.25840    0.14430    0.43020    1.000
    C129     C        0.24500    0.26430    0.41940    1.000
    H53      H        0.27580    0.32350    0.43450    1.000
    C130     C        0.18620    0.30080    0.38640    1.000
    C131     C        0.14280    0.21280    0.36220    1.000
    H54      H        0.10250    0.23560    0.33950    1.000
    C132     C        0.15870    0.08910    0.37150    1.000
    C133     C        0.21600    0.05500    0.40770    1.000
    H55      H        0.22590    0.97180    0.41690    1.000
    C134     C        0.17070    0.42990    0.37830    1.000
    C135     C        0.11240    0.99210    0.34230    1.000
    C136     C        0.26670    0.72370    0.48160    1.000
    H56      H        0.29120    0.68690    0.45670    1.000
    Eu9      Eu       0.50000    0.63879    0.75000    1.000
    Eu10     Eu       0.00000    0.13879    0.75000    1.000
    Eu11     Eu       0.50000    0.36121    0.25000    1.000
    Eu12     Eu       0.00000    0.86121    0.25000    1.000
