# CIF file generated by openbabel 3.1.0, see https://openbabel.org
data_I
_chemical_name_common 'image0'
_cell_length_a 12.949
_cell_length_b 13.869
_cell_length_c 27.972
_cell_angle_alpha 104.315
_cell_angle_beta 98.301
_cell_angle_gamma 94.349
_space_group_name_H-M_alt 'P 1'
_space_group_name_Hall 'P 1'
loop_
    _symmetry_equiv_pos_as_xyz
    x,y,z
loop_
    _atom_site_label
    _atom_site_type_symbol
    _atom_site_fract_x
    _atom_site_fract_y
    _atom_site_fract_z
    _atom_site_occupancy
    Eu1      Eu       0.61955    0.07470    0.55395    1.000
    Eu2      Eu       0.01589    0.10482    0.08637    1.000
    Eu3      Eu       0.53139    0.56414    0.93921    1.000
    Eu4      Eu       0.02882    0.45434    0.41526    1.000
    C1       C        0.57100    0.10070    0.43529    1.000
    C2       C        0.65070    0.63260    0.06363    1.000
    O1       O        0.09820    0.97367    0.04556    1.000
    O2       O        0.48170    0.05070    0.42273    1.000
    C3       C        0.13190    0.89920    0.02108    1.000
    C4       C        0.20000    0.84030    0.04819    1.000
    O3       O        0.88750    0.95189    0.06672    1.000
    O4       O        0.05390    0.71890    0.40336    1.000
    O5       O        0.62400    0.64881    0.02162    1.000
    O6       O        0.63110    0.11120    0.47552    1.000
    C5       C        0.39970    0.82650    0.25822    1.000
    H1       H        0.46330    0.81640    0.27540    1.000
    C6       C        0.73410    0.25790    0.37465    1.000
    C7       C        0.56620    0.19980    0.31981    1.000
    C8       C        0.48970    0.20090    0.27527    1.000
    C9       C        0.90150    0.62610    0.23027    1.000
    H2       H        0.87680    0.57490    0.20150    1.000
    C10      C        0.90080    0.82850    0.16715    1.000
    H3       H        0.95500    0.87160    0.18950    1.000
    O7       O        0.90507    0.31624    0.42347    1.000
    O8       O        0.99490    0.98900    0.13915    1.000
    O9       O        0.89820    0.52370    0.45727    1.000
    C11      C        0.85560    0.74670    0.18048    1.000
    O10      O        0.17420    0.14960    0.14169    1.000
    O11      O        0.45290    0.53400    0.14513    1.000
    O12      O        0.70260    0.92526    0.52585    1.000
    C12      C        0.64300    0.87660    0.48704    1.000
    C13      C        0.53850    0.14730    0.35398    1.000
    H4       H        0.47350    0.10880    0.34710    1.000
    O13      O        0.27870    0.93020    0.36428    1.000
    O14      O        0.41370    0.84500    0.36130    1.000
    O15      O        0.39180    0.64700    0.97411    1.000
    C14      C        0.67590    0.78180    0.45724    1.000
    O16      O        0.61040    0.56215    0.07825    1.000
    O17      O        0.55620    0.90492    0.47233    1.000
    C15      C        0.50410    0.59640    0.25034    1.000
    H5       H        0.44100    0.61230    0.23540    1.000
    C16      C        0.33260    0.21470    0.19731    1.000
    O18      O        0.87360    0.61940    0.52893    1.000
    O19      O        0.86030    0.37580    0.35833    1.000
    C17      C        0.66510    0.25580    0.33167    1.000
    H6       H        0.68500    0.29250    0.31010    1.000
    O20      O        0.00920    0.55920    0.36359    1.000
    C18      C        0.31390    0.71080    0.04474    1.000
    C19      C        0.93630    0.79850    0.27159    1.000
    H7       H        0.93460    0.86530    0.27130    1.000
    C20      C        0.78410    0.64780    0.45586    1.000
    C21      C        0.41820    0.11980    0.24989    1.000
    H8       H        0.42140    0.05970    0.25880    1.000
    O21      O        0.56720    0.42680    0.14168    1.000
    C22      C        0.24380    0.22550    0.15945    1.000
    O22      O        0.40020    0.56478    0.03259    1.000
    O23      O        0.11370    0.86850    0.97435    1.000
    C23      C        0.01740    0.65060    0.36476    1.000
    C24      C        0.85740    0.59400    0.48235    1.000
    C25      C        0.94090    0.60200    0.27369    1.000
    H9       H        0.94260    0.53520    0.27400    1.000
    C26      C        0.60650    0.15190    0.39781    1.000
    C27      C        0.53750    0.63480    0.30174    1.000
    H10      H        0.49610    0.67550    0.32060    1.000
    O24      O        0.23980    0.30600    0.14755    1.000
    C28      C        0.28950    0.82080    0.18029    1.000
    C29      C        0.21340    0.85770    0.09969    1.000
    H11      H        0.18060    0.90820    0.11810    1.000
    C30      C        0.86670    0.84680    0.12138    1.000
    C31      C        0.67070    0.65510    0.37970    1.000
    C32      C        0.37260    0.63420    0.01507    1.000
    C33      C        0.40600    0.29610    0.22181    1.000
    H12      H        0.40370    0.35550    0.21210    1.000
    C34      C        0.32120    0.86050    0.28423    1.000
    C35      C        0.89780    0.72420    0.22828    1.000
    C36      C        0.48270    0.29020    0.26056    1.000
    H13      H        0.53040    0.34630    0.27710    1.000
    C37      C        0.56210    0.53600    0.22162    1.000
    C38      C        0.34120    0.12630    0.21121    1.000
    H14      H        0.29440    0.07000    0.19420    1.000
    C39      C        0.27440    0.80140    0.12443    1.000
    C40      C        0.63540    0.74100    0.40687    1.000
    H15      H        0.58410    0.77140    0.39110    1.000
    C41      C        0.32290    0.72530    0.09646    1.000
    H16      H        0.36100    0.68430    0.11230    1.000
    C42      C        0.38420    0.80760    0.20715    1.000
    H17      H        0.43800    0.78550    0.19000    1.000
    C43      C        0.97710    0.77550    0.31535    1.000
    H18      H        0.00400    0.82700    0.34380    1.000
    C44      C        0.70390    0.20720    0.40814    1.000
    H19      H        0.74930    0.21040    0.43760    1.000
    C45      C        0.78580    0.78360    0.08755    1.000
    H20      H        0.76390    0.79550    0.05660    1.000
    C46      C        0.75020    0.73490    0.48144    1.000
    H21      H        0.77730    0.76250    0.51520    1.000
    C47      C        0.73760    0.70230    0.10025    1.000
    C48      C        0.83940    0.31980    0.38589    1.000
    C49      C        0.63150    0.61330    0.32503    1.000
    C50      C        0.25200    0.76810    0.02084    1.000
    H22      H        0.24550    0.75800    0.98640    1.000
    C51      C        0.97840    0.67800    0.31733    1.000
    C52      C        0.65130    0.50810    0.24461    1.000
    H23      H        0.68880    0.46260    0.22590    1.000
    C53      C        0.77240    0.68490    0.14624    1.000
    H24      H        0.73970    0.63080    0.15470    1.000
    C54      C        0.68650    0.54720    0.29572    1.000
    H25      H        0.74820    0.52850    0.31050    1.000
    C55      C        0.52590    0.49630    0.16626    1.000
    C56      C        0.21160    0.85510    0.20686    1.000
    H26      H        0.14770    0.86480    0.18980    1.000
    C57      C        0.74570    0.60990    0.40480    1.000
    H27      H        0.77070    0.55310    0.38710    1.000
    C58      C        0.91950    0.93410    0.10850    1.000
    C59      C        0.22770    0.87530    0.25851    1.000
    H28      H        0.17480    0.89910    0.27590    1.000
    C60      C        0.33970    0.88010    0.34034    1.000
    Eu5      Eu       0.38045    0.92530    0.44605    1.000
    Eu6      Eu       0.98411    0.89518    0.91363    1.000
    Eu7      Eu       0.46862    0.43586    0.06079    1.000
    Eu8      Eu       0.97118    0.54566    0.58474    1.000
    C61      C        0.42900    0.89930    0.56471    1.000
    C62      C        0.34930    0.36740    0.93637    1.000
    O25      O        0.90180    0.02633    0.95444    1.000
    O26      O        0.51830    0.94930    0.57727    1.000
    C63      C        0.86810    0.10080    0.97892    1.000
    C64      C        0.80000    0.15970    0.95181    1.000
    O27      O        0.11250    0.04811    0.93328    1.000
    O28      O        0.94610    0.28110    0.59664    1.000
    O29      O        0.37600    0.35119    0.97838    1.000
    O30      O        0.36890    0.88880    0.52448    1.000
    C65      C        0.60030    0.17350    0.74178    1.000
    H29      H        0.53670    0.18360    0.72460    1.000
    C66      C        0.26590    0.74210    0.62535    1.000
    C67      C        0.43380    0.80020    0.68019    1.000
    C68      C        0.51030    0.79910    0.72473    1.000
    C69      C        0.09850    0.37390    0.76973    1.000
    H30      H        0.12320    0.42510    0.79850    1.000
    C70      C        0.09920    0.17150    0.83285    1.000
    H31      H        0.04500    0.12840    0.81050    1.000
    O31      O        0.09493    0.68376    0.57653    1.000
    O32      O        0.00510    0.01100    0.86085    1.000
    O33      O        0.10180    0.47630    0.54273    1.000
    C71      C        0.14440    0.25330    0.81952    1.000
    O34      O        0.82580    0.85040    0.85831    1.000
    O35      O        0.54710    0.46600    0.85487    1.000
    O36      O        0.29740    0.07474    0.47415    1.000
    C72      C        0.35700    0.12340    0.51296    1.000
    C73      C        0.46150    0.85270    0.64602    1.000
    H32      H        0.52650    0.89120    0.65290    1.000
    O37      O        0.72130    0.06980    0.63572    1.000
    O38      O        0.58630    0.15500    0.63870    1.000
    O39      O        0.60820    0.35300    0.02589    1.000
    C74      C        0.32410    0.21820    0.54276    1.000
    O40      O        0.38960    0.43785    0.92175    1.000
    O41      O        0.44380    0.09508    0.52767    1.000
    C75      C        0.49590    0.40360    0.74966    1.000
    H33      H        0.55900    0.38770    0.76460    1.000
    C76      C        0.66740    0.78530    0.80269    1.000
    O42      O        0.12640    0.38060    0.47107    1.000
    O43      O        0.13970    0.62420    0.64167    1.000
    C77      C        0.33490    0.74420    0.66833    1.000
    H34      H        0.31500    0.70750    0.68990    1.000
    O44      O        0.99080    0.44080    0.63641    1.000
    C78      C        0.68610    0.28920    0.95526    1.000
    C79      C        0.06370    0.20150    0.72841    1.000
    H35      H        0.06540    0.13470    0.72870    1.000
    C80      C        0.21590    0.35220    0.54414    1.000
    C81      C        0.58180    0.88020    0.75011    1.000
    H36      H        0.57860    0.94030    0.74120    1.000
    O45      O        0.43280    0.57320    0.85832    1.000
    C82      C        0.75620    0.77450    0.84055    1.000
    O46      O        0.59980    0.43522    0.96741    1.000
    O47      O        0.88630    0.13150    0.02565    1.000
    C83      C        0.98260    0.34940    0.63524    1.000
    C84      C        0.14260    0.40600    0.51765    1.000
    C85      C        0.05910    0.39800    0.72631    1.000
    H37      H        0.05740    0.46480    0.72600    1.000
    C86      C        0.39350    0.84810    0.60219    1.000
    C87      C        0.46250    0.36520    0.69826    1.000
    H38      H        0.50390    0.32450    0.67940    1.000
    O48      O        0.76020    0.69400    0.85245    1.000
    C88      C        0.71050    0.17920    0.81971    1.000
    C89      C        0.78660    0.14230    0.90031    1.000
    H39      H        0.81940    0.09180    0.88190    1.000
    C90      C        0.13330    0.15320    0.87862    1.000
    C91      C        0.32930    0.34490    0.62030    1.000
    C92      C        0.62740    0.36580    0.98493    1.000
    C93      C        0.59400    0.70390    0.77819    1.000
    H40      H        0.59630    0.64450    0.78790    1.000
    C94      C        0.67880    0.13950    0.71577    1.000
    C95      C        0.10220    0.27580    0.77172    1.000
    C96      C        0.51730    0.70980    0.73944    1.000
    H41      H        0.46960    0.65370    0.72290    1.000
    C97      C        0.43790    0.46400    0.77838    1.000
    C98      C        0.65880    0.87370    0.78879    1.000
    H42      H        0.70560    0.93000    0.80580    1.000
    C99      C        0.72560    0.19860    0.87557    1.000
    C100     C        0.36460    0.25900    0.59313    1.000
    H43      H        0.41590    0.22860    0.60890    1.000
    C101     C        0.67710    0.27470    0.90354    1.000
    H44      H        0.63900    0.31570    0.88770    1.000
    C102     C        0.61580    0.19240    0.79285    1.000
    H45      H        0.56200    0.21450    0.81000    1.000
    C103     C        0.02290    0.22450    0.68465    1.000
    H46      H        0.99600    0.17300    0.65620    1.000
    C104     C        0.29610    0.79280    0.59186    1.000
    H47      H        0.25070    0.78960    0.56240    1.000
    C105     C        0.21420    0.21640    0.91245    1.000
    H48      H        0.23610    0.20450    0.94340    1.000
    C106     C        0.24980    0.26510    0.51856    1.000
    H49      H        0.22270    0.23750    0.48480    1.000
    C107     C        0.26240    0.29770    0.89975    1.000
    C108     C        0.16060    0.68020    0.61411    1.000
    C109     C        0.36850    0.38670    0.67497    1.000
    C110     C        0.74800    0.23190    0.97916    1.000
    H50      H        0.75450    0.24200    0.01360    1.000
    C111     C        0.02160    0.32200    0.68267    1.000
    C112     C        0.34870    0.49190    0.75539    1.000
    H51      H        0.31120    0.53740    0.77410    1.000
    C113     C        0.22760    0.31510    0.85376    1.000
    H52      H        0.26030    0.36920    0.84530    1.000
    C114     C        0.31350    0.45280    0.70428    1.000
    H53      H        0.25180    0.47150    0.68950    1.000
    C115     C        0.47410    0.50370    0.83374    1.000
    C116     C        0.78840    0.14490    0.79314    1.000
    H54      H        0.85230    0.13520    0.81020    1.000
    C117     C        0.25430    0.39010    0.59520    1.000
    H55      H        0.22930    0.44690    0.61290    1.000
    C118     C        0.08050    0.06590    0.89150    1.000
    C119     C        0.77230    0.12470    0.74149    1.000
    H56      H        0.82520    0.10090    0.72410    1.000
    C120     C        0.66030    0.11990    0.65966    1.000
