data_functionalizedCrystal
_audit_creation_method	'EQeq! by Chris Wilmer'
_symmetry_space_group_name_H-M	'P1'
_symmetry_Int_Tables_number	1
_symmetry_cell_setting	triclinic
loop_
_symmetry_equiv_pos_as_xyz
  x,y,z
_cell_length_a	7.9388
_cell_length_b	7.9388
_cell_length_c	7.9388
_cell_angle_alpha	60
_cell_angle_beta	60
_cell_angle_gamma	60
loop_
_atom_site_label
_atom_site_type_symbol
_atom_site_fract_x
_atom_site_fract_y
_atom_site_fract_z
_atom_site_charge
Mof_Zn	Zn	0.375	0.875	0.875	1.176
Mof_Zn	Zn	0.625	0.125	0.125	1.176
Mof_C 	C 	0.5276	0.4172	0.0276	-0.294
Mof_C 	C 	0.4724	0.9724	0.9724	-0.294
Mof_C 	C 	0.5276	0.0276	0.4172	-0.294
Mof_C 	C 	0.4724	0.5828	0.9724	-0.294
Mof_C 	C 	0.0828	0.9724	0.9724	-0.294
Mof_C 	C 	0.5276	0.0276	0.0276	-0.294
Mof_C 	C 	0.4724	0.9724	0.5828	-0.294
Mof_C 	C 	0.9172	0.0276	0.0276	-0.294
_end
