# CIF file generated by openbabel 3.1.0, see https://openbabel.org
data_I
_chemical_name_common 'image0'
_cell_length_a 6.5634
_cell_length_b 25.3343
_cell_length_c 7.84
_cell_angle_alpha 90
_cell_angle_beta 90.718
_cell_angle_gamma 90
_space_group_name_H-M_alt 'P 1'
_space_group_name_Hall 'P 1'
loop_
    _symmetry_equiv_pos_as_xyz
    x,y,z
loop_
    _atom_site_label
    _atom_site_type_symbol
    _atom_site_fract_x
    _atom_site_fract_y
    _atom_site_fract_z
    _atom_site_occupancy
    Co1      Co       0.12349    0.21413    0.94253    1.000
    O1       O        0.93540    0.24035    0.74460    1.000
    O2       O        0.31920    0.18483    0.12730    1.000
    C1       C        0.93240    0.28953    0.72850    1.000
    C2       C        0.07700    0.32241    0.84330    1.000
    H1       H        0.13150    0.35260    0.77530    1.000
    N1       N        0.24960    0.28962    0.90380    1.000
    H2       H        0.30360    0.30280    0.00390    1.000
    H3       H        0.35060    0.28840    0.82350    1.000
    C3       C        0.95940    0.34430    0.99400    1.000
    H4       H        0.83890    0.36340    0.94850    1.000
    H5       H        0.04710    0.37060    0.05280    1.000
    C4       C        0.88600    0.30479    0.12730    1.000
    O3       O        0.92660    0.25628    0.11370    1.000
    O4       O        0.78740    0.32531    0.24700    1.000
    N2       N        0.94270    0.14503    0.98140    1.000
    C5       C        0.74920    0.14361    0.92400    1.000
    H6       H        0.69770    0.17360    0.86490    1.000
    C6       C        0.62100    0.10104    0.94600    1.000
    H7       H        0.48640    0.10160    0.90020    1.000
    C7       C        0.69110    0.05743    0.03570    1.000
    C8       C        0.89040    0.05864    0.09610    1.000
    H8       H        0.94420    0.02950    0.15820    1.000
    C9       C        0.01140    0.10248    0.06580    1.000
    H9       H        0.14840    0.10230    0.10660    1.000
    C10      C        0.54720    0.01180    0.07570    1.000
    H10      H        0.62430    0.98420    0.13840    1.000
    H11      H        0.43870    0.02480    0.15150    1.000
    Co2      Co       0.37651    0.71413    0.55747    1.000
    O5       O        0.56460    0.74035    0.75540    1.000
    O6       O        0.18080    0.68483    0.37270    1.000
    C11      C        0.56760    0.78953    0.77150    1.000
    C12      C        0.42300    0.82241    0.65670    1.000
    H12      H        0.36850    0.85260    0.72470    1.000
    N3       N        0.25040    0.78962    0.59620    1.000
    H13      H        0.19640    0.80280    0.49610    1.000
    H14      H        0.14940    0.78840    0.67650    1.000
    C13      C        0.54060    0.84430    0.50600    1.000
    H15      H        0.66110    0.86340    0.55150    1.000
    H16      H        0.45290    0.87060    0.44720    1.000
    C14      C        0.61400    0.80479    0.37270    1.000
    O7       O        0.57340    0.75628    0.38630    1.000
    O8       O        0.71260    0.82531    0.25300    1.000
    N4       N        0.55730    0.64503    0.51860    1.000
    C15      C        0.75080    0.64361    0.57600    1.000
    H17      H        0.80230    0.67360    0.63510    1.000
    C16      C        0.87900    0.60104    0.55400    1.000
    H18      H        0.01360    0.60160    0.59980    1.000
    C17      C        0.80890    0.55743    0.46430    1.000
    C18      C        0.60960    0.55864    0.40390    1.000
    H19      H        0.55580    0.52950    0.34180    1.000
    C19      C        0.48860    0.60248    0.43420    1.000
    H20      H        0.35160    0.60230    0.39340    1.000
    C20      C        0.95280    0.51180    0.42430    1.000
    H21      H        0.87570    0.48420    0.36160    1.000
    H22      H        0.06130    0.52480    0.34850    1.000
    Co3      Co       0.87651    0.78587    0.05747    1.000
    O9       O        0.06460    0.75965    0.25540    1.000
    O10      O        0.68080    0.81517    0.87270    1.000
    C21      C        0.06760    0.71047    0.27150    1.000
    C22      C        0.92300    0.67759    0.15670    1.000
    H23      H        0.86850    0.64740    0.22470    1.000
    N5       N        0.75040    0.71038    0.09620    1.000
    H24      H        0.69640    0.69720    0.99610    1.000
    H25      H        0.64940    0.71160    0.17650    1.000
    C23      C        0.04060    0.65570    0.00600    1.000
    H26      H        0.16110    0.63660    0.05150    1.000
    H27      H        0.95290    0.62940    0.94720    1.000
    C24      C        0.11400    0.69521    0.87270    1.000
    O11      O        0.07340    0.74372    0.88630    1.000
    O12      O        0.21260    0.67469    0.75300    1.000
    N6       N        0.05730    0.85497    0.01860    1.000
    C25      C        0.25080    0.85639    0.07600    1.000
    H28      H        0.30230    0.82640    0.13510    1.000
    C26      C        0.37900    0.89896    0.05400    1.000
    H29      H        0.51360    0.89840    0.09980    1.000
    C27      C        0.30890    0.94257    0.96430    1.000
    C28      C        0.10960    0.94136    0.90390    1.000
    H30      H        0.05580    0.97050    0.84180    1.000
    C29      C        0.98860    0.89752    0.93420    1.000
    H31      H        0.85160    0.89770    0.89340    1.000
    C30      C        0.45280    0.98820    0.92430    1.000
    H32      H        0.37570    0.01580    0.86160    1.000
    H33      H        0.56130    0.97520    0.84850    1.000
    Co4      Co       0.62349    0.28587    0.44253    1.000
    O13      O        0.43540    0.25965    0.24460    1.000
    O14      O        0.81920    0.31517    0.62730    1.000
    C31      C        0.43240    0.21047    0.22850    1.000
    C32      C        0.57700    0.17759    0.34330    1.000
    H34      H        0.63150    0.14740    0.27530    1.000
    N7       N        0.74960    0.21038    0.40380    1.000
    H35      H        0.80360    0.19720    0.50390    1.000
    H36      H        0.85060    0.21160    0.32350    1.000
    C33      C        0.45940    0.15570    0.49400    1.000
    H37      H        0.33890    0.13660    0.44850    1.000
    H38      H        0.54710    0.12940    0.55280    1.000
    C34      C        0.38600    0.19521    0.62730    1.000
    O15      O        0.42660    0.24372    0.61370    1.000
    O16      O        0.28740    0.17469    0.74700    1.000
    N8       N        0.44270    0.35497    0.48140    1.000
    C35      C        0.24920    0.35639    0.42400    1.000
    H39      H        0.19770    0.32640    0.36490    1.000
    C36      C        0.12100    0.39896    0.44600    1.000
    H40      H        0.98640    0.39840    0.40020    1.000
    C37      C        0.19110    0.44257    0.53570    1.000
    C38      C        0.39040    0.44136    0.59610    1.000
    H41      H        0.44420    0.47050    0.65820    1.000
    C39      C        0.51140    0.39752    0.56580    1.000
    H42      H        0.64840    0.39770    0.60660    1.000
    C40      C        0.04720    0.48820    0.57570    1.000
    H43      H        0.12430    0.51580    0.63840    1.000
    H44      H        0.93870    0.47520    0.65150    1.000
