data_functionalizedCrystal
_audit_creation_method	'EQeq! by Chris Wilmer'
_symmetry_space_group_name_H-M	'P1'
_symmetry_Int_Tables_number	1
_symmetry_cell_setting	triclinic
loop_
_symmetry_equiv_pos_as_xyz
  x,y,z
_cell_length_a	10.3123
_cell_length_b	10.3123
_cell_length_c	15.062
_cell_angle_alpha	70.3279
_cell_angle_beta	70.3279
_cell_angle_gamma	77.8611
loop_
_atom_site_label
_atom_site_type_symbol
_atom_site_fract_x
_atom_site_fract_y
_atom_site_fract_z
_atom_site_charge
Mof_Cd	Cd	0.32715	0.85749	0.48432	0.443
Mof_Cd	Cd	0.17009	0.78933	0.15322	0.467
Mof_Cd	Cd	0.91162	0.28028	0.22959	0.452
Mof_Cd	Cd	0.84195	0.54019	0.61716	0.453
Mof_Cd	Cd	0.85749	0.32715	0.98432	0.412
Mof_Cd	Cd	0.78933	0.17009	0.65322	0.463
Mof_Cd	Cd	0.28028	0.91162	0.72959	0.448
Mof_Cd	Cd	0.54019	0.84195	0.11716	0.468
Mof_H 	H 	0.6328	0.9036	0.3162	0.086
Mof_H 	H 	0.6662	0.8276	0.4166	0.077
Mof_H 	H 	0.778	0.0066	0.4019	0.029
Mof_H 	H 	0.8405	0.9659	0.3034	0.001
Mof_H 	H 	0.6061	0.2133	0.4071	0.076
Mof_H 	H 	0.5704	0.3036	0.3095	0.078
Mof_H 	H 	0.3951	0.1657	0.4109	0.065
Mof_H 	H 	0.4625	0.1277	0.3114	0.076
Mof_H 	H 	0.9147	0.6355	0.3639	0.018
Mof_H 	H 	0.1714	0.0122	0.2884	0.03
Mof_H 	H 	0.938	0.826	0.6438	-0.009
Mof_H 	H 	0.7098	0.1456	0.2338	0.135
Mof_H 	H 	0.5243	0.9859	0.4814	0.111
Mof_H 	H 	0.9036	0.6328	0.8162	0.087
Mof_H 	H 	0.8276	0.6662	0.9166	0.07
Mof_H 	H 	0.0066	0.778	0.9019	0.022
Mof_H 	H 	0.9659	0.8405	0.8034	-0.001
Mof_H 	H 	0.2133	0.6061	0.9071	0.068
Mof_H 	H 	0.3036	0.5704	0.8095	0.074
Mof_H 	H 	0.1657	0.3951	0.9109	0.059
Mof_H 	H 	0.1277	0.4625	0.8114	0.076
Mof_H 	H 	0.6355	0.9147	0.8639	0.014
Mof_H 	H 	0.0122	0.1714	0.7884	0.03
Mof_H 	H 	0.826	0.938	0.1438	-0.007
Mof_H 	H 	0.1456	0.7098	0.7338	0.134
Mof_H 	H 	0.9859	0.5243	0.9814	0.098
Mof_C 	C 	0.6424	0.9176	0.3741	-0.132
Mof_C 	C 	0.7579	0.0069	0.3433	0.044
Mof_C 	C 	0.5942	0.2096	0.3469	-0.068
Mof_C 	C 	0.479	0.1252	0.3717	-0.043
Mof_C 	C 	0.14217	0.61457	0.5655	0.286
Mof_C 	C 	0.11466	0.64326	0.4699	0.003
Mof_C 	C 	0.18173	0.69953	0.371	-0.018
Mof_C 	C 	0.3211	0.7465	0.3157	0.307
Mof_C 	C 	0.98909	0.64569	0.3817	0.087
Mof_C 	C 	0.09575	0.07095	0.5771	0.345
Mof_C 	C 	0.0821	0.0973	0.476	-0.03
Mof_C 	C 	0.00136	0.19376	0.41964	0.021
Mof_C 	C 	0.89236	0.31236	0.4332	0.25
Mof_C 	C 	0.1325	0.0549	0.3383	0.111
Mof_C 	C 	0.54681	0.07721	0.62475	0.311
Mof_C 	C 	0.64756	0.95096	0.6327	-0.048
Mof_C 	C 	0.65328	0.81188	0.63777	0.003
Mof_C 	C 	0.55482	0.72962	0.6307	0.269
Mof_C 	C 	0.8467	0.8437	0.6417	0.102
Mof_C 	C 	0.9176	0.6424	0.8741	-0.134
Mof_C 	C 	0.0069	0.7579	0.8433	0.048
Mof_C 	C 	0.2096	0.5942	0.8469	-0.064
Mof_C 	C 	0.1252	0.479	0.8717	-0.046
Mof_C 	C 	0.61457	0.14217	0.0655	0.325
Mof_C 	C 	0.64326	0.11466	0.9699	-0.037
Mof_C 	C 	0.69953	0.18173	0.871	-0.008
Mof_C 	C 	0.7465	0.3211	0.8157	0.3
Mof_C 	C 	0.64569	0.98909	0.8817	0.085
Mof_C 	C 	0.07095	0.09575	0.0771	0.38
Mof_C 	C 	0.0973	0.0821	0.976	-0.072
Mof_C 	C 	0.19376	0.00136	0.91964	0.037
Mof_C 	C 	0.31236	0.89236	0.9332	0.203
Mof_C 	C 	0.0549	0.1325	0.8383	0.109
Mof_C 	C 	0.07721	0.54681	0.12475	0.312
Mof_C 	C 	0.95096	0.64756	0.1327	-0.04
Mof_C 	C 	0.81188	0.65328	0.13777	0.009
Mof_C 	C 	0.72962	0.55482	0.1307	0.272
Mof_C 	C 	0.8437	0.8467	0.1417	0.109
Mof_N 	N 	0.72729	0.14989	0.288	-0.183
Mof_N 	N 	0.50945	0.98065	0.42651	-0.169
Mof_N 	N 	0.10337	0.69917	0.31615	-0.126
Mof_N 	N 	0.99177	0.60937	0.47208	-0.149
Mof_N 	N 	0.16744	0.01384	0.41952	-0.131
Mof_N 	N 	0.03546	0.1642	0.33268	-0.133
Mof_N 	N 	0.77527	0.96703	0.63584	-0.152
Mof_N 	N 	0.77756	0.74734	0.64416	-0.146
Mof_N 	N 	0.14989	0.72729	0.788	-0.185
Mof_N 	N 	0.98065	0.50945	0.92651	-0.168
Mof_N 	N 	0.69917	0.10337	0.81615	-0.127
Mof_N 	N 	0.60937	0.99177	0.97208	-0.156
Mof_N 	N 	0.01384	0.16744	0.91952	-0.128
Mof_N 	N 	0.1642	0.03546	0.83268	-0.136
Mof_N 	N 	0.96703	0.77527	0.13584	-0.149
Mof_N 	N 	0.74734	0.77756	0.14416	-0.144
Mof_O 	O 	0.24368	0.65912	0.57054	-0.259
Mof_O 	O 	0.06013	0.54507	0.63902	-0.25
Mof_O 	O 	0.40385	0.76033	0.35425	-0.278
Mof_O 	O 	0.34816	0.77838	0.22312	-0.294
Mof_O 	O 	0.19171	0.97537	0.59788	-0.317
Mof_O 	O 	0.02238	0.13436	0.63308	-0.283
Mof_O 	O 	0.84793	0.34171	0.51519	-0.254
Mof_O 	O 	0.84844	0.38156	0.36045	-0.251
Mof_O 	O 	0.58156	0.18754	0.61877	-0.254
Mof_O 	O 	0.42851	0.06847	0.62036	-0.25
Mof_O 	O 	0.43157	0.78043	0.63171	-0.268
Mof_O 	O 	0.60406	0.61108	0.62056	-0.238
Mof_O 	O 	0.65912	0.24368	0.07054	-0.25
Mof_O 	O 	0.54507	0.06013	0.13902	-0.254
Mof_O 	O 	0.76033	0.40385	0.85425	-0.28
Mof_O 	O 	0.77838	0.34816	0.72312	-0.293
Mof_O 	O 	0.97537	0.19171	0.09788	-0.31
Mof_O 	O 	0.13436	0.02238	0.13308	-0.289
Mof_O 	O 	0.34171	0.84793	0.01519	-0.217
Mof_O 	O 	0.38156	0.84844	0.86045	-0.244
Mof_O 	O 	0.18754	0.58156	0.11877	-0.246
Mof_O 	O 	0.06847	0.42851	0.12036	-0.241
Mof_O 	O 	0.78043	0.43157	0.13171	-0.258
Mof_O 	O 	0.61108	0.60406	0.12056	-0.231
_end
