data_functionalizedCrystal
_audit_creation_method	'EQeq! by Chris Wilmer'
_symmetry_space_group_name_H-M	'P1'
_symmetry_Int_Tables_number	1
_symmetry_cell_setting	triclinic
loop_
_symmetry_equiv_pos_as_xyz
  x,y,z
_cell_length_a	13.7819
_cell_length_b	15.1675
_cell_length_c	15.169
_cell_angle_alpha	73.924
_cell_angle_beta	75.939
_cell_angle_gamma	67.017
loop_
_atom_site_label
_atom_site_type_symbol
_atom_site_fract_x
_atom_site_fract_y
_atom_site_fract_z
_atom_site_charge
Mof_Cd	Cd	0.19099	0.80441	0.69233	0.389
Mof_Cd	Cd	0.80901	0.19559	0.30767	0.39
Mof_Cd	Cd	5.1261e-18	2.05044e-17	0.5	0.365
Mof_H 	H 	0.1457	0.879	0.0173	-0.004
Mof_H 	H 	0.0674	0.7079	0.9168	-0.024
Mof_H 	H 	0.1858	0.9001	0.3287	-0.007
Mof_H 	H 	0.3718	0.7069	0.5077	-0.002
Mof_H 	H 	0.6662	0.538	0.3976	-0.011
Mof_H 	H 	0.6379	0.4205	0.207	-0.015
Mof_H 	H 	0.432	0.6008	0.3919	0.14
Mof_H 	H 	0.5066	0.6645	0.3766	0.138
Mof_H 	H 	0.6249	0.6453	0.1402	0.133
Mof_H 	H 	0.6203	0.6938	0.2236	0.136
Mof_H 	H 	0.5135	0.8151	0.1102	-0.057
Mof_H 	H 	0.4675	0.826	0.273	0.141
Mof_H 	H 	0.3624	0.8752	0.2239	0.146
Mof_H 	H 	0.2409	0.7743	0.2456	0.137
Mof_H 	H 	0.2705	0.6676	0.3118	0.135
Mof_H 	H 	0.322	0.6535	0.152	-0.073
Mof_H 	H 	0.5014	0.5455	0.1624	0.129
Mof_H 	H 	0.4287	0.5285	0.2612	0.131
Mof_H 	H 	0.4592	0.7132	0.0591	0.136
Mof_H 	H 	0.3582	0.8025	0.0908	0.15
Mof_H 	H 	0.1978	0.0947	0.3829	-0.008
Mof_H 	H 	0.0025	0.3003	0.2193	-0.014
Mof_H 	H 	0.5977	0.2677	0.1865	-0.009
Mof_H 	H 	0.4534	0.1236	0.3993	-0.006
Mof_H 	H 	0.3373	0.1365	0.2973	0.144
Mof_H 	H 	0.2876	0.2322	0.342	0.144
Mof_H 	H 	0.4631	0.1352	0.1475	0.143
Mof_H 	H 	0.4963	0.2292	0.0958	0.137
Mof_H 	H 	0.3655	0.2235	0.0188	-0.064
Mof_H 	H 	0.1916	0.2375	0.1031	0.139
Mof_H 	H 	0.278	0.1401	0.1504	0.146
Mof_H 	H 	0.1537	0.3831	0.2679	0.139
Mof_H 	H 	0.1142	0.386	0.1755	0.133
Mof_H 	H 	0.2401	0.4689	0.1347	-0.072
Mof_H 	H 	0.4183	0.3807	0.1668	0.134
Mof_H 	H 	0.3366	0.3804	0.2625	0.135
Mof_H 	H 	0.2414	0.3841	0.0227	0.128
Mof_H 	H 	0.3596	0.382	0.0188	0.126
Mof_H 	H 	0.0095	0.8071	0.4041	-0.014
Mof_H 	H 	0.829	0.0059	0.2239	-0.014
Mof_H 	H 	0.0741	0.8232	0.1595	0.147
Mof_H 	H 	0.968	0.8942	0.1162	0.157
Mof_H 	H 	0.1455	0.6438	0.1535	0.139
Mof_H 	H 	0.0858	0.6017	0.1054	0.134
Mof_H 	H 	0.0392	0.5608	0.2716	-0.065
Mof_H 	H 	0.9495	0.6899	0.3567	0.134
Mof_H 	H 	0.0633	0.697	0.3046	0.126
Mof_H 	H 	0.7799	0.8042	0.2855	0.142
Mof_H 	H 	0.7909	0.8826	0.1912	0.149
Mof_H 	H 	0.7715	0.7456	0.1576	-0.076
Mof_H 	H 	0.8746	0.8283	0.0411	0.146
Mof_H 	H 	0.9196	0.7144	0.0369	0.135
Mof_H 	H 	0.9007	0.5912	0.1861	0.136
Mof_H 	H 	0.8479	0.6286	0.2817	0.138
Mof_H 	H 	0.8543	0.121	0.9827	-0.007
Mof_H 	H 	0.9326	0.2921	0.0832	-0.02
Mof_H 	H 	0.8142	0.0999	0.6713	-0.011
Mof_H 	H 	0.6282	0.2931	0.4923	-0.002
Mof_H 	H 	0.3338	0.462	0.6024	-0.012
Mof_H 	H 	0.3621	0.5795	0.793	-0.015
Mof_H 	H 	0.568	0.3992	0.6081	0.14
Mof_H 	H 	0.4934	0.3355	0.6234	0.137
Mof_H 	H 	0.3751	0.3547	0.8598	0.132
Mof_H 	H 	0.3797	0.3062	0.7764	0.135
Mof_H 	H 	0.4865	0.1849	0.8898	-0.058
Mof_H 	H 	0.5325	0.174	0.727	0.137
Mof_H 	H 	0.6376	0.1248	0.7761	0.138
Mof_H 	H 	0.7591	0.2257	0.7544	0.135
Mof_H 	H 	0.7295	0.3324	0.6882	0.134
Mof_H 	H 	0.678	0.3465	0.848	-0.072
Mof_H 	H 	0.4986	0.4545	0.8376	0.128
Mof_H 	H 	0.5713	0.4715	0.7388	0.131
Mof_H 	H 	0.5408	0.2868	0.9409	0.134
Mof_H 	H 	0.6418	0.1975	0.9092	0.145
Mof_H 	H 	0.8022	0.9053	0.6171	-0.004
Mof_H 	H 	0.9975	0.6997	0.7807	-0.014
Mof_H 	H 	0.4023	0.7323	0.8135	-0.009
Mof_H 	H 	0.5466	0.8764	0.6007	-0.003
Mof_H 	H 	0.6627	0.8635	0.7027	0.149
Mof_H 	H 	0.7124	0.7678	0.658	0.147
Mof_H 	H 	0.5369	0.8648	0.8525	0.149
Mof_H 	H 	0.5037	0.7708	0.9042	0.14
Mof_H 	H 	0.6345	0.7765	0.9812	-0.064
Mof_H 	H 	0.8084	0.7625	0.8969	0.142
Mof_H 	H 	0.722	0.8599	0.8496	0.15
Mof_H 	H 	0.8463	0.6169	0.7321	0.142
Mof_H 	H 	0.8858	0.614	0.8245	0.137
Mof_H 	H 	0.7599	0.5311	0.8653	-0.073
Mof_H 	H 	0.5817	0.6193	0.8332	0.135
Mof_H 	H 	0.6634	0.6196	0.7375	0.137
Mof_H 	H 	0.7586	0.6159	0.9773	0.13
Mof_H 	H 	0.6404	0.618	0.9812	0.128
Mof_H 	H 	0.9905	0.1929	0.5959	0.004
Mof_H 	H 	0.171	0.9941	0.7761	0.022
Mof_H 	H 	0.9259	0.1768	0.8405	0.136
Mof_H 	H 	0.032	0.1058	0.8838	0.133
Mof_H 	H 	0.8545	0.3562	0.8465	0.145
Mof_H 	H 	0.9142	0.3983	0.8946	0.142
Mof_H 	H 	0.9608	0.4392	0.7284	-0.075
Mof_H 	H 	0.0505	0.3101	0.6433	0.143
Mof_H 	H 	0.9367	0.303	0.6954	0.147
Mof_H 	H 	0.2201	0.1958	0.7145	0.141
Mof_H 	H 	0.2091	0.1174	0.8088	0.145
Mof_H 	H 	0.2285	0.2544	0.8424	-0.081
Mof_H 	H 	0.1254	0.1717	0.9589	0.149
Mof_H 	H 	0.0804	0.2856	0.9631	0.137
Mof_H 	H 	0.0993	0.4088	0.8139	0.142
Mof_H 	H 	0.1521	0.3714	0.7183	0.146
Mof_C 	C 	0.1421	0.8432	0.9764	0.081
Mof_C 	C 	0.0986	0.7513	0.9232	0.12
Mof_C 	C 	0.2137	0.8652	0.3847	0.1
Mof_C 	C 	0.3149	0.7603	0.4817	0.104
Mof_C 	C 	0.6771	0.4936	0.3596	0.089
Mof_C 	C 	0.6619	0.4295	0.2564	0.101
Mof_C 	C 	0.3717	0.7405	0.3107	0.306
Mof_C 	C 	0.462	0.6479	0.3461	-0.392
Mof_C 	C 	0.5302	0.6023	0.2616	0.287
Mof_C 	C 	0.5777	0.6751	0.1927	-0.386
Mof_C 	C 	0.4838	0.7672	0.1566	0.293
Mof_C 	C 	0.4196	0.8127	0.2431	-0.399
Mof_C 	C 	0.3007	0.7147	0.2661	-0.401
Mof_C 	C 	0.3678	0.6694	0.1828	0.287
Mof_C 	C 	0.4585	0.5759	0.2158	-0.384
Mof_C 	C 	0.4162	0.7423	0.1133	-0.416
Mof_C 	C 	0.136	0.134	0.3548	0.098
Mof_C 	C 	0.0302	0.2455	0.2664	0.094
Mof_C 	C 	0.5821	0.2289	0.2453	0.1
Mof_C 	C 	0.5047	0.1506	0.3607	0.093
Mof_C 	C 	0.2182	0.2484	0.2278	0.31
Mof_C 	C 	0.3111	0.2089	0.2829	-0.41
Mof_C 	C 	0.3998	0.2458	0.2233	0.309
Mof_C 	C 	0.437	0.2076	0.1333	-0.4
Mof_C 	C 	0.3421	0.2478	0.0782	0.291
Mof_C 	C 	0.2529	0.2125	0.1372	-0.409
Mof_C 	C 	0.1765	0.3599	0.2087	-0.399
Mof_C 	C 	0.2665	0.3958	0.1488	0.283
Mof_C 	C 	0.3601	0.3568	0.2034	-0.399
Mof_C 	C 	0.3021	0.3584	0.0576	-0.396
Mof_C 	C 	0.9673	0.8678	0.3712	0.109
Mof_C 	C 	0.869	0.9759	0.2739	0.131
Mof_C 	C 	0.9369	0.8053	0.2424	0.314
Mof_C 	C 	0.004	0.8271	0.1497	-0.424
Mof_C 	C 	0.0198	0.7525	0.0916	0.306
Mof_C 	C 	0.0749	0.6498	0.1429	-0.392
Mof_C 	C 	0.0043	0.6288	0.2376	0.263
Mof_C 	C 	0.9923	0.7029	0.2951	-0.378
Mof_C 	C 	0.8259	0.8158	0.2255	-0.407
Mof_C 	C 	0.8425	0.7399	0.1686	0.309
Mof_C 	C 	0.9105	0.7614	0.075	-0.404
Mof_C 	C 	0.8933	0.6402	0.2213	-0.404
Mof_C 	C 	0.8579	0.1568	0.0236	0.081
Mof_C 	C 	0.9014	0.2487	0.0768	0.121
Mof_C 	C 	0.7863	0.1348	0.6153	0.099
Mof_C 	C 	0.6851	0.2397	0.5183	0.103
Mof_C 	C 	0.3229	0.5064	0.6404	0.089
Mof_C 	C 	0.3381	0.5705	0.7436	0.1
Mof_C 	C 	0.6283	0.2595	0.6893	0.303
Mof_C 	C 	0.538	0.3521	0.6539	-0.389
Mof_C 	C 	0.4698	0.3977	0.7384	0.285
Mof_C 	C 	0.4223	0.3249	0.8073	-0.383
Mof_C 	C 	0.5162	0.2328	0.8434	0.289
Mof_C 	C 	0.5804	0.1873	0.7569	-0.393
Mof_C 	C 	0.6993	0.2853	0.7339	-0.398
Mof_C 	C 	0.6322	0.3306	0.8172	0.284
Mof_C 	C 	0.5415	0.4241	0.7842	-0.382
Mof_C 	C 	0.5838	0.2577	0.8867	-0.411
Mof_C 	C 	0.864	0.866	0.6452	0.1
Mof_C 	C 	0.9698	0.7545	0.7336	0.109
Mof_C 	C 	0.4179	0.7711	0.7547	0.102
Mof_C 	C 	0.4953	0.8494	0.6393	0.095
Mof_C 	C 	0.7818	0.7516	0.7722	0.315
Mof_C 	C 	0.6889	0.7911	0.7171	-0.415
Mof_C 	C 	0.6002	0.7542	0.7767	0.313
Mof_C 	C 	0.563	0.7924	0.8667	-0.406
Mof_C 	C 	0.6579	0.7522	0.9218	0.296
Mof_C 	C 	0.7471	0.7875	0.8628	-0.414
Mof_C 	C 	0.8235	0.6401	0.7913	-0.404
Mof_C 	C 	0.7335	0.6042	0.8512	0.288
Mof_C 	C 	0.6399	0.6432	0.7966	-0.403
Mof_C 	C 	0.6979	0.6416	0.9424	-0.401
Mof_C 	C 	0.0327	0.1322	0.6288	0.081
Mof_C 	C 	0.131	0.0241	0.7261	0.065
Mof_C 	C 	0.0631	0.1947	0.7576	0.303
Mof_C 	C 	0.996	0.1729	0.8503	-0.386
Mof_C 	C 	0.9802	0.2475	0.9084	0.317
Mof_C 	C 	0.9251	0.3502	0.8571	-0.411
Mof_C 	C 	0.9957	0.3712	0.7624	0.308
Mof_C 	C 	0.0077	0.2971	0.7049	-0.427
Mof_C 	C 	0.1741	0.1842	0.7745	-0.41
Mof_C 	C 	0.1575	0.2601	0.8314	0.323
Mof_C 	C 	0.0895	0.2386	0.925	-0.425
Mof_C 	C 	0.1067	0.3598	0.7787	-0.438
Mof_N 	N 	0.1693	0.8868	0.4659	-0.117
Mof_N 	N 	0.2342	0.8193	0.5294	-0.112
Mof_N 	N 	0.3048	0.7868	0.3907	-0.182
Mof_N 	N 	0.7514	0.4068	0.3642	-0.102
Mof_N 	N 	0.7401	0.3657	0.2972	-0.124
Mof_N 	N 	0.6182	0.511	0.293	-0.181
Mof_N 	N 	0.0443	0.1198	0.3793	-0.124
Mof_N 	N 	0.9758	0.1925	0.3222	-0.112
Mof_N 	N 	0.1305	0.2119	0.2845	-0.183
Mof_N 	N 	0.6468	0.187	0.3078	-0.12
Mof_N 	N 	0.5968	0.1354	0.383	-0.1
Mof_N 	N 	0.4915	0.2094	0.2758	-0.184
Mof_N 	N 	0.9436	0.9532	0.3912	-0.113
Mof_N 	N 	0.8788	0.0227	0.3289	-0.127
Mof_N 	N 	0.9227	0.8789	0.2968	-0.189
Mof_N 	N 	0.0853	0.7766	0.0014	-0.188
Mof_N 	N 	0.1566	0.7884	0.8548	-0.131
Mof_N 	N 	0.1882	0.8486	0.8908	-0.104
Mof_N 	N 	0.8307	0.1132	0.5341	-0.119
Mof_N 	N 	0.7658	0.1807	0.4706	-0.112
Mof_N 	N 	0.6952	0.2132	0.6093	-0.182
Mof_N 	N 	0.2486	0.5932	0.6358	-0.103
Mof_N 	N 	0.2599	0.6343	0.7028	-0.125
Mof_N 	N 	0.3818	0.489	0.707	-0.181
Mof_N 	N 	0.9557	0.8802	0.6207	-0.114
Mof_N 	N 	0.0242	0.8075	0.6778	-0.125
Mof_N 	N 	0.8695	0.7881	0.7155	-0.186
Mof_N 	N 	0.3532	0.813	0.6922	-0.119
Mof_N 	N 	0.4032	0.8646	0.617	-0.097
Mof_N 	N 	0.5085	0.7906	0.7242	-0.184
Mof_N 	N 	0.0564	0.0468	0.6088	-0.123
Mof_N 	N 	0.1212	0.9773	0.6711	-0.101
Mof_N 	N 	0.0773	0.1211	0.7032	-0.176
Mof_N 	N 	0.9147	0.2234	0.9986	-0.188
Mof_N 	N 	0.8434	0.2116	0.1452	-0.131
Mof_N 	N 	0.8118	0.1514	0.1092	-0.105
Mof_C 	C 	0.757	0.9896	0.9246	0.013
Mof_Se	Se	0.88136	0.98456	0.8457	0.027
Mof_N 	N 	0.6799	0.9942	0.9771	-0.121
Mof_C 	C 	0.243	0.0104	0.0754	0.009
Mof_Se	Se	0.11864	0.01544	0.1543	-0.002
Mof_N 	N 	0.3201	0.0058	0.0229	-0.129
_end
