data_functionalizedCrystal
_audit_creation_method	'EQeq! by Chris Wilmer'
_symmetry_space_group_name_H-M	'P1'
_symmetry_Int_Tables_number	1
_symmetry_cell_setting	triclinic
loop_
_symmetry_equiv_pos_as_xyz
  x,y,z
_cell_length_a	20.3067
_cell_length_b	20.3067
_cell_length_c	20.3067
_cell_angle_alpha	109.471
_cell_angle_beta	109.471
_cell_angle_gamma	109.471
loop_
_atom_site_label
_atom_site_type_symbol
_atom_site_fract_x
_atom_site_fract_y
_atom_site_fract_z
_atom_site_charge
Mof_H 	H 	0.2452	0.5887	0.4641	-0.025
Mof_H 	H 	0.3106	0.5302	0.4014	0.038
Mof_C 	C 	0.2613	0.5482	0.4797	0.024
Mof_C 	C 	0.2982	0.5156	0.444	-0.071
Mof_H 	H 	0.8754	0.4113	0.6565	-0.025
Mof_H 	H 	0.8712	0.4698	0.7804	0.037
Mof_C 	C 	0.9315	0.4518	0.7131	0.038
Mof_C 	C 	0.9284	0.4844	0.7826	-0.046
Mof_H 	H 	0.1246	0.7811	0.5359	-0.023
Mof_H 	H 	0.1288	0.9092	0.5986	0.042
Mof_C 	C 	0.0685	0.7816	0.5203	0.019
Mof_C 	C 	0.0716	0.8542	0.556	-0.061
Mof_H 	H 	0.7548	0.2189	0.3435	-0.025
Mof_H 	H 	0.6894	0.0908	0.2196	0.036
Mof_C 	C 	0.7387	0.2184	0.2869	0.025
Mof_C 	C 	0.7018	0.1458	0.2174	-0.07
Mof_H 	H 	0.3435	0.5887	0.1246	-0.025
Mof_H 	H 	0.2196	0.5302	0.1288	0.037
Mof_C 	C 	0.2869	0.5482	0.0685	0.019
Mof_C 	C 	0.2174	0.5156	0.0716	-0.066
Mof_H 	H 	0.5359	0.4113	0.7548	-0.024
Mof_H 	H 	0.5986	0.4698	0.6894	0.041
Mof_C 	C 	0.5203	0.4518	0.7387	0.027
Mof_C 	C 	0.556	0.4844	0.7018	-0.068
Mof_H 	H 	0.6565	0.7811	0.2452	-0.022
Mof_H 	H 	0.7804	0.9092	0.3106	0.044
Mof_C 	C 	0.7131	0.7816	0.2613	0.024
Mof_C 	C 	0.7826	0.8542	0.2982	-0.063
Mof_H 	H 	0.4641	0.2189	0.8754	-0.025
Mof_H 	H 	0.4014	0.0908	0.8712	0.034
Mof_C 	C 	0.4797	0.2184	0.9315	0.039
Mof_C 	C 	0.444	0.1458	0.9284	-0.048
Mof_Zn	Zn	0.22104	0.61052	0.61052	1.147
Mof_Zn	Zn	-1.76364e-17	0.38948	0.61052	1.142
Mof_C 	C 	0.319	0.4638	0.4638	0.009
Mof_C 	C 	0.367	0.4349	0.4349	0.117
Mof_N 	N 	0.2448	0.5323	0.5323	-0.263
Mof_C 	C 	7.05457e-17	0.5362	0.8552	-0.014
Mof_C 	C 	3.52728e-17	0.5651	0.9321	0.125
Mof_N 	N 	1.23455e-16	0.4677	0.7125	-0.274
Mof_C 	C 	3.52728e-17	0.8552	0.5362	-0.014
Mof_C 	C 	7.05457e-17	0.9321	0.5651	0.125
Mof_N 	N 	7.93639e-17	0.7125	0.4677	-0.274
Mof_C 	C 	0.681	0.1448	0.1448	0.009
Mof_C 	C 	0.633	0.0679	0.0679	0.114
Mof_N 	N 	0.7552	0.2875	0.2875	-0.262
Mof_N 	N 	0.1509	0.6262	0.5247	-0.23
Mof_C 	C 	0.8985	0.3738	0.5247	-0.235
Mof_N 	N 	0.4753	0.6262	0.1015	-0.232
Mof_C 	C 	0.4753	0.3738	0.8491	-0.244
Mof_N 	N 	0.3887	0.3887	0.4596	-0.148
Mof_N 	N 	0.0709	0.6113	-0	-0.159
Mof_N 	N 	0.9291	0.9291	0.5404	-0.131
Mof_N 	N 	0.6113	0.0709	-0	-0.159
Mof_H 	H 	0.4641	0.2452	0.5887	-0.024
Mof_H 	H 	0.4014	0.3106	0.5302	0.039
Mof_C 	C 	0.4797	0.2613	0.5482	0.025
Mof_C 	C 	0.444	0.2982	0.5156	-0.07
Mof_H 	H 	0.6565	0.8754	0.4113	-0.024
Mof_H 	H 	0.7804	0.8712	0.4698	0.038
Mof_C 	C 	0.7131	0.9315	0.4518	0.039
Mof_C 	C 	0.7826	0.9284	0.4844	-0.045
Mof_H 	H 	0.5359	0.1246	0.7811	-0.022
Mof_H 	H 	0.5986	0.1288	0.9092	0.043
Mof_C 	C 	0.5203	0.0685	0.7816	0.02
Mof_C 	C 	0.556	0.0716	0.8542	-0.06
Mof_H 	H 	0.3435	0.7548	0.2189	-0.024
Mof_H 	H 	0.2196	0.6894	0.0908	0.037
Mof_C 	C 	0.2869	0.7387	0.2184	0.026
Mof_C 	C 	0.2174	0.7018	0.1458	-0.069
Mof_H 	H 	0.1246	0.3435	0.5887	-0.024
Mof_H 	H 	0.1288	0.2196	0.5302	0.038
Mof_C 	C 	0.0685	0.2869	0.5482	0.02
Mof_C 	C 	0.0716	0.2174	0.5156	-0.065
Mof_H 	H 	0.7548	0.5359	0.4113	-0.023
Mof_H 	H 	0.6894	0.5986	0.4698	0.041
Mof_C 	C 	0.7387	0.5203	0.4518	0.027
Mof_C 	C 	0.7018	0.556	0.4844	-0.068
Mof_H 	H 	0.2452	0.6565	0.7811	-0.022
Mof_H 	H 	0.3106	0.7804	0.9092	0.044
Mof_C 	C 	0.2613	0.7131	0.7816	0.024
Mof_C 	C 	0.2982	0.7826	0.8542	-0.063
Mof_H 	H 	0.8754	0.4641	0.2189	-0.025
Mof_H 	H 	0.8712	0.4014	0.0908	0.034
Mof_C 	C 	0.9315	0.4797	0.2184	0.039
Mof_C 	C 	0.9284	0.444	0.1458	-0.048
Mof_Zn	Zn	0.61052	0.22104	0.61052	1.147
Mof_Zn	Zn	0.61052	0	0.38948	1.142
Mof_C 	C 	0.4638	0.319	0.4638	0.009
Mof_C 	C 	0.4349	0.367	0.4349	0.117
Mof_N 	N 	0.5323	0.2448	0.5323	-0.263
Mof_C 	C 	0.8552	3.52728e-17	0.5362	-0.014
Mof_C 	C 	0.9321	0	0.5651	0.125
Mof_N 	N 	0.7125	3.52728e-17	0.4677	-0.274
Mof_C 	C 	0.5362	-7.05457e-17	0.8552	-0.014
Mof_C 	C 	0.5651	0	0.9321	0.125
Mof_N 	N 	0.4677	7.05457e-17	0.7125	-0.274
Mof_C 	C 	0.1448	0.681	0.1448	0.009
Mof_C 	C 	0.0679	0.633	0.0679	0.114
Mof_N 	N 	0.2875	0.7552	0.2875	-0.262
Mof_N 	N 	0.5247	0.1509	0.6262	-0.23
Mof_C 	C 	0.5247	0.8985	0.3738	-0.235
Mof_N 	N 	0.1015	0.4753	0.6262	-0.232
Mof_C 	C 	0.8491	0.4753	0.3738	-0.244
Mof_N 	N 	0.4596	0.3887	0.3887	-0.148
Mof_N 	N 	3.52728e-17	0.0709	0.6113	-0.159
Mof_N 	N 	0.5404	0.9291	0.9291	-0.131
Mof_N 	N 	3.52728e-17	0.6113	0.0709	-0.159
Mof_H 	H 	0.5887	0.4641	0.2452	-0.024
Mof_H 	H 	0.5302	0.4014	0.3106	0.039
Mof_C 	C 	0.5482	0.4797	0.2613	0.025
Mof_C 	C 	0.5156	0.444	0.2982	-0.07
Mof_H 	H 	0.4113	0.6565	0.8754	-0.024
Mof_H 	H 	0.4698	0.7804	0.8712	0.038
Mof_C 	C 	0.4518	0.7131	0.9315	0.039
Mof_C 	C 	0.4844	0.7826	0.9284	-0.045
Mof_H 	H 	0.7811	0.5359	0.1246	-0.022
Mof_H 	H 	0.9092	0.5986	0.1288	0.043
Mof_C 	C 	0.7816	0.5203	0.0685	0.02
Mof_C 	C 	0.8542	0.556	0.0716	-0.06
Mof_H 	H 	0.2189	0.3435	0.7548	-0.024
Mof_H 	H 	0.0908	0.2196	0.6894	0.037
Mof_C 	C 	0.2184	0.2869	0.7387	0.026
Mof_C 	C 	0.1458	0.2174	0.7018	-0.069
Mof_H 	H 	0.5887	0.1246	0.3435	-0.024
Mof_H 	H 	0.5302	0.1288	0.2196	0.038
Mof_C 	C 	0.5482	0.0685	0.2869	0.02
Mof_C 	C 	0.5156	0.0716	0.2174	-0.065
Mof_H 	H 	0.4113	0.7548	0.5359	-0.023
Mof_H 	H 	0.4698	0.6894	0.5986	0.041
Mof_C 	C 	0.4518	0.7387	0.5203	0.027
Mof_C 	C 	0.4844	0.7018	0.556	-0.068
Mof_H 	H 	0.7811	0.2452	0.6565	-0.022
Mof_H 	H 	0.9092	0.3106	0.7804	0.044
Mof_C 	C 	0.7816	0.2613	0.7131	0.024
Mof_C 	C 	0.8542	0.2982	0.7826	-0.063
Mof_H 	H 	0.2189	0.8754	0.4641	-0.025
Mof_H 	H 	0.0908	0.8712	0.4014	0.034
Mof_C 	C 	0.2184	0.9315	0.4797	0.039
Mof_C 	C 	0.1458	0.9284	0.444	-0.048
Mof_Zn	Zn	0.61052	0.61052	0.22104	1.147
Mof_Zn	Zn	0.38948	0.61052	-0	1.142
Mof_C 	C 	0.4638	0.4638	0.319	0.009
Mof_C 	C 	0.4349	0.4349	0.367	0.117
Mof_N 	N 	0.5323	0.5323	0.2448	-0.263
Mof_C 	C 	0.5362	0.8552	-0	-0.014
Mof_C 	C 	0.5651	0.9321	-0	0.125
Mof_N 	N 	0.4677	0.7125	-0	-0.274
Mof_C 	C 	0.8552	0.5362	-0	-0.014
Mof_C 	C 	0.9321	0.5651	-0	0.125
Mof_N 	N 	0.7125	0.4677	-0	-0.274
Mof_C 	C 	0.1448	0.1448	0.681	0.009
Mof_C 	C 	0.0679	0.0679	0.633	0.114
Mof_N 	N 	0.2875	0.2875	0.7552	-0.262
Mof_N 	N 	0.6262	0.5247	0.1509	-0.23
Mof_C 	C 	0.3738	0.5247	0.8985	-0.235
Mof_N 	N 	0.6262	0.1015	0.4753	-0.232
Mof_C 	C 	0.3738	0.8491	0.4753	-0.244
Mof_N 	N 	0.3887	0.4596	0.3887	-0.148
Mof_N 	N 	0.6113	0	0.0709	-0.159
Mof_N 	N 	0.9291	0.5404	0.9291	-0.131
Mof_N 	N 	0.0709	3.52728e-17	0.6113	-0.159
Mof_H 	H 	0.7548	0.4113	0.5359	-0.023
Mof_H 	H 	0.6894	0.4698	0.5986	0.042
Mof_C 	C 	0.7387	0.4518	0.5203	0.028
Mof_C 	C 	0.7018	0.4844	0.556	-0.068
Mof_H 	H 	0.1246	0.5887	0.3435	-0.023
Mof_H 	H 	0.1288	0.5302	0.2196	0.038
Mof_C 	C 	0.0685	0.5482	0.2869	0.02
Mof_C 	C 	0.0716	0.5156	0.2174	-0.064
Mof_H 	H 	0.8754	0.2189	0.4641	-0.025
Mof_H 	H 	0.8712	0.0908	0.4014	0.034
Mof_C 	C 	0.9315	0.2184	0.4797	0.038
Mof_C 	C 	0.9284	0.1458	0.444	-0.048
Mof_H 	H 	0.2452	0.7811	0.6565	-0.023
Mof_H 	H 	0.3106	0.9092	0.7804	0.045
Mof_C 	C 	0.2613	0.7816	0.7131	0.025
Mof_C 	C 	0.2982	0.8542	0.7826	-0.063
Mof_H 	H 	0.6565	0.4113	0.8754	-0.024
Mof_H 	H 	0.7804	0.4698	0.8712	0.038
Mof_C 	C 	0.7131	0.4518	0.9315	0.039
Mof_C 	C 	0.7826	0.4844	0.9284	-0.045
Mof_H 	H 	0.4641	0.5887	0.2452	-0.024
Mof_H 	H 	0.4014	0.5302	0.3106	0.039
Mof_C 	C 	0.4797	0.5482	0.2613	0.025
Mof_C 	C 	0.444	0.5156	0.2982	-0.069
Mof_H 	H 	0.3435	0.2189	0.7548	-0.023
Mof_H 	H 	0.2196	0.0908	0.6894	0.037
Mof_C 	C 	0.2869	0.2184	0.7387	0.026
Mof_C 	C 	0.2174	0.1458	0.7018	-0.069
Mof_H 	H 	0.5359	0.7811	0.1246	-0.022
Mof_H 	H 	0.5986	0.9092	0.1288	0.044
Mof_C 	C 	0.5203	0.7816	0.0685	0.021
Mof_C 	C 	0.556	0.8542	0.0716	-0.06
Mof_Zn	Zn	0.77896	0.38948	0.38948	1.147
Mof_Zn	Zn	-0	0.61052	0.38948	1.143
Mof_C 	C 	0.681	0.5362	0.5362	0.012
Mof_C 	C 	0.633	0.5651	0.5651	0.12
Mof_N 	N 	0.7552	0.4677	0.4677	-0.262
Mof_C 	C 	4.40911e-18	0.4638	0.1448	-0.012
Mof_C 	C 	2.20455e-17	0.4349	0.0679	0.103
Mof_N 	N 	8.81821e-18	0.5323	0.2875	-0.274
Mof_C 	C 	-2.64546e-17	0.1448	0.4638	-0.012
Mof_C 	C 	5.29093e-17	0.0679	0.4349	0.103
Mof_N 	N 	3.52728e-17	0.2875	0.5323	-0.274
Mof_C 	C 	0.319	0.8552	0.8552	0.003
Mof_C 	C 	0.367	0.9321	0.9321	0.155
Mof_N 	N 	0.2448	0.7125	0.7125	-0.262
Mof_N 	N 	0.8491	0.3738	0.4753	-0.231
Mof_C 	C 	0.1015	0.6262	0.4753	-0.252
Mof_N 	N 	0.5247	0.3738	0.8985	-0.224
Mof_C 	C 	0.5247	0.6262	0.1509	-0.249
Mof_N 	N 	0.6113	0.6113	0.5404	-0.147
Mof_N 	N 	0.9291	0.3887	-0	-0.153
Mof_N 	N 	0.0709	0.0709	0.4596	-0.147
Mof_N 	N 	0.3887	0.9291	-0	-0.153
Mof_H 	H 	0.5359	0.7548	0.4113	-0.023
Mof_H 	H 	0.5986	0.6894	0.4698	0.042
Mof_C 	C 	0.5203	0.7387	0.4518	0.028
Mof_C 	C 	0.556	0.7018	0.4844	-0.068
Mof_H 	H 	0.3435	0.1246	0.5887	-0.023
Mof_H 	H 	0.2196	0.1288	0.5302	0.038
Mof_C 	C 	0.2869	0.0685	0.5482	0.02
Mof_C 	C 	0.2174	0.0716	0.5156	-0.064
Mof_H 	H 	0.4641	0.8754	0.2189	-0.025
Mof_H 	H 	0.4014	0.8712	0.0908	0.034
Mof_C 	C 	0.4797	0.9315	0.2184	0.038
Mof_C 	C 	0.444	0.9284	0.1458	-0.048
Mof_H 	H 	0.6565	0.2452	0.7811	-0.023
Mof_H 	H 	0.7804	0.3106	0.9092	0.045
Mof_C 	C 	0.7131	0.2613	0.7816	0.025
Mof_C 	C 	0.7826	0.2982	0.8542	-0.063
Mof_H 	H 	0.8754	0.6565	0.4113	-0.024
Mof_H 	H 	0.8712	0.7804	0.4698	0.038
Mof_C 	C 	0.9315	0.7131	0.4518	0.039
Mof_C 	C 	0.9284	0.7826	0.4844	-0.045
Mof_H 	H 	0.2452	0.4641	0.5887	-0.024
Mof_H 	H 	0.3106	0.4014	0.5302	0.039
Mof_C 	C 	0.2613	0.4797	0.5482	0.025
Mof_C 	C 	0.2982	0.444	0.5156	-0.069
Mof_H 	H 	0.7548	0.3435	0.2189	-0.023
Mof_H 	H 	0.6894	0.2196	0.0908	0.037
Mof_C 	C 	0.7387	0.2869	0.2184	0.026
Mof_C 	C 	0.7018	0.2174	0.1458	-0.069
Mof_H 	H 	0.1246	0.5359	0.7811	-0.022
Mof_H 	H 	0.1288	0.5986	0.9092	0.044
Mof_C 	C 	0.0685	0.5203	0.7816	0.021
Mof_C 	C 	0.0716	0.556	0.8542	-0.06
Mof_Zn	Zn	0.38948	0.77896	0.38948	1.147
Mof_Zn	Zn	0.38948	-3.52728e-17	0.61052	1.143
Mof_C 	C 	0.5362	0.681	0.5362	0.012
Mof_C 	C 	0.5651	0.633	0.5651	0.12
Mof_N 	N 	0.4677	0.7552	0.4677	-0.262
Mof_C 	C 	0.1448	0	0.4638	-0.012
Mof_C 	C 	0.0679	0	0.4349	0.103
Mof_N 	N 	0.2875	0	0.5323	-0.274
Mof_C 	C 	0.4638	8.81821e-18	0.1448	-0.012
Mof_C 	C 	0.4349	4.40911e-18	0.0679	0.103
Mof_N 	N 	0.5323	1.76364e-17	0.2875	-0.274
Mof_C 	C 	0.8552	0.319	0.8552	0.003
Mof_C 	C 	0.9321	0.367	0.9321	0.155
Mof_N 	N 	0.7125	0.2448	0.7125	-0.262
Mof_N 	N 	0.4753	0.8491	0.3738	-0.231
Mof_C 	C 	0.4753	0.1015	0.6262	-0.252
Mof_N 	N 	0.8985	0.5247	0.3738	-0.224
Mof_C 	C 	0.1509	0.5247	0.6262	-0.249
Mof_N 	N 	0.5404	0.6113	0.6113	-0.147
Mof_N 	N 	-2.64546e-17	0.9291	0.3887	-0.153
Mof_N 	N 	0.4596	0.0709	0.0709	-0.147
Mof_N 	N 	-0	0.3887	0.9291	-0.153
Mof_H 	H 	0.4113	0.5359	0.7548	-0.023
Mof_H 	H 	0.4698	0.5986	0.6894	0.042
Mof_C 	C 	0.4518	0.5203	0.7387	0.028
Mof_C 	C 	0.4844	0.556	0.7018	-0.068
Mof_H 	H 	0.5887	0.3435	0.1246	-0.023
Mof_H 	H 	0.5302	0.2196	0.1288	0.038
Mof_C 	C 	0.5482	0.2869	0.0685	0.02
Mof_C 	C 	0.5156	0.2174	0.0716	-0.064
Mof_H 	H 	0.2189	0.4641	0.8754	-0.025
Mof_H 	H 	0.0908	0.4014	0.8712	0.034
Mof_C 	C 	0.2184	0.4797	0.9315	0.038
Mof_C 	C 	0.1458	0.444	0.9284	-0.048
Mof_H 	H 	0.7811	0.6565	0.2452	-0.023
Mof_H 	H 	0.9092	0.7804	0.3106	0.045
Mof_C 	C 	0.7816	0.7131	0.2613	0.025
Mof_C 	C 	0.8542	0.7826	0.2982	-0.063
Mof_H 	H 	0.4113	0.8754	0.6565	-0.024
Mof_H 	H 	0.4698	0.8712	0.7804	0.038
Mof_C 	C 	0.4518	0.9315	0.7131	0.039
Mof_C 	C 	0.4844	0.9284	0.7826	-0.045
Mof_H 	H 	0.5887	0.2452	0.4641	-0.024
Mof_H 	H 	0.5302	0.3106	0.4014	0.039
Mof_C 	C 	0.5482	0.2613	0.4797	0.025
Mof_C 	C 	0.5156	0.2982	0.444	-0.069
Mof_H 	H 	0.2189	0.7548	0.3435	-0.023
Mof_H 	H 	0.0908	0.6894	0.2196	0.037
Mof_C 	C 	0.2184	0.7387	0.2869	0.026
Mof_C 	C 	0.1458	0.7018	0.2174	-0.069
Mof_H 	H 	0.7811	0.1246	0.5359	-0.022
Mof_H 	H 	0.9092	0.1288	0.5986	0.044
Mof_C 	C 	0.7816	0.0685	0.5203	0.021
Mof_C 	C 	0.8542	0.0716	0.556	-0.06
Mof_Zn	Zn	0.38948	0.38948	0.77896	1.147
Mof_Zn	Zn	0.61052	0.38948	-0	1.143
Mof_C 	C 	0.5362	0.5362	0.681	0.012
Mof_C 	C 	0.5651	0.5651	0.633	0.12
Mof_N 	N 	0.4677	0.4677	0.7552	-0.262
Mof_C 	C 	0.4638	0.1448	-0	-0.012
Mof_C 	C 	0.4349	0.0679	-0	0.103
Mof_N 	N 	0.5323	0.2875	-0	-0.274
Mof_C 	C 	0.1448	0.4638	-0	-0.012
Mof_C 	C 	0.0679	0.4349	-0	0.103
Mof_N 	N 	0.2875	0.5323	-0	-0.274
Mof_C 	C 	0.8552	0.8552	0.319	0.003
Mof_C 	C 	0.9321	0.9321	0.367	0.155
Mof_N 	N 	0.7125	0.7125	0.2448	-0.262
Mof_N 	N 	0.3738	0.4753	0.8491	-0.231
Mof_C 	C 	0.6262	0.4753	0.1015	-0.252
Mof_N 	N 	0.3738	0.8985	0.5247	-0.224
Mof_C 	C 	0.6262	0.1509	0.5247	-0.249
Mof_N 	N 	0.6113	0.5404	0.6113	-0.147
Mof_N 	N 	0.3887	7.05457e-17	0.9291	-0.153
Mof_N 	N 	0.0709	0.4596	0.0709	-0.147
Mof_N 	N 	0.9291	0	0.3887	-0.153
_end
