data_functionalizedCrystal
_audit_creation_method	'EQeq! by Chris Wilmer'
_symmetry_space_group_name_H-M	'P1'
_symmetry_Int_Tables_number	1
_symmetry_cell_setting	triclinic
loop_
_symmetry_equiv_pos_as_xyz
  x,y,z
_cell_length_a	15.0841
_cell_length_b	15.0841
_cell_length_c	15.4276
_cell_angle_alpha	90
_cell_angle_beta	90
_cell_angle_gamma	120
loop_
_atom_site_label
_atom_site_type_symbol
_atom_site_fract_x
_atom_site_fract_y
_atom_site_fract_z
_atom_site_charge
Mof_Nd	Nd	0.33333	0.66666	0.75	2.691
Mof_Nd	Nd	0.66667	0.33334	0.75	2.691
Mof_Nd	Nd	0.66667	0.33334	0.25	2.663
Mof_Nd	Nd	0.33333	0.66666	0.25	2.663
Mof_Co	Co	0.5	0.5	-0	1.099
Mof_Co	Co	-0	0.5	-0	1.059
Mof_Co	Co	0.5	0	-0	1.059
Mof_Co	Co	1.21682e-17	0.5	0.5	1.127
Mof_Co	Co	0.5	0.5	0.5	1.168
Mof_Co	Co	0.5	8.30391e-33	0.5	1.127
Mof_H 	H 	0.2852	0.3758	0.7644	0.079
Mof_H 	H 	0.2077	0.3672	0.8364	0.088
Mof_H 	H 	0.0906	0.7148	0.7644	0.07
Mof_H 	H 	0.1595	0.7923	0.8364	0.111
Mof_H 	H 	0.6242	0.9094	0.7644	0.126
Mof_H 	H 	0.6328	0.8405	0.8364	0.132
Mof_H 	H 	0.7148	0.6242	0.7644	0.104
Mof_H 	H 	0.7923	0.6328	0.8364	0.134
Mof_H 	H 	0.9094	0.2852	0.7644	0.113
Mof_H 	H 	0.8405	0.2077	0.8364	0.108
Mof_H 	H 	0.3758	0.0906	0.7644	0.056
Mof_H 	H 	0.3672	0.1595	0.8364	0.088
Mof_H 	H 	0.9094	0.6242	0.7356	0.128
Mof_H 	H 	0.8405	0.6328	0.6636	0.114
Mof_H 	H 	0.3758	0.2852	0.7356	0.081
Mof_H 	H 	0.3672	0.2077	0.6636	0.069
Mof_H 	H 	0.7148	0.0906	0.7356	0.071
Mof_H 	H 	0.7923	0.1595	0.6636	0.093
Mof_H 	H 	0.0906	0.3758	0.7356	0.059
Mof_H 	H 	0.1595	0.3672	0.6636	0.069
Mof_H 	H 	0.6242	0.7148	0.7356	0.107
Mof_H 	H 	0.6328	0.7923	0.6636	0.116
Mof_H 	H 	0.2852	0.9094	0.7356	0.115
Mof_H 	H 	0.2077	0.8405	0.6636	0.09
Mof_H 	H 	0.7148	0.6242	0.2356	0.094
Mof_H 	H 	0.7923	0.6328	0.1636	0.092
Mof_H 	H 	0.9094	0.2852	0.2356	0.103
Mof_H 	H 	0.8405	0.2077	0.1636	0.066
Mof_H 	H 	0.3758	0.0906	0.2356	0.045
Mof_H 	H 	0.3672	0.1595	0.1636	0.044
Mof_H 	H 	0.2852	0.3758	0.2356	0.067
Mof_H 	H 	0.2077	0.3672	0.1636	0.044
Mof_H 	H 	0.0906	0.7148	0.2356	0.058
Mof_H 	H 	0.1595	0.7923	0.1636	0.069
Mof_H 	H 	0.6242	0.9094	0.2356	0.116
Mof_H 	H 	0.6328	0.8405	0.1636	0.09
Mof_H 	H 	0.0906	0.3758	0.2644	0.044
Mof_H 	H 	0.1595	0.3672	0.3364	0.062
Mof_H 	H 	0.6242	0.7148	0.2644	0.093
Mof_H 	H 	0.6328	0.7923	0.3364	0.109
Mof_H 	H 	0.2852	0.9094	0.2644	0.103
Mof_H 	H 	0.2077	0.8405	0.3364	0.084
Mof_H 	H 	0.9094	0.6242	0.2644	0.116
Mof_H 	H 	0.8405	0.6328	0.3364	0.107
Mof_H 	H 	0.3758	0.2852	0.2644	0.067
Mof_H 	H 	0.3672	0.2077	0.3364	0.061
Mof_H 	H 	0.7148	0.0906	0.2644	0.057
Mof_H 	H 	0.7923	0.1595	0.3364	0.086
Mof_C 	C 	0.353	0.484	0.8589	0.428
Mof_C 	C 	0.2652	0.4149	0.8013	-0.176
Mof_C 	C 	0.131	0.647	0.8589	0.434
Mof_C 	C 	0.1497	0.7348	0.8013	-0.19
Mof_C 	C 	0.516	0.869	0.8589	0.447
Mof_C 	C 	0.5851	0.8503	0.8013	-0.22
Mof_C 	C 	0.647	0.516	0.8589	0.447
Mof_C 	C 	0.7348	0.5851	0.8013	-0.216
Mof_C 	C 	0.869	0.353	0.8589	0.438
Mof_C 	C 	0.8503	0.2652	0.8013	-0.2
Mof_C 	C 	0.484	0.131	0.8589	0.424
Mof_C 	C 	0.4149	0.1497	0.8013	-0.171
Mof_C 	C 	0.869	0.516	0.6411	0.449
Mof_C 	C 	0.8503	0.5851	0.6987	-0.222
Mof_C 	C 	0.484	0.353	0.6411	0.431
Mof_C 	C 	0.4149	0.2652	0.6987	-0.179
Mof_C 	C 	0.647	0.131	0.6411	0.437
Mof_C 	C 	0.7348	0.1497	0.6987	-0.193
Mof_C 	C 	0.131	0.484	0.6411	0.427
Mof_C 	C 	0.1497	0.4149	0.6987	-0.174
Mof_C 	C 	0.516	0.647	0.6411	0.45
Mof_C 	C 	0.5851	0.7348	0.6987	-0.219
Mof_C 	C 	0.353	0.869	0.6411	0.44
Mof_C 	C 	0.2652	0.8503	0.6987	-0.202
Mof_C 	C 	0.647	0.516	0.1411	0.441
Mof_C 	C 	0.7348	0.5851	0.1987	-0.207
Mof_C 	C 	0.869	0.353	0.1411	0.431
Mof_C 	C 	0.8503	0.2652	0.1987	-0.19
Mof_C 	C 	0.484	0.131	0.1411	0.417
Mof_C 	C 	0.4149	0.1497	0.1987	-0.16
Mof_C 	C 	0.353	0.484	0.1411	0.421
Mof_C 	C 	0.2652	0.4149	0.1987	-0.166
Mof_C 	C 	0.131	0.647	0.1411	0.427
Mof_C 	C 	0.1497	0.7348	0.1987	-0.181
Mof_C 	C 	0.516	0.869	0.1411	0.441
Mof_C 	C 	0.5851	0.8503	0.1987	-0.21
Mof_C 	C 	0.131	0.484	0.3589	0.421
Mof_C 	C 	0.1497	0.4149	0.3013	-0.161
Mof_C 	C 	0.516	0.647	0.3589	0.445
Mof_C 	C 	0.5851	0.7348	0.3013	-0.208
Mof_C 	C 	0.353	0.869	0.3589	0.435
Mof_C 	C 	0.2652	0.8503	0.3013	-0.191
Mof_C 	C 	0.869	0.516	0.3589	0.444
Mof_C 	C 	0.8503	0.5851	0.3013	-0.211
Mof_C 	C 	0.484	0.353	0.3589	0.425
Mof_C 	C 	0.4149	0.2652	0.3013	-0.167
Mof_C 	C 	0.647	0.131	0.3589	0.431
Mof_C 	C 	0.7348	0.1497	0.3013	-0.182
Mof_O 	O 	0.3836	0.5783	0.8565	-0.516
Mof_O 	O 	0.3882	0.4415	0.9058	-0.394
Mof_O 	O 	0.1947	0.6164	0.8565	-0.525
Mof_O 	O 	0.0533	0.6118	0.9058	-0.42
Mof_O 	O 	0.4217	0.8053	0.8565	-0.509
Mof_O 	O 	0.5585	0.9467	0.9058	-0.347
Mof_O 	O 	0.6164	0.4217	0.8565	-0.52
Mof_O 	O 	0.6118	0.5585	0.9058	-0.388
Mof_O 	O 	0.8053	0.3836	0.8565	-0.507
Mof_O 	O 	0.9467	0.3882	0.9058	-0.35
Mof_O 	O 	0.5783	0.1947	0.8565	-0.523
Mof_O 	O 	0.4415	0.0533	0.9058	-0.423
Mof_O 	O 	0.8053	0.4217	0.6435	-0.54
Mof_O 	O 	0.9467	0.5585	0.5942	-0.41
Mof_O 	O 	0.5783	0.3836	0.6435	-0.547
Mof_O 	O 	0.4415	0.3882	0.5942	-0.461
Mof_O 	O 	0.6164	0.1947	0.6435	-0.556
Mof_O 	O 	0.6118	0.0533	0.5942	-0.486
Mof_O 	O 	0.1947	0.5783	0.6435	-0.555
Mof_O 	O 	0.0533	0.4415	0.5942	-0.489
Mof_O 	O 	0.4217	0.6164	0.6435	-0.551
Mof_O 	O 	0.5585	0.6118	0.5942	-0.454
Mof_O 	O 	0.3836	0.8053	0.6435	-0.538
Mof_O 	O 	0.3882	0.9467	0.5942	-0.413
Mof_O 	O 	0.6164	0.4217	0.1435	-0.57
Mof_O 	O 	0.6118	0.5585	0.0942	-0.49
Mof_O 	O 	0.8053	0.3836	0.1435	-0.556
Mof_O 	O 	0.9467	0.3882	0.0942	-0.449
Mof_O 	O 	0.5783	0.1947	0.1435	-0.573
Mof_O 	O 	0.4415	0.0533	0.0942	-0.525
Mof_O 	O 	0.3836	0.5783	0.1435	-0.566
Mof_O 	O 	0.3882	0.4415	0.0942	-0.498
Mof_O 	O 	0.1947	0.6164	0.1435	-0.575
Mof_O 	O 	0.0533	0.6118	0.0942	-0.522
Mof_O 	O 	0.4217	0.8053	0.1435	-0.558
Mof_O 	O 	0.5585	0.9467	0.0942	-0.446
Mof_O 	O 	0.1947	0.5783	0.3565	-0.55
Mof_O 	O 	0.0533	0.4415	0.4058	-0.488
Mof_O 	O 	0.4217	0.6164	0.3565	-0.547
Mof_O 	O 	0.5585	0.6118	0.4058	-0.453
Mof_O 	O 	0.3836	0.8053	0.3565	-0.533
Mof_O 	O 	0.3882	0.9467	0.4058	-0.412
Mof_O 	O 	0.8053	0.4217	0.3565	-0.535
Mof_O 	O 	0.9467	0.5585	0.4058	-0.409
Mof_O 	O 	0.5783	0.3836	0.3565	-0.543
Mof_O 	O 	0.4415	0.3882	0.4058	-0.46
Mof_O 	O 	0.6164	0.1947	0.3565	-0.552
Mof_O 	O 	0.6118	0.0533	0.4058	-0.485
Mof_O 	O 	0.23605	0.4721	0.75	-0.315
Mof_O 	O 	0.23605	0.76395	0.75	-0.301
Mof_O 	O 	0.5279	0.76395	0.75	-0.286
Mof_O 	O 	0.76395	0.5279	0.75	-0.287
Mof_O 	O 	0.76395	0.23605	0.75	-0.301
Mof_O 	O 	0.4721	0.23605	0.75	-0.315
Mof_O 	O 	0.76395	0.5279	0.25	-0.295
Mof_O 	O 	0.76395	0.23605	0.25	-0.31
Mof_O 	O 	0.4721	0.23605	0.25	-0.324
Mof_O 	O 	0.23605	0.4721	0.25	-0.324
Mof_O 	O 	0.23605	0.76395	0.25	-0.31
Mof_O 	O 	0.5279	0.76395	0.25	-0.295
_end
