data_functionalizedCrystal
_audit_creation_method	'EQeq! by Chris Wilmer'
_symmetry_space_group_name_H-M	'P1'
_symmetry_Int_Tables_number	1
_symmetry_cell_setting	triclinic
loop_
_symmetry_equiv_pos_as_xyz
  x,y,z
_cell_length_a	11.4712
_cell_length_b	11.6147
_cell_length_c	19.8781
_cell_angle_alpha	81.156
_cell_angle_beta	74.921
_cell_angle_gamma	65.987
loop_
_atom_site_label
_atom_site_type_symbol
_atom_site_fract_x
_atom_site_fract_y
_atom_site_fract_z
_atom_site_charge
Mof_N 	N 	0.3221	0.6487	0.0129	-0.302
Mof_N 	N 	0.1457	0.8261	0.0126	-0.29
Mof_N 	N 	0.4547	0.426	0.1069	-0.251
Mof_N 	N 	0.1005	0.0177	0.8911	-0.186
Mof_N 	N 	0.0251	0.5234	0.1005	-0.269
Mof_O 	O 	0.3921	0.4195	0.9689	-0.335
Mof_O 	O 	0.195	0.4548	0.955	-0.346
Mof_O 	O 	0.952	0.687	0.9674	-0.332
Mof_O 	O 	0.9236	0.8855	0.9719	-0.32
Mof_C 	C 	0.2724	0.49	0.9714	0.303
Mof_C 	C 	0.2318	0.6215	0.9921	0.049
Mof_C 	C 	0.1216	0.7316	0.9926	-0.008
Mof_C 	C 	0.2656	0.7709	0.0249	0.092
Mof_H 	H 	0.3068	0.8146	0.0407	-0.021
Mof_C 	C 	0.9907	0.7682	0.9759	0.362
Mof_C 	C 	0.4246	0.4938	0.1594	0.104
Mof_H 	H 	0.4109	0.5805	0.1502	-0.016
Mof_C 	C 	0.4112	0.4478	0.2279	-0.161
Mof_H 	H 	0.3881	0.5028	0.2641	0.082
Mof_C 	C 	0.4312	0.3222	0.244	0.093
Mof_C 	C 	0.462	0.2503	0.1868	-0.157
Mof_H 	H 	0.4756	0.1635	0.1941	0.066
Mof_C 	C 	0.4727	0.3044	0.1202	0.083
Mof_H 	H 	0.4937	0.2535	0.0823	-0.043
Mof_C 	C 	0.4151	0.2688	0.3168	-0.04
Mof_C 	C 	0.4273	0.3259	0.3681	-0.014
Mof_H 	H 	0.4487	0.3985	0.3565	0.032
Mof_C 	C 	0.4085	0.2787	0.4381	-0.088
Mof_H 	H 	0.4194	0.3187	0.473	0.056
Mof_C 	C 	0.3745	0.1744	0.4568	0.049
Mof_C 	C 	0.3654	0.1185	0.4045	-0.095
Mof_H 	H 	0.3461	0.0448	0.4151	0.046
Mof_C 	C 	0.3837	0.1662	0.3355	-0.015
Mof_H 	H 	0.3739	0.1255	0.3006	0.018
Mof_C 	C 	0.3433	0.1336	0.532	-0.047
Mof_C 	C 	0.3773	0.175	0.5838	-0.006
Mof_H 	H 	0.4275	0.2259	0.5703	0.025
Mof_C 	C 	0.3407	0.1447	0.6535	-0.106
Mof_H 	H 	0.3655	0.1747	0.6872	0.059
Mof_C 	C 	0.267	0.0699	0.6748	0.065
Mof_C 	C 	0.2391	0.0258	0.6237	-0.185
Mof_H 	H 	0.1925	0.9715	0.6371	0.117
Mof_C 	C 	0.2753	0.056	0.5533	0.024
Mof_H 	H 	0.2531	0.023	0.5198	0
Mof_C 	C 	0.2135	0.0472	0.7492	-0.004
Mof_C 	C 	0.274	0.0442	0.8027	-0.092
Mof_H 	H 	0.3551	0.0542	0.7913	0.054
Mof_C 	C 	0.2168	0.0268	0.8719	0.049
Mof_H 	H 	0.2621	0.0212	0.9068	0.035
Mof_C 	C 	0.0903	0.04	0.7721	-0.053
Mof_H 	H 	0.0415	0.0451	0.7389	0.024
Mof_C 	C 	0.0394	0.0255	0.8422	-0.055
Mof_H 	H 	0.9556	0.0208	0.8559	0.073
Mof_C 	C 	0.1156	0.432	0.1294	0.059
Mof_H 	H 	0.1808	0.3669	0.101	-0.008
Mof_C 	C 	0.1203	0.4263	0.1979	-0.117
Mof_H 	H 	0.1857	0.3569	0.216	0.067
Mof_C 	C 	0.0305	0.521	0.241	0.001
Mof_C 	C 	0.9389	0.6198	0.2086	-0.075
Mof_H 	H 	0.8757	0.6893	0.2346	0.065
Mof_C 	C 	0.9402	0.6164	0.1401	0.118
Mof_H 	H 	0.8767	0.6845	0.1199	-0.017
Mof_C 	C 	0.0272	0.5173	0.3161	0.011
Mof_C 	C 	0.0639	0.4009	0.3543	-0.127
Mof_H 	H 	0.0967	0.325	0.3308	0.063
Mof_C 	C 	0.0531	0.3948	0.4253	0.077
Mof_H 	H 	0.0776	0.3148	0.45	-0.009
Mof_C 	C 	0.0072	0.5036	0.4613	-0.236
Mof_C 	C 	0.9841	0.6107	0.4231	0.144
Mof_H 	H 	0.9586	0.6866	0.4454	-0.012
Mof_C 	C 	0.9956	0.6166	0.3515	-0.086
Mof_H 	H 	0.9798	0.6964	0.3268	0.072
Mof_N 	N 	0.6779	0.3513	0.9871	-0.143
Mof_N 	N 	0.8543	0.1739	0.9874	-0.143
Mof_N 	N 	0.5453	0.574	0.8931	-0.209
Mof_N 	N 	0.8995	0.9823	0.1089	-0.249
Mof_N 	N 	0.9749	0.4766	0.8995	-0.169
Mof_O 	O 	0.6079	0.5805	0.0311	-0.434
Mof_O 	O 	0.805	0.5452	0.045	-0.404
Mof_O 	O 	0.048	0.313	0.0326	-0.434
Mof_O 	O 	0.0764	0.1145	0.0281	-0.455
Mof_C 	C 	0.7276	0.51	0.0286	0.329
Mof_C 	C 	0.7682	0.3785	0.0079	-0.153
Mof_C 	C 	0.8784	0.2684	0.0074	-0.089
Mof_C 	C 	0.7344	0.2291	0.9751	0.147
Mof_H 	H 	0.6932	0.1854	0.9593	0.001
Mof_C 	C 	0.0093	0.2318	0.0241	0.281
Mof_C 	C 	0.5754	0.5062	0.8406	0.102
Mof_H 	H 	0.5891	0.4195	0.8498	-0.002
Mof_C 	C 	0.5888	0.5522	0.7721	-0.148
Mof_H 	H 	0.6119	0.4972	0.7359	0.084
Mof_C 	C 	0.5688	0.6778	0.756	0.085
Mof_C 	C 	0.538	0.7497	0.8132	-0.138
Mof_H 	H 	0.5244	0.8365	0.8059	0.091
Mof_C 	C 	0.5273	0.6956	0.8798	0.089
Mof_H 	H 	0.5063	0.7465	0.9177	0.037
Mof_C 	C 	0.5849	0.7312	0.6832	-0.009
Mof_C 	C 	0.5727	0.6741	0.6319	-0.037
Mof_H 	H 	0.5513	0.6015	0.6435	0.043
Mof_C 	C 	0.5915	0.7213	0.5619	-0.044
Mof_H 	H 	0.5806	0.6813	0.527	0.045
Mof_C 	C 	0.6255	0.8256	0.5432	0
Mof_C 	C 	0.6346	0.8815	0.5955	-0.043
Mof_H 	H 	0.6539	0.9552	0.5849	0.054
Mof_C 	C 	0.6163	0.8338	0.6645	-0.037
Mof_H 	H 	0.6261	0.8745	0.6994	0.05
Mof_C 	C 	0.6567	0.8664	0.468	0.075
Mof_C 	C 	0.6227	0.825	0.4162	-0.11
Mof_H 	H 	0.5725	0.7741	0.4297	0.068
Mof_C 	C 	0.6593	0.8553	0.3465	0.032
Mof_H 	H 	0.6345	0.8253	0.3128	0.019
Mof_C 	C 	0.733	0.9301	0.3252	-0.099
Mof_C 	C 	0.7609	0.9742	0.3763	0.113
Mof_H 	H 	0.8075	0.0285	0.3629	-0.035
Mof_C 	C 	0.7247	0.944	0.4467	-0.146
Mof_H 	H 	0.7469	0.977	0.4802	0.09
Mof_C 	C 	0.7865	0.9528	0.2508	0.151
Mof_C 	C 	0.726	0.9558	0.1973	-0.181
Mof_H 	H 	0.6449	0.9458	0.2087	0.095
Mof_C 	C 	0.7832	0.9732	0.1281	0.109
Mof_H 	H 	0.7379	0.9788	0.0932	-0.024
Mof_C 	C 	0.9097	0.96	0.2279	-0.221
Mof_H 	H 	0.9585	0.9549	0.2611	0.125
Mof_C 	C 	0.9606	0.9745	0.1578	0.218
Mof_H 	H 	0.0444	0.9792	0.1441	-0.071
Mof_C 	C 	0.8844	0.568	0.8706	0.119
Mof_H 	H 	0.8192	0.6331	0.899	0.028
Mof_C 	C 	0.8797	0.5737	0.8021	-0.175
Mof_H 	H 	0.8143	0.6431	0.784	0.1
Mof_C 	C 	0.9695	0.479	0.759	0.174
Mof_C 	C 	0.0611	0.3802	0.7914	-0.218
Mof_H 	H 	0.1243	0.3107	0.7654	0.103
Mof_C 	C 	0.0598	0.3836	0.8599	0.076
Mof_H 	H 	0.1233	0.3155	0.8801	0.025
Mof_C 	C 	0.9728	0.4827	0.6839	-0.064
Mof_C 	C 	0.9361	0.5991	0.6457	0.077
Mof_H 	H 	0.9033	0.675	0.6692	0.013
Mof_C 	C 	0.9469	0.6052	0.5747	-0.208
Mof_H 	H 	0.9224	0.6852	0.55	0.111
Mof_C 	C 	0.9928	0.4964	0.5387	0.283
Mof_C 	C 	0.0159	0.3893	0.5769	-0.282
Mof_H 	H 	0.0414	0.3134	0.5546	0.116
Mof_C 	C 	0.0044	0.3834	0.6485	0.04
Mof_H 	H 	0.0202	0.3036	0.6732	0.006
Mof_Co	Co	0.5	0.5	-0	1.097
Mof_Co	Co	-0	0.5	-0	1.105
Mof_Co	Co	-0	0	-0	1.055
_end
