# CIF file generated by openbabel 3.1.0, see https://openbabel.org
data_I
_chemical_name_common 'image0'
_cell_length_a 11.3605
_cell_length_b 18.312
_cell_length_c 12.4463
_cell_angle_alpha 90
_cell_angle_beta 108.491
_cell_angle_gamma 90
_space_group_name_H-M_alt 'P 1'
_space_group_name_Hall 'P 1'
loop_
    _symmetry_equiv_pos_as_xyz
    x,y,z
loop_
    _atom_site_label
    _atom_site_type_symbol
    _atom_site_fract_x
    _atom_site_fract_y
    _atom_site_fract_z
    _atom_site_occupancy
    Zn1      Zn       0.26629    0.47820    0.90906    1.000
    Zn2      Zn       0.08276    0.32757    0.44064    1.000
    O1       O        0.36830    0.47684    0.81030    1.000
    O2       O        0.45400    0.37340    0.89310    1.000
    O3       O        0.64110    0.48703    0.93990    1.000
    O4       O        0.81640    0.47229    0.89720    1.000
    O5       O        0.77520    0.45960    0.49730    1.000
    O6       O        0.61970    0.40700    0.38250    1.000
    O7       O        0.25040    0.36466    0.48560    1.000
    O8       O        0.27360    0.33830    0.66480    1.000
    N1       N        0.87050    0.45379    0.17370    1.000
    N2       N        0.97530    0.44576    0.14260    1.000
    N3       N        0.00030    0.38353    0.30110    1.000
    N4       N        0.06540    0.39828    0.95230    1.000
    N5       N        0.17260    0.38938    0.92480    1.000
    N6       N        0.09210    0.28058    0.92770    1.000
    N7       N        0.67400    0.43090    0.47460    1.000
    C1       C        0.88930    0.41650    0.26780    1.000
    H1       H        0.83200    0.41330    0.30690    1.000
    C2       C        0.05030    0.40390    0.22060    1.000
    H2       H        0.12890    0.38990    0.22040    1.000
    C3       C        0.02070    0.33250    0.95320    1.000
    H3       H        0.94790    0.32260    0.96960    1.000
    C4       C        0.18560    0.31890    0.91060    1.000
    H4       H        0.25090    0.29830    0.89130    1.000
    C5       C        0.31220    0.36370    0.59150    1.000
    C6       C        0.44110    0.39510    0.62200    1.000
    C7       C        0.49750    0.39940    0.53730    1.000
    H5       H        0.45530    0.38440    0.46370    1.000
    C8       C        0.61660    0.42610    0.56460    1.000
    C9       C        0.68330    0.44780    0.67180    1.000
    H6       H        0.76440    0.46440    0.68820    1.000
    C10      C        0.62580    0.44420    0.75640    1.000
    C11      C        0.50400    0.41960    0.73140    1.000
    C12      C        0.43720    0.42180    0.82000    1.000
    C13      C        0.70230    0.47010    0.87450    1.000
    Zn3      Zn       0.73371    0.97820    0.59094    1.000
    Zn4      Zn       0.91724    0.82757    0.05936    1.000
    O9       O        0.63170    0.97684    0.68970    1.000
    O10      O        0.54600    0.87340    0.60690    1.000
    O11      O        0.35890    0.98703    0.56010    1.000
    O12      O        0.18360    0.97229    0.60280    1.000
    O13      O        0.22480    0.95960    0.00270    1.000
    O14      O        0.38030    0.90700    0.11750    1.000
    O15      O        0.74960    0.86466    0.01440    1.000
    O16      O        0.72640    0.83830    0.83520    1.000
    N8       N        0.12950    0.95379    0.32630    1.000
    N9       N        0.02470    0.94576    0.35740    1.000
    N10      N        0.99970    0.88353    0.19890    1.000
    N11      N        0.93460    0.89828    0.54770    1.000
    N12      N        0.82740    0.88938    0.57520    1.000
    N13      N        0.90790    0.78058    0.57230    1.000
    N14      N        0.32600    0.93090    0.02540    1.000
    C14      C        0.11070    0.91650    0.23220    1.000
    H7       H        0.16800    0.91330    0.19310    1.000
    C15      C        0.94970    0.90390    0.27940    1.000
    H8       H        0.87110    0.88990    0.27960    1.000
    C16      C        0.97930    0.83250    0.54680    1.000
    H9       H        0.05210    0.82260    0.53040    1.000
    C17      C        0.81440    0.81890    0.58940    1.000
    H10      H        0.74910    0.79830    0.60870    1.000
    C18      C        0.68780    0.86370    0.90850    1.000
    C19      C        0.55890    0.89510    0.87800    1.000
    C20      C        0.50250    0.89940    0.96270    1.000
    H11      H        0.54470    0.88440    0.03630    1.000
    C21      C        0.38340    0.92610    0.93540    1.000
    C22      C        0.31670    0.94780    0.82820    1.000
    H12      H        0.23560    0.96440    0.81180    1.000
    C23      C        0.37420    0.94420    0.74360    1.000
    C24      C        0.49600    0.91960    0.76860    1.000
    C25      C        0.56280    0.92180    0.68000    1.000
    C26      C        0.29770    0.97010    0.62550    1.000
    Zn5      Zn       0.73371    0.52180    0.09094    1.000
    Zn6      Zn       0.91724    0.67243    0.55936    1.000
    O17      O        0.63170    0.52316    0.18970    1.000
    O18      O        0.54600    0.62660    0.10690    1.000
    O19      O        0.35890    0.51297    0.06010    1.000
    O20      O        0.18360    0.52771    0.10280    1.000
    O21      O        0.22480    0.54040    0.50270    1.000
    O22      O        0.38030    0.59300    0.61750    1.000
    O23      O        0.74960    0.63534    0.51440    1.000
    O24      O        0.72640    0.66170    0.33520    1.000
    N15      N        0.12950    0.54621    0.82630    1.000
    N16      N        0.02470    0.55424    0.85740    1.000
    N17      N        0.99970    0.61647    0.69890    1.000
    N18      N        0.93460    0.60172    0.04770    1.000
    N19      N        0.82740    0.61062    0.07520    1.000
    N20      N        0.90790    0.71942    0.07230    1.000
    N21      N        0.32600    0.56910    0.52540    1.000
    C27      C        0.11070    0.58350    0.73220    1.000
    H13      H        0.16800    0.58670    0.69310    1.000
    C28      C        0.94970    0.59610    0.77940    1.000
    H14      H        0.87110    0.61010    0.77960    1.000
    C29      C        0.97930    0.66750    0.04680    1.000
    H15      H        0.05210    0.67740    0.03040    1.000
    C30      C        0.81440    0.68110    0.08940    1.000
    H16      H        0.74910    0.70170    0.10870    1.000
    C31      C        0.68780    0.63630    0.40850    1.000
    C32      C        0.55890    0.60490    0.37800    1.000
    C33      C        0.50250    0.60060    0.46270    1.000
    H17      H        0.54470    0.61560    0.53630    1.000
    C34      C        0.38340    0.57390    0.43540    1.000
    C35      C        0.31670    0.55220    0.32820    1.000
    H18      H        0.23560    0.53560    0.31180    1.000
    C36      C        0.37420    0.55580    0.24360    1.000
    C37      C        0.49600    0.58040    0.26860    1.000
    C38      C        0.56280    0.57820    0.18000    1.000
    C39      C        0.29770    0.52990    0.12550    1.000
    Zn7      Zn       0.26629    0.02180    0.40906    1.000
    Zn8      Zn       0.08276    0.17243    0.94064    1.000
    O25      O        0.36830    0.02316    0.31030    1.000
    O26      O        0.45400    0.12660    0.39310    1.000
    O27      O        0.64110    0.01297    0.43990    1.000
    O28      O        0.81640    0.02771    0.39720    1.000
    O29      O        0.77520    0.04040    0.99730    1.000
    O30      O        0.61970    0.09300    0.88250    1.000
    O31      O        0.25040    0.13534    0.98560    1.000
    O32      O        0.27360    0.16170    0.16480    1.000
    N22      N        0.87050    0.04621    0.67370    1.000
    N23      N        0.97530    0.05424    0.64260    1.000
    N24      N        0.00030    0.11647    0.80110    1.000
    N25      N        0.06540    0.10172    0.45230    1.000
    N26      N        0.17260    0.11062    0.42480    1.000
    N27      N        0.09210    0.21942    0.42770    1.000
    N28      N        0.67400    0.06910    0.97460    1.000
    C40      C        0.88930    0.08350    0.76780    1.000
    H19      H        0.83200    0.08670    0.80690    1.000
    C41      C        0.05030    0.09610    0.72060    1.000
    H20      H        0.12890    0.11010    0.72040    1.000
    C42      C        0.02070    0.16750    0.45320    1.000
    H21      H        0.94790    0.17740    0.46960    1.000
    C43      C        0.18560    0.18110    0.41060    1.000
    H22      H        0.25090    0.20170    0.39130    1.000
    C44      C        0.31220    0.13630    0.09150    1.000
    C45      C        0.44110    0.10490    0.12200    1.000
    C46      C        0.49750    0.10060    0.03730    1.000
    H23      H        0.45530    0.11560    0.96370    1.000
    C47      C        0.61660    0.07390    0.06460    1.000
    C48      C        0.68330    0.05220    0.17180    1.000
    H24      H        0.76440    0.03560    0.18820    1.000
    C49      C        0.62580    0.05580    0.25640    1.000
    C50      C        0.50400    0.08040    0.23140    1.000
    C51      C        0.43720    0.07820    0.32000    1.000
    C52      C        0.70230    0.02990    0.37450    1.000
    Zn9      Zn       0.00000    0.50000    0.00000    1.000
    Zn10     Zn       0.00000    0.00000    0.50000    1.000
