# CIF file generated by openbabel 3.1.0, see https://openbabel.org
data_I
_chemical_name_common 'image0'
_cell_length_a 26.5471
_cell_length_b 26.5471
_cell_length_c 5.1352
_cell_angle_alpha 90
_cell_angle_beta 90
_cell_angle_gamma 90
_space_group_name_H-M_alt 'P 1'
_space_group_name_Hall 'P 1'
loop_
    _symmetry_equiv_pos_as_xyz
    x,y,z
loop_
    _atom_site_label
    _atom_site_type_symbol
    _atom_site_fract_x
    _atom_site_fract_y
    _atom_site_fract_z
    _atom_site_occupancy
    Zn1      Zn       0.27280    0.21416    0.91481    1.000
    O1       O        0.22110    0.25270    0.08540    1.000
    H1       H        0.20030    0.26370    0.97310    1.000
    N1       N        0.25140    0.14140    0.89700    1.000
    C1       C        0.26780    0.10469    0.04340    1.000
    H2       H        0.29320    0.10840    0.16670    1.000
    N2       N        0.24370    0.06050    0.99590    1.000
    C2       C        0.21311    0.12120    0.74160    1.000
    O2       O        0.27710    0.83330    0.37180    1.000
    C3       C        0.18360    0.14430    0.55500    1.000
    H3       H        0.18760    0.17830    0.51590    1.000
    O3       O        0.31550    0.87120    0.68400    1.000
    C4       C        0.14760    0.11520    0.42690    1.000
    C5       C        0.11740    0.13590    0.23540    1.000
    H4       H        0.12140    0.16970    0.19230    1.000
    C6       C        0.08110    0.10760    0.10530    1.000
    H5       H        0.06080    0.12210    0.97820    1.000
    C7       C        0.07580    0.05660    0.17060    1.000
    H6       H        0.05190    0.03710    0.08490    1.000
    C8       C        0.10570    0.03490    0.36090    1.000
    H7       H        0.10150    0.00100    0.40240    1.000
    C9       C        0.14240    0.06350    0.49210    1.000
    C10      C        0.17190    0.04030    0.68250    1.000
    H8       H        0.16770    0.00650    0.72510    1.000
    C11      C        0.20780    0.07000    0.80490    1.000
    C12      C        0.25748    0.01320    0.10390    1.000
    C13      C        0.28490    0.92180    0.32220    1.000
    C14      C        0.27750    0.01080    0.35200    1.000
    H9       H        0.28170    0.04050    0.44530    1.000
    C15      C        0.29140    0.96590    0.46620    1.000
    H10      H        0.30460    0.96500    0.63370    1.000
    C16      C        0.26470    0.92220    0.07490    1.000
    H11      H        0.26000    0.89240    0.98270    1.000
    C17      C        0.25150    0.96790    0.96790    1.000
    H12      H        0.23830    0.96870    0.80030    1.000
    C18      C        0.29820    0.87210    0.44800    1.000
    O4       O        0.34500    0.87000    0.53200    1.000
    C19      C        0.30720    0.00480    0.16350    1.000
    H13      H        0.33100    0.02970    0.13090    1.000
    C20      C        0.32230    0.95850    0.27400    1.000
    H14      H        0.35590    0.95230    0.31380    1.000
    C21      C        0.23370    0.92830    0.26100    1.000
    H15      H        0.20960    0.90350    0.28910    1.000
    C22      C        0.22240    0.97570    0.15500    1.000
    H16      H        0.18890    0.98250    0.11480    1.000
    Zn2      Zn       0.77280    0.71416    0.41481    1.000
    O5       O        0.72110    0.75270    0.58540    1.000
    H17      H        0.70030    0.76370    0.47310    1.000
    N3       N        0.75140    0.64140    0.39700    1.000
    C23      C        0.76780    0.60469    0.54340    1.000
    H18      H        0.79320    0.60840    0.66670    1.000
    N4       N        0.74370    0.56050    0.49590    1.000
    C24      C        0.71311    0.62120    0.24160    1.000
    O6       O        0.77710    0.33330    0.87180    1.000
    C25      C        0.68360    0.64430    0.05500    1.000
    H19      H        0.68760    0.67830    0.01590    1.000
    O7       O        0.81550    0.37120    0.18400    1.000
    C26      C        0.64760    0.61520    0.92690    1.000
    C27      C        0.61740    0.63590    0.73540    1.000
    H20      H        0.62140    0.66970    0.69230    1.000
    C28      C        0.58110    0.60760    0.60530    1.000
    H21      H        0.56080    0.62210    0.47820    1.000
    C29      C        0.57580    0.55660    0.67060    1.000
    H22      H        0.55190    0.53710    0.58490    1.000
    C30      C        0.60570    0.53490    0.86090    1.000
    H23      H        0.60150    0.50100    0.90240    1.000
    C31      C        0.64240    0.56350    0.99210    1.000
    C32      C        0.67190    0.54030    0.18250    1.000
    H24      H        0.66770    0.50650    0.22510    1.000
    C33      C        0.70780    0.57000    0.30490    1.000
    C34      C        0.75748    0.51320    0.60390    1.000
    C35      C        0.78490    0.42180    0.82220    1.000
    C36      C        0.77750    0.51080    0.85200    1.000
    H25      H        0.78170    0.54050    0.94530    1.000
    C37      C        0.79140    0.46590    0.96620    1.000
    H26      H        0.80460    0.46500    0.13370    1.000
    C38      C        0.76470    0.42220    0.57490    1.000
    H27      H        0.76000    0.39240    0.48270    1.000
    C39      C        0.75150    0.46790    0.46790    1.000
    H28      H        0.73830    0.46870    0.30030    1.000
    C40      C        0.79820    0.37210    0.94800    1.000
    O8       O        0.84500    0.37000    0.03200    1.000
    C41      C        0.80720    0.50480    0.66350    1.000
    H29      H        0.83100    0.52970    0.63090    1.000
    C42      C        0.82230    0.45850    0.77400    1.000
    H30      H        0.85590    0.45230    0.81380    1.000
    C43      C        0.73370    0.42830    0.76100    1.000
    H31      H        0.70960    0.40350    0.78910    1.000
    C44      C        0.72240    0.47570    0.65500    1.000
    H32      H        0.68890    0.48250    0.61480    1.000
    Zn3      Zn       0.72720    0.78584    0.91481    1.000
    O9       O        0.77890    0.74730    0.08540    1.000
    H33      H        0.79970    0.73630    0.97310    1.000
    N5       N        0.74860    0.85860    0.89700    1.000
    C45      C        0.73220    0.89531    0.04340    1.000
    H34      H        0.70680    0.89160    0.16670    1.000
    N6       N        0.75630    0.93950    0.99590    1.000
    C46      C        0.78689    0.87880    0.74160    1.000
    O10      O        0.72290    0.16670    0.37180    1.000
    C47      C        0.81640    0.85570    0.55500    1.000
    H35      H        0.81240    0.82170    0.51590    1.000
    O11      O        0.68450    0.12880    0.68400    1.000
    C48      C        0.85240    0.88480    0.42690    1.000
    C49      C        0.88260    0.86410    0.23540    1.000
    H36      H        0.87860    0.83030    0.19230    1.000
    C50      C        0.91890    0.89240    0.10530    1.000
    H37      H        0.93920    0.87790    0.97820    1.000
    C51      C        0.92420    0.94340    0.17060    1.000
    H38      H        0.94810    0.96290    0.08490    1.000
    C52      C        0.89430    0.96510    0.36090    1.000
    H39      H        0.89850    0.99900    0.40240    1.000
    C53      C        0.85760    0.93650    0.49210    1.000
    C54      C        0.82810    0.95970    0.68250    1.000
    H40      H        0.83230    0.99350    0.72510    1.000
    C55      C        0.79220    0.93000    0.80490    1.000
    C56      C        0.74252    0.98680    0.10390    1.000
    C57      C        0.71510    0.07820    0.32220    1.000
    C58      C        0.72250    0.98920    0.35200    1.000
    H41      H        0.71830    0.95950    0.44530    1.000
    C59      C        0.70860    0.03410    0.46620    1.000
    H42      H        0.69540    0.03500    0.63370    1.000
    C60      C        0.73530    0.07780    0.07490    1.000
    H43      H        0.74000    0.10760    0.98270    1.000
    C61      C        0.74850    0.03210    0.96790    1.000
    H44      H        0.76170    0.03130    0.80030    1.000
    C62      C        0.70180    0.12790    0.44800    1.000
    O12      O        0.65500    0.13000    0.53200    1.000
    C63      C        0.69280    0.99520    0.16350    1.000
    H45      H        0.66900    0.97030    0.13090    1.000
    C64      C        0.67770    0.04150    0.27400    1.000
    H46      H        0.64410    0.04770    0.31380    1.000
    C65      C        0.76630    0.07170    0.26100    1.000
    H47      H        0.79040    0.09650    0.28910    1.000
    C66      C        0.77760    0.02430    0.15500    1.000
    H48      H        0.81110    0.01750    0.11480    1.000
    Zn4      Zn       0.22720    0.28584    0.41481    1.000
    O13      O        0.27890    0.24730    0.58540    1.000
    H49      H        0.29970    0.23630    0.47310    1.000
    N7       N        0.24860    0.35860    0.39700    1.000
    C67      C        0.23220    0.39531    0.54340    1.000
    H50      H        0.20680    0.39160    0.66670    1.000
    N8       N        0.25630    0.43950    0.49590    1.000
    C68      C        0.28689    0.37880    0.24160    1.000
    O14      O        0.22290    0.66670    0.87180    1.000
    C69      C        0.31640    0.35570    0.05500    1.000
    H51      H        0.31240    0.32170    0.01590    1.000
    O15      O        0.18450    0.62880    0.18400    1.000
    C70      C        0.35240    0.38480    0.92690    1.000
    C71      C        0.38260    0.36410    0.73540    1.000
    H52      H        0.37860    0.33030    0.69230    1.000
    C72      C        0.41890    0.39240    0.60530    1.000
    H53      H        0.43920    0.37790    0.47820    1.000
    C73      C        0.42420    0.44340    0.67060    1.000
    H54      H        0.44810    0.46290    0.58490    1.000
    C74      C        0.39430    0.46510    0.86090    1.000
    H55      H        0.39850    0.49900    0.90240    1.000
    C75      C        0.35760    0.43650    0.99210    1.000
    C76      C        0.32810    0.45970    0.18250    1.000
    H56      H        0.33230    0.49350    0.22510    1.000
    C77      C        0.29220    0.43000    0.30490    1.000
    C78      C        0.24252    0.48680    0.60390    1.000
    C79      C        0.21510    0.57820    0.82220    1.000
    C80      C        0.22250    0.48920    0.85200    1.000
    H57      H        0.21830    0.45950    0.94530    1.000
    C81      C        0.20860    0.53410    0.96620    1.000
    H58      H        0.19540    0.53500    0.13370    1.000
    C82      C        0.23530    0.57780    0.57490    1.000
    H59      H        0.24000    0.60760    0.48270    1.000
    C83      C        0.24850    0.53210    0.46790    1.000
    H60      H        0.26170    0.53130    0.30030    1.000
    C84      C        0.20180    0.62790    0.94800    1.000
    O16      O        0.15500    0.63000    0.03200    1.000
    C85      C        0.19280    0.49520    0.66350    1.000
    H61      H        0.16900    0.47030    0.63090    1.000
    C86      C        0.17770    0.54150    0.77400    1.000
    H62      H        0.14410    0.54770    0.81380    1.000
    C87      C        0.26630    0.57170    0.76100    1.000
    H63      H        0.29040    0.59650    0.78910    1.000
    C88      C        0.27760    0.52430    0.65500    1.000
    H64      H        0.31110    0.51750    0.61480    1.000
    Zn5      Zn       0.21416    0.72720    0.08519    1.000
    O17      O        0.25270    0.77890    0.91460    1.000
    H65      H        0.26370    0.79970    0.02690    1.000
    N9       N        0.14140    0.74860    0.10300    1.000
    C89      C        0.10469    0.73220    0.95660    1.000
    H66      H        0.10840    0.70680    0.83330    1.000
    N10      N        0.06050    0.75630    0.00410    1.000
    C90      C        0.12120    0.78689    0.25840    1.000
    O18      O        0.83330    0.72290    0.62820    1.000
    C91      C        0.14430    0.81640    0.44500    1.000
    H67      H        0.17830    0.81240    0.48410    1.000
    O19      O        0.87120    0.68450    0.31600    1.000
    C92      C        0.11520    0.85240    0.57310    1.000
    C93      C        0.13590    0.88260    0.76460    1.000
    H68      H        0.16970    0.87860    0.80770    1.000
    C94      C        0.10760    0.91890    0.89470    1.000
    H69      H        0.12210    0.93920    0.02180    1.000
    C95      C        0.05660    0.92420    0.82940    1.000
    H70      H        0.03710    0.94810    0.91510    1.000
    C96      C        0.03490    0.89430    0.63910    1.000
    H71      H        0.00100    0.89850    0.59760    1.000
    C97      C        0.06350    0.85760    0.50790    1.000
    C98      C        0.04030    0.82810    0.31750    1.000
    H72      H        0.00650    0.83230    0.27490    1.000
    C99      C        0.07000    0.79220    0.19510    1.000
    C100     C        0.01320    0.74252    0.89610    1.000
    C101     C        0.92180    0.71510    0.67780    1.000
    C102     C        0.01080    0.72250    0.64800    1.000
    H73      H        0.04050    0.71830    0.55470    1.000
    C103     C        0.96590    0.70860    0.53380    1.000
    H74      H        0.96500    0.69540    0.36630    1.000
    C104     C        0.92220    0.73530    0.92510    1.000
    H75      H        0.89240    0.74000    0.01730    1.000
    C105     C        0.96790    0.74850    0.03210    1.000
    H76      H        0.96870    0.76170    0.19970    1.000
    C106     C        0.87210    0.70180    0.55200    1.000
    O20      O        0.87000    0.65500    0.46800    1.000
    C107     C        0.00480    0.69280    0.83650    1.000
    H77      H        0.02970    0.66900    0.86910    1.000
    C108     C        0.95850    0.67770    0.72600    1.000
    H78      H        0.95230    0.64410    0.68620    1.000
    C109     C        0.92830    0.76630    0.73900    1.000
    H79      H        0.90350    0.79040    0.71090    1.000
    C110     C        0.97570    0.77760    0.84500    1.000
    H80      H        0.98250    0.81110    0.88520    1.000
    Zn6      Zn       0.71416    0.22720    0.58519    1.000
    O21      O        0.75270    0.27890    0.41460    1.000
    H81      H        0.76370    0.29970    0.52690    1.000
    N11      N        0.64140    0.24860    0.60300    1.000
    C111     C        0.60469    0.23220    0.45660    1.000
    H82      H        0.60840    0.20680    0.33330    1.000
    N12      N        0.56050    0.25630    0.50410    1.000
    C112     C        0.62120    0.28689    0.75840    1.000
    O22      O        0.33330    0.22290    0.12820    1.000
    C113     C        0.64430    0.31640    0.94500    1.000
    H83      H        0.67830    0.31240    0.98410    1.000
    O23      O        0.37120    0.18450    0.81600    1.000
    C114     C        0.61520    0.35240    0.07310    1.000
    C115     C        0.63590    0.38260    0.26460    1.000
    H84      H        0.66970    0.37860    0.30770    1.000
    C116     C        0.60760    0.41890    0.39470    1.000
    H85      H        0.62210    0.43920    0.52180    1.000
    C117     C        0.55660    0.42420    0.32940    1.000
    H86      H        0.53710    0.44810    0.41510    1.000
    C118     C        0.53490    0.39430    0.13910    1.000
    H87      H        0.50100    0.39850    0.09760    1.000
    C119     C        0.56350    0.35760    0.00790    1.000
    C120     C        0.54030    0.32810    0.81750    1.000
    H88      H        0.50650    0.33230    0.77490    1.000
    C121     C        0.57000    0.29220    0.69510    1.000
    C122     C        0.51320    0.24252    0.39610    1.000
    C123     C        0.42180    0.21510    0.17780    1.000
    C124     C        0.51080    0.22250    0.14800    1.000
    H89      H        0.54050    0.21830    0.05470    1.000
    C125     C        0.46590    0.20860    0.03380    1.000
    H90      H        0.46500    0.19540    0.86630    1.000
    C126     C        0.42220    0.23530    0.42510    1.000
    H91      H        0.39240    0.24000    0.51730    1.000
    C127     C        0.46790    0.24850    0.53210    1.000
    H92      H        0.46870    0.26170    0.69970    1.000
    C128     C        0.37210    0.20180    0.05200    1.000
    O24      O        0.37000    0.15500    0.96800    1.000
    C129     C        0.50480    0.19280    0.33650    1.000
    H93      H        0.52970    0.16900    0.36910    1.000
    C130     C        0.45850    0.17770    0.22600    1.000
    H94      H        0.45230    0.14410    0.18620    1.000
    C131     C        0.42830    0.26630    0.23900    1.000
    H95      H        0.40350    0.29040    0.21090    1.000
    C132     C        0.47570    0.27760    0.34500    1.000
    H96      H        0.48250    0.31110    0.38520    1.000
    Zn7      Zn       0.78584    0.27280    0.08519    1.000
    O25      O        0.74730    0.22110    0.91460    1.000
    H97      H        0.73630    0.20030    0.02690    1.000
    N13      N        0.85860    0.25140    0.10300    1.000
    C133     C        0.89531    0.26780    0.95660    1.000
    H98      H        0.89160    0.29320    0.83330    1.000
    N14      N        0.93950    0.24370    0.00410    1.000
    C134     C        0.87880    0.21311    0.25840    1.000
    O26      O        0.16670    0.27710    0.62820    1.000
    C135     C        0.85570    0.18360    0.44500    1.000
    H99      H        0.82170    0.18760    0.48410    1.000
    O27      O        0.12880    0.31550    0.31600    1.000
    C136     C        0.88480    0.14760    0.57310    1.000
    C137     C        0.86410    0.11740    0.76460    1.000
    H100     H        0.83030    0.12140    0.80770    1.000
    C138     C        0.89240    0.08110    0.89470    1.000
    H101     H        0.87790    0.06080    0.02180    1.000
    C139     C        0.94340    0.07580    0.82940    1.000
    H102     H        0.96290    0.05190    0.91510    1.000
    C140     C        0.96510    0.10570    0.63910    1.000
    H103     H        0.99900    0.10150    0.59760    1.000
    C141     C        0.93650    0.14240    0.50790    1.000
    C142     C        0.95970    0.17190    0.31750    1.000
    H104     H        0.99350    0.16770    0.27490    1.000
    C143     C        0.93000    0.20780    0.19510    1.000
    C144     C        0.98680    0.25748    0.89610    1.000
    C145     C        0.07820    0.28490    0.67780    1.000
    C146     C        0.98920    0.27750    0.64800    1.000
    H105     H        0.95950    0.28170    0.55470    1.000
    C147     C        0.03410    0.29140    0.53380    1.000
    H106     H        0.03500    0.30460    0.36630    1.000
    C148     C        0.07780    0.26470    0.92510    1.000
    H107     H        0.10760    0.26000    0.01730    1.000
    C149     C        0.03210    0.25150    0.03210    1.000
    H108     H        0.03130    0.23830    0.19970    1.000
    C150     C        0.12790    0.29820    0.55200    1.000
    O28      O        0.13000    0.34500    0.46800    1.000
    C151     C        0.99520    0.30720    0.83650    1.000
    H109     H        0.97030    0.33100    0.86910    1.000
    C152     C        0.04150    0.32230    0.72600    1.000
    H110     H        0.04770    0.35590    0.68620    1.000
    C153     C        0.07170    0.23370    0.73900    1.000
    H111     H        0.09650    0.20960    0.71090    1.000
    C154     C        0.02430    0.22240    0.84500    1.000
    H112     H        0.01750    0.18890    0.88520    1.000
    Zn8      Zn       0.28584    0.77280    0.58519    1.000
    O29      O        0.24730    0.72110    0.41460    1.000
    H113     H        0.23630    0.70030    0.52690    1.000
    N15      N        0.35860    0.75140    0.60300    1.000
    C155     C        0.39531    0.76780    0.45660    1.000
    H114     H        0.39160    0.79320    0.33330    1.000
    N16      N        0.43950    0.74370    0.50410    1.000
    C156     C        0.37880    0.71311    0.75840    1.000
    O30      O        0.66670    0.77710    0.12820    1.000
    C157     C        0.35570    0.68360    0.94500    1.000
    H115     H        0.32170    0.68760    0.98410    1.000
    O31      O        0.62880    0.81550    0.81600    1.000
    C158     C        0.38480    0.64760    0.07310    1.000
    C159     C        0.36410    0.61740    0.26460    1.000
    H116     H        0.33030    0.62140    0.30770    1.000
    C160     C        0.39240    0.58110    0.39470    1.000
    H117     H        0.37790    0.56080    0.52180    1.000
    C161     C        0.44340    0.57580    0.32940    1.000
    H118     H        0.46290    0.55190    0.41510    1.000
    C162     C        0.46510    0.60570    0.13910    1.000
    H119     H        0.49900    0.60150    0.09760    1.000
    C163     C        0.43650    0.64240    0.00790    1.000
    C164     C        0.45970    0.67190    0.81750    1.000
    H120     H        0.49350    0.66770    0.77490    1.000
    C165     C        0.43000    0.70780    0.69510    1.000
    C166     C        0.48680    0.75748    0.39610    1.000
    C167     C        0.57820    0.78490    0.17780    1.000
    C168     C        0.48920    0.77750    0.14800    1.000
    H121     H        0.45950    0.78170    0.05470    1.000
    C169     C        0.53410    0.79140    0.03380    1.000
    H122     H        0.53500    0.80460    0.86630    1.000
    C170     C        0.57780    0.76470    0.42510    1.000
    H123     H        0.60760    0.76000    0.51730    1.000
    C171     C        0.53210    0.75150    0.53210    1.000
    H124     H        0.53130    0.73830    0.69970    1.000
    C172     C        0.62790    0.79820    0.05200    1.000
    O32      O        0.63000    0.84500    0.96800    1.000
    C173     C        0.49520    0.80720    0.33650    1.000
    H125     H        0.47030    0.83100    0.36910    1.000
    C174     C        0.54150    0.82230    0.22600    1.000
    H126     H        0.54770    0.85590    0.18620    1.000
    C175     C        0.57170    0.73370    0.23900    1.000
    H127     H        0.59650    0.70960    0.21090    1.000
    C176     C        0.52430    0.72240    0.34500    1.000
    H128     H        0.51750    0.68890    0.38520    1.000
