# CIF file generated by openbabel 3.1.0, see https://openbabel.org
data_I
_chemical_name_common 'XOSQUR_ion_b'
_cell_length_a 15.284
_cell_length_b 17.726
_cell_length_c 5.1882
_cell_angle_alpha 90
_cell_angle_beta 90
_cell_angle_gamma 90
_space_group_name_H-M_alt 'P 1'
_space_group_name_Hall 'P 1'
loop_
    _symmetry_equiv_pos_as_xyz
    x,y,z
loop_
    _atom_site_label
    _atom_site_type_symbol
    _atom_site_fract_x
    _atom_site_fract_y
    _atom_site_fract_z
    _atom_site_occupancy
    Zn1      Zn       0.28064    0.80316    0.66760    1.000
    Zn2      Zn       0.10691    0.80464    0.26480    1.000
    Zn3      Zn       0.40651    0.75190    0.17260    1.000
    Zn4      Zn       0.26684    0.06355    0.35040    1.000
    P5       P        0.39952    0.65526    0.69000    1.000
    P6       P        0.28031    0.89476    0.17300    1.000
    P7       P        0.11210    0.70694    0.74880    1.000
    O8       O        0.30500    0.88600    0.88860    1.000
    O9       O        0.16010    0.77150    0.60410    1.000
    O10      O        0.32430    0.82600    0.32290    1.000
    O11      O        0.35650    0.72560    0.83130    1.000
    O12      O        0.12120    0.72050    0.03500    1.000
    O13      O        0.49380    0.64950    0.78400    1.000
    O14      O        0.18250    0.89090    0.21340    1.000
    O15      O        0.01970    0.70590    0.64600    1.000
    O16      O        0.38890    0.66710    0.39860    1.000
    O17      O        0.31820    0.96850    0.27810    1.000
    O18      O        0.35380    0.58250    0.77030    1.000
    O19      O        0.15570    0.63220    0.67600    1.000
    O20      O        0.26210    0.08550    0.72900    1.000
    H22      H        0.02370    0.03560    0.46830    1.000
    C23      C        0.06930    0.96570    0.73100    1.000
    H24      H        0.11340    0.94420    0.62170    1.000
    H25      H        0.04430    0.92690    0.83700    1.000
    H26      H        0.09510    0.00370    0.83860    1.000
    Zn27     Zn       0.71936    0.19684    0.66760    1.000
    Zn28     Zn       0.89309    0.19536    0.26480    1.000
    Zn29     Zn       0.59349    0.24810    0.17260    1.000
    Zn30     Zn       0.73316    0.93645    0.35040    1.000
    P31      P        0.60048    0.34474    0.69000    1.000
    P32      P        0.71969    0.10524    0.17300    1.000
    P33      P        0.88790    0.29306    0.74880    1.000
    O34      O        0.69500    0.11400    0.88860    1.000
    O35      O        0.83990    0.22850    0.60410    1.000
    O36      O        0.67570    0.17400    0.32290    1.000
    O37      O        0.64350    0.27440    0.83130    1.000
    O38      O        0.87880    0.27950    0.03500    1.000
    O39      O        0.50620    0.35050    0.78400    1.000
    O40      O        0.81750    0.10910    0.21340    1.000
    O41      O        0.98030    0.29410    0.64600    1.000
    O42      O        0.61110    0.33290    0.39860    1.000
    O43      O        0.68180    0.03150    0.27810    1.000
    O44      O        0.64620    0.41750    0.77030    1.000
    O45      O        0.84430    0.36780    0.67600    1.000
    O46      O        0.73790    0.91450    0.72900    1.000
    H48      H        0.97630    0.96440    0.46830    1.000
    C49      C        0.93070    0.03430    0.73100    1.000
    H50      H        0.88660    0.05580    0.62170    1.000
    H51      H        0.95570    0.07310    0.83700    1.000
    H52      H        0.90490    0.99630    0.83860    1.000
    Zn53     Zn       0.78064    0.69684    0.16760    1.000
    Zn54     Zn       0.60691    0.69536    0.76480    1.000
    Zn55     Zn       0.90651    0.74810    0.67260    1.000
    Zn56     Zn       0.76684    0.43645    0.85040    1.000
    P57      P        0.89952    0.84474    0.19000    1.000
    P58      P        0.78031    0.60524    0.67300    1.000
    P59      P        0.61210    0.79306    0.24880    1.000
    O60      O        0.80500    0.61400    0.38860    1.000
    O61      O        0.66010    0.72850    0.10410    1.000
    O62      O        0.82430    0.67400    0.82290    1.000
    O63      O        0.85650    0.77440    0.33130    1.000
    O64      O        0.62120    0.77950    0.53500    1.000
    O65      O        0.99380    0.85050    0.28400    1.000
    O66      O        0.68250    0.60910    0.71340    1.000
    O67      O        0.51970    0.79410    0.14600    1.000
    O68      O        0.88890    0.83290    0.89860    1.000
    O69      O        0.81820    0.53150    0.77810    1.000
    O70      O        0.85380    0.91750    0.27030    1.000
    O71      O        0.65570    0.86780    0.17600    1.000
    O72      O        0.76210    0.41450    0.22900    1.000
    H74      H        0.52370    0.46440    0.96830    1.000
    C75      C        0.56930    0.53430    0.23100    1.000
    H76      H        0.61340    0.55580    0.12170    1.000
    H77      H        0.54430    0.57310    0.33700    1.000
    H78      H        0.59510    0.49630    0.33860    1.000
    Zn79     Zn       0.21936    0.30316    0.16760    1.000
    Zn80     Zn       0.39309    0.30464    0.76480    1.000
    Zn81     Zn       0.09349    0.25190    0.67260    1.000
    Zn82     Zn       0.23316    0.56355    0.85040    1.000
    P83      P        0.10048    0.15526    0.19000    1.000
    P84      P        0.21969    0.39476    0.67300    1.000
    P85      P        0.38790    0.20694    0.24880    1.000
    O86      O        0.19500    0.38600    0.38860    1.000
    O87      O        0.33990    0.27150    0.10410    1.000
    O88      O        0.17570    0.32600    0.82290    1.000
    O89      O        0.14350    0.22560    0.33130    1.000
    O90      O        0.37880    0.22050    0.53500    1.000
    O91      O        0.00620    0.14950    0.28400    1.000
    O92      O        0.31750    0.39090    0.71340    1.000
    O93      O        0.48030    0.20590    0.14600    1.000
    O94      O        0.11110    0.16710    0.89860    1.000
    O95      O        0.18180    0.46850    0.77810    1.000
    O96      O        0.14620    0.08250    0.27030    1.000
    O97      O        0.34430    0.13220    0.17600    1.000
    O98      O        0.23790    0.58550    0.22900    1.000
    H100     H        0.47630    0.53560    0.96830    1.000
    C101     C        0.43070    0.46570    0.23100    1.000
    H102     H        0.38660    0.44420    0.12170    1.000
    H103     H        0.45570    0.42690    0.33700    1.000
    H104     H        0.40490    0.50370    0.33860    1.000
    N105     N        0.00000    0.00000    0.57000    1.000
    N106     N        0.50000    0.50000    0.07000    1.000
