data_functionalizedCrystal
_audit_creation_method	'EQeq! by Chris Wilmer'
_symmetry_space_group_name_H-M	'P1'
_symmetry_Int_Tables_number	1
_symmetry_cell_setting	triclinic
loop_
_symmetry_equiv_pos_as_xyz
  x,y,z
_cell_length_a	9.0531
_cell_length_b	16.342
_cell_length_c	19.218
_cell_angle_alpha	90
_cell_angle_beta	90
_cell_angle_gamma	92.804
loop_
_atom_site_label
_atom_site_type_symbol
_atom_site_fract_x
_atom_site_fract_y
_atom_site_fract_z
_atom_site_charge
Mof_Zn	Zn	0.63241	0.59695	0.68554	1.207
Mof_Zn	Zn	0.36759	0.40305	0.31446	1.207
Mof_Zn	Zn	0.13241	0.09695	0.81446	1.206
Mof_Zn	Zn	0.86759	0.90305	0.18554	1.206
Mof_H 	H 	0.837	0.3035	0.4021	0.081
Mof_H 	H 	0.9148	0.8187	0.7313	0.069
Mof_H 	H 	0.0793	0.2624	0.7578	-0.01
Mof_H 	H 	0.0334	0.3729	0.864	0.061
Mof_H 	H 	0.4148	0.3187	0.7687	0.066
Mof_H 	H 	0.9179	0.3314	0.6913	0.098
Mof_H 	H 	0.634	0.473	0.3904	-0.006
Mof_H 	H 	0.8435	0.5006	0.0937	0.054
Mof_H 	H 	0.3174	0.5663	0.7445	-0.009
Mof_H 	H 	0.5821	0.1686	0.1913	0.098
Mof_H 	H 	0.8174	0.0663	0.7555	-0.009
Mof_H 	H 	0.7158	0.1253	0.1024	0.06
Mof_H 	H 	0.29	0.3468	0.4595	-0.012
Mof_H 	H 	0.2158	0.6253	0.3976	0.062
Mof_H 	H 	0.4666	0.1271	0.364	0.061
Mof_H 	H 	0.3986	0.1739	0.4263	0.057
Mof_H 	H 	0.4207	0.2376	0.2578	-0.009
Mof_H 	H 	0.5334	0.8729	0.636	0.061
Mof_H 	H 	0.5852	0.6813	0.2313	0.066
Mof_H 	H 	0.366	0.527	0.6096	-0.006
Mof_H 	H 	0.9666	0.6271	0.136	0.061
Mof_H 	H 	0.3491	0.869	0.3132	0.096
Mof_H 	H 	0.7842	0.3747	0.6024	0.062
Mof_H 	H 	0.7348	0.054	0.9904	0.097
Mof_H 	H 	0.153	0.6145	0.9759	0.059
Mof_H 	H 	0.1826	0.9337	0.2445	-0.009
Mof_H 	H 	0.21	0.1532	0.9595	-0.01
Mof_H 	H 	0.3955	0.7531	0.564	0.118
Mof_H 	H 	0.2652	0.946	0.0096	0.097
Mof_H 	H 	0.0821	0.6686	0.3087	0.098
Mof_H 	H 	0.5793	0.7624	0.7422	-0.009
Mof_H 	H 	0.6045	0.2469	0.436	0.118
Mof_H 	H 	0.1509	0.631	0.8132	0.095
Mof_H 	H 	0.1014	0.3261	0.9263	0.057
Mof_H 	H 	0.6565	0.9994	0.5937	0.054
Mof_H 	H 	0.653	0.1145	0.5241	0.059
Mof_H 	H 	0.71	0.6532	0.5405	-0.012
Mof_H 	H 	0.347	0.8855	0.4759	0.059
Mof_H 	H 	0.6882	0.0852	0.3298	0.086
Mof_H 	H 	0.5901	0.683	0.4403	0.098
Mof_H 	H 	0.79	0.8468	0.0405	-0.01
Mof_H 	H 	0.2842	0.8747	0.8976	0.06
Mof_H 	H 	0.3118	0.9148	0.6702	0.086
Mof_H 	H 	0.4242	0.7499	0.3776	0.063
Mof_H 	H 	0.163	0.6965	0.5979	0.081
Mof_H 	H 	0.6509	0.131	0.6868	0.096
Mof_H 	H 	0.7652	0.446	0.4904	0.099
Mof_H 	H 	0.8955	0.2531	0.936	0.118
Mof_H 	H 	0.6014	0.8261	0.5737	0.057
Mof_H 	H 	0.9099	0.817	0.9403	0.095
Mof_H 	H 	0.8986	0.6739	0.0737	0.057
Mof_H 	H 	0.2348	0.554	0.5096	0.099
Mof_H 	H 	0.1565	0.4994	0.9063	0.054
Mof_H 	H 	0.5758	0.2501	0.6224	0.063
Mof_H 	H 	0.1882	0.5852	0.1702	0.086
Mof_H 	H 	0.0901	0.183	0.0597	0.095
Mof_H 	H 	0.4179	0.8314	0.8087	0.098
Mof_H 	H 	0.337	0.8035	0.0979	0.081
Mof_H 	H 	0.0758	0.7501	0.8776	0.064
Mof_H 	H 	0.866	0.027	0.8904	-0.005
Mof_H 	H 	0.9207	0.7376	0.2422	-0.01
Mof_H 	H 	0.4099	0.317	0.5597	0.098
Mof_H 	H 	0.6826	0.4337	0.2555	-0.009
Mof_H 	H 	0.1045	0.7469	0.064	0.118
Mof_H 	H 	0.134	0.973	0.1096	-0.005
Mof_H 	H 	0.8118	0.4148	0.8298	0.086
Mof_H 	H 	0.0852	0.1813	0.2687	0.069
Mof_H 	H 	0.663	0.1965	0.9021	0.081
Mof_H 	H 	0.8491	0.369	0.1868	0.095
Mof_H 	H 	0.9242	0.2499	0.1224	0.064
Mof_H 	H 	0.3435	0.0006	0.4063	0.054
Mof_H 	H 	0.847	0.3855	0.0241	0.059
Mof_C 	C 	0.5919	0.4505	0.7441	0.294
Mof_C 	C 	0.7614	0.3412	0.1999	-0.184
Mof_C 	C 	0.1603	0.88	0.2585	0.104
Mof_C 	C 	0.35	0.7575	0.1253	-0.107
Mof_C 	C 	0.0075	0.7649	0.2571	0.096
Mof_C 	C 	0.5009	0.315	0.7947	-0.034
Mof_C 	C 	0.0911	0.5689	0.9862	-0.065
Mof_C 	C 	0.4991	0.685	0.2053	-0.034
Mof_C 	C 	0.388	0.3655	0.4648	0.099
Mof_C 	C 	0.4104	0.5605	0.5757	0.094
Mof_C 	C 	0.8889	0.1226	0.2914	-0.022
Mof_C 	C 	0.5075	0.2649	0.2429	0.095
Mof_C 	C 	0.5911	0.0689	0.5138	-0.065
Mof_C 	C 	0.5021	0.9297	0.5429	0.049
Mof_C 	C 	0.8311	0.2242	0.1285	-0.095
Mof_C 	C 	0.0021	0.4297	0.9571	0.048
Mof_C 	C 	0.7386	0.1588	0.6999	-0.183
Mof_C 	C 	0.15	0.7425	0.6253	-0.108
Mof_C 	C 	0.4848	0.1455	0.4113	-0.092
Mof_C 	C 	0.8397	0.12	0.7415	0.104
Mof_C 	C 	0.9979	0.5703	0.0429	0.048
Mof_C 	C 	0.0927	0.4993	0.9442	-0.07
Mof_C 	C 	0.3311	0.7242	0.3715	-0.092
Mof_C 	C 	0.0919	0.9505	0.7559	0.289
Mof_C 	C 	0.4081	0.5495	0.2559	0.294
Mof_C 	C 	0.0896	0.9395	0.0757	0.092
Mof_C 	C 	0.9104	0.0605	0.9243	0.092
Mof_C 	C 	0.4925	0.7351	0.7571	0.095
Mof_C 	C 	0.0401	0.1533	0.0249	-0.175
Mof_C 	C 	0.6039	0.2233	0.2024	-0.178
Mof_C 	C 	0.7602	0.1278	0.3312	-0.107
Mof_C 	C 	0.3961	0.7767	0.7976	-0.178
Mof_C 	C 	0.1067	0.8716	0.966	0.117
Mof_C 	C 	0.6989	0.3433	0.5913	-0.09
Mof_C 	C 	0.1703	0.9228	0.0158	-0.176
Mof_C 	C 	0.8933	0.1284	0.034	0.117
Mof_C 	C 	0.9081	0.0495	0.2441	0.289
Mof_C 	C 	0.5927	0.9993	0.5558	-0.07
Mof_C 	C 	0.4805	0.7525	0.1633	-0.03
Mof_C 	C 	0.3011	0.6567	0.4087	-0.09
Mof_C 	C 	0.4979	0.0703	0.4571	0.049
Mof_C 	C 	0.239	0.6958	0.1272	0.122
Mof_C 	C 	0.3297	0.5772	0.5158	-0.182
Mof_C 	C 	0.2386	0.6588	0.8001	-0.184
Mof_C 	C 	0.9925	0.2351	0.7429	0.096
Mof_C 	C 	0.9089	0.4311	0.0138	-0.065
Mof_C 	C 	0.9073	0.5007	0.0558	-0.07
Mof_C 	C 	0.6689	0.2758	0.6285	-0.092
Mof_C 	C 	0.7673	0.2381	0.6779	0.135
Mof_C 	C 	0.3397	0.62	0.7585	0.105
Mof_C 	C 	0.9848	0.6455	0.0887	-0.093
Mof_C 	C 	0.5401	0.6533	0.4751	-0.186
Mof_C 	C 	0.2398	0.8722	0.6688	-0.107
Mof_C 	C 	0.0972	0.3209	0.3426	0.313
Mof_C 	C 	0.612	0.6345	0.5352	0.099
Mof_C 	C 	0.6067	0.3716	0.534	0.127
Mof_C 	C 	0.3889	0.6226	0.2086	-0.024
Mof_C 	C 	0.1111	0.8774	0.7086	-0.022
Mof_C 	C 	0.2673	0.7381	0.8221	0.136
Mof_C 	C 	0.0152	0.3545	0.9113	-0.093
Mof_C 	C 	0.5896	0.4395	0.4243	0.094
Mof_C 	C 	0.2602	0.6278	0.1688	-0.105
Mof_C 	C 	0.4599	0.3467	0.5249	-0.186
Mof_C 	C 	0.9028	0.6791	0.6574	0.313
Mof_C 	C 	0.8961	0.2767	0.7024	-0.178
Mof_C 	C 	0.8297	0.0772	0.9842	-0.176
Mof_C 	C 	0.1689	0.7758	0.8715	-0.095
Mof_C 	C 	0.9599	0.8467	0.9751	-0.175
Mof_C 	C 	0.261	0.8042	0.6272	0.122
Mof_C 	C 	0.2614	0.8412	0.3001	-0.183
Mof_C 	C 	0.4073	0.0007	0.4442	-0.07
Mof_C 	C 	0.5195	0.2475	0.8367	-0.03
Mof_C 	C 	0.761	0.3042	0.8728	0.122
Mof_C 	C 	0.4028	0.1791	0.8426	0.312
Mof_C 	C 	0.7398	0.3722	0.8312	-0.105
Mof_C 	C 	0.0195	0.7475	0.6633	-0.03
Mof_C 	C 	0.888	0.8655	0.0352	0.092
Mof_C 	C 	0.112	0.1345	0.9648	0.092
Mof_C 	C 	0.739	0.1958	0.3728	0.122
Mof_C 	C 	0.65	0.2425	0.8747	-0.107
Mof_C 	C 	0.7327	0.2619	0.1779	0.136
Mof_C 	C 	0.1989	0.8433	0.9087	-0.085
Mof_C 	C 	0.6111	0.3774	0.7914	-0.024
Mof_C 	C 	0.9991	0.185	0.2947	-0.039
Mof_C 	C 	0.5972	0.8209	0.1574	0.312
Mof_C 	C 	0.85	0.2575	0.3747	-0.108
Mof_C 	C 	0.8011	0.1567	0.0913	-0.085
Mof_C 	C 	0.9805	0.2525	0.3367	-0.03
Mof_C 	C 	0.3933	0.6284	0.466	0.127
Mof_C 	C 	0.5152	0.8545	0.5887	-0.092
Mof_C 	C 	0.6603	0.38	0.2415	0.105
Mof_C 	C 	0.0009	0.815	0.7053	-0.039
Mof_C 	C 	0.2327	0.7619	0.3221	0.135
Mof_C 	C 	0.4089	0.9311	0.4862	-0.065
Mof_C 	C 	0.6703	0.4228	0.4842	-0.182
Mof_C 	C 	0.1039	0.7233	0.2976	-0.178
Mof_N 	N 	0.5483	0.5907	0.58646	-0.275
Mof_N 	N 	0.4663	0.6562	0.738	-0.267
Mof_N 	N 	0.0337	0.8438	0.238	-0.267
Mof_N 	N 	0.8897	0.2963	0.9107	-0.193
Mof_N 	N 	0.4517	0.4093	0.41354	-0.275
Mof_N 	N 	0.5337	0.3438	0.262	-0.267
Mof_N 	N 	0.6103	0.2037	0.4107	-0.194
Mof_N 	N 	0.9517	0.9093	0.08646	-0.274
Mof_N 	N 	0.1103	0.7037	0.0893	-0.193
Mof_N 	N 	0.3897	0.7963	0.5893	-0.194
Mof_N 	N 	0.0483	0.0907	0.91354	-0.274
Mof_N 	N 	0.9663	0.1562	0.762	-0.267
Mof_O 	O 	0.3019	0.4954	0.25946	-0.443
Mof_O 	O 	0.5238	0.5437	0.28966	-0.323
Mof_O 	O 	0.5779	0.8798	0.119	-0.307
Mof_O 	O 	0.8019	0.9954	0.24054	-0.442
Mof_O 	O 	0.9221	0.6202	0.619	-0.306
Mof_O 	O 	0.0779	0.3798	0.381	-0.306
Mof_O 	O 	0.1981	0.0046	0.75946	-0.442
Mof_O 	O 	0.0238	0.0437	0.21034	-0.32
Mof_O 	O 	0.2842	0.1871	0.80788	-0.45
Mof_O 	O 	0.4221	0.1202	0.881	-0.307
Mof_O 	O 	0.7158	0.8129	0.19212	-0.45
Mof_O 	O 	0.7842	0.6871	0.69212	-0.45
Mof_O 	O 	0.6981	0.5046	0.74054	-0.443
Mof_O 	O 	0.2158	0.3129	0.30788	-0.45
Mof_O 	O 	0.9762	0.9563	0.78966	-0.32
Mof_O 	O 	0.4762	0.4563	0.71034	-0.323
_end
