data_functionalizedCrystal
_audit_creation_method	'EQeq! by Chris Wilmer'
_symmetry_space_group_name_H-M	'P1'
_symmetry_Int_Tables_number	1
_symmetry_cell_setting	triclinic
loop_
_symmetry_equiv_pos_as_xyz
  x,y,z
_cell_length_a	9.547
_cell_length_b	11.499
_cell_length_c	11.592
_cell_angle_alpha	108.941
_cell_angle_beta	111.851
_cell_angle_gamma	92.174
loop_
_atom_site_label
_atom_site_type_symbol
_atom_site_fract_x
_atom_site_fract_y
_atom_site_fract_z
_atom_site_charge
Mof_Nd	Nd	0.71452	0.9775	0.52573	2.671
Mof_O 	O 	0.5098	0.0654	0.4094	-0.7
Mof_O 	O 	0.2605	0.1129	0.2965	-0.47
Mof_O 	O 	0.4181	0.0337	0.1594	-0.269
Mof_O 	O 	0.5492	0.7921	0.3614	-0.564
Mof_O 	O 	0.2742	0.8338	0.3	-0.533
Mof_O 	O 	0.3364	0.6269	0.3144	-0.281
Mof_O 	O 	0.9867	0.0646	0.6689	-0.508
Mof_O 	O 	0.1961	0.9572	0.6135	-0.536
Mof_O 	O 	0.2427	0.1636	0.8304	-0.238
Mof_O 	O 	0.9126	0.8376	0.5409	-0.323
Mof_O 	O 	0.8702	0.8131	0.4536	-0.148
Mof_P 	P 	0.4205	0.10576	0.29406	0.48
Mof_P 	P 	0.3801	0.74013	0.28632	0.53
Mof_P 	P 	0.1393	0.0398	0.7246	0.361
Mof_P 	P 	0.0555	0.9409	0.6402	0.256
Mof_N 	N 	0.5227	0.3711	0.4427	-0.137
Mof_H 	H 	0.568	0.3548	0.5187	0.126
Mof_N 	N 	0.4107	0.5739	0.0629	-0.122
Mof_H 	H 	0.3645	0.5101	0.074	0.105
Mof_N 	N 	0.031	0.9563	0.8803	-0.118
Mof_H 	H 	0.9329	0.9337	0.8172	0.11
Mof_C 	C 	0.5162	0.2621	0.3286	-0.2
Mof_H 	H 	0.6212	0.2563	0.3395	0.09
Mof_H 	H 	0.4674	0.2814	0.2488	0.097
Mof_C 	C 	0.3408	0.6848	0.1088	-0.222
Mof_H 	H 	0.2306	0.6632	0.0576	0.102
Mof_H 	H 	0.379	0.7525	0.0896	0.106
Mof_C 	C 	0.3679	0.4005	0.4314	-0.046
Mof_H 	H 	0.3069	0.3303	0.43	0.046
Mof_H 	H 	0.316	0.4133	0.3481	0.062
Mof_C 	C 	0.6194	0.4835	0.4532	-0.061
Mof_H 	H 	0.5748	0.4991	0.3707	0.058
Mof_H 	H 	0.7214	0.4662	0.4647	0.049
Mof_C 	C 	0.3692	0.5344	0.9157	-0.064
Mof_H 	H 	0.4142	0.6005	0.8984	0.053
Mof_H 	H 	0.2586	0.5216	0.8687	0.049
Mof_C 	C 	0.5746	0.5852	0.1366	-0.072
Mof_H 	H 	0.5968	0.6046	0.2303	0.067
Mof_H 	H 	0.6293	0.6535	0.1294	0.079
Mof_C 	C 	0.138	0.9283	0.8099	-0.223
Mof_H 	H 	0.1047	0.8435	0.7449	0.095
Mof_H 	H 	0.2409	0.9348	0.8743	0.12
Mof_C 	C 	0.0491	0.8811	0.9671	-0.016
Mof_H 	H 	0.0275	0.7928	0.9128	0.035
Mof_H 	H 	0.1543	0.9014	0.0329	0.052
Mof_C 	C 	0.0569	0.0935	0.9634	-0.116
Mof_H 	H 	0.1622	0.12	0.0291	0.089
Mof_H 	H 	0.0408	0.1417	0.9062	0.078
Mof_Nd	Nd	0.28548	0.0225	0.47427	2.672
Mof_O 	O 	0.4902	0.9346	0.5906	-0.699
Mof_O 	O 	0.7395	0.8871	0.7035	-0.47
Mof_O 	O 	0.5819	0.9663	0.8406	-0.269
Mof_O 	O 	0.4508	0.2079	0.6386	-0.564
Mof_O 	O 	0.7258	0.1662	0.7	-0.533
Mof_O 	O 	0.6636	0.3731	0.6856	-0.281
Mof_O 	O 	0.0133	0.9354	0.3311	-0.508
Mof_O 	O 	0.8039	0.0428	0.3865	-0.536
Mof_O 	O 	0.7573	0.8364	0.1696	-0.238
Mof_O 	O 	0.0874	0.1624	0.4591	-0.323
Mof_O 	O 	0.1298	0.1869	0.5464	-0.148
Mof_P 	P 	0.5795	0.89424	0.70594	0.48
Mof_P 	P 	0.6199	0.25987	0.71368	0.53
Mof_P 	P 	0.8607	0.9602	0.2754	0.361
Mof_P 	P 	0.9445	0.0591	0.3598	0.256
Mof_N 	N 	0.4773	0.6289	0.5573	-0.137
Mof_H 	H 	0.432	0.6452	0.4813	0.126
Mof_N 	N 	0.5893	0.4261	0.9371	-0.122
Mof_H 	H 	0.6355	0.4899	0.926	0.105
Mof_N 	N 	0.969	0.0437	0.1197	-0.118
Mof_H 	H 	0.0671	0.0663	0.1828	0.11
Mof_C 	C 	0.4838	0.7379	0.6714	-0.2
Mof_H 	H 	0.3788	0.7437	0.6605	0.09
Mof_H 	H 	0.5326	0.7186	0.7512	0.097
Mof_C 	C 	0.6592	0.3152	0.8912	-0.222
Mof_H 	H 	0.7694	0.3368	0.9424	0.102
Mof_H 	H 	0.621	0.2475	0.9104	0.106
Mof_C 	C 	0.6321	0.5995	0.5686	-0.046
Mof_H 	H 	0.6931	0.6697	0.57	0.046
Mof_H 	H 	0.684	0.5867	0.6519	0.062
Mof_C 	C 	0.3806	0.5165	0.5468	-0.061
Mof_H 	H 	0.4252	0.5009	0.6293	0.058
Mof_H 	H 	0.2786	0.5338	0.5353	0.049
Mof_C 	C 	0.6308	0.4656	0.0843	-0.064
Mof_H 	H 	0.5858	0.3995	0.1016	0.053
Mof_H 	H 	0.7414	0.4784	0.1313	0.049
Mof_C 	C 	0.4254	0.4148	0.8634	-0.072
Mof_H 	H 	0.4032	0.3954	0.7697	0.067
Mof_H 	H 	0.3707	0.3465	0.8706	0.079
Mof_C 	C 	0.862	0.0717	0.1901	-0.223
Mof_H 	H 	0.8953	0.1565	0.2551	0.095
Mof_H 	H 	0.7591	0.0652	0.1257	0.12
Mof_C 	C 	0.9509	0.1189	0.0329	-0.016
Mof_H 	H 	0.9725	0.2072	0.0872	0.035
Mof_H 	H 	0.8457	0.0986	0.9671	0.052
Mof_C 	C 	0.9431	0.9065	0.0366	-0.116
Mof_H 	H 	0.8378	0.88	0.9709	0.089
Mof_H 	H 	0.9592	0.8583	0.0938	0.078
_end
