# CIF file generated by openbabel 3.1.0, see https://openbabel.org
data_I
_chemical_name_common 'CUYQIX_clean'
_cell_length_a 8.3207
_cell_length_b 13.112
_cell_length_c 13.4253
_cell_angle_alpha 71.716
_cell_angle_beta 79.758
_cell_angle_gamma 88.055
_space_group_name_H-M_alt 'P 1'
_space_group_name_Hall 'P 1'
loop_
    _symmetry_equiv_pos_as_xyz
    x,y,z
loop_
    _atom_site_label
    _atom_site_type_symbol
    _atom_site_fract_x
    _atom_site_fract_y
    _atom_site_fract_z
    _atom_site_occupancy
    Zn1      Zn       0.77437    0.63699    0.36084    1.000
    Zn2      Zn       0.22563    0.36301    0.63916    1.000
    Zn3      Zn       0.00000    0.00000    0.00000    1.000
    H1       H        0.83410    0.51800    0.21220    1.000
    H2       H        0.88400    0.34670    0.20290    1.000
    H3       H        0.73120    0.23090    0.52130    1.000
    H4       H        0.67850    0.40480    0.52190    1.000
    H5       H        0.94190    0.16320    0.29350    1.000
    H6       H        0.75250    0.13120    0.33420    1.000
    H7       H        0.80760    0.95120    0.41570    1.000
    H8       H        0.99710    0.98050    0.36810    1.000
    H9       H        0.13110    0.11700    0.41040    1.000
    H10      H        0.03180    0.17980    0.48590    1.000
    H11      H        0.59400    0.77240    0.48230    1.000
    H12      H        0.54770    0.78960    0.65140    1.000
    H13      H        0.83110    0.53250    0.74550    1.000
    H14      H        0.87180    0.52260    0.57430    1.000
    H15      H        0.56030    0.72170    0.83420    1.000
    H16      H        0.75020    0.70480    0.84010    1.000
    H17      H        0.37530    0.56660    0.89510    1.000
    H18      H        0.49180    0.50380    0.82640    1.000
    H19      H        0.67210    0.62050    0.02820    1.000
    H20      H        0.48370    0.63670    0.01660    1.000
    H21      H        0.57520    0.90130    0.11680    1.000
    H22      H        0.51460    0.80720    0.07940    1.000
    H23      H        0.35280    0.85380    0.26710    1.000
    H24      H        0.31220    0.67570    0.26850    1.000
    H25      H        0.24750    0.71950    0.15810    1.000
    H26      H        0.16590    0.48200    0.78780    1.000
    H27      H        0.11600    0.65330    0.79710    1.000
    H28      H        0.26880    0.76910    0.47870    1.000
    H29      H        0.32150    0.59520    0.47810    1.000
    H30      H        0.05810    0.83680    0.70650    1.000
    H31      H        0.24750    0.86880    0.66580    1.000
    H32      H        0.19240    0.04880    0.58430    1.000
    H33      H        0.00290    0.01950    0.63190    1.000
    H34      H        0.86890    0.88300    0.58960    1.000
    H35      H        0.96820    0.82020    0.51410    1.000
    H36      H        0.40600    0.22760    0.51770    1.000
    H37      H        0.45230    0.21040    0.34860    1.000
    H38      H        0.16890    0.46750    0.25450    1.000
    H39      H        0.12820    0.47740    0.42570    1.000
    H40      H        0.43970    0.27830    0.16580    1.000
    H41      H        0.24980    0.29520    0.15990    1.000
    H42      H        0.62470    0.43340    0.10490    1.000
    H43      H        0.50820    0.49620    0.17360    1.000
    H44      H        0.32790    0.37950    0.97180    1.000
    H45      H        0.51630    0.36330    0.98340    1.000
    H46      H        0.42480    0.09870    0.88320    1.000
    H47      H        0.48540    0.19280    0.92060    1.000
    H48      H        0.64720    0.14620    0.73290    1.000
    H49      H        0.68780    0.32430    0.73150    1.000
    H50      H        0.75250    0.28050    0.84190    1.000
    C1       C        0.81210    0.45880    0.27579    1.000
    C2       C        0.84340    0.35685    0.26979    1.000
    C3       C        0.81550    0.26882    0.36162    1.000
    C4       C        0.75290    0.28871    0.45652    1.000
    C5       C        0.72250    0.39275    0.45629    1.000
    C6       C        0.84950    0.15783    0.35274    1.000
    C7       C        0.91050    0.97395    0.43086    1.000
    C8       C        0.04330    0.10945    0.47279    1.000
    C9       C        0.64210    0.72301    0.53666    1.000
    C10      C        0.61410    0.73367    0.63732    1.000
    C11      C        0.68320    0.66249    0.71792    1.000
    C12      C        0.78090    0.58258    0.69267    1.000
    C13      C        0.80410    0.57699    0.59072    1.000
    C14      C        0.65200    0.67261    0.82839    1.000
    C15      C        0.46860    0.51757    0.89598    1.000
    C16      C        0.57570    0.58687    0.01597    1.000
    C17      C        0.62530    0.75083    0.21104    1.000
    C18      C        0.52080    0.82951    0.14258    1.000
    C19      C        0.34680    0.83904    0.19916    1.000
    C20      C        0.25130    0.73434    0.22559    1.000
    C21      C        0.07840    0.73047    0.28536    1.000
    C22      C        0.26790    0.93470    0.12708    1.000
    C23      C        0.18790    0.54120    0.72421    1.000
    C24      C        0.15660    0.64315    0.73021    1.000
    C25      C        0.18450    0.73118    0.63838    1.000
    C26      C        0.24710    0.71129    0.54348    1.000
    C27      C        0.27750    0.60725    0.54371    1.000
    C28      C        0.15050    0.84217    0.64726    1.000
    C29      C        0.08950    0.02605    0.56914    1.000
    C30      C        0.95670    0.89055    0.52721    1.000
    C31      C        0.35790    0.27699    0.46334    1.000
    C32      C        0.38590    0.26633    0.36268    1.000
    C33      C        0.31680    0.33751    0.28208    1.000
    C34      C        0.21910    0.41742    0.30733    1.000
    C35      C        0.19590    0.42301    0.40928    1.000
    C36      C        0.34800    0.32739    0.17161    1.000
    C37      C        0.53140    0.48243    0.10402    1.000
    C38      C        0.42430    0.41313    0.98403    1.000
    C39      C        0.37470    0.24917    0.78896    1.000
    C40      C        0.47920    0.17049    0.85742    1.000
    C41      C        0.65320    0.16096    0.80084    1.000
    C42      C        0.74870    0.26566    0.77441    1.000
    C43      C        0.92160    0.26953    0.71464    1.000
    C44      C        0.73210    0.06530    0.87292    1.000
    N1       N        0.75210    0.47815    0.36745    1.000
    N2       N        0.88870    0.07907    0.44947    1.000
    N3       N        0.73510    0.64515    0.51293    1.000
    N4       N        0.61270    0.56867    0.91158    1.000
    N5       N        0.24790    0.52185    0.63255    1.000
    N6       N        0.11130    0.92093    0.55053    1.000
    N7       N        0.26490    0.35485    0.48707    1.000
    N8       N        0.38730    0.43133    0.08842    1.000
    O1       O        0.74636    0.71227    0.16768    1.000
    O2       O        0.58935    0.72749    0.31208    1.000
    O3       O        0.01024    0.63705    0.31773    1.000
    O4       O        0.00937    0.81085    0.30077    1.000
    O5       O        0.18361    0.91482    0.06593    1.000
    O6       O        0.29648    0.02672    0.13089    1.000
    O7       O        0.25364    0.28773    0.83232    1.000
    O8       O        0.41065    0.27251    0.68792    1.000
    O9       O        0.98976    0.36295    0.68227    1.000
    O10      O        0.99063    0.18915    0.69923    1.000
    O11      O        0.81639    0.08518    0.93407    1.000
    O12      O        0.70352    0.97328    0.86911    1.000
