data_functionalizedCrystal
_audit_creation_method	'EQeq! by Chris Wilmer'
_symmetry_space_group_name_H-M	'P1'
_symmetry_Int_Tables_number	1
_symmetry_cell_setting	triclinic
loop_
_symmetry_equiv_pos_as_xyz
  x,y,z
_cell_length_a	16.0871
_cell_length_b	8.5505
_cell_length_c	17.1886
_cell_angle_alpha	90
_cell_angle_beta	129.569
_cell_angle_gamma	90
loop_
_atom_site_label
_atom_site_type_symbol
_atom_site_fract_x
_atom_site_fract_y
_atom_site_fract_z
_atom_site_charge
Mof_Zn	Zn	0.10716	0.31985	0.13437	1.163
Mof_Zn	Zn	0.87386	0.56452	0.02872	1.185
Mof_C 	C 	0.2461	0.5924	0.181	0.129
Mof_C 	C 	0.1864	0.5942	0.2751	0.124
Mof_N 	N 	0.3344	0.6864	0.2415	-0.258
Mof_N 	N 	0.3768	0.6988	0.1949	-0.191
Mof_N 	N 	0.3207	0.6201	0.1115	-0.098
Mof_N 	N 	0.2385	0.5524	0.1001	-0.273
Mof_N 	N 	0.2609	0.6997	0.3439	-0.235
Mof_N 	N 	0.2461	0.7127	0.4123	-0.147
Mof_N 	N 	0.1662	0.6207	0.3845	-0.226
Mof_N 	N 	0.1266	0.5436	0.2986	-0.273
Mof_N 	N 	0.1774	0.5387	0.1941	-0.334
Mof_O 	O 	0.9651	0.3726	0.1116	-0.718
Mof_O 	O 	0.0386	0.3163	0.9888	-0.8
Mof_H 	H 	0.54204	0.79291	0.55928	0.144
Mof_H 	H 	0.59135	0.79073	0.42205	0.134
Mof_Zn	Zn	0.60716	0.81985	0.13437	1.18
Mof_Zn	Zn	0.37386	0.06452	0.02872	1.18
Mof_C 	C 	0.7461	0.0924	0.181	0.135
Mof_C 	C 	0.6864	0.0942	0.2751	0.139
Mof_N 	N 	0.8344	0.1864	0.2415	-0.245
Mof_N 	N 	0.8768	0.1988	0.1949	-0.166
Mof_N 	N 	0.8207	0.1201	0.1115	-0.087
Mof_N 	N 	0.7385	0.0524	0.1001	-0.267
Mof_N 	N 	0.7609	0.1997	0.3439	-0.232
Mof_N 	N 	0.7461	0.2127	0.4123	-0.141
Mof_N 	N 	0.6662	0.1207	0.3845	-0.217
Mof_N 	N 	0.6266	0.0436	0.2986	-0.257
Mof_N 	N 	0.6774	0.0387	0.1941	-0.325
Mof_O 	O 	0.4651	0.8726	0.1116	-0.779
Mof_O 	O 	0.5386	0.8163	0.9888	-0.712
Mof_H 	H 	0.04204	0.29291	0.55928	0.065
Mof_H 	H 	0.09135	0.29073	0.42205	0.132
Mof_Zn	Zn	0.89284	0.31985	0.36563	1.193
Mof_Zn	Zn	0.12614	0.56452	0.47128	1.176
Mof_C 	C 	0.7539	0.5924	0.319	0.132
Mof_C 	C 	0.8136	0.5942	0.2249	0.147
Mof_N 	N 	0.6656	0.6864	0.2585	-0.256
Mof_N 	N 	0.6232	0.6988	0.3051	-0.19
Mof_N 	N 	0.6793	0.6201	0.3885	-0.098
Mof_N 	N 	0.7615	0.5524	0.3999	-0.271
Mof_N 	N 	0.7391	0.6997	0.1561	-0.233
Mof_N 	N 	0.7539	0.7127	0.0877	-0.138
Mof_N 	N 	0.8338	0.6207	0.1155	-0.208
Mof_N 	N 	0.8734	0.5436	0.2014	-0.235
Mof_N 	N 	0.8226	0.5387	0.3059	-0.318
Mof_O 	O 	0.0349	0.3726	0.3884	-0.829
Mof_O 	O 	0.9614	0.3163	0.5112	-0.609
Mof_H 	H 	0.45796	0.79291	0.94072	0.144
Mof_H 	H 	0.40865	0.79073	0.07795	0.135
Mof_Zn	Zn	0.39284	0.81985	0.36563	1.178
Mof_Zn	Zn	0.62614	0.06452	0.47128	1.18
Mof_C 	C 	0.2539	0.0924	0.319	0.127
Mof_C 	C 	0.3136	0.0942	0.2249	0.133
Mof_N 	N 	0.1656	0.1864	0.2585	-0.268
Mof_N 	N 	0.1232	0.1988	0.3051	-0.207
Mof_N 	N 	0.1793	0.1201	0.3885	-0.106
Mof_N 	N 	0.2615	0.0524	0.3999	-0.274
Mof_N 	N 	0.2391	0.1997	0.1561	-0.237
Mof_N 	N 	0.2539	0.2127	0.0877	-0.145
Mof_N 	N 	0.3338	0.1207	0.1155	-0.219
Mof_N 	N 	0.3734	0.0436	0.2014	-0.258
Mof_N 	N 	0.3226	0.0387	0.3059	-0.327
Mof_O 	O 	0.5349	0.8726	0.3884	-0.78
Mof_O 	O 	0.4614	0.8163	0.5112	-0.707
Mof_H 	H 	0.95796	0.29291	0.94072	0.214
Mof_H 	H 	0.90865	0.29073	0.07795	0.139
Mof_Zn	Zn	0.89284	0.68015	0.86563	1.19
Mof_Zn	Zn	0.12614	0.43548	0.97128	1.175
Mof_C 	C 	0.7539	0.4076	0.819	0.131
Mof_C 	C 	0.8136	0.4058	0.7249	0.145
Mof_N 	N 	0.6656	0.3136	0.7585	-0.257
Mof_N 	N 	0.6232	0.3012	0.8051	-0.191
Mof_N 	N 	0.6793	0.3799	0.8885	-0.1
Mof_N 	N 	0.7615	0.4476	0.8999	-0.275
Mof_N 	N 	0.7391	0.3003	0.6561	-0.234
Mof_N 	N 	0.7539	0.2873	0.5877	-0.141
Mof_N 	N 	0.8338	0.3793	0.6155	-0.211
Mof_N 	N 	0.8734	0.4564	0.7014	-0.237
Mof_N 	N 	0.8226	0.4613	0.8059	-0.32
Mof_O 	O 	0.0349	0.6274	0.8884	-0.826
Mof_O 	O 	0.9614	0.6837	0.0112	-0.598
Mof_H 	H 	0.45796	0.20709	0.44072	0.144
Mof_H 	H 	0.40865	0.20927	0.57795	0.133
Mof_Zn	Zn	0.39284	0.18015	0.86563	1.176
Mof_Zn	Zn	0.62614	0.93548	0.97128	1.178
Mof_C 	C 	0.2539	0.9076	0.819	0.126
Mof_C 	C 	0.3136	0.9058	0.7249	0.132
Mof_N 	N 	0.1656	0.8136	0.7585	-0.267
Mof_N 	N 	0.1232	0.8012	0.8051	-0.206
Mof_N 	N 	0.1793	0.8799	0.8885	-0.106
Mof_N 	N 	0.2615	0.9476	0.8999	-0.275
Mof_N 	N 	0.2391	0.8003	0.6561	-0.237
Mof_N 	N 	0.2539	0.7873	0.5877	-0.146
Mof_N 	N 	0.3338	0.8793	0.6155	-0.22
Mof_N 	N 	0.3734	0.9564	0.7014	-0.258
Mof_N 	N 	0.3226	0.9613	0.8059	-0.327
Mof_O 	O 	0.5349	0.1274	0.8884	-0.782
Mof_O 	O 	0.4614	0.1837	0.0112	-0.702
Mof_H 	H 	0.95796	0.70709	0.44072	0.224
Mof_H 	H 	0.90865	0.70927	0.57795	0.136
Mof_Zn	Zn	0.10716	0.68015	0.63437	1.164
Mof_Zn	Zn	0.87386	0.43548	0.52872	1.183
Mof_C 	C 	0.2461	0.4076	0.681	0.128
Mof_C 	C 	0.1864	0.4058	0.7751	0.124
Mof_N 	N 	0.3344	0.3136	0.7415	-0.258
Mof_N 	N 	0.3768	0.3012	0.6949	-0.191
Mof_N 	N 	0.3207	0.3799	0.6115	-0.099
Mof_N 	N 	0.2385	0.4476	0.6001	-0.273
Mof_N 	N 	0.2609	0.3003	0.8439	-0.236
Mof_N 	N 	0.2461	0.2873	0.9123	-0.149
Mof_N 	N 	0.1662	0.3793	0.8845	-0.227
Mof_N 	N 	0.1266	0.4564	0.7986	-0.272
Mof_N 	N 	0.1774	0.4613	0.6941	-0.334
Mof_O 	O 	0.9651	0.6274	0.6116	-0.723
Mof_O 	O 	0.0386	0.6837	0.4888	-0.806
Mof_H 	H 	0.54204	0.20709	0.05928	0.145
Mof_H 	H 	0.59135	0.20927	0.92205	0.131
Mof_Zn	Zn	0.60716	0.18015	0.63437	1.178
Mof_Zn	Zn	0.37386	0.93548	0.52872	1.179
Mof_C 	C 	0.7461	0.9076	0.681	0.134
Mof_C 	C 	0.6864	0.9058	0.7751	0.138
Mof_N 	N 	0.8344	0.8136	0.7415	-0.247
Mof_N 	N 	0.8768	0.8012	0.6949	-0.169
Mof_N 	N 	0.8207	0.8799	0.6115	-0.09
Mof_N 	N 	0.7385	0.9476	0.6001	-0.27
Mof_N 	N 	0.7609	0.8003	0.8439	-0.233
Mof_N 	N 	0.7461	0.7873	0.9123	-0.145
Mof_N 	N 	0.6662	0.8793	0.8845	-0.219
Mof_N 	N 	0.6266	0.9564	0.7986	-0.257
Mof_N 	N 	0.6774	0.9613	0.6941	-0.326
Mof_O 	O 	0.4651	0.1274	0.6116	-0.781
Mof_O 	O 	0.5386	0.1837	0.4888	-0.707
Mof_H 	H 	0.04204	0.70709	0.05928	0.061
Mof_H 	H 	0.09135	0.70927	0.92205	0.132
Mof_Zn	Zn	-3.11886e-17	0.37327	0.25	1.14
Mof_Zn	Zn	0.5	0.87327	0.25	1.173
Mof_Zn	Zn	6.23772e-17	0.62673	0.75	1.142
Mof_Zn	Zn	0.5	0.12673	0.75	1.172
_end
