data_functionalizedCrystal
_audit_creation_method	'EQeq! by Chris Wilmer'
_symmetry_space_group_name_H-M	'P1'
_symmetry_Int_Tables_number	1
_symmetry_cell_setting	triclinic
loop_
_symmetry_equiv_pos_as_xyz
  x,y,z
_cell_length_a	20.135
_cell_length_b	20.135
_cell_length_c	26.217
_cell_angle_alpha	69.91
_cell_angle_beta	69.91
_cell_angle_gamma	78.1476
loop_
_atom_site_label
_atom_site_type_symbol
_atom_site_fract_x
_atom_site_fract_y
_atom_site_fract_z
_atom_site_charge
Mof_Co	Co	0.18099	0.69701	0.53584	1.178
Mof_Co	Co	0.99366	0.00634	0.75	1.146
Mof_Co	Co	0.6975	0.70356	0.2081	1.142
Mof_Co	Co	0.3025	0.29644	0.7919	1.142
Mof_Co	Co	0.81901	0.30299	0.46416	1.178
Mof_Co	Co	0.70356	0.6975	0.7081	1.142
Mof_Co	Co	0.00634	0.99366	0.25	1.146
Mof_Co	Co	0.30707	0.82771	0.4723	1.178
Mof_Co	Co	0.69701	0.18099	0.03584	1.179
Mof_Co	Co	0.30299	0.81901	0.96416	1.179
Mof_Co	Co	0.29644	0.3025	0.2919	1.143
Mof_Co	Co	0.72546	0.71268	0.56338	1.199
Mof_Co	Co	0.69293	0.17229	0.5277	1.179
Mof_Co	Co	0.28732	0.27454	0.93662	1.199
Mof_Co	Co	0.17229	0.69293	0.0277	1.179
Mof_Co	Co	0.27454	0.28732	0.43662	1.199
Mof_Co	Co	0.71268	0.72546	0.06338	1.199
Mof_Co	Co	0.82771	0.30707	0.9723	1.179
Mof_H 	H 	0.3325	0.9485	0.3609	0.024
Mof_H 	H 	0.9779	0.8919	0.7	0.031
Mof_H 	H 	0.22	0.9042	0.1086	0.065
Mof_H 	H 	0.1743	0.9569	0.8605	0.065
Mof_H 	H 	0.8827	0.9835	0.7008	0.031
Mof_H 	H 	0.0165	0.1173	0.7992	0.032
Mof_H 	H 	0.6418	0.4468	0.3252	0.079
Mof_H 	H 	0.0663	0.6741	0.4956	0.015
Mof_H 	H 	0.7689	0.3365	0.0885	0.024
Mof_H 	H 	0.4412	0.2208	0.0295	0.074
Mof_H 	H 	0.4161	0.7341	0.1245	0.079
Mof_H 	H 	0.1684	0.5314	0.0628	0.008
Mof_H 	H 	0.6778	0.9452	0.02	0.069
Mof_H 	H 	0.6827	0.0517	0.4868	0.017
Mof_H 	H 	0.0557	0.6759	0.6464	0.021
Mof_H 	H 	0.9042	0.22	0.6086	0.065
Mof_H 	H 	0.5532	0.3582	0.1748	0.079
Mof_H 	H 	0.5588	0.7792	0.9705	0.074
Mof_H 	H 	0.041	0.822	0.1353	0.064
Mof_H 	H 	0.1566	0.961	0.1759	0.014
Mof_H 	H 	0.5541	0.6295	0.7601	0.02
Mof_H 	H 	0.1744	0.5034	0.6779	0.068
Mof_H 	H 	0.6646	0.4368	0.8214	0.077
Mof_H 	H 	0.8941	0.8797	0.4059	0.066
Mof_H 	H 	0.8919	0.9779	0.2	0.031
Mof_H 	H 	0.2144	0.9186	0.6131	0.064
Mof_H 	H 	0.7679	0.3273	0.5824	0.027
Mof_H 	H 	0.8316	0.4686	0.9372	0.008
Mof_H 	H 	0.0431	0.8257	0.6395	0.065
Mof_H 	H 	0.6738	0.9312	0.6714	0.058
Mof_H 	H 	0.8115	0.4653	0.4321	0.008
Mof_H 	H 	0.9835	0.8827	0.2008	0.032
Mof_H 	H 	0.3241	0.9443	0.8536	0.02
Mof_H 	H 	0.6295	0.5541	0.2601	0.02
Mof_H 	H 	0.3262	0.0688	0.3286	0.058
Mof_H 	H 	0.6793	0.9341	0.1752	0.064
Mof_H 	H 	0.0221	0.1081	0.3	0.031
Mof_H 	H 	0.2208	0.4412	0.5295	0.074
Mof_H 	H 	0.3354	0.5632	0.1786	0.077
Mof_H 	H 	0.3173	0.9483	0.5132	0.017
Mof_H 	H 	0.572	0.2708	0.3718	0.08
Mof_H 	H 	0.6928	0.93	0.5141	0.063
Mof_H 	H 	0.2311	0.6635	0.9115	0.024
Mof_H 	H 	0.6057	0.8053	0.7603	0.006
Mof_H 	H 	0.3072	0.07	0.4859	0.063
Mof_H 	H 	0.9341	0.6793	0.6752	0.063
Mof_H 	H 	0.5029	0.8347	0.3284	0.066
Mof_H 	H 	0.3259	0.9337	0.0044	0.012
Mof_H 	H 	0.0515	0.6675	0.1391	0.025
Mof_H 	H 	0.205	0.4364	0.0273	0.075
Mof_H 	H 	0.93	0.6928	0.0141	0.061
Mof_H 	H 	0.1871	0.3913	0.2354	0.005
Mof_H 	H 	0.3943	0.1947	0.2397	0.006
Mof_H 	H 	0.8344	0.818	0.4968	0.02
Mof_H 	H 	0.457	0.3518	0.7427	0.023
Mof_H 	H 	0.4364	0.205	0.5273	0.075
Mof_H 	H 	0.1653	0.4971	0.1716	0.066
Mof_H 	H 	0.3273	0.7679	0.0824	0.027
Mof_H 	H 	0.7431	0.7181	0.4401	0.015
Mof_H 	H 	0.822	0.041	0.6353	0.064
Mof_H 	H 	0.1885	0.5347	0.5679	0.008
Mof_H 	H 	0.9784	0.1456	0.1772	0.015
Mof_H 	H 	0.6741	0.0663	0.9956	0.012
Mof_H 	H 	0.5314	0.1684	0.5628	0.008
Mof_H 	H 	0.961	0.1566	0.6759	0.014
Mof_H 	H 	0.4966	0.8256	0.8221	0.068
Mof_H 	H 	0.2569	0.2819	0.5599	0.015
Mof_H 	H 	0.9337	0.3259	0.5044	0.015
Mof_H 	H 	0.1456	0.9784	0.6772	0.015
Mof_H 	H 	0.3705	0.4459	0.7399	0.02
Mof_H 	H 	0.7181	0.7431	0.9401	0.015
Mof_H 	H 	0.1059	0.1203	0.5941	0.066
Mof_H 	H 	0.1173	0.0165	0.2992	0.031
Mof_H 	H 	0.9186	0.2144	0.1131	0.064
Mof_H 	H 	0.9485	0.3325	0.8609	0.025
Mof_H 	H 	0.9483	0.3173	0.0132	0.02
Mof_H 	H 	0.2659	0.5839	0.3755	0.079
Mof_H 	H 	0.8053	0.6057	0.2603	0.006
Mof_H 	H 	0.3518	0.457	0.2427	0.023
Mof_H 	H 	0.0814	0.7856	0.8869	0.064
Mof_H 	H 	0.1656	0.182	0.5032	0.02
Mof_H 	H 	0.8129	0.6087	0.7646	0.005
Mof_H 	H 	0.7778	0.8002	0.847	0.065
Mof_H 	H 	0.5839	0.2659	0.8755	0.079
Mof_H 	H 	0.5632	0.3354	0.6786	0.077
Mof_H 	H 	0.7856	0.0814	0.3869	0.064
Mof_H 	H 	0.039	0.8434	0.3241	0.014
Mof_H 	H 	0.8434	0.039	0.8241	0.014
Mof_H 	H 	0.2321	0.6727	0.4176	0.027
Mof_H 	H 	0.1998	0.2222	0.653	0.065
Mof_H 	H 	0.6759	0.0557	0.1464	0.02
Mof_H 	H 	0.6635	0.2311	0.4115	0.024
Mof_H 	H 	0.7792	0.5588	0.4705	0.074
Mof_H 	H 	0.3222	0.0548	0.98	0.069
Mof_H 	H 	0.4653	0.8115	0.9321	0.008
Mof_H 	H 	0.428	0.7292	0.6282	0.08
Mof_H 	H 	0.0517	0.6827	0.9868	0.02
Mof_H 	H 	0.8257	0.0431	0.1395	0.065
Mof_H 	H 	0.543	0.6482	0.2573	0.023
Mof_H 	H 	0.2222	0.1998	0.153	0.065
Mof_H 	H 	0.4368	0.6646	0.3214	0.077
Mof_H 	H 	0.1081	0.0221	0.8	0.031
Mof_H 	H 	0.9443	0.3241	0.3536	0.021
Mof_H 	H 	0.4686	0.8316	0.4372	0.008
Mof_H 	H 	0.6482	0.543	0.7573	0.023
Mof_H 	H 	0.8256	0.4966	0.3221	0.068
Mof_H 	H 	0.7341	0.4161	0.6245	0.079
Mof_H 	H 	0.8002	0.7778	0.347	0.065
Mof_H 	H 	0.78	0.0958	0.8914	0.065
Mof_H 	H 	0.5347	0.1885	0.0679	0.008
Mof_H 	H 	0.0688	0.3262	0.8286	0.057
Mof_H 	H 	0.9452	0.6778	0.52	0.067
Mof_H 	H 	0.7292	0.428	0.1282	0.081
Mof_H 	H 	0.818	0.8344	0.9968	0.02
Mof_H 	H 	0.0548	0.3222	0.48	0.067
Mof_H 	H 	0.1947	0.3943	0.7397	0.006
Mof_H 	H 	0.9312	0.6738	0.1714	0.057
Mof_H 	H 	0.0958	0.78	0.3914	0.065
Mof_H 	H 	0.2708	0.572	0.8718	0.081
Mof_H 	H 	0.4971	0.1653	0.6716	0.066
Mof_H 	H 	0.6675	0.0515	0.6391	0.024
Mof_H 	H 	0.5034	0.1744	0.1779	0.068
Mof_H 	H 	0.4459	0.3705	0.2399	0.02
Mof_H 	H 	0.8347	0.5029	0.8284	0.066
Mof_H 	H 	0.959	0.178	0.8647	0.064
Mof_H 	H 	0.8797	0.8941	0.9059	0.066
Mof_H 	H 	0.3582	0.5532	0.6748	0.079
Mof_H 	H 	0.178	0.959	0.3647	0.064
Mof_H 	H 	0.795	0.5636	0.9727	0.075
Mof_H 	H 	0.3207	0.0659	0.8248	0.064
Mof_H 	H 	0.1203	0.1059	0.0941	0.066
Mof_H 	H 	0.0216	0.8544	0.8228	0.015
Mof_H 	H 	0.6087	0.8129	0.2646	0.005
Mof_H 	H 	0.9569	0.1743	0.3605	0.065
Mof_H 	H 	0.4468	0.6418	0.8252	0.079
Mof_H 	H 	0.2819	0.2569	0.0599	0.015
Mof_H 	H 	0.07	0.3072	0.9859	0.061
Mof_H 	H 	0.8544	0.0216	0.3228	0.015
Mof_H 	H 	0.182	0.1656	0.0032	0.02
Mof_H 	H 	0.6727	0.2321	0.9176	0.027
Mof_H 	H 	0.3913	0.1871	0.7354	0.005
Mof_H 	H 	0.0659	0.3207	0.3248	0.063
Mof_H 	H 	0.5636	0.795	0.4727	0.075
Mof_H 	H 	0.3365	0.7689	0.5885	0.024
Mof_C 	C 	0.13678	0.15264	0.58824	-0.069
Mof_C 	C 	0.88936	0.87832	0.30521	0.335
Mof_C 	C 	0.24806	0.50256	0.44772	-0.008
Mof_C 	C 	0.03914	0.67612	0.53185	0.041
Mof_C 	C 	0.46029	0.81043	0.47614	0.062
Mof_C 	C 	0.21291	0.19225	0.12316	-0.072
Mof_C 	C 	0.14264	0.935	0.85427	-0.049
Mof_C 	C 	0.32388	0.96086	0.96815	0.046
Mof_C 	C 	0.48893	0.20503	0.6842	-0.067
Mof_C 	C 	0.16425	0.30353	0.88606	0.41
Mof_C 	C 	0.4376	0.74966	0.58908	-0.078
Mof_C 	C 	0.03333	0.32205	0.45372	-0.056
Mof_C 	C 	0.68262	0.0267	0.52401	0.036
Mof_C 	C 	0.78844	0.51778	0.99711	-0.084
Mof_C 	C 	0.60694	0.26034	0.1191	0.31
Mof_C 	C 	0.54376	0.66776	0.7748	0.059
Mof_C 	C 	0.13674	0.857	0.11338	-0.046
Mof_C 	C 	0.75656	0.5065	0.05482	-0.005
Mof_C 	C 	0.21844	0.42578	0.2226	0.038
Mof_C 	C 	0.4315	0.27024	0.42049	0.307
Mof_C 	C 	0.17912	0.82492	0.57634	0.375
Mof_C 	C 	0.81043	0.46029	0.97614	0.061
Mof_C 	C 	0.86528	0.13586	0.11864	-0.046
Mof_C 	C 	0.25034	0.5624	0.91092	-0.079
Mof_C 	C 	0.87559	0.05177	0.33127	0.042
Mof_C 	C 	0.06571	0.85069	0.14228	-0.049
Mof_C 	C 	0.10296	0.97394	0.8174	0.029
Mof_C 	C 	0.54072	0.25152	0.6643	-0.027
Mof_C 	C 	0.31322	0.08426	0.40413	-0.064
Mof_C 	C 	0.224	0.4878	0.50594	-0.079
Mof_C 	C 	0.74848	0.45928	0.8357	-0.027
Mof_C 	C 	0.55739	0.72977	0.07946	0.316
Mof_C 	C 	0.79497	0.51107	0.8158	-0.067
Mof_C 	C 	0.5358	0.68482	0.2732	0.054
Mof_C 	C 	0.66776	0.54376	0.2748	0.059
Mof_C 	C 	0.10079	0.82811	0.3735	-0.06
Mof_C 	C 	0.38285	0.77347	0.56486	0.064
Mof_C 	C 	0.69436	0.47176	0.8116	-0.07
Mof_C 	C 	0.21611	0.49169	0.68821	-0.073
Mof_C 	C 	0.02606	0.89704	0.6826	0.028
Mof_C 	C 	0.32448	0.52128	0.6869	-0.076
Mof_C 	C 	0.61715	0.22653	0.43514	0.064
Mof_C 	C 	0.77347	0.38285	0.06486	0.064
Mof_C 	C 	0.13295	0.93341	0.16704	0.045
Mof_C 	C 	0.75157	0.77329	0.93318	0.054
Mof_C 	C 	0.97394	0.10296	0.3174	0.028
Mof_C 	C 	0.69647	0.83575	0.61394	0.409
Mof_C 	C 	0.72976	0.5685	0.07951	0.307
Mof_C 	C 	0.67729	0.95449	0.63335	-0.045
Mof_C 	C 	0.68004	0.9258	0.10035	-0.045
Mof_C 	C 	0.12441	0.94823	0.66873	0.042
Mof_C 	C 	0.02642	0.67326	0.11372	0.034
Mof_C 	C 	0.18044	0.82456	0.43122	0.366
Mof_C 	C 	0.0267	0.68262	0.02401	0.028
Mof_C 	C 	0.95997	0.67893	0.63834	-0.057
Mof_C 	C 	0.93341	0.13295	0.66704	0.045
Mof_C 	C 	0.23024	0.6257	0.44042	0.061
Mof_C 	C 	0.31738	0.9733	0.47599	0.036
Mof_C 	C 	0.68482	0.5358	0.7732	0.054
Mof_C 	C 	0.46004	0.73302	0.83386	-0.018
Mof_C 	C 	0.84526	0.68582	0.61589	0.383
Mof_C 	C 	0.25048	0.57258	0.41493	-0.076
Mof_C 	C 	0.96086	0.32388	0.46815	0.041
Mof_C 	C 	0.4935	0.24344	0.44518	-0.006
Mof_C 	C 	0.11064	0.12168	0.69479	0.335
Mof_C 	C 	0.20503	0.48893	0.1842	-0.067
Mof_C 	C 	0.30564	0.52824	0.1884	-0.07
Mof_C 	C 	0.79537	0.45535	0.47142	0.061
Mof_C 	C 	0.03142	0.8873	0.18176	0.024
Mof_C 	C 	0.42742	0.74952	0.08507	-0.076
Mof_C 	C 	0.30353	0.16425	0.38606	0.409
Mof_C 	C 	0.96667	0.67795	0.54628	-0.056
Mof_C 	C 	0.24398	0.60778	0.1159	0.347
Mof_C 	C 	0.18957	0.53971	0.02386	0.061
Mof_C 	C 	0.05177	0.87559	0.83127	0.042
Mof_C 	C 	0.9119	0.16658	0.13047	-0.057
Mof_C 	C 	0.51107	0.79497	0.3158	-0.067
Mof_C 	C 	0.67612	0.03914	0.03185	0.046
Mof_C 	C 	0.5122	0.776	0.99406	-0.079
Mof_C 	C 	0.32285	0.96701	0.8794	0.047
Mof_C 	C 	0.5065	0.75656	0.55482	-0.006
Mof_C 	C 	0.17544	0.81956	0.06878	0.366
Mof_C 	C 	0.93429	0.14931	0.85772	-0.049
Mof_C 	C 	0.15474	0.31418	0.38411	0.383
Mof_C 	C 	0.85069	0.06571	0.64228	-0.049
Mof_C 	C 	0.50256	0.24806	0.94772	-0.009
Mof_C 	C 	0.8873	0.03142	0.68176	0.026
Mof_C 	C 	0.18979	0.17299	0.03371	0.047
Mof_C 	C 	0.32271	0.04551	0.36665	-0.045
Mof_C 	C 	0.97358	0.32674	0.88628	0.034
Mof_C 	C 	0.06659	0.86705	0.33296	0.045
Mof_C 	C 	0.68815	0.95369	0.54016	-0.045
Mof_C 	C 	0.82701	0.81021	0.46629	0.047
Mof_C 	C 	0.86326	0.143	0.88662	-0.046
Mof_C 	C 	0.21156	0.48222	0.00289	-0.084
Mof_C 	C 	0.53996	0.26698	0.16614	-0.018
Mof_C 	C 	0.75194	0.49744	0.55228	-0.008
Mof_C 	C 	0.16658	0.9119	0.63047	-0.057
Mof_C 	C 	0.86322	0.84736	0.41176	-0.069
Mof_C 	C 	0.78389	0.50831	0.31179	-0.073
Mof_C 	C 	0.94823	0.12441	0.16873	0.042
Mof_C 	C 	0.26034	0.60694	0.6191	0.31
Mof_C 	C 	0.04003	0.32107	0.36166	-0.057
Mof_C 	C 	0.5624	0.25034	0.41092	-0.078
Mof_C 	C 	0.89921	0.17189	0.6265	-0.06
Mof_C 	C 	0.73302	0.46004	0.33386	-0.018
Mof_C 	C 	0.22653	0.61715	0.93514	0.064
Mof_C 	C 	0.83612	0.8531	0.86629	-0.03
Mof_C 	C 	0.44261	0.27023	0.92054	0.316
Mof_C 	C 	0.32205	0.03333	0.95372	-0.06
Mof_C 	C 	0.60778	0.24398	0.6159	0.347
Mof_C 	C 	0.75602	0.39222	0.8841	0.347
Mof_C 	C 	0.82811	0.10079	0.8735	-0.059
Mof_C 	C 	0.48222	0.21156	0.50289	-0.083
Mof_C 	C 	0.14931	0.93429	0.35772	-0.049
Mof_C 	C 	0.76976	0.3743	0.55958	0.061
Mof_C 	C 	0.72977	0.55739	0.57946	0.316
Mof_C 	C 	0.50831	0.78389	0.81179	-0.073
Mof_C 	C 	0.32674	0.97358	0.38628	0.037
Mof_C 	C 	0.31996	0.0742	0.89965	-0.045
Mof_C 	C 	0.22671	0.24843	0.56682	0.054
Mof_C 	C 	0.13472	0.86414	0.88136	-0.046
Mof_C 	C 	0.91574	0.68678	0.09587	-0.067
Mof_C 	C 	0.73966	0.39306	0.3809	0.31
Mof_C 	C 	0.31418	0.15474	0.88411	0.382
Mof_C 	C 	0.96701	0.32285	0.3794	0.045
Mof_C 	C 	0.86705	0.06659	0.83296	0.045
Mof_C 	C 	0.065	0.85736	0.64573	-0.049
Mof_C 	C 	0.68582	0.84526	0.11589	0.382
Mof_C 	C 	0.24344	0.4935	0.94518	-0.005
Mof_C 	C 	0.4642	0.31518	0.7268	0.054
Mof_C 	C 	0.1127	0.96858	0.31824	0.026
Mof_C 	C 	0.26698	0.53996	0.66614	-0.018
Mof_C 	C 	0.6257	0.23024	0.94042	0.061
Mof_C 	C 	0.776	0.5122	0.49406	-0.079
Mof_C 	C 	0.08426	0.31322	0.90413	-0.067
Mof_C 	C 	0.16388	0.1469	0.13371	-0.03
Mof_C 	C 	0.67715	0.03299	0.1206	0.047
Mof_C 	C 	0.57422	0.78156	0.2774	0.038
Mof_C 	C 	0.49169	0.21611	0.18821	-0.073
Mof_C 	C 	0.81021	0.82701	0.96629	0.047
Mof_C 	C 	0.49744	0.75194	0.05228	-0.009
Mof_C 	C 	0.143	0.86326	0.38662	-0.045
Mof_C 	C 	0.39222	0.75602	0.3841	0.347
Mof_C 	C 	0.67893	0.95997	0.13834	-0.059
Mof_C 	C 	0.47176	0.69436	0.3116	-0.07
Mof_C 	C 	0.83342	0.0881	0.36953	-0.057
Mof_C 	C 	0.31185	0.04631	0.45984	-0.045
Mof_C 	C 	0.42634	0.2287	0.22559	0.043
Mof_C 	C 	0.17299	0.18979	0.53371	0.047
Mof_C 	C 	0.04631	0.31185	0.95984	-0.039
Mof_C 	C 	0.15264	0.13678	0.08824	-0.069
Mof_C 	C 	0.857	0.13674	0.61338	-0.045
Mof_C 	C 	0.13586	0.86528	0.61864	-0.047
Mof_C 	C 	0.39306	0.73966	0.8809	0.31
Mof_C 	C 	0.12168	0.11064	0.19479	0.335
Mof_C 	C 	0.78709	0.80775	0.87684	-0.072
Mof_C 	C 	0.2287	0.42634	0.72559	0.043
Mof_C 	C 	0.67326	0.02642	0.61372	0.037
Mof_C 	C 	0.54465	0.20463	0.02858	0.061
Mof_C 	C 	0.25152	0.54072	0.1643	-0.027
Mof_C 	C 	0.0881	0.83342	0.86953	-0.057
Mof_C 	C 	0.19225	0.21291	0.62316	-0.072
Mof_C 	C 	0.67552	0.47872	0.3131	-0.076
Mof_C 	C 	0.84736	0.86322	0.91176	-0.069
Mof_C 	C 	0.82456	0.18044	0.93122	0.366
Mof_C 	C 	0.45535	0.79537	0.97142	0.061
Mof_C 	C 	0.74966	0.4376	0.08908	-0.079
Mof_C 	C 	0.5685	0.72976	0.57951	0.307
Mof_C 	C 	0.89704	0.02606	0.1826	0.029
Mof_C 	C 	0.27024	0.4315	0.92049	0.307
Mof_C 	C 	0.47872	0.67552	0.8131	-0.076
Mof_C 	C 	0.20463	0.54465	0.52858	0.061
Mof_C 	C 	0.3743	0.76976	0.05958	0.061
Mof_C 	C 	0.53971	0.18957	0.52386	0.062
Mof_C 	C 	0.935	0.14264	0.35427	-0.049
Mof_C 	C 	0.95449	0.67729	0.13335	-0.041
Mof_C 	C 	0.4878	0.224	0.00594	-0.079
Mof_C 	C 	0.04551	0.32271	0.86665	-0.041
Mof_C 	C 	0.96858	0.1127	0.81824	0.024
Mof_C 	C 	0.52128	0.32448	0.1869	-0.076
Mof_C 	C 	0.31518	0.4642	0.2268	0.054
Mof_C 	C 	0.80775	0.78709	0.37684	-0.072
Mof_C 	C 	0.51778	0.78844	0.49711	-0.083
Mof_C 	C 	0.82088	0.17508	0.42366	0.375
Mof_C 	C 	0.85736	0.065	0.14573	-0.049
Mof_C 	C 	0.24843	0.22671	0.06682	0.054
Mof_C 	C 	0.83575	0.69647	0.11394	0.41
Mof_C 	C 	0.86414	0.13472	0.38136	-0.047
Mof_C 	C 	0.33224	0.45624	0.7252	0.059
Mof_C 	C 	0.17508	0.82088	0.92366	0.375
Mof_C 	C 	0.17189	0.89921	0.1265	-0.059
Mof_C 	C 	0.8531	0.83612	0.36629	-0.03
Mof_C 	C 	0.45928	0.74848	0.3357	-0.027
Mof_C 	C 	0.87832	0.88936	0.80521	0.335
Mof_C 	C 	0.82492	0.17912	0.07634	0.375
Mof_C 	C 	0.42578	0.21844	0.7226	0.038
Mof_C 	C 	0.78156	0.57422	0.7774	0.038
Mof_C 	C 	0.0742	0.31996	0.39965	-0.047
Mof_C 	C 	0.81956	0.17544	0.56878	0.366
Mof_C 	C 	0.57258	0.25048	0.91493	-0.076
Mof_C 	C 	0.68678	0.91574	0.59587	-0.064
Mof_C 	C 	0.57366	0.7713	0.77441	0.043
Mof_C 	C 	0.9258	0.68004	0.60035	-0.047
Mof_C 	C 	0.95369	0.68815	0.04016	-0.039
Mof_C 	C 	0.52824	0.30564	0.6884	-0.07
Mof_C 	C 	0.67795	0.96667	0.04628	-0.06
Mof_C 	C 	0.45624	0.33224	0.2252	0.059
Mof_C 	C 	0.32107	0.04003	0.86166	-0.059
Mof_C 	C 	0.1469	0.16388	0.63371	-0.03
Mof_C 	C 	0.74952	0.42742	0.58507	-0.076
Mof_C 	C 	0.03299	0.67715	0.6206	0.045
Mof_C 	C 	0.77329	0.75157	0.43318	0.054
Mof_C 	C 	0.9733	0.31738	0.97599	0.028
Mof_C 	C 	0.27023	0.44261	0.42054	0.316
Mof_C 	C 	0.7713	0.57366	0.27441	0.043
Mof_N 	N 	0.5893	0.7252	0.25693	-0.221
Mof_N 	N 	0.7815	0.7633	0.47703	-0.203
Mof_N 	N 	0.9447	0.0578	0.30607	-0.212
Mof_N 	N 	0.7633	0.7815	0.97703	-0.203
Mof_N 	N 	0.06339	0.67715	0.05947	-0.208
Mof_N 	N 	0.2185	0.2367	0.52297	-0.203
Mof_N 	N 	0.4066	0.28734	0.24268	-0.22
Mof_N 	N 	0.79211	0.38795	0.50271	-0.211
Mof_N 	N 	0.0578	0.9447	0.80607	-0.212
Mof_N 	N 	0.67714	0.07244	0.06795	-0.211
Mof_N 	N 	0.61205	0.20789	0.99729	-0.211
Mof_N 	N 	0.07244	0.67714	0.56795	-0.21
Mof_N 	N 	0.6064	0.19708	0.49133	-0.213
Mof_N 	N 	0.92916	0.0644	0.69375	-0.213
Mof_N 	N 	0.20789	0.61205	0.49729	-0.211
Mof_N 	N 	0.93661	0.32285	0.94053	-0.208
Mof_N 	N 	0.71266	0.5934	0.25732	-0.22
Mof_N 	N 	0.4107	0.2748	0.74307	-0.221
Mof_N 	N 	0.38795	0.79211	0.00271	-0.211
Mof_N 	N 	0.0644	0.92916	0.19375	-0.213
Mof_N 	N 	0.19708	0.6064	0.99133	-0.212
Mof_N 	N 	0.28734	0.4066	0.74268	-0.22
Mof_N 	N 	0.0553	0.9422	0.69393	-0.212
Mof_N 	N 	0.2748	0.4107	0.24307	-0.221
Mof_N 	N 	0.9356	0.07084	0.80625	-0.213
Mof_N 	N 	0.7252	0.5893	0.75693	-0.221
Mof_N 	N 	0.32285	0.93661	0.44053	-0.21
Mof_N 	N 	0.92756	0.32286	0.43205	-0.21
Mof_N 	N 	0.9422	0.0553	0.19393	-0.212
Mof_N 	N 	0.5934	0.71266	0.75732	-0.22
Mof_N 	N 	0.67715	0.06339	0.55947	-0.21
Mof_N 	N 	0.07084	0.9356	0.30625	-0.213
Mof_N 	N 	0.3936	0.80292	0.50867	-0.213
Mof_N 	N 	0.2367	0.2185	0.02297	-0.203
Mof_N 	N 	0.32286	0.92756	0.93205	-0.211
Mof_N 	N 	0.80292	0.3936	0.00867	-0.212
Mof_O 	O 	0.70642	0.5415	0.63237	-0.244
Mof_O 	O 	0.37462	0.79862	0.8907	-0.39
Mof_O 	O 	0.08147	0.06651	0.20072	-0.417
Mof_O 	O 	0.3155	0.6379	0.5917	-0.245
Mof_O 	O 	0.70043	0.55321	0.13269	-0.24
Mof_O 	O 	0.61858	0.73732	0.04532	-0.382
Mof_O 	O 	0.68386	0.82186	0.07855	-0.43
Mof_O 	O 	0.6379	0.3155	0.0917	-0.245
Mof_O 	O 	0.37911	0.81101	0.39743	-0.406
Mof_O 	O 	0.85088	0.2216	0.42627	-0.422
Mof_O 	O 	0.28739	0.19149	0.42486	-0.452
Mof_O 	O 	0.29485	0.64285	0.0945	-0.266
Mof_O 	O 	0.23999	0.84289	0.5484	-0.43
Mof_O 	O 	0.87186	0.8704	0.26712	-0.276
Mof_O 	O 	0.62538	0.20138	0.1093	-0.39
Mof_O 	O 	0.68905	0.80451	0.66482	-0.451
Mof_O 	O 	0.33823	0.32775	0.84596	-0.371
Mof_O 	O 	0.30884	0.18914	0.83569	-0.443
Mof_O 	O 	0.80451	0.68905	0.16482	-0.452
Mof_O 	O 	0.26268	0.38142	0.45468	-0.382
Mof_O 	O 	0.31095	0.19549	0.33518	-0.451
Mof_O 	O 	0.83807	0.23609	0.53861	-0.424
Mof_O 	O 	0.2216	0.85088	0.92627	-0.422
Mof_O 	O 	0.16193	0.76391	0.46139	-0.424
Mof_O 	O 	0.91853	0.93349	0.79928	-0.417
Mof_O 	O 	0.55321	0.70043	0.63269	-0.24
Mof_O 	O 	0.76391	0.16193	0.96139	-0.424
Mof_O 	O 	0.17814	0.31614	0.42145	-0.43
Mof_O 	O 	0.70515	0.35715	0.9055	-0.266
Mof_O 	O 	0.44679	0.29957	0.36731	-0.24
Mof_O 	O 	0.26241	0.37075	0.95465	-0.379
Mof_O 	O 	0.67225	0.66177	0.65404	-0.371
Mof_O 	O 	0.64285	0.29485	0.5945	-0.265
Mof_O 	O 	0.5415	0.70642	0.13237	-0.244
Mof_O 	O 	0.38142	0.26268	0.95468	-0.382
Mof_O 	O 	0.12814	0.1296	0.73288	-0.276
Mof_O 	O 	0.77464	0.1433	0.56559	-0.415
Mof_O 	O 	0.3621	0.6845	0.9083	-0.245
Mof_O 	O 	0.35715	0.70515	0.4055	-0.265
Mof_O 	O 	0.29358	0.4585	0.36763	-0.244
Mof_O 	O 	0.79862	0.37462	0.3907	-0.39
Mof_O 	O 	0.4585	0.29358	0.86763	-0.244
Mof_O 	O 	0.82186	0.68386	0.57855	-0.43
Mof_O 	O 	0.71261	0.80851	0.57514	-0.452
Mof_O 	O 	0.29957	0.44679	0.86731	-0.24
Mof_O 	O 	0.62089	0.18899	0.60257	-0.406
Mof_O 	O 	0.28078	0.71124	0.99711	-0.376
Mof_O 	O 	0.71124	0.28078	0.49711	-0.376
Mof_O 	O 	0.62925	0.73759	0.54535	-0.379
Mof_O 	O 	0.71922	0.28876	0.00289	-0.376
Mof_O 	O 	0.37075	0.26241	0.45465	-0.379
Mof_O 	O 	0.81101	0.37911	0.89743	-0.406
Mof_O 	O 	0.73732	0.61858	0.54532	-0.382
Mof_O 	O 	0.93349	0.91853	0.29928	-0.417
Mof_O 	O 	0.76001	0.15711	0.4516	-0.43
Mof_O 	O 	0.7784	0.14912	0.07373	-0.422
Mof_O 	O 	0.28876	0.71922	0.50289	-0.376
Mof_O 	O 	0.73759	0.62925	0.04535	-0.379
Mof_O 	O 	0.66177	0.67225	0.15404	-0.371
Mof_O 	O 	0.81086	0.69116	0.66431	-0.443
Mof_O 	O 	0.19549	0.31095	0.83518	-0.452
Mof_O 	O 	0.1296	0.12814	0.23288	-0.276
Mof_O 	O 	0.32775	0.33823	0.34596	-0.371
Mof_O 	O 	0.14912	0.7784	0.57373	-0.422
Mof_O 	O 	0.18899	0.62089	0.10257	-0.406
Mof_O 	O 	0.20138	0.62538	0.6093	-0.39
Mof_O 	O 	0.31614	0.17814	0.92145	-0.43
Mof_O 	O 	0.19149	0.28739	0.92486	-0.452
Mof_O 	O 	0.6845	0.3621	0.4083	-0.245
Mof_O 	O 	0.15711	0.76001	0.9516	-0.429
Mof_O 	O 	0.22536	0.8567	0.43441	-0.415
Mof_O 	O 	0.8704	0.87186	0.76712	-0.276
Mof_O 	O 	0.1433	0.77464	0.06559	-0.415
Mof_O 	O 	0.8567	0.22536	0.93441	-0.415
Mof_O 	O 	0.23609	0.83807	0.03861	-0.424
Mof_O 	O 	0.80851	0.71261	0.07514	-0.452
Mof_O 	O 	0.06651	0.08147	0.70072	-0.417
Mof_O 	O 	0.69116	0.81086	0.16431	-0.443
Mof_O 	O 	0.18914	0.30884	0.33569	-0.443
Mof_O 	O 	0.84289	0.23999	0.0484	-0.429
_end
