# CIF file generated by openbabel 3.1.0, see https://openbabel.org
data_I
_chemical_name_common 'HEWFUL_ion_b'
_cell_length_a 16.6939
_cell_length_b 16.6939
_cell_length_c 16.6939
_cell_angle_alpha 117.061
_cell_angle_beta 117.061
_cell_angle_gamma 117.061
_space_group_name_H-M_alt 'P 1'
_space_group_name_Hall 'P 1'
loop_
    _symmetry_equiv_pos_as_xyz
    x,y,z
loop_
    _atom_site_label
    _atom_site_type_symbol
    _atom_site_fract_x
    _atom_site_fract_y
    _atom_site_fract_z
    _atom_site_occupancy
    C1       C        0.14270    0.03970    0.33560    1.000
    H2       H        0.23950    0.09970    0.37920    1.000
    H3       H        0.08170    0.02710    0.26580    1.000
    C4       C        0.30510    0.30200    0.57810    1.000
    H5       H        0.27610    0.30150    0.51250    1.000
    H6       H        0.41590    0.37160    0.65720    1.000
    C7       C        0.29620    0.36920    0.66680    1.000
    C8       C        0.82900    0.73070    0.11440    1.000
    H9       H        0.78420    0.73080    0.05200    1.000
    H10      H        0.75150    0.61800    0.03850    1.000
    C11      C        0.69540    0.71340    0.14740    1.000
    H12      H        0.63190    0.61470    0.10110    1.000
    H13      H        0.63240    0.68170    0.05880    1.000
    C14      C        0.72710    0.81800    0.26580    1.000
    N15      N        0.19100    0.13200    0.47070    1.000
    H16      H        0.24630    0.14020    0.53260    1.000
    N17      N        0.84960    0.80230    0.22950    1.000
    H18      H        0.88240    0.79080    0.27810    1.000
    O19      O        0.09980    0.86530    0.33600    1.000
    O20      O        0.98600    0.75900    0.09140    1.000
    O22      O        0.17570    0.26650    0.61400    1.000
    O23      O        0.40150    0.51540    0.78040    1.000
    O24      O        0.87190    0.97020    0.40200    1.000
    O25      O        0.61100    0.75140    0.22230    1.000
    P26      P        0.01822    0.84022    0.21646    1.000
    K27      K        0.38354    0.07168    0.63008    1.000
    Cu28     Cu       0.01216    0.03959    0.41213    1.000
    C31      C        0.33560    0.14270    0.03970    1.000
    H32      H        0.37920    0.23950    0.09970    1.000
    H33      H        0.26580    0.08170    0.02710    1.000
    C34      C        0.57810    0.30510    0.30200    1.000
    H35      H        0.51250    0.27610    0.30150    1.000
    H36      H        0.65720    0.41590    0.37160    1.000
    C37      C        0.66680    0.29620    0.36920    1.000
    C38      C        0.11440    0.82900    0.73070    1.000
    H39      H        0.05200    0.78420    0.73080    1.000
    H40      H        0.03850    0.75150    0.61800    1.000
    C41      C        0.14740    0.69540    0.71340    1.000
    H42      H        0.10110    0.63190    0.61470    1.000
    H43      H        0.05880    0.63240    0.68170    1.000
    C44      C        0.26580    0.72710    0.81800    1.000
    N45      N        0.47070    0.19100    0.13200    1.000
    H46      H        0.53260    0.24630    0.14020    1.000
    N47      N        0.22950    0.84960    0.80230    1.000
    H48      H        0.27810    0.88240    0.79080    1.000
    O49      O        0.33600    0.09980    0.86530    1.000
    O50      O        0.09140    0.98600    0.75900    1.000
    O52      O        0.61400    0.17570    0.26650    1.000
    O53      O        0.78040    0.40150    0.51540    1.000
    O54      O        0.40200    0.87190    0.97020    1.000
    O55      O        0.22230    0.61100    0.75140    1.000
    P56      P        0.21646    0.01822    0.84022    1.000
    K57      K        0.63008    0.38354    0.07168    1.000
    Cu58     Cu       0.41213    0.01216    0.03959    1.000
    C61      C        0.03970    0.33560    0.14270    1.000
    H62      H        0.09970    0.37920    0.23950    1.000
    H63      H        0.02710    0.26580    0.08170    1.000
    C64      C        0.30200    0.57810    0.30510    1.000
    H65      H        0.30150    0.51250    0.27610    1.000
    H66      H        0.37160    0.65720    0.41590    1.000
    C67      C        0.36920    0.66680    0.29620    1.000
    C68      C        0.73070    0.11440    0.82900    1.000
    H69      H        0.73080    0.05200    0.78420    1.000
    H70      H        0.61800    0.03850    0.75150    1.000
    C71      C        0.71340    0.14740    0.69540    1.000
    H72      H        0.61470    0.10110    0.63190    1.000
    H73      H        0.68170    0.05880    0.63240    1.000
    C74      C        0.81800    0.26580    0.72710    1.000
    N75      N        0.13200    0.47070    0.19100    1.000
    H76      H        0.14020    0.53260    0.24630    1.000
    N77      N        0.80230    0.22950    0.84960    1.000
    H78      H        0.79080    0.27810    0.88240    1.000
    O79      O        0.86530    0.33600    0.09980    1.000
    O80      O        0.75900    0.09140    0.98600    1.000
    O82      O        0.26650    0.61400    0.17570    1.000
    O83      O        0.51540    0.78040    0.40150    1.000
    O84      O        0.97020    0.40200    0.87190    1.000
    O85      O        0.75140    0.22230    0.61100    1.000
    P86      P        0.84022    0.21646    0.01822    1.000
    K87      K        0.07168    0.63008    0.38354    1.000
    Cu88     Cu       0.03959    0.41213    0.01216    1.000
    C91      C        0.85730    0.96030    0.66440    1.000
    H92      H        0.76050    0.90030    0.62080    1.000
    H93      H        0.91830    0.97290    0.73420    1.000
    C94      C        0.69490    0.69800    0.42190    1.000
    H95      H        0.72390    0.69850    0.48750    1.000
    H96      H        0.58410    0.62840    0.34280    1.000
    C97      C        0.70380    0.63080    0.33320    1.000
    C98      C        0.17100    0.26930    0.88560    1.000
    H99      H        0.21580    0.26920    0.94800    1.000
    H100     H        0.24850    0.38200    0.96150    1.000
    C101     C        0.30460    0.28660    0.85260    1.000
    H102     H        0.36810    0.38530    0.89890    1.000
    H103     H        0.36760    0.31830    0.94120    1.000
    C104     C        0.27290    0.18200    0.73420    1.000
    N105     N        0.80900    0.86800    0.52930    1.000
    H106     H        0.75370    0.85980    0.46740    1.000
    N107     N        0.15040    0.19770    0.77050    1.000
    H108     H        0.11760    0.20920    0.72190    1.000
    O109     O        0.90020    0.13470    0.66400    1.000
    O110     O        0.01400    0.24100    0.90860    1.000
    O112     O        0.82430    0.73350    0.38600    1.000
    O113     O        0.59850    0.48460    0.21960    1.000
    O114     O        0.12810    0.02980    0.59800    1.000
    O115     O        0.38900    0.24860    0.77770    1.000
    P116     P        0.98178    0.15978    0.78354    1.000
    K117     K        0.61646    0.92832    0.36992    1.000
    Cu118    Cu       0.98784    0.96041    0.58787    1.000
    C121     C        0.66440    0.85730    0.96030    1.000
    H122     H        0.62080    0.76050    0.90030    1.000
    H123     H        0.73420    0.91830    0.97290    1.000
    C124     C        0.42190    0.69490    0.69800    1.000
    H125     H        0.48750    0.72390    0.69850    1.000
    H126     H        0.34280    0.58410    0.62840    1.000
    C127     C        0.33320    0.70380    0.63080    1.000
    C128     C        0.88560    0.17100    0.26930    1.000
    H129     H        0.94800    0.21580    0.26920    1.000
    H130     H        0.96150    0.24850    0.38200    1.000
    C131     C        0.85260    0.30460    0.28660    1.000
    H132     H        0.89890    0.36810    0.38530    1.000
    H133     H        0.94120    0.36760    0.31830    1.000
    C134     C        0.73420    0.27290    0.18200    1.000
    N135     N        0.52930    0.80900    0.86800    1.000
    H136     H        0.46740    0.75370    0.85980    1.000
    N137     N        0.77050    0.15040    0.19770    1.000
    H138     H        0.72190    0.11760    0.20920    1.000
    O139     O        0.66400    0.90020    0.13470    1.000
    O140     O        0.90860    0.01400    0.24100    1.000
    O142     O        0.38600    0.82430    0.73350    1.000
    O143     O        0.21960    0.59850    0.48460    1.000
    O144     O        0.59800    0.12810    0.02980    1.000
    O145     O        0.77770    0.38900    0.24860    1.000
    P146     P        0.78354    0.98178    0.15978    1.000
    K147     K        0.36992    0.61646    0.92832    1.000
    Cu148    Cu       0.58787    0.98784    0.96041    1.000
    C151     C        0.96030    0.66440    0.85730    1.000
    H152     H        0.90030    0.62080    0.76050    1.000
    H153     H        0.97290    0.73420    0.91830    1.000
    C154     C        0.69800    0.42190    0.69490    1.000
    H155     H        0.69850    0.48750    0.72390    1.000
    H156     H        0.62840    0.34280    0.58410    1.000
    C157     C        0.63080    0.33320    0.70380    1.000
    C158     C        0.26930    0.88560    0.17100    1.000
    H159     H        0.26920    0.94800    0.21580    1.000
    H160     H        0.38200    0.96150    0.24850    1.000
    C161     C        0.28660    0.85260    0.30460    1.000
    H162     H        0.38530    0.89890    0.36810    1.000
    H163     H        0.31830    0.94120    0.36760    1.000
    C164     C        0.18200    0.73420    0.27290    1.000
    N165     N        0.86800    0.52930    0.80900    1.000
    H166     H        0.85980    0.46740    0.75370    1.000
    N167     N        0.19770    0.77050    0.15040    1.000
    H168     H        0.20920    0.72190    0.11760    1.000
    O169     O        0.13470    0.66400    0.90020    1.000
    O170     O        0.24100    0.90860    0.01400    1.000
    O172     O        0.73350    0.38600    0.82430    1.000
    O173     O        0.48460    0.21960    0.59850    1.000
    O174     O        0.02980    0.59800    0.12810    1.000
    O175     O        0.24860    0.77770    0.38900    1.000
    P176     P        0.15978    0.78354    0.98178    1.000
    K177     K        0.92832    0.36992    0.61646    1.000
    Cu178    Cu       0.96041    0.58787    0.98784    1.000
