# CIF file generated by openbabel 3.1.0, see https://openbabel.org
data_I
_chemical_name_common 'image0'
_cell_length_a 14.649
_cell_length_b 13.47
_cell_length_c 24.399
_cell_angle_alpha 90
_cell_angle_beta 106.607
_cell_angle_gamma 90
_space_group_name_H-M_alt 'P 1'
_space_group_name_Hall 'P 1'
loop_
    _symmetry_equiv_pos_as_xyz
    x,y,z
loop_
    _atom_site_label
    _atom_site_type_symbol
    _atom_site_fract_x
    _atom_site_fract_y
    _atom_site_fract_z
    _atom_site_occupancy
    C1       C        0.33800    0.96430    0.35446    1.000
    H1       H        0.30060    0.92540    0.37110    1.000
    C2       C        0.32050    0.98740    0.29869    1.000
    H2       H        0.26770    0.96610    0.26990    1.000
    C3       C        0.45059    0.05950    0.34173    1.000
    H3       H        0.50540    0.09820    0.34940    1.000
    C4       C        0.46396    0.00780    0.44241    1.000
    C5       C        0.51220    0.92340    0.46587    1.000
    H4       H        0.51930    0.87190    0.44200    1.000
    C6       C        0.44940    0.08610    0.47524    1.000
    C7       C        0.39310    0.17610    0.45058    1.000
    H5       H        0.40930    0.19630    0.41680    1.000
    H6       H        0.40760    0.22890    0.47820    1.000
    H7       H        0.32640    0.16110    0.44090    1.000
    C8       C        0.29926    0.96110    0.15311    1.000
    H8       H        0.35590    0.92880    0.17130    1.000
    C9       C        0.23350    0.92680    0.10641    1.000
    H9       H        0.23590    0.86830    0.08670    1.000
    C10      C        0.18762    0.06800    0.13366    1.000
    H10      H        0.15060    0.12350    0.13510    1.000
    C11      C        0.07952    0.99900    0.04500    1.000
    C12      C        0.07180    0.07310    0.00508    1.000
    C13      C        0.14630    0.15120    0.00862    1.000
    H11      H        0.14360    0.19910    0.03720    1.000
    H12      H        0.13480    0.18360    0.97220    1.000
    H13      H        0.20810    0.12080    0.01870    1.000
    C14      C        0.01110    0.92810    0.04069    1.000
    H14      H        0.02000    0.87970    0.06890    1.000
    C15      C        0.53515    0.05980    0.20479    1.000
    H15      H        0.54380    0.01630    0.23540    1.000
    C16      C        0.55780    0.13820    0.13252    1.000
    H16      H        0.58340    0.16010    0.10390    1.000
    C17      C        0.47890    0.17210    0.14327    1.000
    H17      H        0.43980    0.22190    0.12270    1.000
    C18      C        0.74960    0.01700    0.23009    1.000
    H18      H        0.73710    0.05270    0.25980    1.000
    C19      C        0.68104    0.01130    0.17805    1.000
    C20      C        0.69354    0.95750    0.13241    1.000
    C21      C        0.78154    0.91190    0.14115    1.000
    H19      H        0.79360    0.87550    0.11160    1.000
    C22      C        0.85123    0.91920    0.19248    1.000
    C23      C        0.83720    0.97000    0.23882    1.000
    C24      C        0.91250    0.97590    0.29574    1.000
    H20      H        0.92800    0.91010    0.31070    1.000
    H21      H        0.88890    0.01420    0.32190    1.000
    H22      H        0.96860    0.00700    0.29080    1.000
    C25      C        0.61760    0.94470    0.07591    1.000
    H23      H        0.55630    0.93920    0.08260    1.000
    H24      H        0.63020    0.88570    0.05730    1.000
    H25      H        0.61800    0.00120    0.05200    1.000
    C26      C        0.96934    0.78380    0.22111    1.000
    H26      H        0.92930    0.73990    0.23250    1.000
    C27      C        0.01910    0.91480    0.18734    1.000
    H27      H        0.02230    0.97700    0.17150    1.000
    C28      C        0.09030    0.84770    0.20411    1.000
    H28      H        0.15180    0.85640    0.20130    1.000
    N1       N        0.05894    0.76547    0.22567    1.000
    N2       N        0.94199    0.87281    0.19832    1.000
    N3       N        0.59377    0.06539    0.17167    1.000
    N4       N        0.46429    0.12272    0.18907    1.000
    N5       N        0.39178    0.04695    0.29037    1.000
    N6       N        0.42240    0.01022    0.38168    1.000
    N7       N        0.27109    0.04970    0.16999    1.000
    N8       N        0.16259    0.99606    0.09409    1.000
    Ni1      Ni       0.35576    0.15309    0.22604    1.000
    C29      C        0.16200    0.46430    0.14554    1.000
    H29      H        0.19940    0.42540    0.12890    1.000
    C30      C        0.17950    0.48740    0.20131    1.000
    H30      H        0.23230    0.46610    0.23010    1.000
    C31      C        0.04941    0.55950    0.15827    1.000
    H31      H        0.99460    0.59820    0.15060    1.000
    C32      C        0.03604    0.50780    0.05759    1.000
    C33      C        0.98780    0.42340    0.03413    1.000
    H32      H        0.98070    0.37190    0.05800    1.000
    C34      C        0.05060    0.58610    0.02476    1.000
    C35      C        0.10690    0.67610    0.04942    1.000
    H33      H        0.09070    0.69630    0.08320    1.000
    H34      H        0.09240    0.72890    0.02180    1.000
    H35      H        0.17360    0.66110    0.05910    1.000
    C36      C        0.20074    0.46110    0.34689    1.000
    H36      H        0.14410    0.42880    0.32870    1.000
    C37      C        0.26650    0.42680    0.39359    1.000
    H37      H        0.26410    0.36830    0.41330    1.000
    C38      C        0.31238    0.56800    0.36634    1.000
    H38      H        0.34940    0.62350    0.36490    1.000
    C39      C        0.42048    0.49900    0.45500    1.000
    C40      C        0.42820    0.57310    0.49492    1.000
    C41      C        0.35370    0.65120    0.49138    1.000
    H39      H        0.35640    0.69910    0.46280    1.000
    H40      H        0.36520    0.68360    0.52780    1.000
    H41      H        0.29190    0.62080    0.48130    1.000
    C42      C        0.48890    0.42810    0.45931    1.000
    H42      H        0.48000    0.37970    0.43110    1.000
    C43      C        0.96485    0.55980    0.29521    1.000
    H43      H        0.95620    0.51630    0.26460    1.000
    C44      C        0.94220    0.63820    0.36748    1.000
    H44      H        0.91660    0.66010    0.39610    1.000
    C45      C        0.02110    0.67210    0.35673    1.000
    H45      H        0.06020    0.72190    0.37730    1.000
    C46      C        0.75040    0.51700    0.26991    1.000
    H46      H        0.76290    0.55270    0.24020    1.000
    C47      C        0.81896    0.51130    0.32195    1.000
    C48      C        0.80646    0.45750    0.36759    1.000
    C49      C        0.71846    0.41190    0.35885    1.000
    H47      H        0.70640    0.37550    0.38840    1.000
    C50      C        0.64877    0.41920    0.30752    1.000
    C51      C        0.66280    0.47000    0.26118    1.000
    C52      C        0.58750    0.47590    0.20426    1.000
    H48      H        0.57200    0.41010    0.18930    1.000
    H49      H        0.61110    0.51420    0.17810    1.000
    H50      H        0.53140    0.50700    0.20920    1.000
    C53      C        0.88240    0.44470    0.42409    1.000
    H51      H        0.94370    0.43920    0.41740    1.000
    H52      H        0.86980    0.38570    0.44270    1.000
    H53      H        0.88200    0.50120    0.44800    1.000
    C54      C        0.53066    0.28380    0.27889    1.000
    H54      H        0.57070    0.23990    0.26750    1.000
    C55      C        0.48090    0.41480    0.31266    1.000
    H55      H        0.47770    0.47700    0.32850    1.000
    C56      C        0.40970    0.34770    0.29589    1.000
    H56      H        0.34820    0.35640    0.29870    1.000
    N9       N        0.44106    0.26547    0.27433    1.000
    N10      N        0.55801    0.37281    0.30168    1.000
    N11      N        0.90623    0.56539    0.32833    1.000
    N12      N        0.03571    0.62272    0.31093    1.000
    N13      N        0.10822    0.54695    0.20963    1.000
    N14      N        0.07760    0.51022    0.11832    1.000
    N15      N        0.22891    0.54970    0.33001    1.000
    N16      N        0.33741    0.49606    0.40591    1.000
    Ni2      Ni       0.14424    0.65309    0.27395    1.000
    C57      C        0.66200    0.03570    0.64554    1.000
    H57      H        0.69940    0.07460    0.62890    1.000
    C58      C        0.67950    0.01260    0.70131    1.000
    H58      H        0.73230    0.03390    0.73010    1.000
    C59      C        0.54941    0.94050    0.65827    1.000
    H59      H        0.49460    0.90180    0.65060    1.000
    C60      C        0.53604    0.99220    0.55759    1.000
    C61      C        0.48780    0.07660    0.53413    1.000
    H60      H        0.48070    0.12810    0.55800    1.000
    C62      C        0.55060    0.91390    0.52476    1.000
    C63      C        0.60690    0.82390    0.54942    1.000
    H61      H        0.59070    0.80370    0.58320    1.000
    H62      H        0.59240    0.77110    0.52180    1.000
    H63      H        0.67360    0.83890    0.55910    1.000
    C64      C        0.70074    0.03890    0.84689    1.000
    H64      H        0.64410    0.07120    0.82870    1.000
    C65      C        0.76650    0.07320    0.89359    1.000
    H65      H        0.76410    0.13170    0.91330    1.000
    C66      C        0.81238    0.93200    0.86634    1.000
    H66      H        0.84940    0.87650    0.86490    1.000
    C67      C        0.92048    0.00100    0.95500    1.000
    C68      C        0.92820    0.92690    0.99492    1.000
    C69      C        0.85370    0.84880    0.99138    1.000
    H67      H        0.85640    0.80090    0.96280    1.000
    H68      H        0.86520    0.81640    0.02780    1.000
    H69      H        0.79190    0.87920    0.98130    1.000
    C70      C        0.98890    0.07190    0.95931    1.000
    H70      H        0.98000    0.12030    0.93110    1.000
    C71      C        0.46485    0.94020    0.79521    1.000
    H71      H        0.45620    0.98370    0.76460    1.000
    C72      C        0.44220    0.86180    0.86748    1.000
    H72      H        0.41660    0.83990    0.89610    1.000
    C73      C        0.52110    0.82790    0.85673    1.000
    H73      H        0.56020    0.77810    0.87730    1.000
    C74      C        0.25040    0.98300    0.76991    1.000
    H74      H        0.26290    0.94730    0.74020    1.000
    C75      C        0.31896    0.98870    0.82195    1.000
    C76      C        0.30646    0.04250    0.86759    1.000
    C77      C        0.21846    0.08810    0.85885    1.000
    H75      H        0.20640    0.12450    0.88840    1.000
    C78      C        0.14877    0.08080    0.80752    1.000
    C79      C        0.16280    0.03000    0.76118    1.000
    C80      C        0.08750    0.02410    0.70426    1.000
    H76      H        0.07200    0.08990    0.68930    1.000
    H77      H        0.11110    0.98580    0.67810    1.000
    H78      H        0.03140    0.99300    0.70920    1.000
    C81      C        0.38240    0.05530    0.92409    1.000
    H79      H        0.44370    0.06080    0.91740    1.000
    H80      H        0.36980    0.11430    0.94270    1.000
    H81      H        0.38200    0.99880    0.94800    1.000
    C82      C        0.03066    0.21620    0.77889    1.000
    H82      H        0.07070    0.26010    0.76750    1.000
    C83      C        0.98090    0.08520    0.81266    1.000
    H83      H        0.97770    0.02300    0.82850    1.000
    C84      C        0.90970    0.15230    0.79589    1.000
    H84      H        0.84820    0.14360    0.79870    1.000
    N17      N        0.94106    0.23453    0.77433    1.000
    N18      N        0.05801    0.12719    0.80168    1.000
    N19      N        0.40623    0.93461    0.82833    1.000
    N20      N        0.53571    0.87728    0.81093    1.000
    N21      N        0.60822    0.95305    0.70963    1.000
    N22      N        0.57760    0.98978    0.61832    1.000
    N23      N        0.72891    0.95030    0.83001    1.000
    N24      N        0.83741    0.00394    0.90591    1.000
    Ni3      Ni       0.64424    0.84691    0.77395    1.000
    C85      C        0.83800    0.53570    0.85446    1.000
    H85      H        0.80060    0.57460    0.87110    1.000
    C86      C        0.82050    0.51260    0.79869    1.000
    H86      H        0.76770    0.53390    0.76990    1.000
    C87      C        0.95059    0.44050    0.84173    1.000
    H87      H        0.00540    0.40180    0.84940    1.000
    C88      C        0.96396    0.49220    0.94241    1.000
    C89      C        0.01220    0.57660    0.96587    1.000
    H88      H        0.01930    0.62810    0.94200    1.000
    C90      C        0.94940    0.41390    0.97524    1.000
    C91      C        0.89310    0.32390    0.95058    1.000
    H89      H        0.90930    0.30370    0.91680    1.000
    H90      H        0.90760    0.27110    0.97820    1.000
    H91      H        0.82640    0.33890    0.94090    1.000
    C92      C        0.79926    0.53890    0.65311    1.000
    H92      H        0.85590    0.57120    0.67130    1.000
    C93      C        0.73350    0.57320    0.60641    1.000
    H93      H        0.73590    0.63170    0.58670    1.000
    C94      C        0.68762    0.43200    0.63366    1.000
    H94      H        0.65060    0.37650    0.63510    1.000
    C95      C        0.57952    0.50100    0.54500    1.000
    C96      C        0.57180    0.42690    0.50508    1.000
    C97      C        0.64630    0.34880    0.50862    1.000
    H95      H        0.64360    0.30090    0.53720    1.000
    H96      H        0.63480    0.31640    0.47220    1.000
    H97      H        0.70810    0.37920    0.51870    1.000
    C98      C        0.51110    0.57190    0.54069    1.000
    H98      H        0.52000    0.62030    0.56890    1.000
    C99      C        0.03515    0.44020    0.70479    1.000
    H99      H        0.04380    0.48370    0.73540    1.000
    C100     C        0.05780    0.36180    0.63252    1.000
    H100     H        0.08340    0.33990    0.60390    1.000
    C101     C        0.97890    0.32790    0.64327    1.000
    H101     H        0.93980    0.27810    0.62270    1.000
    C102     C        0.24960    0.48300    0.73009    1.000
    H102     H        0.23710    0.44730    0.75980    1.000
    C103     C        0.18104    0.48870    0.67805    1.000
    C104     C        0.19354    0.54250    0.63241    1.000
    C105     C        0.28154    0.58810    0.64115    1.000
    H103     H        0.29360    0.62450    0.61160    1.000
    C106     C        0.35123    0.58080    0.69248    1.000
    C107     C        0.33720    0.53000    0.73882    1.000
    C108     C        0.41250    0.52410    0.79574    1.000
    H104     H        0.42800    0.58990    0.81070    1.000
    H105     H        0.38890    0.48580    0.82190    1.000
    H106     H        0.46860    0.49300    0.79080    1.000
    C109     C        0.11760    0.55530    0.57591    1.000
    H107     H        0.05630    0.56080    0.58260    1.000
    H108     H        0.13020    0.61430    0.55730    1.000
    H109     H        0.11800    0.49880    0.55200    1.000
    C110     C        0.46934    0.71620    0.72111    1.000
    H110     H        0.42930    0.76010    0.73250    1.000
    C111     C        0.51910    0.58520    0.68734    1.000
    H111     H        0.52230    0.52300    0.67150    1.000
    C112     C        0.59030    0.65230    0.70411    1.000
    H112     H        0.65180    0.64360    0.70130    1.000
    N25      N        0.55894    0.73453    0.72567    1.000
    N26      N        0.44199    0.62719    0.69832    1.000
    N27      N        0.09377    0.43461    0.67167    1.000
    N28      N        0.96429    0.37728    0.68907    1.000
    N29      N        0.89178    0.45305    0.79037    1.000
    N30      N        0.92240    0.48978    0.88168    1.000
    N31      N        0.77109    0.45030    0.66999    1.000
    N32      N        0.66259    0.50394    0.59409    1.000
    Ni4      Ni       0.85576    0.34691    0.72604    1.000
