data_functionalizedCrystal
_audit_creation_method	'EQeq! by Chris Wilmer'
_symmetry_space_group_name_H-M	'P1'
_symmetry_Int_Tables_number	1
_symmetry_cell_setting	triclinic
loop_
_symmetry_equiv_pos_as_xyz
  x,y,z
_cell_length_a	17.224
_cell_length_b	6.63
_cell_length_c	23.181
_cell_angle_alpha	90
_cell_angle_beta	94.53
_cell_angle_gamma	90
loop_
_atom_site_label
_atom_site_type_symbol
_atom_site_fract_x
_atom_site_fract_y
_atom_site_fract_z
_atom_site_charge
Mof_Zr	Zr	0.35917	0.9985	0.29975	3.21
Mof_Zr	Zr	0.22013	0.4945	0.42539	3.217
Mof_P 	P 	0.30802	0.4986	0.29312	0.778
Mof_P 	P 	0.26907	0.9973	0.43044	0.743
Mof_P 	P 	0.4422	0.0725	0.16599	0.77
Mof_F 	F 	0.3303	0.4854	0.4585	-0.757
Mof_O 	O 	0.3625	0.6824	0.2932	-0.679
Mof_O 	O 	0.2531	0.4954	0.2373	-0.76
Mof_O 	O 	0.2599	0.5098	0.3452	-0.781
Mof_O 	O 	0.3591	0.3094	0.2965	-0.708
Mof_O 	O 	0.3162	0.0096	0.4898	-0.649
Mof_O 	O 	0.2185	0.8089	0.428	-0.685
Mof_O 	O 	0.326	0.9914	0.3829	-0.73
Mof_O 	O 	0.2156	0.1814	0.4223	-0.682
Mof_O 	O 	0.4075	0.9978	0.2202	-0.756
Mof_O 	O 	0.3952	0.005	0.1107	-0.642
Mof_O 	O 	0.526	0.9988	0.1641	-0.686
Mof_O 	O 	0.4401	0.308	0.1638	-0.427
Mof_H 	H 	0.4552	0.386	0.1946	0.23
Mof_Zr	Zr	0.85917	0.4985	0.29975	3.213
Mof_Zr	Zr	0.72013	0.9945	0.42539	3.216
Mof_P 	P 	0.80802	0.9986	0.29312	0.741
Mof_P 	P 	0.76907	0.4973	0.43044	0.753
Mof_P 	P 	0.9422	0.5725	0.16599	0.729
Mof_F 	F 	0.8303	0.9854	0.4585	-0.762
Mof_O 	O 	0.8625	0.1824	0.2932	-0.657
Mof_O 	O 	0.7531	0.9954	0.2373	-0.768
Mof_O 	O 	0.7599	0.0098	0.3452	-0.756
Mof_O 	O 	0.8591	0.8094	0.2965	-0.718
Mof_O 	O 	0.8162	0.5096	0.4898	-0.653
Mof_O 	O 	0.7185	0.3089	0.428	-0.683
Mof_O 	O 	0.826	0.4914	0.3829	-0.726
Mof_O 	O 	0.7156	0.6814	0.4223	-0.695
Mof_O 	O 	0.9075	0.4978	0.2202	-0.728
Mof_O 	O 	0.8952	0.505	0.1107	-0.648
Mof_O 	O 	0.026	0.4988	0.1641	-0.662
Mof_O 	O 	0.9401	0.808	0.1638	-0.425
Mof_H 	H 	0.9552	0.886	0.1946	0.22
Mof_Zr	Zr	0.64083	0.9985	0.20025	3.211
Mof_Zr	Zr	0.77987	0.4945	0.07461	3.218
Mof_P 	P 	0.69198	0.4986	0.20688	0.779
Mof_P 	P 	0.73093	0.9973	0.06956	0.737
Mof_P 	P 	0.5578	0.0725	0.33401	0.769
Mof_F 	F 	0.6697	0.4854	0.0415	-0.757
Mof_O 	O 	0.6375	0.6824	0.2068	-0.679
Mof_O 	O 	0.7469	0.4954	0.2627	-0.76
Mof_O 	O 	0.7401	0.5098	0.1548	-0.781
Mof_O 	O 	0.6409	0.3094	0.2035	-0.707
Mof_O 	O 	0.6838	0.0096	0.0102	-0.645
Mof_O 	O 	0.7815	0.8089	0.072	-0.685
Mof_O 	O 	0.674	0.9914	0.1171	-0.731
Mof_O 	O 	0.7844	0.1814	0.0777	-0.678
Mof_O 	O 	0.5925	0.9978	0.2798	-0.755
Mof_O 	O 	0.6048	0.005	0.3893	-0.644
Mof_O 	O 	0.474	0.9988	0.3359	-0.684
Mof_O 	O 	0.5599	0.308	0.3362	-0.426
Mof_H 	H 	0.5448	0.386	0.3054	0.23
Mof_Zr	Zr	0.14083	0.4985	0.20025	3.213
Mof_Zr	Zr	0.27987	0.9945	0.07461	3.215
Mof_P 	P 	0.19198	0.9986	0.20688	0.739
Mof_P 	P 	0.23093	0.4973	0.06956	0.753
Mof_P 	P 	0.0578	0.5725	0.33401	0.73
Mof_F 	F 	0.1697	0.9854	0.0415	-0.765
Mof_O 	O 	0.1375	0.1824	0.2068	-0.656
Mof_O 	O 	0.2469	0.9954	0.2627	-0.768
Mof_O 	O 	0.2401	0.0098	0.1548	-0.754
Mof_O 	O 	0.1409	0.8094	0.2035	-0.718
Mof_O 	O 	0.1838	0.5096	0.0102	-0.653
Mof_O 	O 	0.2815	0.3089	0.072	-0.683
Mof_O 	O 	0.174	0.4914	0.1171	-0.726
Mof_O 	O 	0.2844	0.6814	0.0777	-0.697
Mof_O 	O 	0.0925	0.4978	0.2798	-0.728
Mof_O 	O 	0.1048	0.505	0.3893	-0.648
Mof_O 	O 	0.974	0.4988	0.3359	-0.663
Mof_O 	O 	0.0599	0.808	0.3362	-0.424
Mof_H 	H 	0.0448	0.886	0.3054	0.221
Mof_Zr	Zr	0.64083	0.0015	0.70025	3.211
Mof_Zr	Zr	0.77987	0.5055	0.57461	3.218
Mof_P 	P 	0.69198	0.5014	0.70688	0.779
Mof_P 	P 	0.73093	0.0027	0.56956	0.744
Mof_P 	P 	0.5578	0.9275	0.83401	0.771
Mof_F 	F 	0.6697	0.5146	0.5415	-0.756
Mof_O 	O 	0.6375	0.3176	0.7068	-0.679
Mof_O 	O 	0.7469	0.5046	0.7627	-0.76
Mof_O 	O 	0.7401	0.4902	0.6548	-0.781
Mof_O 	O 	0.6409	0.6906	0.7035	-0.708
Mof_O 	O 	0.6838	0.9904	0.5102	-0.649
Mof_O 	O 	0.7815	0.1911	0.572	-0.685
Mof_O 	O 	0.674	0.0086	0.6171	-0.73
Mof_O 	O 	0.7844	0.8186	0.5777	-0.682
Mof_O 	O 	0.5925	0.0022	0.7798	-0.756
Mof_O 	O 	0.6048	0.995	0.8893	-0.642
Mof_O 	O 	0.474	0.0012	0.8359	-0.686
Mof_O 	O 	0.5599	0.692	0.8362	-0.427
Mof_H 	H 	0.5448	0.614	0.8054	0.23
Mof_Zr	Zr	0.14083	0.5015	0.70025	3.213
Mof_Zr	Zr	0.27987	0.0055	0.57461	3.216
Mof_P 	P 	0.19198	0.0014	0.70688	0.741
Mof_P 	P 	0.23093	0.5027	0.56956	0.753
Mof_P 	P 	0.0578	0.4275	0.83401	0.729
Mof_F 	F 	0.1697	0.0146	0.5415	-0.762
Mof_O 	O 	0.1375	0.8176	0.7068	-0.657
Mof_O 	O 	0.2469	0.0046	0.7627	-0.768
Mof_O 	O 	0.2401	0.9902	0.6548	-0.756
Mof_O 	O 	0.1409	0.1906	0.7035	-0.718
Mof_O 	O 	0.1838	0.4904	0.5102	-0.653
Mof_O 	O 	0.2815	0.6911	0.572	-0.683
Mof_O 	O 	0.174	0.5086	0.6171	-0.726
Mof_O 	O 	0.2844	0.3186	0.5777	-0.695
Mof_O 	O 	0.0925	0.5022	0.7798	-0.728
Mof_O 	O 	0.1048	0.495	0.8893	-0.648
Mof_O 	O 	0.974	0.5012	0.8359	-0.662
Mof_O 	O 	0.0599	0.192	0.8362	-0.425
Mof_H 	H 	0.0448	0.114	0.8054	0.22
Mof_Zr	Zr	0.35917	0.0015	0.79975	3.211
Mof_Zr	Zr	0.22013	0.5055	0.92539	3.218
Mof_P 	P 	0.30802	0.5014	0.79312	0.779
Mof_P 	P 	0.26907	0.0027	0.93044	0.737
Mof_P 	P 	0.4422	0.9275	0.66599	0.769
Mof_F 	F 	0.3303	0.5146	0.9585	-0.757
Mof_O 	O 	0.3625	0.3176	0.7932	-0.679
Mof_O 	O 	0.2531	0.5046	0.7373	-0.76
Mof_O 	O 	0.2599	0.4902	0.8452	-0.781
Mof_O 	O 	0.3591	0.6906	0.7965	-0.707
Mof_O 	O 	0.3162	0.9904	0.9898	-0.645
Mof_O 	O 	0.2185	0.1911	0.928	-0.685
Mof_O 	O 	0.326	0.0086	0.8829	-0.731
Mof_O 	O 	0.2156	0.8186	0.9223	-0.678
Mof_O 	O 	0.4075	0.0022	0.7202	-0.755
Mof_O 	O 	0.3952	0.995	0.6107	-0.644
Mof_O 	O 	0.526	0.0012	0.6641	-0.684
Mof_O 	O 	0.4401	0.692	0.6638	-0.426
Mof_H 	H 	0.4552	0.614	0.6946	0.23
Mof_Zr	Zr	0.85917	0.5015	0.79975	3.213
Mof_Zr	Zr	0.72013	0.0055	0.92539	3.215
Mof_P 	P 	0.80802	0.0014	0.79312	0.739
Mof_P 	P 	0.76907	0.5027	0.93044	0.753
Mof_P 	P 	0.9422	0.4275	0.66599	0.73
Mof_F 	F 	0.8303	0.0146	0.9585	-0.765
Mof_O 	O 	0.8625	0.8176	0.7932	-0.656
Mof_O 	O 	0.7531	0.0046	0.7373	-0.768
Mof_O 	O 	0.7599	0.9902	0.8452	-0.754
Mof_O 	O 	0.8591	0.1906	0.7965	-0.718
Mof_O 	O 	0.8162	0.4904	0.9898	-0.653
Mof_O 	O 	0.7185	0.6911	0.928	-0.683
Mof_O 	O 	0.826	0.5086	0.8829	-0.726
Mof_O 	O 	0.7156	0.3186	0.9223	-0.697
Mof_O 	O 	0.9075	0.5022	0.7202	-0.728
Mof_O 	O 	0.8952	0.495	0.6107	-0.648
Mof_O 	O 	0.026	0.5012	0.6641	-0.663
Mof_O 	O 	0.9401	0.192	0.6638	-0.424
Mof_H 	H 	0.9552	0.114	0.6946	0.221
_end
