data_functionalizedCrystal
_audit_creation_method	'EQeq! by Chris Wilmer'
_symmetry_space_group_name_H-M	'P1'
_symmetry_Int_Tables_number	1
_symmetry_cell_setting	triclinic
loop_
_symmetry_equiv_pos_as_xyz
  x,y,z
_cell_length_a	14.2315
_cell_length_b	16.8907
_cell_length_c	32.9968
_cell_angle_alpha	91.3408
_cell_angle_beta	90
_cell_angle_gamma	90
loop_
_atom_site_label
_atom_site_type_symbol
_atom_site_fract_x
_atom_site_fract_y
_atom_site_fract_z
_atom_site_charge
Mof_Mn	Mn	0.03493	0.62019	0.31121	0.951
Mof_Mn	Mn	0.70704	0.12809	0.92174	0.912
Mof_Mn	Mn	0.20704	0.87191	0.57826	0.913
Mof_Mn	Mn	0.79296	0.12809	0.42174	0.913
Mof_Mn	Mn	0.29296	0.87191	0.07826	0.913
Mof_Mn	Mn	0.96507	0.37981	0.68879	0.952
Mof_Mn	Mn	0.46507	0.62019	0.81121	0.952
Mof_Mn	Mn	0.53493	0.37981	0.18879	0.952
Mof_Cr	Cr	0.78105	0.37782	0.3171	2.066
Mof_Cr	Cr	0.53388	0.12771	0.08095	2.088
Mof_Cr	Cr	0.46612	0.87229	0.91905	2.088
Mof_Cr	Cr	0.96612	0.12771	0.58095	2.086
Mof_Cr	Cr	0.71895	0.37782	0.8171	2.066
Mof_Cr	Cr	0.28105	0.62218	0.1829	2.066
Mof_Cr	Cr	0.21895	0.62218	0.6829	2.066
Mof_Cr	Cr	0.03388	0.87229	0.41905	2.086
Mof_C 	C 	0.8628	0.5256	0.31879	0.262
Mof_C 	C 	0.7974	0.3826	0.74057	0.266
Mof_C 	C 	0.208	0.7703	0.64982	0.263
Mof_C 	C 	0.8748	0.9658	0.42337	0.262
Mof_C 	C 	0.2175	0.7113	0.6136	0.259
Mof_C 	C 	0.7026	0.3826	0.24057	0.266
Mof_C 	C 	0.0556	0.5342	0.67918	0.262
Mof_C 	C 	0.1372	0.4744	0.68121	0.262
Mof_C 	C 	0.4578	0.977	0.08277	0.266
Mof_C 	C 	0.3748	0.0342	0.07663	0.26
Mof_C 	C 	0.2825	0.7113	0.1136	0.259
Mof_C 	C 	0.5211	0.2213	0.15023	0.267
Mof_C 	C 	0.2822	0.8698	0.94315	0.246
Mof_C 	C 	0.4789	0.7787	0.84977	0.267
Mof_C 	C 	0.7825	0.2887	0.3864	0.259
Mof_C 	C 	0.5296	0.2788	0.1148	0.263
Mof_C 	C 	0.792	0.2297	0.35018	0.263
Mof_C 	C 	0.7178	0.1302	0.05685	0.246
Mof_C 	C 	0.5556	0.4658	0.82082	0.262
Mof_C 	C 	0.0211	0.7787	0.34977	0.267
Mof_C 	C 	0.9444	0.4658	0.32082	0.262
Mof_C 	C 	0.9789	0.2213	0.65023	0.267
Mof_C 	C 	0.8803	0.37588	0.77014	0.26
Mof_C 	C 	0.3628	0.4744	0.18121	0.262
Mof_C 	C 	0.4704	0.7212	0.8852	0.263
Mof_C 	C 	0.2178	0.8698	0.44315	0.245
Mof_C 	C 	0.1584	0.8714	0.48228	0.311
Mof_C 	C 	0.6197	0.37588	0.27014	0.26
Mof_C 	C 	0.708	0.2297	0.85018	0.263
Mof_C 	C 	0.2974	0.6174	0.75943	0.266
Mof_C 	C 	0.6584	0.1286	0.01772	0.311
Mof_C 	C 	0.9578	0.023	0.41723	0.265
Mof_C 	C 	0.9704	0.2788	0.6148	0.263
Mof_C 	C 	0.6252	0.9658	0.92337	0.26
Mof_C 	C 	0.0422	0.977	0.58277	0.265
Mof_C 	C 	0.7175	0.2887	0.8864	0.259
Mof_C 	C 	0.2026	0.6174	0.25943	0.266
Mof_C 	C 	0.8416	0.1286	0.51772	0.311
Mof_C 	C 	0.7822	0.1302	0.55685	0.245
Mof_C 	C 	0.5422	0.023	0.91723	0.266
Mof_C 	C 	0.0296	0.7212	0.3852	0.263
Mof_C 	C 	0.1197	0.62412	0.22986	0.26
Mof_C 	C 	0.3803	0.62412	0.72986	0.26
Mof_C 	C 	0.1252	0.0342	0.57663	0.262
Mof_C 	C 	0.292	0.7703	0.14982	0.263
Mof_C 	C 	0.3416	0.8714	0.98228	0.311
Mof_C 	C 	0.4444	0.5342	0.17918	0.262
Mof_C 	C 	0.6372	0.5256	0.81879	0.262
Mof_O 	O 	0.21898	0.50515	0.67769	-0.484
Mof_O 	O 	0.68488	0.38549	0.20363	-0.292
Mof_O 	O 	0.20263	0.84195	0.64279	-0.297
Mof_O 	O 	0.41961	0.6067	0.17801	-0.476
Mof_O 	O 	0.69665	0.12756	0.55547	-0.171
Mof_O 	O 	0.06955	0.87809	0.47723	-0.51
Mof_O 	O 	0.39705	0.10655	0.07274	-0.485
Mof_O 	O 	0.02521	0.75444	0.42038	-0.48
Mof_O 	O 	0.29374	0.7394	0.18471	-0.482
Mof_O 	O 	0.80335	0.12756	0.05547	-0.171
Mof_O 	O 	0.16879	0.86572	0.41053	-0.494
Mof_O 	O 	0.0188	0.74967	0.31483	-0.29
Mof_O 	O 	0.81512	0.38549	0.70363	-0.292
Mof_O 	O 	0.0584	0.90545	0.58523	-0.283
Mof_O 	O 	0.31512	0.61451	0.79637	-0.292
Mof_O 	O 	0.11819	0.40343	0.68527	-0.285
Mof_O 	O 	0.43045	0.87809	0.97723	-0.51
Mof_O 	O 	0.64284	0.37254	0.30757	-0.48
Mof_O 	O 	0.1997	0.86658	0.51496	-0.333
Mof_O 	O 	0.2722	0.63928	0.12351	-0.481
Mof_O 	O 	0.70596	0.99443	0.92363	-0.285
Mof_O 	O 	0.2836	0.61589	0.24267	-0.488
Mof_O 	O 	0.20596	0.00557	0.57637	-0.285
Mof_O 	O 	0.35716	0.62746	0.69243	-0.48
Mof_O 	O 	0.70263	0.15805	0.85721	-0.297
Mof_O 	O 	0.85716	0.37254	0.80757	-0.48
Mof_O 	O 	0.20626	0.7394	0.68471	-0.482
Mof_O 	O 	0.47409	0.49222	0.82155	-0.288
Mof_O 	O 	0.83121	0.13428	0.58947	-0.494
Mof_O 	O 	0.47479	0.75444	0.92038	-0.48
Mof_O 	O 	0.51571	0.14834	0.14008	-0.481
Mof_O 	O 	0.48429	0.85166	0.85992	-0.481
Mof_O 	O 	0.61819	0.59657	0.81473	-0.285
Mof_O 	O 	0.79404	0.99443	0.42363	-0.285
Mof_O 	O 	0.7164	0.38411	0.75733	-0.488
Mof_O 	O 	0.46107	0.62485	0.74374	-0.285
Mof_O 	O 	0.03801	0.64981	0.37712	-0.286
Mof_O 	O 	0.38181	0.40343	0.18527	-0.285
Mof_O 	O 	0.8003	0.13342	0.48504	-0.333
Mof_O 	O 	0.78102	0.49485	0.32231	-0.484
Mof_O 	O 	0.96202	0.01073	0.58594	-0.484
Mof_O 	O 	0.79737	0.15805	0.35721	-0.297
Mof_O 	O 	0.88181	0.59657	0.31473	-0.285
Mof_O 	O 	0.71898	0.49485	0.82231	-0.484
Mof_O 	O 	0.6997	0.13342	0.98504	-0.333
Mof_O 	O 	0.7836	0.38411	0.25733	-0.488
Mof_O 	O 	0.2872	0.73796	0.07911	-0.283
Mof_O 	O 	0.2164	0.61589	0.74267	-0.488
Mof_O 	O 	0.30335	0.87244	0.44453	-0.171
Mof_O 	O 	0.29404	0.00557	0.07637	-0.285
Mof_O 	O 	0.46199	0.64981	0.87712	-0.286
Mof_O 	O 	0.7722	0.36072	0.37649	-0.481
Mof_O 	O 	0.33121	0.86572	0.91053	-0.495
Mof_O 	O 	0.79374	0.2606	0.31529	-0.482
Mof_O 	O 	0.60295	0.89345	0.92726	-0.485
Mof_O 	O 	0.18488	0.61451	0.29637	-0.292
Mof_O 	O 	0.03893	0.62485	0.24374	-0.285
Mof_O 	O 	0.7128	0.26204	0.92089	-0.283
Mof_O 	O 	0.52521	0.24556	0.07962	-0.48
Mof_O 	O 	0.10295	0.10655	0.57274	-0.484
Mof_O 	O 	0.29737	0.84195	0.14279	-0.297
Mof_O 	O 	0.9812	0.25033	0.68517	-0.29
Mof_O 	O 	0.93045	0.12191	0.52277	-0.51
Mof_O 	O 	0.14284	0.62746	0.19243	-0.48
Mof_O 	O 	0.2278	0.63928	0.62351	-0.481
Mof_O 	O 	0.5584	0.09455	0.91477	-0.283
Mof_O 	O 	0.98429	0.14834	0.64008	-0.481
Mof_O 	O 	0.3003	0.86658	0.01496	-0.333
Mof_O 	O 	0.96199	0.35019	0.62288	-0.286
Mof_O 	O 	0.96107	0.37515	0.75626	-0.285
Mof_O 	O 	0.52591	0.50778	0.17845	-0.288
Mof_O 	O 	0.53893	0.37515	0.25626	-0.285
Mof_O 	O 	0.53798	0.01073	0.08594	-0.484
Mof_O 	O 	0.7278	0.36072	0.87649	-0.481
Mof_O 	O 	0.89705	0.89345	0.42726	-0.484
Mof_O 	O 	0.58039	0.3933	0.82199	-0.476
Mof_O 	O 	0.56955	0.12191	0.02277	-0.51
Mof_O 	O 	0.5188	0.25033	0.18517	-0.29
Mof_O 	O 	0.97409	0.50778	0.67845	-0.288
Mof_O 	O 	0.19665	0.87244	0.94453	-0.171
Mof_O 	O 	0.02591	0.49222	0.32155	-0.288
Mof_O 	O 	0.4812	0.74967	0.81483	-0.29
Mof_O 	O 	0.66879	0.13428	0.08947	-0.495
Mof_O 	O 	0.9416	0.09455	0.41477	-0.283
Mof_O 	O 	0.7872	0.26204	0.42089	-0.282
Mof_O 	O 	0.2128	0.73796	0.57911	-0.282
Mof_O 	O 	0.46202	0.98927	0.91406	-0.484
Mof_O 	O 	0.91961	0.3933	0.32199	-0.476
Mof_O 	O 	0.53801	0.35019	0.12288	-0.286
Mof_O 	O 	0.70626	0.2606	0.81529	-0.482
Mof_O 	O 	0.01571	0.85166	0.35992	-0.481
Mof_O 	O 	0.08039	0.6067	0.67801	-0.476
Mof_O 	O 	0.03798	0.98927	0.41406	-0.484
Mof_O 	O 	0.97479	0.24556	0.57962	-0.48
Mof_O 	O 	0.28102	0.50515	0.17769	-0.484
Mof_O 	O 	0.4416	0.90545	0.08523	-0.283
_end
