data_functionalizedCrystal
_audit_creation_method	'EQeq! by Chris Wilmer'
_symmetry_space_group_name_H-M	'P1'
_symmetry_Int_Tables_number	1
_symmetry_cell_setting	triclinic
loop_
_symmetry_equiv_pos_as_xyz
  x,y,z
_cell_length_a	18.8306
_cell_length_b	18.8306
_cell_length_c	20.968
_cell_angle_alpha	63.3184
_cell_angle_beta	63.3184
_cell_angle_gamma	60
loop_
_atom_site_label
_atom_site_type_symbol
_atom_site_fract_x
_atom_site_fract_y
_atom_site_fract_z
_atom_site_charge
Mof_Cu	Cu	0.06586	0.49792	0.9383	0.904
Mof_Cu	Cu	0.49792	0.49792	0.9383	0.904
Mof_Cu	Cu	0.49792	0.06586	0.9383	0.904
Mof_Cu	Cu	0.93414	0.50208	0.0617	0.904
Mof_Cu	Cu	0.50208	0.93414	0.0617	0.904
Mof_Cu	Cu	0.50208	0.50208	0.0617	0.904
Mof_H 	H 	0.0312	0.5346	0.1899	0.054
Mof_H 	H 	0.9261	0.4992	0.4359	0.057
Mof_H 	H 	0.5346	0.2443	0.1899	0.055
Mof_H 	H 	0.4992	0.1388	0.4359	0.058
Mof_H 	H 	0.2443	0.0312	0.1899	0.055
Mof_H 	H 	0.1388	0.9261	0.4359	0.058
Mof_H 	H 	0.9688	0.7557	0.8101	0.055
Mof_H 	H 	0.0739	0.8612	0.5641	0.058
Mof_H 	H 	0.4654	0.9688	0.8101	0.055
Mof_H 	H 	0.5008	0.0739	0.5641	0.058
Mof_H 	H 	0.7557	0.4654	0.8101	0.055
Mof_H 	H 	0.8612	0.5008	0.5641	0.058
Mof_H 	H 	0.9688	0.4654	0.8101	0.055
Mof_H 	H 	0.0739	0.5008	0.5641	0.058
Mof_H 	H 	0.4654	0.7557	0.8101	0.055
Mof_H 	H 	0.5008	0.8612	0.5641	0.058
Mof_H 	H 	0.7557	0.9688	0.8101	0.055
Mof_H 	H 	0.8612	0.0739	0.5641	0.058
Mof_H 	H 	0.0312	0.2443	0.1899	0.055
Mof_H 	H 	0.9261	0.1388	0.4359	0.058
Mof_H 	H 	0.5346	0.0312	0.1899	0.055
Mof_H 	H 	0.4992	0.9261	0.4359	0.058
Mof_H 	H 	0.2443	0.5346	0.1899	0.055
Mof_H 	H 	0.1388	0.4992	0.4359	0.058
Mof_H 	H 	0.2305	0.5315	0.0075	0.048
Mof_H 	H 	0.5315	0.2305	0.0075	0.048
Mof_H 	H 	0.2305	0.2305	0.0075	0.048
Mof_H 	H 	0.7695	0.7695	0.9925	0.048
Mof_H 	H 	0.4685	0.7695	0.9925	0.048
Mof_H 	H 	0.7695	0.4685	0.9925	0.048
Mof_C 	C 	0.07525	0.52618	0.05568	0.387
Mof_C 	C 	0.12261	0.53248	0.09174	-0.1
Mof_C 	C 	0.08616	0.53488	0.16476	-0.012
Mof_C 	C 	0.95525	0.50148	0.46038	-0.063
Mof_C 	C 	0.52618	0.34289	0.05568	0.387
Mof_C 	C 	0.53248	0.25317	0.09174	-0.1
Mof_C 	C 	0.53488	0.2142	0.16476	-0.012
Mof_C 	C 	0.50148	0.08289	0.46038	-0.063
Mof_C 	C 	0.34289	0.07525	0.05568	0.387
Mof_C 	C 	0.25317	0.12261	0.09174	-0.1
Mof_C 	C 	0.2142	0.08616	0.16476	-0.012
Mof_C 	C 	0.08289	0.95525	0.46038	-0.063
Mof_C 	C 	0.92475	0.65711	0.94432	0.387
Mof_C 	C 	0.87739	0.74683	0.90826	-0.1
Mof_C 	C 	0.91384	0.7858	0.83524	-0.012
Mof_C 	C 	0.04475	0.91711	0.53962	-0.063
Mof_C 	C 	0.47382	0.92475	0.94432	0.387
Mof_C 	C 	0.46752	0.87739	0.90826	-0.1
Mof_C 	C 	0.46512	0.91384	0.83524	-0.012
Mof_C 	C 	0.49852	0.04475	0.53962	-0.063
Mof_C 	C 	0.65711	0.47382	0.94432	0.387
Mof_C 	C 	0.74683	0.46752	0.90826	-0.1
Mof_C 	C 	0.7858	0.46512	0.83524	-0.012
Mof_C 	C 	0.91711	0.49852	0.53962	-0.063
Mof_C 	C 	0.92475	0.47382	0.94432	0.387
Mof_C 	C 	0.87739	0.46752	0.90826	-0.1
Mof_C 	C 	0.91384	0.46512	0.83524	-0.012
Mof_C 	C 	0.04475	0.49852	0.53962	-0.063
Mof_C 	C 	0.47382	0.65711	0.94432	0.387
Mof_C 	C 	0.46752	0.74683	0.90826	-0.1
Mof_C 	C 	0.46512	0.7858	0.83524	-0.012
Mof_C 	C 	0.49852	0.91711	0.53962	-0.063
Mof_C 	C 	0.65711	0.92475	0.94432	0.387
Mof_C 	C 	0.74683	0.87739	0.90826	-0.1
Mof_C 	C 	0.7858	0.91384	0.83524	-0.012
Mof_C 	C 	0.91711	0.04475	0.53962	-0.063
Mof_C 	C 	0.07525	0.34289	0.05568	0.387
Mof_C 	C 	0.12261	0.25317	0.09174	-0.1
Mof_C 	C 	0.08616	0.2142	0.16476	-0.012
Mof_C 	C 	0.95525	0.08289	0.46038	-0.063
Mof_C 	C 	0.52618	0.07525	0.05568	0.387
Mof_C 	C 	0.53248	0.12261	0.09174	-0.1
Mof_C 	C 	0.53488	0.08616	0.16476	-0.012
Mof_C 	C 	0.50148	0.95525	0.46038	-0.063
Mof_C 	C 	0.34289	0.52618	0.05568	0.387
Mof_C 	C 	0.25317	0.53248	0.09174	-0.1
Mof_C 	C 	0.2142	0.53488	0.16476	-0.012
Mof_C 	C 	0.08289	0.50148	0.46038	-0.063
Mof_C 	C 	0.20551	0.53206	0.05691	0.044
Mof_C 	C 	0.13058	0.53775	0.20109	0.005
Mof_C 	C 	0.09479	0.53259	0.27783	-0.003
Mof_C 	C 	0.07021	0.51539	0.34419	-0.027
Mof_C 	C 	0.0348	0.50761	0.42279	0.041
Mof_C 	C 	0.53206	0.20552	0.0569	0.044
Mof_C 	C 	0.53775	0.13058	0.20109	0.005
Mof_C 	C 	0.53259	0.09479	0.27783	-0.003
Mof_C 	C 	0.51539	0.07021	0.34419	-0.027
Mof_C 	C 	0.50761	0.0348	0.42279	0.041
Mof_C 	C 	0.20552	0.20552	0.0569	0.044
Mof_C 	C 	0.13058	0.13058	0.20109	0.005
Mof_C 	C 	0.09479	0.09479	0.27783	-0.003
Mof_C 	C 	0.07021	0.07021	0.34419	-0.027
Mof_C 	C 	0.0348	0.0348	0.42279	0.042
Mof_C 	C 	0.79449	0.79448	0.94309	0.044
Mof_C 	C 	0.86942	0.86942	0.79891	0.005
Mof_C 	C 	0.90521	0.90521	0.72217	-0.003
Mof_C 	C 	0.92979	0.92979	0.65581	-0.027
Mof_C 	C 	0.9652	0.9652	0.57721	0.042
Mof_C 	C 	0.46794	0.79449	0.94309	0.044
Mof_C 	C 	0.46225	0.86942	0.79891	0.005
Mof_C 	C 	0.46741	0.90521	0.72217	-0.003
Mof_C 	C 	0.48461	0.92979	0.65581	-0.027
Mof_C 	C 	0.49239	0.9652	0.57721	0.041
Mof_C 	C 	0.79448	0.46794	0.94309	0.044
Mof_C 	C 	0.86942	0.46225	0.79891	0.005
Mof_C 	C 	0.90521	0.46741	0.72217	-0.003
Mof_C 	C 	0.92979	0.48461	0.65581	-0.027
Mof_C 	C 	0.9652	0.49239	0.57721	0.041
Mof_O 	O 	0.00412	0.52407	0.09261	-0.423
Mof_O 	O 	0.11453	0.51987	0.99022	-0.408
Mof_O 	O 	0.52407	0.3792	0.09261	-0.423
Mof_O 	O 	0.51987	0.37538	0.99022	-0.408
Mof_O 	O 	0.3792	0.00412	0.09261	-0.423
Mof_O 	O 	0.37538	0.11453	0.99022	-0.408
Mof_O 	O 	0.99588	0.6208	0.90739	-0.423
Mof_O 	O 	0.88547	0.62462	0.00978	-0.408
Mof_O 	O 	0.47593	0.99588	0.90739	-0.423
Mof_O 	O 	0.48013	0.88547	0.00978	-0.408
Mof_O 	O 	0.6208	0.47593	0.90739	-0.423
Mof_O 	O 	0.62462	0.48013	0.00978	-0.408
Mof_O 	O 	0.99588	0.47593	0.90739	-0.423
Mof_O 	O 	0.88547	0.48013	0.00978	-0.408
Mof_O 	O 	0.47593	0.6208	0.90739	-0.423
Mof_O 	O 	0.48013	0.62462	0.00978	-0.408
Mof_O 	O 	0.6208	0.99588	0.90739	-0.423
Mof_O 	O 	0.62462	0.88547	0.00978	-0.408
Mof_O 	O 	0.00412	0.3792	0.09261	-0.423
Mof_O 	O 	0.11453	0.37538	0.99022	-0.408
Mof_O 	O 	0.52407	0.00412	0.09261	-0.423
Mof_O 	O 	0.51987	0.11453	0.99022	-0.408
Mof_O 	O 	0.3792	0.52407	0.09261	-0.423
Mof_O 	O 	0.37538	0.51987	0.99022	-0.408
_end
