data_functionalizedCrystal
_audit_creation_method	'EQeq! by Chris Wilmer'
_symmetry_space_group_name_H-M	'P1'
_symmetry_Int_Tables_number	1
_symmetry_cell_setting	triclinic
loop_
_symmetry_equiv_pos_as_xyz
  x,y,z
_cell_length_a	22.3119
_cell_length_b	17.3774
_cell_length_c	10.1854
_cell_angle_alpha	90
_cell_angle_beta	110.295
_cell_angle_gamma	90
loop_
_atom_site_label
_atom_site_type_symbol
_atom_site_fract_x
_atom_site_fract_y
_atom_site_fract_z
_atom_site_charge
Mof_Sr	Sr	0.33446	0.10099	0.52804	1.527
Mof_P 	P 	0.47608	0.15365	0.46018	0.437
Mof_O 	O 	0.45743	0.1242	0.5803	-0.53
Mof_C 	C 	0.5617	0.1733	0.5168	0.059
Mof_P 	P 	0.60921	0.08607	0.57914	0.421
Mof_O 	O 	0.45905	0.1017	0.3348	-0.443
Mof_C 	C 	0.5785	0.233	0.6346	-0.467
Mof_H 	H 	0.5702	0.2119	0.7137	0.129
Mof_H 	H 	0.553	0.2783	0.6026	0.189
Mof_H 	H 	0.623	0.2461	0.6615	0.182
Mof_P 	P 	0.19184	0.17692	0.59334	0.426
Mof_O 	O 	0.4462	0.2351	0.4131	-0.403
Mof_H 	H 	0.4115	0.2408	0.4289	0.253
Mof_C 	C 	0.1656	0.1115	0.4428	0.076
Mof_P 	P 	0.1873	0.01105	0.4796	0.447
Mof_O 	O 	0.5994	0.0635	0.7135	-0.523
Mof_C 	C 	0.0935	0.1183	0.3639	-0.536
Mof_H 	H 	0.0824	0.1714	0.3427	0.169
Mof_H 	H 	0.0708	0.0984	0.4212	0.19
Mof_H 	H 	0.0822	0.0893	0.2785	0.199
Mof_O 	O 	0.59294	0.0277	0.464	-0.501
Mof_O 	O 	0.68002	0.1116	0.609	-0.229
Mof_O 	O 	0.2569	0.006	0.5584	-0.391
Mof_O 	O 	0.1622	0.2543	0.5445	-0.395
Mof_O 	O 	0.2027	0.1356	0.3565	-0.457
Mof_H 	H 	0.195	0.1808	0.3341	0.246
Mof_O 	O 	0.1627	0.1482	0.7037	-0.412
Mof_H 	H 	0.1742	0.1038	0.7261	0.275
Mof_O 	O 	0.1463	0.9791	0.5624	-0.428
Mof_H 	H 	0.1591	0.9971	0.6418	0.266
Mof_O 	O 	0.26408	0.1757	0.6494	-0.355
Mof_O 	O 	0.57606	0.2065	0.4016	-0.297
Mof_H 	H 	0.5657	0.176	0.3319	0.22
Mof_O 	O 	0.1687	0.9787	0.3339	-0.225
Mof_O 	O 	0.1512	0.9492	0.3828	-0.055
Mof_Sr	Sr	0.83446	0.60099	0.52804	1.532
Mof_P 	P 	0.97608	0.65365	0.46018	0.488
Mof_O 	O 	0.95743	0.6242	0.5803	-0.488
Mof_C 	C 	0.0617	0.6733	0.5168	-0.003
Mof_P 	P 	0.10921	0.58607	0.57914	0.42
Mof_O 	O 	0.95905	0.6017	0.3348	-0.398
Mof_C 	C 	0.0785	0.733	0.6346	-0.395
Mof_H 	H 	0.0702	0.7119	0.7137	0.095
Mof_H 	H 	0.053	0.7783	0.6026	0.145
Mof_H 	H 	0.123	0.7461	0.6615	0.161
Mof_P 	P 	0.69184	0.67692	0.59334	0.423
Mof_O 	O 	0.9462	0.7351	0.4131	-0.38
Mof_H 	H 	0.9115	0.7408	0.4289	0.248
Mof_C 	C 	0.6656	0.6115	0.4428	0.092
Mof_P 	P 	0.6873	0.51105	0.4796	0.443
Mof_O 	O 	0.0994	0.5635	0.7135	-0.515
Mof_C 	C 	0.5935	0.6183	0.3639	-0.595
Mof_H 	H 	0.5824	0.6714	0.3427	0.197
Mof_H 	H 	0.5708	0.5984	0.4212	0.225
Mof_H 	H 	0.5822	0.5893	0.2785	0.23
Mof_O 	O 	0.09294	0.5277	0.464	-0.493
Mof_O 	O 	0.18002	0.6116	0.609	-0.227
Mof_O 	O 	0.7569	0.506	0.5584	-0.391
Mof_O 	O 	0.6622	0.7543	0.5445	-0.394
Mof_O 	O 	0.7027	0.6356	0.3565	-0.461
Mof_H 	H 	0.695	0.6808	0.3341	0.247
Mof_O 	O 	0.6627	0.6482	0.7037	-0.406
Mof_H 	H 	0.6742	0.6038	0.7261	0.275
Mof_O 	O 	0.6463	0.4791	0.5624	-0.419
Mof_H 	H 	0.6591	0.4971	0.6418	0.264
Mof_O 	O 	0.76408	0.6757	0.6494	-0.356
Mof_O 	O 	0.07606	0.7065	0.4016	-0.296
Mof_H 	H 	0.0657	0.676	0.3319	0.208
Mof_O 	O 	0.6687	0.4787	0.3339	-0.225
Mof_O 	O 	0.6512	0.4492	0.3828	-0.047
Mof_Sr	Sr	0.66554	0.10099	0.97196	1.515
Mof_P 	P 	0.52392	0.15365	0.03982	0.448
Mof_O 	O 	0.54257	0.1242	0.9197	-0.534
Mof_C 	C 	0.4383	0.1733	0.9832	0.049
Mof_P 	P 	0.39079	0.08607	0.92086	0.417
Mof_O 	O 	0.54095	0.1017	0.1652	-0.443
Mof_C 	C 	0.4215	0.233	0.8654	-0.457
Mof_H 	H 	0.4298	0.2119	0.7863	0.126
Mof_H 	H 	0.447	0.2783	0.8974	0.185
Mof_H 	H 	0.377	0.2461	0.8385	0.179
Mof_P 	P 	0.80816	0.17692	0.90666	0.416
Mof_O 	O 	0.5538	0.2351	0.0869	-0.403
Mof_H 	H 	0.5885	0.2408	0.0711	0.254
Mof_C 	C 	0.8344	0.1115	0.0572	0.113
Mof_P 	P 	0.8127	0.01105	0.0204	0.45
Mof_O 	O 	0.4006	0.0635	0.7865	-0.524
Mof_C 	C 	0.9065	0.1183	0.1361	-0.66
Mof_H 	H 	0.9176	0.1714	0.1573	0.229
Mof_H 	H 	0.9292	0.0984	0.0788	0.265
Mof_H 	H 	0.9178	0.0893	0.2215	0.264
Mof_O 	O 	0.40706	0.0277	0.036	-0.496
Mof_O 	O 	0.31998	0.1116	0.891	-0.231
Mof_O 	O 	0.7431	0.006	0.9416	-0.396
Mof_O 	O 	0.8378	0.2543	0.9555	-0.396
Mof_O 	O 	0.7973	0.1356	0.1435	-0.463
Mof_H 	H 	0.805	0.1808	0.1659	0.248
Mof_O 	O 	0.8373	0.1482	0.7963	-0.399
Mof_H 	H 	0.8258	0.1038	0.7739	0.274
Mof_O 	O 	0.8537	0.9791	0.9376	-0.417
Mof_H 	H 	0.8409	0.9971	0.8582	0.266
Mof_O 	O 	0.73592	0.1757	0.8506	-0.355
Mof_O 	O 	0.42394	0.2065	0.0984	-0.29
Mof_H 	H 	0.4343	0.176	0.1681	0.219
Mof_O 	O 	0.8313	0.9787	0.1661	-0.228
Mof_O 	O 	0.8488	0.9492	0.1172	-0.038
Mof_Sr	Sr	0.16554	0.60099	0.97196	1.525
Mof_P 	P 	0.02392	0.65365	0.03982	0.386
Mof_O 	O 	0.04257	0.6242	0.9197	-0.531
Mof_C 	C 	0.9383	0.6733	0.9832	0.129
Mof_P 	P 	0.89079	0.58607	0.92086	0.408
Mof_O 	O 	0.04095	0.6017	0.1652	-0.44
Mof_C 	C 	0.9215	0.733	0.8654	-0.551
Mof_H 	H 	0.9298	0.7119	0.7863	0.17
Mof_H 	H 	0.947	0.7783	0.8974	0.236
Mof_H 	H 	0.877	0.7461	0.8385	0.208
Mof_P 	P 	0.30816	0.67692	0.90666	0.421
Mof_O 	O 	0.0538	0.7351	0.0869	-0.423
Mof_H 	H 	0.0885	0.7408	0.0711	0.258
Mof_C 	C 	0.3344	0.6115	0.0572	0.095
Mof_P 	P 	0.3127	0.51105	0.0204	0.45
Mof_O 	O 	0.9006	0.5635	0.7865	-0.489
Mof_C 	C 	0.4065	0.6183	0.1361	-0.597
Mof_H 	H 	0.4176	0.6714	0.1573	0.199
Mof_H 	H 	0.4292	0.5984	0.0788	0.227
Mof_H 	H 	0.4178	0.5893	0.2215	0.231
Mof_O 	O 	0.90706	0.5277	0.036	-0.459
Mof_O 	O 	0.81998	0.6116	0.891	-0.232
Mof_O 	O 	0.2431	0.506	0.9416	-0.393
Mof_O 	O 	0.3378	0.7543	0.9555	-0.395
Mof_O 	O 	0.2973	0.6356	0.1435	-0.46
Mof_H 	H 	0.305	0.6808	0.1659	0.247
Mof_O 	O 	0.3373	0.6482	0.7963	-0.405
Mof_H 	H 	0.3258	0.6038	0.7739	0.275
Mof_O 	O 	0.3537	0.4791	0.9376	-0.425
Mof_H 	H 	0.3409	0.4971	0.8582	0.266
Mof_O 	O 	0.23592	0.6757	0.8506	-0.354
Mof_O 	O 	0.92394	0.7065	0.0984	-0.297
Mof_H 	H 	0.9343	0.676	0.1681	0.237
Mof_O 	O 	0.3313	0.4787	0.1661	-0.226
Mof_O 	O 	0.3488	0.4492	0.1172	-0.045
Mof_Sr	Sr	0.66554	0.89901	0.47196	1.526
Mof_P 	P 	0.52392	0.84635	0.53982	0.438
Mof_O 	O 	0.54257	0.8758	0.4197	-0.53
Mof_C 	C 	0.4383	0.8267	0.4832	0.059
Mof_P 	P 	0.39079	0.91393	0.42086	0.421
Mof_O 	O 	0.54095	0.8983	0.6652	-0.443
Mof_C 	C 	0.4215	0.767	0.3654	-0.467
Mof_H 	H 	0.4298	0.7881	0.2863	0.129
Mof_H 	H 	0.447	0.7217	0.3974	0.189
Mof_H 	H 	0.377	0.7539	0.3385	0.183
Mof_P 	P 	0.80816	0.82308	0.40666	0.421
Mof_O 	O 	0.5538	0.7649	0.5869	-0.404
Mof_H 	H 	0.5885	0.7592	0.5711	0.253
Mof_C 	C 	0.8344	0.8885	0.5572	0.108
Mof_P 	P 	0.8127	0.98895	0.5204	0.439
Mof_O 	O 	0.4006	0.9365	0.2865	-0.524
Mof_C 	C 	0.9065	0.8817	0.6361	-0.652
Mof_H 	H 	0.9176	0.8286	0.6573	0.225
Mof_H 	H 	0.9292	0.9016	0.5788	0.261
Mof_H 	H 	0.9178	0.9107	0.7215	0.261
Mof_O 	O 	0.40706	0.9723	0.536	-0.5
Mof_O 	O 	0.31998	0.8884	0.391	-0.23
Mof_O 	O 	0.7431	0.994	0.4416	-0.389
Mof_O 	O 	0.8378	0.7457	0.4555	-0.392
Mof_O 	O 	0.7973	0.8644	0.6435	-0.464
Mof_H 	H 	0.805	0.8192	0.6659	0.247
Mof_O 	O 	0.8373	0.8518	0.2963	-0.399
Mof_H 	H 	0.8258	0.8962	0.2739	0.275
Mof_O 	O 	0.8537	0.0209	0.4376	-0.411
Mof_H 	H 	0.8409	0.0029	0.3582	0.265
Mof_O 	O 	0.73592	0.8243	0.3506	-0.354
Mof_O 	O 	0.42394	0.7935	0.5984	-0.297
Mof_H 	H 	0.4343	0.824	0.6681	0.22
Mof_O 	O 	0.8313	0.0213	0.6661	-0.226
Mof_O 	O 	0.8488	0.0508	0.6172	-0.038
Mof_Sr	Sr	0.16554	0.39901	0.47196	1.531
Mof_P 	P 	0.02392	0.34635	0.53982	0.377
Mof_O 	O 	0.04257	0.3758	0.4197	-0.529
Mof_C 	C 	0.9383	0.3267	0.4832	0.14
Mof_P 	P 	0.89079	0.41393	0.42086	0.412
Mof_O 	O 	0.04095	0.3983	0.6652	-0.44
Mof_C 	C 	0.9215	0.267	0.3654	-0.561
Mof_H 	H 	0.9298	0.2881	0.2863	0.173
Mof_H 	H 	0.947	0.2217	0.3974	0.241
Mof_H 	H 	0.877	0.2539	0.3385	0.211
Mof_P 	P 	0.30816	0.32308	0.40666	0.423
Mof_O 	O 	0.0538	0.2649	0.5869	-0.424
Mof_H 	H 	0.0885	0.2592	0.5711	0.257
Mof_C 	C 	0.3344	0.3885	0.5572	0.092
Mof_P 	P 	0.3127	0.48895	0.5204	0.443
Mof_O 	O 	0.9006	0.4365	0.2865	-0.489
Mof_C 	C 	0.4065	0.3817	0.6361	-0.594
Mof_H 	H 	0.4176	0.3286	0.6573	0.197
Mof_H 	H 	0.4292	0.4016	0.5788	0.225
Mof_H 	H 	0.4178	0.4107	0.7215	0.229
Mof_O 	O 	0.90706	0.4723	0.536	-0.462
Mof_O 	O 	0.81998	0.3884	0.391	-0.23
Mof_O 	O 	0.2431	0.494	0.4416	-0.389
Mof_O 	O 	0.3378	0.2457	0.4555	-0.393
Mof_O 	O 	0.2973	0.3644	0.6435	-0.461
Mof_H 	H 	0.305	0.3192	0.6659	0.247
Mof_O 	O 	0.3373	0.3518	0.2963	-0.405
Mof_H 	H 	0.3258	0.3962	0.2739	0.275
Mof_O 	O 	0.3537	0.5209	0.4376	-0.419
Mof_H 	H 	0.3409	0.5029	0.3582	0.265
Mof_O 	O 	0.23592	0.3243	0.3506	-0.354
Mof_O 	O 	0.92394	0.2935	0.5984	-0.304
Mof_H 	H 	0.9343	0.324	0.6681	0.238
Mof_O 	O 	0.3313	0.5213	0.6661	-0.225
Mof_O 	O 	0.3488	0.5508	0.6172	-0.047
Mof_Sr	Sr	0.33446	0.89901	0.02804	1.532
Mof_P 	P 	0.47608	0.84635	0.96018	0.434
Mof_O 	O 	0.45743	0.8758	0.0803	-0.528
Mof_C 	C 	0.5617	0.8267	0.0168	0.065
Mof_P 	P 	0.60921	0.91393	0.07914	0.422
Mof_O 	O 	0.45905	0.8983	0.8348	-0.443
Mof_C 	C 	0.5785	0.767	0.1346	-0.472
Mof_H 	H 	0.5702	0.7881	0.2137	0.13
Mof_H 	H 	0.553	0.7217	0.1026	0.192
Mof_H 	H 	0.623	0.7539	0.1615	0.184
Mof_P 	P 	0.19184	0.82308	0.09334	0.428
Mof_O 	O 	0.4462	0.7649	0.9131	-0.404
Mof_H 	H 	0.4115	0.7592	0.9289	0.252
Mof_C 	C 	0.1656	0.8885	0.9428	0.073
Mof_P 	P 	0.1873	0.98895	0.9796	0.445
Mof_O 	O 	0.5994	0.9365	0.2135	-0.524
Mof_C 	C 	0.0935	0.8817	0.8639	-0.533
Mof_H 	H 	0.0824	0.8286	0.8427	0.167
Mof_H 	H 	0.0708	0.9016	0.9212	0.188
Mof_H 	H 	0.0822	0.9107	0.7785	0.198
Mof_O 	O 	0.59294	0.9723	0.964	-0.501
Mof_O 	O 	0.68002	0.8884	0.109	-0.228
Mof_O 	O 	0.2569	0.994	0.0584	-0.389
Mof_O 	O 	0.1622	0.7457	0.0445	-0.392
Mof_O 	O 	0.2027	0.8644	0.8565	-0.457
Mof_H 	H 	0.195	0.8192	0.8341	0.246
Mof_O 	O 	0.1627	0.8518	0.2037	-0.411
Mof_H 	H 	0.1742	0.8962	0.2261	0.275
Mof_O 	O 	0.1463	0.0209	0.0624	-0.422
Mof_H 	H 	0.1591	0.0029	0.1418	0.264
Mof_O 	O 	0.26408	0.8243	0.1494	-0.354
Mof_O 	O 	0.57606	0.7935	0.9016	-0.301
Mof_H 	H 	0.5657	0.824	0.8319	0.221
Mof_O 	O 	0.1687	0.0213	0.8339	-0.225
Mof_O 	O 	0.1512	0.0508	0.8828	-0.058
Mof_Sr	Sr	0.83446	0.39901	0.02804	1.541
Mof_P 	P 	0.97608	0.34635	0.96018	0.477
Mof_O 	O 	0.95743	0.3758	0.0803	-0.483
Mof_C 	C 	0.0617	0.3267	0.0168	0.01
Mof_P 	P 	0.10921	0.41393	0.07914	0.424
Mof_O 	O 	0.95905	0.3983	0.8348	-0.398
Mof_C 	C 	0.0785	0.267	0.1346	-0.407
Mof_H 	H 	0.0702	0.2881	0.2137	0.099
Mof_H 	H 	0.053	0.2217	0.1026	0.151
Mof_H 	H 	0.123	0.2539	0.1615	0.165
Mof_P 	P 	0.69184	0.32308	0.09334	0.427
Mof_O 	O 	0.9462	0.2649	0.9131	-0.381
Mof_H 	H 	0.9115	0.2592	0.9289	0.246
Mof_C 	C 	0.6656	0.3885	0.9428	0.088
Mof_P 	P 	0.6873	0.48895	0.9796	0.435
Mof_O 	O 	0.0994	0.4365	0.2135	-0.516
Mof_C 	C 	0.5935	0.3817	0.8639	-0.589
Mof_H 	H 	0.5824	0.3286	0.8427	0.195
Mof_H 	H 	0.5708	0.4016	0.9212	0.222
Mof_H 	H 	0.5822	0.4107	0.7785	0.228
Mof_O 	O 	0.09294	0.4723	0.964	-0.496
Mof_O 	O 	0.18002	0.3884	0.109	-0.226
Mof_O 	O 	0.7569	0.494	0.0584	-0.387
Mof_O 	O 	0.6622	0.2457	0.0445	-0.39
Mof_O 	O 	0.7027	0.3644	0.8565	-0.462
Mof_H 	H 	0.695	0.3192	0.8341	0.246
Mof_O 	O 	0.6627	0.3518	0.2037	-0.405
Mof_H 	H 	0.6742	0.3962	0.2261	0.276
Mof_O 	O 	0.6463	0.5209	0.0624	-0.414
Mof_H 	H 	0.6591	0.5029	0.1418	0.264
Mof_O 	O 	0.76408	0.3243	0.1494	-0.356
Mof_O 	O 	0.07606	0.2935	0.9016	-0.304
Mof_H 	H 	0.0657	0.324	0.8319	0.21
Mof_O 	O 	0.6687	0.5213	0.8339	-0.224
Mof_O 	O 	0.6512	0.5508	0.8828	-0.048
Mof_Sr	Sr	0.5	0.01304	0.75	1.734
Mof_Sr	Sr	1.72896e-33	0.51304	0.75	1.542
Mof_Sr	Sr	0.5	0.98696	0.25	1.736
Mof_Sr	Sr	5.7632e-34	0.48696	0.25	1.545
_end
