# CIF file generated by openbabel 3.1.0, see https://openbabel.org
data_I
_chemical_name_common 'image0'
_cell_length_a 10.0327
_cell_length_b 25.651
_cell_length_c 9.5121
_cell_angle_alpha 90
_cell_angle_beta 90
_cell_angle_gamma 90
_space_group_name_H-M_alt 'P 1'
_space_group_name_Hall 'P 1'
loop_
    _symmetry_equiv_pos_as_xyz
    x,y,z
loop_
    _atom_site_label
    _atom_site_type_symbol
    _atom_site_fract_x
    _atom_site_fract_y
    _atom_site_fract_z
    _atom_site_occupancy
    Zn1      Zn       0.39245    0.45186    0.07823    1.000
    C1       C        0.13910    0.44920    0.24480    1.000
    H1       H        0.10400    0.42450    0.18360    1.000
    C2       C        0.26780    0.50230    0.33980    1.000
    H2       H        0.34230    0.52250    0.36060    1.000
    C3       C        0.35460    0.34850    0.10030    1.000
    C4       C        0.28540    0.29720    0.07210    1.000
    C5       C        0.16390    0.29630    0.00570    1.000
    H3       H        0.12340    0.32760    0.98100    1.000
    N1       N        0.26150    0.46910    0.23070    1.000
    N2       N        0.07380    0.46740    0.35100    1.000
    N3       N        0.15680    0.50316    0.41400    1.000
    O1       O        0.32330    0.38481    0.01780    1.000
    O2       O        0.43300    0.35320    0.19850    1.000
    Zn2      Zn       0.10755    0.54814    0.57823    1.000
    C6       C        0.36090    0.55080    0.74480    1.000
    H4       H        0.39600    0.57550    0.68360    1.000
    C7       C        0.23220    0.49770    0.83980    1.000
    H5       H        0.15770    0.47750    0.86060    1.000
    C8       C        0.14540    0.65150    0.60030    1.000
    C9       C        0.21460    0.70280    0.57210    1.000
    C10      C        0.33610    0.70370    0.50570    1.000
    H6       H        0.37660    0.67240    0.48100    1.000
    N4       N        0.23850    0.53090    0.73070    1.000
    N5       N        0.42620    0.53260    0.85100    1.000
    N6       N        0.34320    0.49684    0.91400    1.000
    O3       O        0.17670    0.61519    0.51780    1.000
    O4       O        0.06700    0.64680    0.69850    1.000
    Zn3      Zn       0.60755    0.95186    0.92177    1.000
    C11      C        0.86090    0.94920    0.75520    1.000
    H7       H        0.89600    0.92450    0.81640    1.000
    C12      C        0.73220    0.00230    0.66020    1.000
    H8       H        0.65770    0.02250    0.63940    1.000
    C13      C        0.64540    0.84850    0.89970    1.000
    C14      C        0.71460    0.79720    0.92790    1.000
    C15      C        0.83610    0.79630    0.99430    1.000
    H9       H        0.87660    0.82760    0.01900    1.000
    N7       N        0.73850    0.96910    0.76930    1.000
    N8       N        0.92620    0.96740    0.64900    1.000
    N9       N        0.84320    0.00316    0.58600    1.000
    O5       O        0.67670    0.88481    0.98220    1.000
    O6       O        0.56700    0.85320    0.80150    1.000
    Zn4      Zn       0.89245    0.04814    0.42177    1.000
    C16      C        0.63910    0.05080    0.25520    1.000
    H10      H        0.60400    0.07550    0.31640    1.000
    C17      C        0.76780    0.99770    0.16020    1.000
    H11      H        0.84230    0.97750    0.13940    1.000
    C18      C        0.85460    0.15150    0.39970    1.000
    C19      C        0.78540    0.20280    0.42790    1.000
    C20      C        0.66390    0.20370    0.49430    1.000
    H12      H        0.62340    0.17240    0.51900    1.000
    N10      N        0.76150    0.03090    0.26930    1.000
    N11      N        0.57380    0.03260    0.14900    1.000
    N12      N        0.65680    0.99684    0.08600    1.000
    O7       O        0.82330    0.11519    0.48220    1.000
    O8       O        0.93300    0.14680    0.30150    1.000
    Zn5      Zn       0.60755    0.54814    0.92177    1.000
    C21      C        0.86090    0.55080    0.75520    1.000
    H13      H        0.89600    0.57550    0.81640    1.000
    C22      C        0.73220    0.49770    0.66020    1.000
    H14      H        0.65770    0.47750    0.63940    1.000
    C23      C        0.64540    0.65150    0.89970    1.000
    C24      C        0.71460    0.70280    0.92790    1.000
    C25      C        0.83610    0.70370    0.99430    1.000
    H15      H        0.87660    0.67240    0.01900    1.000
    N13      N        0.73850    0.53090    0.76930    1.000
    N14      N        0.92620    0.53260    0.64900    1.000
    N15      N        0.84320    0.49684    0.58600    1.000
    O9       O        0.67670    0.61519    0.98220    1.000
    O10      O        0.56700    0.64680    0.80150    1.000
    Zn6      Zn       0.89245    0.45186    0.42177    1.000
    C26      C        0.63910    0.44920    0.25520    1.000
    H16      H        0.60400    0.42450    0.31640    1.000
    C27      C        0.76780    0.50230    0.16020    1.000
    H17      H        0.84230    0.52250    0.13940    1.000
    C28      C        0.85460    0.34850    0.39970    1.000
    C29      C        0.78540    0.29720    0.42790    1.000
    C30      C        0.66390    0.29630    0.49430    1.000
    H18      H        0.62340    0.32760    0.51900    1.000
    N16      N        0.76150    0.46910    0.26930    1.000
    N17      N        0.57380    0.46740    0.14900    1.000
    N18      N        0.65680    0.50316    0.08600    1.000
    O11      O        0.82330    0.38481    0.48220    1.000
    O12      O        0.93300    0.35320    0.30150    1.000
    Zn7      Zn       0.39245    0.04814    0.07823    1.000
    C31      C        0.13910    0.05080    0.24480    1.000
    H19      H        0.10400    0.07550    0.18360    1.000
    C32      C        0.26780    0.99770    0.33980    1.000
    H20      H        0.34230    0.97750    0.36060    1.000
    C33      C        0.35460    0.15150    0.10030    1.000
    C34      C        0.28540    0.20280    0.07210    1.000
    C35      C        0.16390    0.20370    0.00570    1.000
    H21      H        0.12340    0.17240    0.98100    1.000
    N19      N        0.26150    0.03090    0.23070    1.000
    N20      N        0.07380    0.03260    0.35100    1.000
    N21      N        0.15680    0.99684    0.41400    1.000
    O13      O        0.32330    0.11519    0.01780    1.000
    O14      O        0.43300    0.14680    0.19850    1.000
    Zn8      Zn       0.10755    0.95186    0.57823    1.000
    C36      C        0.36090    0.94920    0.74480    1.000
    H22      H        0.39600    0.92450    0.68360    1.000
    C37      C        0.23220    0.00230    0.83980    1.000
    H23      H        0.15770    0.02250    0.86060    1.000
    C38      C        0.14540    0.84850    0.60030    1.000
    C39      C        0.21460    0.79720    0.57210    1.000
    C40      C        0.33610    0.79630    0.50570    1.000
    H24      H        0.37660    0.82760    0.48100    1.000
    N22      N        0.23850    0.96910    0.73070    1.000
    N23      N        0.42620    0.96740    0.85100    1.000
    N24      N        0.34320    0.00316    0.91400    1.000
    O15      O        0.17670    0.88481    0.51780    1.000
    O16      O        0.06700    0.85320    0.69850    1.000
    C41      C        0.34560    0.25000    0.10850    1.000
    H25      H        0.42610    0.25000    0.15710    1.000
    C42      C        0.10080    0.25000    0.97500    1.000
    H26      H        0.01660    0.25000    0.93410    1.000
    C43      C        0.15440    0.75000    0.60850    1.000
    H27      H        0.07390    0.75000    0.65710    1.000
    C44      C        0.39920    0.75000    0.47500    1.000
    H28      H        0.48340    0.75000    0.43410    1.000
    C45      C        0.65440    0.75000    0.89150    1.000
    H29      H        0.57390    0.75000    0.84290    1.000
    C46      C        0.89920    0.75000    0.02500    1.000
    H30      H        0.98340    0.75000    0.06590    1.000
    C47      C        0.84560    0.25000    0.39150    1.000
    H31      H        0.92610    0.25000    0.34290    1.000
    C48      C        0.60080    0.25000    0.52500    1.000
    H32      H        0.51660    0.25000    0.56590    1.000
