data_functionalizedCrystal
_audit_creation_method	'EQeq! by Chris Wilmer'
_symmetry_space_group_name_H-M	'P1'
_symmetry_Int_Tables_number	1
_symmetry_cell_setting	triclinic
loop_
_symmetry_equiv_pos_as_xyz
  x,y,z
_cell_length_a	18.8182
_cell_length_b	18.8182
_cell_length_c	18.8182
_cell_angle_alpha	60
_cell_angle_beta	60
_cell_angle_gamma	60
loop_
_atom_site_label
_atom_site_type_symbol
_atom_site_fract_x
_atom_site_fract_y
_atom_site_fract_z
_atom_site_charge
Mof_Tb	Tb	0.75	0.25	0.25	2.321
Mof_Tb	Tb	0.75	0.25	0.75	2.337
Mof_Tb	Tb	0.75	0.75	0.25	2.337
Mof_Tb	Tb	0.25	0.25	0.25	2.305
Mof_Tb	Tb	0.25	0.75	0.75	2.336
Mof_Tb	Tb	0.25	0.75	0.25	2.32
Mof_Tb	Tb	0.25	0.25	0.75	2.32
Mof_Tb	Tb	0.75	0.75	0.75	2.352
Mof_Ca	Ca	0.5	0.5	0.5	1.634
Mof_Ca	Ca	1.20632e-17	2.41263e-17	0.5	1.002
Mof_Ca	Ca	-0	0.5	-0	1.003
Mof_Ca	Ca	1.20632e-17	0.5	0.5	1.316
Mof_Ca	Ca	0.5	0.5	-0	1.324
Mof_Ca	Ca	-0	0	-0	0.69
Mof_Ca	Ca	0.5	2.41263e-17	0.5	1.325
Mof_Ca	Ca	0.5	0	-0	1.011
Mof_H 	H 	0.5162	0.4154	0.3452	0.098
Mof_H 	H 	0.575	0.474	0.2952	0.095
Mof_H 	H 	0.9154	0.0162	0.7232	0.088
Mof_H 	H 	0.974	0.075	0.6558	0.127
Mof_H 	H 	0.8452	0.7232	0.0162	0.064
Mof_H 	H 	0.7952	0.6558	0.075	0.065
Mof_H 	H 	0.2232	0.3452	0.4154	0.098
Mof_H 	H 	0.1558	0.2952	0.474	0.079
Mof_H 	H 	0.5162	0.3452	0.7232	0.104
Mof_H 	H 	0.575	0.2952	0.6558	0.096
Mof_H 	H 	0.9154	0.7232	0.3452	0.151
Mof_H 	H 	0.974	0.6558	0.2952	0.165
Mof_H 	H 	0.8452	0.0162	0.4154	0.057
Mof_H 	H 	0.7952	0.075	0.474	0.063
Mof_H 	H 	0.2232	0.4154	0.0162	0.032
Mof_H 	H 	0.1558	0.474	0.075	0.04
Mof_H 	H 	0.5162	0.7232	0.4154	0.105
Mof_H 	H 	0.575	0.6558	0.474	0.101
Mof_H 	H 	0.9154	0.3452	0.0162	0.08
Mof_H 	H 	0.974	0.2952	0.075	0.121
Mof_H 	H 	0.8452	0.4154	0.7232	0.127
Mof_H 	H 	0.7952	0.474	0.6558	0.106
Mof_H 	H 	0.2232	0.0162	0.3452	0.031
Mof_H 	H 	0.1558	0.075	0.2952	0.034
Mof_H 	H 	0.5846	0.4838	0.1548	0.082
Mof_H 	H 	0.526	0.425	0.2048	0.098
Mof_H 	H 	0.9838	0.0846	0.7768	0.13
Mof_H 	H 	0.925	0.026	0.8442	0.11
Mof_H 	H 	0.2768	0.1548	0.4838	0.075
Mof_H 	H 	0.3442	0.2048	0.425	0.097
Mof_H 	H 	0.6548	0.7768	0.0846	0.062
Mof_H 	H 	0.7048	0.8442	0.026	0.066
Mof_H 	H 	0.6548	0.4838	0.7768	0.104
Mof_H 	H 	0.7048	0.425	0.8442	0.124
Mof_H 	H 	0.2768	0.0846	0.1548	0.03
Mof_H 	H 	0.3442	0.026	0.2048	0.035
Mof_H 	H 	0.9838	0.1548	0.0846	0.11
Mof_H 	H 	0.925	0.2048	0.026	0.09
Mof_H 	H 	0.5846	0.7768	0.4838	0.103
Mof_H 	H 	0.526	0.8442	0.425	0.119
Mof_H 	H 	0.2768	0.4838	0.0846	0.051
Mof_H 	H 	0.3442	0.425	0.026	0.035
Mof_H 	H 	0.6548	0.0846	0.4838	0.059
Mof_H 	H 	0.7048	0.026	0.425	0.044
Mof_H 	H 	0.5846	0.1548	0.7768	0.084
Mof_H 	H 	0.526	0.2048	0.8442	0.12
Mof_H 	H 	0.9838	0.7768	0.1548	0.154
Mof_H 	H 	0.925	0.8442	0.2048	0.17
Mof_H 	H 	0.4838	0.5846	0.6548	0.101
Mof_H 	H 	0.425	0.526	0.7048	0.104
Mof_H 	H 	0.0846	0.9838	0.2768	0.12
Mof_H 	H 	0.026	0.925	0.3442	0.086
Mof_H 	H 	0.1548	0.2768	0.9838	0.145
Mof_H 	H 	0.2048	0.3442	0.925	0.148
Mof_H 	H 	0.7768	0.6548	0.5846	0.104
Mof_H 	H 	0.8442	0.7048	0.526	0.125
Mof_H 	H 	0.4838	0.6548	0.2768	0.096
Mof_H 	H 	0.425	0.7048	0.3442	0.102
Mof_H 	H 	0.0846	0.2768	0.6548	0.051
Mof_H 	H 	0.026	0.3442	0.7048	0.04
Mof_H 	H 	0.1548	0.9838	0.5846	0.15
Mof_H 	H 	0.2048	0.925	0.526	0.149
Mof_H 	H 	0.7768	0.5846	0.9838	0.169
Mof_H 	H 	0.8442	0.526	0.925	0.168
Mof_H 	H 	0.4838	0.2768	0.5846	0.094
Mof_H 	H 	0.425	0.3442	0.526	0.097
Mof_H 	H 	0.0846	0.6548	0.9838	0.127
Mof_H 	H 	0.026	0.7048	0.925	0.092
Mof_H 	H 	0.1548	0.5846	0.2768	0.074
Mof_H 	H 	0.2048	0.526	0.3442	0.097
Mof_H 	H 	0.7768	0.9838	0.6548	0.169
Mof_H 	H 	0.8442	0.925	0.7048	0.171
Mof_H 	H 	0.4154	0.5162	0.8452	0.121
Mof_H 	H 	0.474	0.575	0.7952	0.106
Mof_H 	H 	0.0162	0.9154	0.2232	0.078
Mof_H 	H 	0.075	0.974	0.1558	0.109
Mof_H 	H 	0.7232	0.8452	0.5162	0.127
Mof_H 	H 	0.6558	0.7952	0.575	0.107
Mof_H 	H 	0.3452	0.2232	0.9154	0.144
Mof_H 	H 	0.2952	0.1558	0.974	0.149
Mof_H 	H 	0.3452	0.5162	0.2232	0.097
Mof_H 	H 	0.2952	0.575	0.1558	0.08
Mof_H 	H 	0.7232	0.9154	0.8452	0.168
Mof_H 	H 	0.6558	0.974	0.7952	0.17
Mof_H 	H 	0.0162	0.8452	0.9154	0.1
Mof_H 	H 	0.075	0.7952	0.974	0.128
Mof_H 	H 	0.4154	0.2232	0.5162	0.099
Mof_H 	H 	0.474	0.1558	0.575	0.086
Mof_H 	H 	0.7232	0.5162	0.9154	0.15
Mof_H 	H 	0.6558	0.575	0.974	0.167
Mof_H 	H 	0.3452	0.9154	0.5162	0.144
Mof_H 	H 	0.2952	0.974	0.575	0.163
Mof_H 	H 	0.4154	0.8452	0.2232	0.121
Mof_H 	H 	0.474	0.7952	0.1558	0.091
Mof_H 	H 	0.0162	0.2232	0.8452	0.054
Mof_H 	H 	0.075	0.1558	0.7952	0.046
Mof_C 	C 	0.57596	0.41464	0.31822	-0.236
Mof_C 	C 	0.6204	0.36086	0.3847	0.483
Mof_C 	C 	0.91464	0.07596	0.69118	-0.229
Mof_C 	C 	0.86086	0.1204	0.63404	0.458
Mof_C 	C 	0.81822	0.69118	0.07596	-0.176
Mof_C 	C 	0.8847	0.63404	0.1204	0.43
Mof_C 	C 	0.19118	0.31822	0.41464	-0.227
Mof_C 	C 	0.13404	0.3847	0.36086	0.466
Mof_C 	C 	0.57596	0.31822	0.69118	-0.24
Mof_C 	C 	0.6204	0.3847	0.63404	0.486
Mof_C 	C 	0.91464	0.69118	0.31822	-0.285
Mof_C 	C 	0.86086	0.63404	0.3847	0.498
Mof_C 	C 	0.81822	0.07596	0.41464	-0.172
Mof_C 	C 	0.8847	0.1204	0.36086	0.427
Mof_C 	C 	0.19118	0.41464	0.07596	-0.169
Mof_C 	C 	0.13404	0.36086	0.1204	0.425
Mof_C 	C 	0.57596	0.69118	0.41464	-0.244
Mof_C 	C 	0.6204	0.63404	0.36086	0.488
Mof_C 	C 	0.91464	0.31822	0.07596	-0.221
Mof_C 	C 	0.86086	0.3847	0.1204	0.453
Mof_C 	C 	0.81822	0.41464	0.69118	-0.236
Mof_C 	C 	0.8847	0.36086	0.63404	0.472
Mof_C 	C 	0.19118	0.07596	0.31822	-0.164
Mof_C 	C 	0.13404	0.1204	0.3847	0.422
Mof_C 	C 	0.58536	0.42404	0.18178	-0.232
Mof_C 	C 	0.63914	0.3796	0.1153	0.469
Mof_C 	C 	0.92404	0.08536	0.80882	-0.218
Mof_C 	C 	0.8796	0.13914	0.86596	0.442
Mof_C 	C 	0.30882	0.18178	0.42404	-0.227
Mof_C 	C 	0.36596	0.1153	0.3796	0.466
Mof_C 	C 	0.68178	0.80882	0.08536	-0.177
Mof_C 	C 	0.6153	0.86596	0.13914	0.431
Mof_C 	C 	0.68178	0.42404	0.80882	-0.236
Mof_C 	C 	0.6153	0.3796	0.86596	0.472
Mof_C 	C 	0.30882	0.08536	0.18178	-0.164
Mof_C 	C 	0.36596	0.13914	0.1153	0.423
Mof_C 	C 	0.92404	0.18178	0.08536	-0.217
Mof_C 	C 	0.8796	0.1153	0.13914	0.441
Mof_C 	C 	0.58536	0.80882	0.42404	-0.234
Mof_C 	C 	0.63914	0.86596	0.3796	0.47
Mof_C 	C 	0.30882	0.42404	0.08536	-0.174
Mof_C 	C 	0.36596	0.3796	0.13914	0.439
Mof_C 	C 	0.68178	0.08536	0.42404	-0.184
Mof_C 	C 	0.6153	0.13914	0.3796	0.445
Mof_C 	C 	0.58536	0.18178	0.80882	-0.225
Mof_C 	C 	0.63914	0.1153	0.86596	0.455
Mof_C 	C 	0.92404	0.80882	0.18178	-0.27
Mof_C 	C 	0.8796	0.86596	0.1153	0.468
Mof_C 	C 	0.42404	0.58536	0.68178	-0.244
Mof_C 	C 	0.3796	0.63914	0.6153	0.487
Mof_C 	C 	0.08536	0.92404	0.30882	-0.218
Mof_C 	C 	0.13914	0.8796	0.36596	0.453
Mof_C 	C 	0.18178	0.30882	0.92404	-0.273
Mof_C 	C 	0.1153	0.36596	0.8796	0.48
Mof_C 	C 	0.80882	0.68178	0.58536	-0.236
Mof_C 	C 	0.86596	0.6153	0.63914	0.472
Mof_C 	C 	0.42404	0.68178	0.30882	-0.239
Mof_C 	C 	0.3796	0.6153	0.36596	0.484
Mof_C 	C 	0.08536	0.30882	0.68178	-0.176
Mof_C 	C 	0.13914	0.36596	0.6153	0.441
Mof_C 	C 	0.18178	0.92404	0.58536	-0.277
Mof_C 	C 	0.1153	0.8796	0.63914	0.483
Mof_C 	C 	0.80882	0.58536	0.92404	-0.276
Mof_C 	C 	0.86596	0.63914	0.8796	0.483
Mof_C 	C 	0.42404	0.30882	0.58536	-0.236
Mof_C 	C 	0.3796	0.36596	0.63914	0.482
Mof_C 	C 	0.08536	0.68178	0.92404	-0.226
Mof_C 	C 	0.13914	0.6153	0.8796	0.458
Mof_C 	C 	0.18178	0.58536	0.30882	-0.226
Mof_C 	C 	0.1153	0.63914	0.36596	0.467
Mof_C 	C 	0.80882	0.92404	0.68178	-0.277
Mof_C 	C 	0.86596	0.8796	0.6153	0.484
Mof_C 	C 	0.41464	0.57596	0.81822	-0.233
Mof_C 	C 	0.36086	0.6204	0.8847	0.471
Mof_C 	C 	0.07596	0.91464	0.19118	-0.214
Mof_C 	C 	0.1204	0.86086	0.13404	0.438
Mof_C 	C 	0.69118	0.81822	0.57596	-0.236
Mof_C 	C 	0.63404	0.8847	0.6204	0.474
Mof_C 	C 	0.31822	0.19118	0.91464	-0.273
Mof_C 	C 	0.3847	0.13404	0.86086	0.48
Mof_C 	C 	0.31822	0.57596	0.19118	-0.227
Mof_C 	C 	0.3847	0.6204	0.13404	0.468
Mof_C 	C 	0.69118	0.91464	0.81822	-0.278
Mof_C 	C 	0.63404	0.86086	0.8847	0.484
Mof_C 	C 	0.07596	0.81822	0.91464	-0.215
Mof_C 	C 	0.1204	0.8847	0.86086	0.439
Mof_C 	C 	0.41464	0.19118	0.57596	-0.232
Mof_C 	C 	0.36086	0.13404	0.6204	0.47
Mof_C 	C 	0.69118	0.57596	0.91464	-0.287
Mof_C 	C 	0.63404	0.6204	0.86086	0.501
Mof_C 	C 	0.31822	0.91464	0.57596	-0.281
Mof_C 	C 	0.3847	0.86086	0.6204	0.496
Mof_C 	C 	0.41464	0.81822	0.19118	-0.225
Mof_C 	C 	0.36086	0.8847	0.13404	0.455
Mof_C 	C 	0.07596	0.19118	0.81822	-0.161
Mof_C 	C 	0.1204	0.13404	0.8847	0.41
Mof_O 	O 	0.68638	0.29618	0.3723	-0.491
Mof_O 	O 	0.58905	0.38255	0.44969	-0.474
Mof_O 	O 	0.79618	0.18638	0.64514	-0.488
Mof_O 	O 	0.88255	0.08905	0.57871	-0.395
Mof_O 	O 	0.8723	0.64514	0.18638	-0.46
Mof_O 	O 	0.94969	0.57871	0.08905	-0.348
Mof_O 	O 	0.14514	0.3723	0.29618	-0.513
Mof_O 	O 	0.07871	0.44969	0.38255	-0.488
Mof_O 	O 	0.68638	0.3723	0.64514	-0.493
Mof_O 	O 	0.58905	0.44969	0.57871	-0.474
Mof_O 	O 	0.79618	0.64514	0.3723	-0.491
Mof_O 	O 	0.88255	0.57871	0.44969	-0.401
Mof_O 	O 	0.8723	0.18638	0.29618	-0.458
Mof_O 	O 	0.94969	0.08905	0.38255	-0.349
Mof_O 	O 	0.14514	0.29618	0.18638	-0.51
Mof_O 	O 	0.07871	0.38255	0.08905	-0.485
Mof_O 	O 	0.68638	0.64514	0.29618	-0.494
Mof_O 	O 	0.58905	0.57871	0.38255	-0.475
Mof_O 	O 	0.79618	0.3723	0.18638	-0.485
Mof_O 	O 	0.88255	0.44969	0.08905	-0.394
Mof_O 	O 	0.8723	0.29618	0.64514	-0.464
Mof_O 	O 	0.94969	0.38255	0.57871	-0.355
Mof_O 	O 	0.14514	0.18638	0.3723	-0.508
Mof_O 	O 	0.07871	0.08905	0.44969	-0.483
Mof_O 	O 	0.70382	0.31362	0.1277	-0.515
Mof_O 	O 	0.61745	0.41095	0.05031	-0.501
Mof_O 	O 	0.81362	0.20382	0.85486	-0.451
Mof_O 	O 	0.91095	0.11745	0.92129	-0.262
Mof_O 	O 	0.35486	0.1277	0.31362	-0.515
Mof_O 	O 	0.42129	0.05031	0.41095	-0.503
Mof_O 	O 	0.6277	0.85486	0.20382	-0.459
Mof_O 	O 	0.55031	0.92129	0.11745	-0.351
Mof_O 	O 	0.6277	0.31362	0.85486	-0.468
Mof_O 	O 	0.55031	0.41095	0.92129	-0.373
Mof_O 	O 	0.35486	0.20382	0.1277	-0.506
Mof_O 	O 	0.42129	0.11745	0.05031	-0.482
Mof_O 	O 	0.81362	0.1277	0.20382	-0.499
Mof_O 	O 	0.91095	0.05031	0.11745	-0.39
Mof_O 	O 	0.70382	0.85486	0.31362	-0.466
Mof_O 	O 	0.61745	0.92129	0.41095	-0.372
Mof_O 	O 	0.35486	0.31362	0.20382	-0.489
Mof_O 	O 	0.42129	0.41095	0.11745	-0.458
Mof_O 	O 	0.6277	0.20382	0.31362	-0.492
Mof_O 	O 	0.55031	0.11745	0.41095	-0.459
Mof_O 	O 	0.70382	0.1277	0.85486	-0.482
Mof_O 	O 	0.61745	0.05031	0.92129	-0.393
Mof_O 	O 	0.81362	0.85486	0.1277	-0.476
Mof_O 	O 	0.91095	0.92129	0.05031	-0.306
Mof_O 	O 	0.31362	0.70382	0.6277	-0.497
Mof_O 	O 	0.41095	0.61745	0.55031	-0.476
Mof_O 	O 	0.20382	0.81362	0.35486	-0.479
Mof_O 	O 	0.11745	0.91095	0.42129	-0.365
Mof_O 	O 	0.1277	0.35486	0.81362	-0.505
Mof_O 	O 	0.05031	0.42129	0.91095	-0.411
Mof_O 	O 	0.85486	0.6277	0.70382	-0.464
Mof_O 	O 	0.92129	0.55031	0.61745	-0.368
Mof_O 	O 	0.31362	0.6277	0.35486	-0.497
Mof_O 	O 	0.41095	0.55031	0.42129	-0.477
Mof_O 	O 	0.20382	0.35486	0.6277	-0.487
Mof_O 	O 	0.11745	0.42129	0.55031	-0.456
Mof_O 	O 	0.1277	0.81362	0.70382	-0.505
Mof_O 	O 	0.05031	0.91095	0.61745	-0.409
Mof_O 	O 	0.85486	0.70382	0.81362	-0.457
Mof_O 	O 	0.92129	0.61745	0.91095	-0.284
Mof_O 	O 	0.31362	0.35486	0.70382	-0.494
Mof_O 	O 	0.41095	0.42129	0.61745	-0.475
Mof_O 	O 	0.20382	0.6277	0.81362	-0.481
Mof_O 	O 	0.11745	0.55031	0.91095	-0.366
Mof_O 	O 	0.1277	0.70382	0.35486	-0.511
Mof_O 	O 	0.05031	0.61745	0.42129	-0.499
Mof_O 	O 	0.85486	0.81362	0.6277	-0.458
Mof_O 	O 	0.92129	0.91095	0.55031	-0.285
Mof_O 	O 	0.29618	0.68638	0.8723	-0.46
Mof_O 	O 	0.38255	0.58905	0.94969	-0.355
Mof_O 	O 	0.18638	0.79618	0.14514	-0.503
Mof_O 	O 	0.08905	0.88255	0.07871	-0.407
Mof_O 	O 	0.64514	0.8723	0.68638	-0.462
Mof_O 	O 	0.57871	0.94969	0.58905	-0.356
Mof_O 	O 	0.3723	0.14514	0.79618	-0.506
Mof_O 	O 	0.44969	0.07871	0.88255	-0.411
Mof_O 	O 	0.3723	0.68638	0.14514	-0.508
Mof_O 	O 	0.44969	0.58905	0.07871	-0.483
Mof_O 	O 	0.64514	0.79618	0.8723	-0.461
Mof_O 	O 	0.57871	0.88255	0.94969	-0.288
Mof_O 	O 	0.18638	0.8723	0.79618	-0.455
Mof_O 	O 	0.08905	0.94969	0.88255	-0.279
Mof_O 	O 	0.29618	0.14514	0.68638	-0.509
Mof_O 	O 	0.38255	0.07871	0.58905	-0.486
Mof_O 	O 	0.64514	0.68638	0.79618	-0.489
Mof_O 	O 	0.57871	0.58905	0.88255	-0.401
Mof_O 	O 	0.3723	0.79618	0.68638	-0.487
Mof_O 	O 	0.44969	0.88255	0.58905	-0.4
Mof_O 	O 	0.29618	0.8723	0.14514	-0.48
Mof_O 	O 	0.38255	0.94969	0.07871	-0.366
Mof_O 	O 	0.18638	0.14514	0.8723	-0.475
Mof_O 	O 	0.08905	0.07871	0.94969	-0.361
Mof_O 	O 	0.6197	0.3803	0.25	-0.265
Mof_O 	O 	0.8803	0.1197	0.75	-0.261
Mof_O 	O 	0.75	0.75	0.1197	-0.287
Mof_O 	O 	0.25	0.25	0.3803	-0.27
Mof_O 	O 	0.6197	0.25	0.75	-0.263
Mof_O 	O 	0.8803	0.75	0.25	-0.234
Mof_O 	O 	0.75	0.1197	0.3803	-0.289
Mof_O 	O 	0.25	0.3803	0.1197	-0.298
Mof_O 	O 	0.6197	0.75	0.3803	-0.258
Mof_O 	O 	0.8803	0.25	0.1197	-0.268
Mof_O 	O 	0.75	0.3803	0.75	-0.255
Mof_O 	O 	0.25	0.1197	0.25	-0.304
Mof_O 	O 	0.3803	0.6197	0.75	-0.257
Mof_O 	O 	0.1197	0.8803	0.25	-0.269
Mof_O 	O 	0.25	0.25	0.8803	-0.241
Mof_O 	O 	0.75	0.75	0.6197	-0.255
Mof_O 	O 	0.3803	0.75	0.25	-0.261
Mof_O 	O 	0.1197	0.25	0.75	-0.296
Mof_O 	O 	0.25	0.8803	0.6197	-0.237
Mof_O 	O 	0.75	0.6197	0.8803	-0.23
Mof_O 	O 	0.3803	0.25	0.6197	-0.265
Mof_O 	O 	0.1197	0.75	0.8803	-0.262
Mof_O 	O 	0.25	0.6197	0.25	-0.271
Mof_O 	O 	0.75	0.8803	0.75	-0.228
_end
