data_functionalizedCrystal
_audit_creation_method	'EQeq! by Chris Wilmer'
_symmetry_space_group_name_H-M	'P1'
_symmetry_Int_Tables_number	1
_symmetry_cell_setting	triclinic
loop_
_symmetry_equiv_pos_as_xyz
  x,y,z
_cell_length_a	10.986
_cell_length_b	15.1094
_cell_length_c	15.1094
_cell_angle_alpha	65.6765
_cell_angle_beta	75.9738
_cell_angle_gamma	104.026
loop_
_atom_site_label
_atom_site_type_symbol
_atom_site_fract_x
_atom_site_fract_y
_atom_site_fract_z
_atom_site_charge
Mof_Fe	Fe	0.5	0.5	0.5	0.591
Mof_H 	H 	0.233	0.3448	0.532	0.116
Mof_H 	H 	0.4774	0.6874	0.292	0.243
Mof_H 	H 	0.3519	0.7071	0.2691	0.223
Mof_H 	H 	0.4454	0.6762	0.2007	0.219
Mof_H 	H 	0.0343	0.2417	0.5297	0.295
Mof_H 	H 	0.0439	0.2757	0.4143	0.294
Mof_H 	H 	0.9554	0.31	0.4819	0.315
Mof_H 	H 	0.0263	0.711	0.2424	0.226
Mof_H 	H 	0.1596	0.7134	0.2637	0.216
Mof_H 	H 	0.018	0.6286	0.3517	0.222
Mof_H 	H 	0.135	0.3752	0.1445	0.236
Mof_H 	H 	0.1278	0.3308	0.2603	0.229
Mof_H 	H 	0.2628	0.4186	0.166	0.229
Mof_H 	H 	0.991	0.6285	0.1395	0.141
Mof_H 	H 	0.767	0.6552	0.468	0.113
Mof_H 	H 	0.5226	0.3126	0.708	0.244
Mof_H 	H 	0.6481	0.2929	0.7309	0.225
Mof_H 	H 	0.5546	0.3238	0.7993	0.228
Mof_H 	H 	0.9657	0.7583	0.4703	0.221
Mof_H 	H 	0.9561	0.7243	0.5857	0.218
Mof_H 	H 	0.0446	0.69	0.5181	0.188
Mof_H 	H 	0.9737	0.289	0.7576	0.273
Mof_H 	H 	0.8404	0.2866	0.7363	0.245
Mof_H 	H 	0.982	0.3714	0.6483	0.263
Mof_H 	H 	0.865	0.6248	0.8555	0.275
Mof_H 	H 	0.8722	0.6692	0.7397	0.265
Mof_H 	H 	0.7372	0.5814	0.834	0.259
Mof_H 	H 	0.009	0.3715	0.8605	0.097
Mof_C 	C 	0.27546	0.34882	0.73564	0.052
Mof_C 	C 	0.3189	0.5526	0.3447	0.254
Mof_C 	C 	0.20211	0.49242	0.33969	-0.196
Mof_C 	C 	0.1558	0.3935	0.4265	0.322
Mof_C 	C 	0.4061	0.6658	0.2701	-0.736
Mof_C 	C 	0.037	0.2968	0.4666	-0.958
Mof_C 	C 	0.0838	0.5958	0.2364	0.247
Mof_C 	C 	0.14229	0.52241	0.26024	-0.156
Mof_C 	C 	0.1195	0.4746	0.1998	0.237
Mof_C 	C 	0.0708	0.6686	0.2771	-0.733
Mof_C 	C 	0.1652	0.3925	0.1921	-0.736
Mof_C 	C 	0.72454	0.65118	0.26436	0.06
Mof_C 	C 	0.6811	0.4474	0.6553	0.243
Mof_C 	C 	0.79789	0.50758	0.66031	-0.143
Mof_C 	C 	0.8442	0.6065	0.5735	0.239
Mof_C 	C 	0.5939	0.3342	0.7299	-0.737
Mof_C 	C 	0.963	0.7032	0.5334	-0.657
Mof_C 	C 	0.9162	0.4042	0.7636	0.291
Mof_C 	C 	0.85771	0.47759	0.73976	-0.186
Mof_C 	C 	0.8805	0.5254	0.8002	0.284
Mof_C 	C 	0.9292	0.3314	0.7229	-0.81
Mof_C 	C 	0.8348	0.6075	0.8079	-0.809
Mof_S 	S 	0.1842	0.28247	0.86072	-0.12
Mof_S 	S 	0.8158	0.71753	0.13928	-0.126
Mof_N 	N 	0.34377	0.39634	0.64723	-0.209
Mof_N 	N 	0.34173	0.49387	0.42838	-0.176
Mof_N 	N 	0.24121	0.39784	0.47581	-0.238
Mof_N 	N 	0.05103	0.51529	0.1423	-0.173
Mof_N 	N 	0.03216	0.58934	0.16646	-0.247
Mof_N 	N 	0.65623	0.60366	0.35277	-0.209
Mof_N 	N 	0.65827	0.50613	0.57162	-0.174
Mof_N 	N 	0.75879	0.60216	0.52419	-0.217
Mof_N 	N 	0.94897	0.48471	0.8577	-0.155
Mof_N 	N 	0.96784	0.41066	0.83354	-0.201
Mof_Fe	Fe	-2.78039e-17	0.5	-0	0.514
Mof_H 	H 	0.765	0.532	0.1232	0.112
Mof_H 	H 	0.7694	0.292	0.0206	0.227
Mof_H 	H 	0.621	0.2691	0.0238	0.204
Mof_H 	H 	0.6461	0.2007	0.1231	0.206
Mof_H 	H 	0.564	0.5297	0.2286	0.251
Mof_H 	H 	0.4582	0.4143	0.31	0.251
Mof_H 	H 	0.4373	0.4819	0.2081	0.244
Mof_H 	H 	0.2687	0.2424	0.0466	0.22
Mof_H 	H 	0.4233	0.2637	0.0229	0.204
Mof_H 	H 	0.3697	0.3517	0.0197	0.217
Mof_H 	H 	0.2795	0.1445	0.4803	0.248
Mof_H 	H 	0.3881	0.2603	0.4089	0.243
Mof_H 	H 	0.4288	0.166	0.4154	0.237
Mof_H 	H 	0.1305	0.1395	0.232	0.102
Mof_H 	H 	0.235	0.468	0.8768	0.12
Mof_H 	H 	0.2306	0.708	0.9794	0.263
Mof_H 	H 	0.379	0.7309	0.9762	0.244
Mof_H 	H 	0.3539	0.7993	0.8769	0.241
Mof_H 	H 	0.436	0.4703	0.7714	0.261
Mof_H 	H 	0.5418	0.5857	0.69	0.256
Mof_H 	H 	0.5627	0.5181	0.7919	0.256
Mof_H 	H 	0.7313	0.7576	0.9534	0.28
Mof_H 	H 	0.5767	0.7363	0.9771	0.258
Mof_H 	H 	0.6303	0.6483	0.9803	0.271
Mof_H 	H 	0.7205	0.8555	0.5197	0.261
Mof_H 	H 	0.6119	0.7397	0.5911	0.249
Mof_H 	H 	0.5712	0.834	0.5846	0.25
Mof_H 	H 	0.8695	0.8605	0.768	0.136
Mof_C 	C 	0.0111	0.73564	0.91554	0.016
Mof_C 	C 	0.6636	0.3447	0.1027	0.234
Mof_C 	C 	0.5418	0.33969	0.16789	-0.168
Mof_C 	C 	0.5823	0.4265	0.18	0.272
Mof_C 	C 	0.6762	0.2701	0.0641	-0.702
Mof_C 	C 	0.5036	0.4666	0.2366	-0.794
Mof_C 	C 	0.3202	0.2364	0.1678	0.245
Mof_C 	C 	0.40253	0.26024	0.21735	-0.165
Mof_C 	C 	0.3193	0.1998	0.3256	0.252
Mof_C 	C 	0.3479	0.2771	0.0543	-0.716
Mof_C 	C 	0.3573	0.1921	0.4154	-0.761
Mof_C 	C 	0.9889	0.26436	0.08446	0.091
Mof_C 	C 	0.3364	0.6553	0.8973	0.263
Mof_C 	C 	0.4582	0.66031	0.83211	-0.17
Mof_C 	C 	0.4177	0.5735	0.82	0.286
Mof_C 	C 	0.3238	0.7299	0.9359	-0.772
Mof_C 	C 	0.4964	0.5334	0.7634	-0.812
Mof_C 	C 	0.6798	0.7636	0.8322	0.294
Mof_C 	C 	0.59747	0.73976	0.78265	-0.179
Mof_C 	C 	0.6807	0.8002	0.6744	0.268
Mof_C 	C 	0.6521	0.7229	0.9457	-0.83
Mof_C 	C 	0.6427	0.8079	0.5846	-0.782
Mof_S 	S 	0.04492	0.86072	0.85681	-0.104
Mof_S 	S 	0.95508	0.13928	0.14319	-0.14
Mof_N 	N 	0.991	0.64723	0.95643	-0.16
Mof_N 	N 	0.77011	0.42838	0.07775	-0.169
Mof_N 	N 	0.71702	0.47581	0.12635	-0.227
Mof_N 	N 	0.19333	0.1423	0.34241	-0.174
Mof_N 	N 	0.19862	0.16646	0.2442	-0.22
Mof_N 	N 	0.009	0.35277	0.04357	-0.237
Mof_N 	N 	0.22989	0.57162	0.92225	-0.166
Mof_N 	N 	0.28298	0.52419	0.87365	-0.227
Mof_N 	N 	0.80667	0.8577	0.65759	-0.156
Mof_N 	N 	0.80138	0.83354	0.7558	-0.229
Mof_Fe	Fe	2.78039e-17	0	0.5	0.521
Mof_H 	H 	0.8882	0.1232	0.3448	0.116
Mof_H 	H 	0.79	0.0206	0.6874	0.241
Mof_H 	H 	0.6448	0.0238	0.7071	0.217
Mof_H 	H 	0.7692	0.1231	0.6762	0.224
Mof_H 	H 	0.7926	0.2286	0.2417	0.259
Mof_H 	H 	0.7682	0.31	0.2757	0.259
Mof_H 	H 	0.6454	0.2081	0.31	0.249
Mof_H 	H 	0.3153	0.0466	0.711	0.236
Mof_H 	H 	0.4462	0.0229	0.7134	0.217
Mof_H 	H 	0.3894	0.0197	0.6286	0.227
Mof_H 	H 	0.7598	0.4803	0.3752	0.262
Mof_H 	H 	0.797	0.4089	0.3308	0.256
Mof_H 	H 	0.8442	0.4154	0.4186	0.254
Mof_H 	H 	0.3625	0.232	0.6285	0.117
Mof_H 	H 	0.1118	0.8768	0.6552	0.116
Mof_H 	H 	0.21	0.9794	0.3126	0.249
Mof_H 	H 	0.3552	0.9762	0.2929	0.23
Mof_H 	H 	0.2308	0.8769	0.3238	0.223
Mof_H 	H 	0.2074	0.7714	0.7583	0.258
Mof_H 	H 	0.2318	0.69	0.7243	0.253
Mof_H 	H 	0.3546	0.7919	0.69	0.255
Mof_H 	H 	0.6847	0.9534	0.289	0.263
Mof_H 	H 	0.5538	0.9771	0.2866	0.244
Mof_H 	H 	0.6106	0.9803	0.3714	0.26
Mof_H 	H 	0.2402	0.5197	0.6248	0.243
Mof_H 	H 	0.203	0.5911	0.6692	0.236
Mof_H 	H 	0.1558	0.5846	0.5814	0.232
Mof_H 	H 	0.6375	0.768	0.3715	0.118
Mof_C 	C 	0.92664	0.91554	0.34882	0.064
Mof_C 	C 	0.7663	0.1027	0.5526	0.245
Mof_C 	C 	0.70969	0.16789	0.49242	-0.171
Mof_C 	C 	0.7623	0.18	0.3935	0.281
Mof_C 	C 	0.7403	0.0641	0.6658	-0.731
Mof_C 	C 	0.7402	0.2366	0.2968	-0.808
Mof_C 	C 	0.488	0.1678	0.5958	0.26
Mof_C 	C 	0.61988	0.21735	0.52241	-0.17
Mof_C 	C 	0.6449	0.3256	0.4746	0.264
Mof_C 	C 	0.4022	0.0543	0.6686	-0.744
Mof_C 	C 	0.7727	0.4154	0.3925	-0.789
Mof_C 	C 	0.07336	0.08446	0.65118	0.044
Mof_C 	C 	0.2337	0.8973	0.4474	0.252
Mof_C 	C 	0.29031	0.83211	0.50758	-0.169
Mof_C 	C 	0.2377	0.82	0.6065	0.282
Mof_C 	C 	0.2597	0.9359	0.3342	-0.744
Mof_C 	C 	0.2598	0.7634	0.7032	-0.809
Mof_C 	C 	0.512	0.8322	0.4042	0.278
Mof_C 	C 	0.38012	0.78265	0.47759	-0.172
Mof_C 	C 	0.3551	0.6744	0.5254	0.254
Mof_C 	C 	0.5978	0.9457	0.3314	-0.801
Mof_C 	C 	0.2273	0.5846	0.6075	-0.751
Mof_S 	S 	0.90173	0.85681	0.28247	-0.102
Mof_S 	S 	0.09827	0.14319	0.71753	-0.142
Mof_N 	N 	0.94743	0.95643	0.39634	-0.184
Mof_N 	N 	0.84786	0.07775	0.49387	-0.168
Mof_N 	N 	0.84337	0.12635	0.39784	-0.228
Mof_N 	N 	0.53574	0.34241	0.51529	-0.171
Mof_N 	N 	0.44282	0.2442	0.58934	-0.222
Mof_N 	N 	0.05257	0.04357	0.60366	-0.215
Mof_N 	N 	0.15214	0.92225	0.50613	-0.168
Mof_N 	N 	0.15663	0.87365	0.60216	-0.227
Mof_N 	N 	0.46426	0.65759	0.48471	-0.17
Mof_N 	N 	0.55718	0.7558	0.41066	-0.226
_end
