data_functionalizedCrystal
_audit_creation_method	'EQeq! by Chris Wilmer'
_symmetry_space_group_name_H-M	'P1'
_symmetry_Int_Tables_number	1
_symmetry_cell_setting	triclinic
loop_
_symmetry_equiv_pos_as_xyz
  x,y,z
_cell_length_a	9.1581
_cell_length_b	9.7109
_cell_length_c	22.3358
_cell_angle_alpha	90
_cell_angle_beta	90
_cell_angle_gamma	117.485
loop_
_atom_site_label
_atom_site_type_symbol
_atom_site_fract_x
_atom_site_fract_y
_atom_site_fract_z
_atom_site_charge
Mof_Eu	Eu	0.6179	0.3566	0.00862	2.566
Mof_Eu	Eu	0.8821	0.6434	0.50862	2.569
Mof_Eu	Eu	0.3821	0.6434	0.99138	2.566
Mof_Eu	Eu	0.1179	0.3566	0.49138	2.569
Mof_Ag	Ag	0.01655	0.6797	0.85216	0.695
Mof_Ag	Ag	0.48345	0.3203	0.35216	0.703
Mof_Ag	Ag	0.98345	0.3203	0.14784	0.695
Mof_Ag	Ag	0.51655	0.6797	0.64784	0.703
Mof_H 	H 	0.9404	0.2218	0.9275	-0.025
Mof_H 	H 	0.7433	0.0309	0.8684	0.118
Mof_H 	H 	0.7782	0.8216	0.8407	-0.041
Mof_H 	H 	0.1823	0.9712	0.9342	-0.028
Mof_H 	H 	0.9889	0.6395	0.7176	-0.027
Mof_H 	H 	0.1009	0.3111	0.6591	-0.028
Mof_H 	H 	0.1375	0.2617	0.7581	0.1
Mof_H 	H 	0.1104	0.4086	0.8327	-0.023
Mof_H 	H 	0.5596	0.7782	0.4275	-0.027
Mof_H 	H 	0.7567	0.9691	0.3684	0.119
Mof_H 	H 	0.7218	0.1784	0.3407	-0.043
Mof_H 	H 	0.3177	0.0288	0.4342	-0.031
Mof_H 	H 	0.5111	0.3605	0.2176	-0.033
Mof_H 	H 	0.3991	0.6889	0.1591	-0.028
Mof_H 	H 	0.3625	0.7383	0.2581	0.102
Mof_H 	H 	0.3896	0.5914	0.3327	-0.023
Mof_H 	H 	0.0596	0.7782	0.0725	-0.025
Mof_H 	H 	0.2567	0.9691	0.1316	0.118
Mof_H 	H 	0.2218	0.1784	0.1593	-0.041
Mof_H 	H 	0.8177	0.0288	0.0658	-0.028
Mof_H 	H 	0.0111	0.3605	0.2824	-0.027
Mof_H 	H 	0.8991	0.6889	0.3409	-0.028
Mof_H 	H 	0.8625	0.7383	0.2419	0.1
Mof_H 	H 	0.8896	0.5914	0.1673	-0.023
Mof_H 	H 	0.4404	0.2218	0.5725	-0.027
Mof_H 	H 	0.2433	0.0309	0.6316	0.119
Mof_H 	H 	0.2782	0.8216	0.6593	-0.043
Mof_H 	H 	0.6823	0.9712	0.5658	-0.031
Mof_H 	H 	0.4889	0.6395	0.7824	-0.033
Mof_H 	H 	0.6009	0.3111	0.8409	-0.028
Mof_H 	H 	0.6375	0.2617	0.7419	0.102
Mof_H 	H 	0.6104	0.4086	0.6673	-0.023
Mof_C 	C 	0.2196	0.2429	0.97289	0.547
Mof_C 	C 	0.0848	0.1172	0.93639	-0.246
Mof_C 	C 	0.9514	0.1345	0.91678	0.168
Mof_C 	C 	0.835	0.0219	0.8814	-0.222
Mof_C 	C 	0.8562	0.8962	0.8655	0.134
Mof_C 	C 	0.0947	0.985	0.91989	0.141
Mof_C 	C 	0.0209	0.5634	0.72563	0.128
Mof_C 	C 	0.0399	0.4821	0.67793	-0.257
Mof_C 	C 	0.086	0.3677	0.69	0.144
Mof_C 	C 	0.1093	0.3398	0.7488	-0.222
Mof_C 	C 	0.091	0.4272	0.7934	0.128
Mof_C 	C 	0.0078	0.5212	0.61627	0.534
Mof_C 	C 	0.5081	0.0083	0.96564	0.275
Mof_C 	C 	0.9968	0.5199	0.967	0.274
Mof_C 	C 	0.2804	0.7571	0.47289	0.55
Mof_C 	C 	0.4152	0.8828	0.43639	-0.254
Mof_C 	C 	0.5486	0.8655	0.41678	0.171
Mof_C 	C 	0.665	0.9781	0.3814	-0.224
Mof_C 	C 	0.6438	0.1038	0.3655	0.134
Mof_C 	C 	0.4053	0.015	0.41989	0.155
Mof_C 	C 	0.4791	0.4366	0.22563	0.138
Mof_C 	C 	0.4601	0.5179	0.17793	-0.261
Mof_C 	C 	0.414	0.6323	0.19	0.148
Mof_C 	C 	0.3907	0.6602	0.2488	-0.224
Mof_C 	C 	0.409	0.5728	0.2934	0.13
Mof_C 	C 	0.4922	0.4788	0.11627	0.538
Mof_C 	C 	0.9919	0.9917	0.46564	0.273
Mof_C 	C 	0.5032	0.4801	0.467	0.271
Mof_C 	C 	0.7804	0.7571	0.02711	0.547
Mof_C 	C 	0.9152	0.8828	0.06361	-0.246
Mof_C 	C 	0.0486	0.8655	0.08322	0.168
Mof_C 	C 	0.165	0.9781	0.1186	-0.222
Mof_C 	C 	0.1438	0.1038	0.1345	0.134
Mof_C 	C 	0.9053	0.015	0.08011	0.141
Mof_C 	C 	0.9791	0.4366	0.27437	0.128
Mof_C 	C 	0.9601	0.5179	0.32207	-0.257
Mof_C 	C 	0.914	0.6323	0.31	0.144
Mof_C 	C 	0.8907	0.6602	0.2512	-0.222
Mof_C 	C 	0.909	0.5728	0.2066	0.128
Mof_C 	C 	0.9922	0.4788	0.38373	0.534
Mof_C 	C 	0.4919	0.9917	0.03436	0.275
Mof_C 	C 	0.0032	0.4801	0.033	0.274
Mof_C 	C 	0.7196	0.2429	0.52711	0.55
Mof_C 	C 	0.5848	0.1172	0.56361	-0.254
Mof_C 	C 	0.4514	0.1345	0.58322	0.171
Mof_C 	C 	0.335	0.0219	0.6186	-0.224
Mof_C 	C 	0.3562	0.8962	0.6345	0.134
Mof_C 	C 	0.5947	0.985	0.58011	0.155
Mof_C 	C 	0.5209	0.5634	0.77437	0.138
Mof_C 	C 	0.5399	0.4821	0.82207	-0.261
Mof_C 	C 	0.586	0.3677	0.81	0.148
Mof_C 	C 	0.6093	0.3398	0.7512	-0.224
Mof_C 	C 	0.591	0.4272	0.7066	0.13
Mof_C 	C 	0.5078	0.5212	0.88373	0.538
Mof_C 	C 	0.0081	0.0083	0.53436	0.273
Mof_C 	C 	0.4968	0.5199	0.533	0.271
Mof_N 	N 	0.9838	0.8749	0.88403	-0.239
Mof_N 	N 	0.0462	0.5384	0.78277	-0.238
Mof_N 	N 	0.5162	0.1251	0.38403	-0.245
Mof_N 	N 	0.4538	0.4616	0.28277	-0.24
Mof_N 	N 	0.0162	0.1251	0.11597	-0.239
Mof_N 	N 	0.9538	0.4616	0.21723	-0.238
Mof_N 	N 	0.4838	0.8749	0.61597	-0.245
Mof_N 	N 	0.5462	0.5384	0.71723	-0.24
Mof_O 	O 	0.3239	0.2101	0.99723	-0.576
Mof_O 	O 	0.2176	0.3701	0.97428	-0.595
Mof_O 	O 	0.9453	0.6109	0.61078	-0.565
Mof_O 	O 	0.0458	0.462	0.57249	-0.671
Mof_O 	O 	0.1317	0.6163	0.94393	-0.528
Mof_O 	O 	0.8617	0.4584	0.94084	-0.481
Mof_O 	O 	0.5785	0.1424	0.94433	-0.48
Mof_O 	O 	0.4501	0.8837	0.93618	-0.464
Mof_O 	O 	0.1761	0.7899	0.49723	-0.579
Mof_O 	O 	0.2824	0.6299	0.47428	-0.596
Mof_O 	O 	0.5547	0.3891	0.11078	-0.568
Mof_O 	O 	0.4542	0.538	0.07249	-0.671
Mof_O 	O 	0.3683	0.3837	0.44393	-0.526
Mof_O 	O 	0.6383	0.5416	0.44084	-0.482
Mof_O 	O 	0.9215	0.8576	0.44433	-0.481
Mof_O 	O 	0.0499	0.1163	0.43618	-0.461
Mof_O 	O 	0.6761	0.7899	0.00277	-0.576
Mof_O 	O 	0.7824	0.6299	0.02572	-0.595
Mof_O 	O 	0.0547	0.3891	0.38922	-0.565
Mof_O 	O 	0.9542	0.538	0.42751	-0.671
Mof_O 	O 	0.8683	0.3837	0.05607	-0.528
Mof_O 	O 	0.1383	0.5416	0.05916	-0.481
Mof_O 	O 	0.4215	0.8576	0.05567	-0.48
Mof_O 	O 	0.5499	0.1163	0.06382	-0.464
Mof_O 	O 	0.8239	0.2101	0.50277	-0.579
Mof_O 	O 	0.7176	0.3701	0.52572	-0.596
Mof_O 	O 	0.4453	0.6109	0.88922	-0.568
Mof_O 	O 	0.5458	0.462	0.92751	-0.671
Mof_O 	O 	0.6317	0.6163	0.55607	-0.526
Mof_O 	O 	0.3617	0.4584	0.55916	-0.482
Mof_O 	O 	0.0785	0.1424	0.55567	-0.481
Mof_O 	O 	0.9501	0.8837	0.56382	-0.461
_end
