data_functionalizedCrystal
_audit_creation_method	'EQeq! by Chris Wilmer'
_symmetry_space_group_name_H-M	'P1'
_symmetry_Int_Tables_number	1
_symmetry_cell_setting	triclinic
loop_
_symmetry_equiv_pos_as_xyz
  x,y,z
_cell_length_a	8.63
_cell_length_b	13.5145
_cell_length_c	13.5145
_cell_angle_alpha	94.888
_cell_angle_beta	96.8852
_cell_angle_gamma	96.8852
loop_
_atom_site_label
_atom_site_type_symbol
_atom_site_fract_x
_atom_site_fract_y
_atom_site_fract_z
_atom_site_charge
Mof_Ni	Ni	0.75	0.67556	0.32444	1.065
Mof_H 	H 	0.5032	0.6052	0.1368	-0.017
Mof_H 	H 	0.485	0.6004	0.9632	0.087
Mof_H 	H 	0.9299	0.7454	0.9948	0.077
Mof_H 	H 	0.9386	0.7461	0.1687	-0.015
Mof_H 	H 	0.6715	0.5985	0.8197	0.096
Mof_H 	H 	0.6117	0.7023	0.8227	0.099
Mof_H 	H 	0.9021	0.5722	0.4988	-0.007
Mof_H 	H 	0.9174	0.5727	0.6723	0.075
Mof_H 	H 	0.705	0.8261	0.6765	0.072
Mof_H 	H 	0.6774	0.8089	0.5013	-0.013
Mof_H 	H 	0.9226	0.6744	0.8314	0.053
Mof_H 	H 	0.8622	0.778	0.8336	0.053
Mof_H 	H 	0.9968	0.8632	0.3948	-0.016
Mof_H 	H 	0.015	0.0368	0.3996	0.087
Mof_H 	H 	0.5701	0.0052	0.2546	0.079
Mof_H 	H 	0.5614	0.8313	0.2539	-0.016
Mof_H 	H 	0.8285	0.1803	0.4015	0.096
Mof_H 	H 	0.8883	0.1773	0.2977	0.099
Mof_H 	H 	0.5979	0.5012	0.4278	-0.007
Mof_H 	H 	0.5826	0.3277	0.4273	0.075
Mof_H 	H 	0.795	0.3235	0.1739	0.072
Mof_H 	H 	0.8226	0.4987	0.1911	-0.013
Mof_H 	H 	0.5774	0.1686	0.3256	0.053
Mof_H 	H 	0.6378	0.1664	0.222	0.053
Mof_C 	C 	0.592	0.6341	0.1073	0.094
Mof_C 	C 	0.579	0.6316	0.0042	-0.186
Mof_C 	C 	0.704	0.6723	0.9599	0.139
Mof_C 	C 	0.841	0.714	0.0228	-0.17
Mof_C 	C 	0.844	0.714	0.1248	0.09
Mof_C 	C 	0.694	0.6678	0.847	-0.22
Mof_C 	C 	0.855	0.6232	0.536	0.083
Mof_C 	C 	0.868	0.6265	0.6387	-0.147
Mof_C 	C 	0.815	0.7027	0.6933	0.102
Mof_C 	C 	0.746	0.7711	0.6419	-0.162
Mof_C 	C 	0.731	0.7609	0.5379	0.081
Mof_C 	C 	0.833	0.7089	0.8065	-0.109
Mof_C 	C 	0.383	0.6527	0.3471	0.172
Mof_C 	C 	0.908	0.8927	0.3659	0.094
Mof_C 	C 	0.921	0.9958	0.3684	-0.185
Mof_C 	C 	0.796	0.0401	0.3277	0.139
Mof_C 	C 	0.659	0.9772	0.286	-0.172
Mof_C 	C 	0.656	0.8752	0.286	0.091
Mof_C 	C 	0.806	0.153	0.3322	-0.22
Mof_C 	C 	0.645	0.464	0.3768	0.083
Mof_C 	C 	0.632	0.3613	0.3735	-0.147
Mof_C 	C 	0.685	0.3067	0.2973	0.102
Mof_C 	C 	0.754	0.3581	0.2289	-0.162
Mof_C 	C 	0.769	0.4621	0.2391	0.081
Mof_C 	C 	0.667	0.1935	0.2911	-0.109
Mof_C 	C 	0.117	0.6529	0.3473	0.171
Mof_N 	N 	0.7244	0.6732	0.168	-0.247
Mof_N 	N 	0.783	0.6879	0.4845	-0.24
Mof_N 	N 	0.5105	0.6684	0.3306	-0.276
Mof_N 	N 	0.7756	0.832	0.3268	-0.247
Mof_N 	N 	0.717	0.5155	0.3121	-0.24
Mof_N 	N 	0.9895	0.6694	0.3316	-0.275
Mof_N 	N 	0.25	0.6243	0.3757	-0.195
Mof_Ni	Ni	0.25	0.32444	0.67556	1.065
Mof_H 	H 	0.4968	0.3948	0.8632	-0.017
Mof_H 	H 	0.515	0.3996	0.0368	0.087
Mof_H 	H 	0.0701	0.2546	0.0052	0.077
Mof_H 	H 	0.0614	0.2539	0.8313	-0.015
Mof_H 	H 	0.3285	0.4015	0.1803	0.096
Mof_H 	H 	0.3883	0.2977	0.1773	0.099
Mof_H 	H 	0.0979	0.4278	0.5012	-0.007
Mof_H 	H 	0.0826	0.4273	0.3277	0.075
Mof_H 	H 	0.295	0.1739	0.3235	0.072
Mof_H 	H 	0.3226	0.1911	0.4987	-0.013
Mof_H 	H 	0.0774	0.3256	0.1686	0.053
Mof_H 	H 	0.1378	0.222	0.1664	0.053
Mof_H 	H 	0.0032	0.1368	0.6052	-0.016
Mof_H 	H 	0.985	0.9632	0.6004	0.087
Mof_H 	H 	0.4299	0.9948	0.7454	0.079
Mof_H 	H 	0.4386	0.1687	0.7461	-0.016
Mof_H 	H 	0.1715	0.8197	0.5985	0.096
Mof_H 	H 	0.1117	0.8227	0.7023	0.099
Mof_H 	H 	0.4021	0.4988	0.5722	-0.007
Mof_H 	H 	0.4174	0.6723	0.5727	0.075
Mof_H 	H 	0.205	0.6765	0.8261	0.072
Mof_H 	H 	0.1774	0.5013	0.8089	-0.013
Mof_H 	H 	0.4226	0.8314	0.6744	0.053
Mof_H 	H 	0.3622	0.8336	0.778	0.053
Mof_C 	C 	0.408	0.3659	0.8927	0.094
Mof_C 	C 	0.421	0.3684	0.9958	-0.186
Mof_C 	C 	0.296	0.3277	0.0401	0.139
Mof_C 	C 	0.159	0.286	0.9772	-0.17
Mof_C 	C 	0.156	0.286	0.8752	0.09
Mof_C 	C 	0.306	0.3322	0.153	-0.22
Mof_C 	C 	0.145	0.3768	0.464	0.083
Mof_C 	C 	0.132	0.3735	0.3613	-0.147
Mof_C 	C 	0.185	0.2973	0.3067	0.102
Mof_C 	C 	0.254	0.2289	0.3581	-0.162
Mof_C 	C 	0.269	0.2391	0.4621	0.081
Mof_C 	C 	0.167	0.2911	0.1935	-0.109
Mof_C 	C 	0.617	0.3473	0.6529	0.172
Mof_C 	C 	0.092	0.1073	0.6341	0.094
Mof_C 	C 	0.079	0.0042	0.6316	-0.185
Mof_C 	C 	0.204	0.9599	0.6723	0.139
Mof_C 	C 	0.341	0.0228	0.714	-0.172
Mof_C 	C 	0.344	0.1248	0.714	0.091
Mof_C 	C 	0.194	0.847	0.6678	-0.22
Mof_C 	C 	0.355	0.536	0.6232	0.083
Mof_C 	C 	0.368	0.6387	0.6265	-0.147
Mof_C 	C 	0.315	0.6933	0.7027	0.102
Mof_C 	C 	0.246	0.6419	0.7711	-0.162
Mof_C 	C 	0.231	0.5379	0.7609	0.081
Mof_C 	C 	0.333	0.8065	0.7089	-0.109
Mof_C 	C 	0.883	0.3471	0.6527	0.171
Mof_N 	N 	0.2756	0.3268	0.832	-0.247
Mof_N 	N 	0.217	0.3121	0.5155	-0.24
Mof_N 	N 	0.4895	0.3316	0.6694	-0.276
Mof_N 	N 	0.2244	0.168	0.6732	-0.247
Mof_N 	N 	0.283	0.4845	0.6879	-0.24
Mof_N 	N 	0.0105	0.3306	0.6684	-0.275
Mof_N 	N 	0.75	0.3757	0.6243	-0.195
_end
