# CIF file generated by openbabel 3.1.0, see https://openbabel.org
data_I
_chemical_name_common 'image0'
_cell_length_a 10.9116
_cell_length_b 10.9635
_cell_length_c 22.3452
_cell_angle_alpha 90
_cell_angle_beta 90
_cell_angle_gamma 90
_space_group_name_H-M_alt 'P 1'
_space_group_name_Hall 'P 1'
loop_
    _symmetry_equiv_pos_as_xyz
    x,y,z
loop_
    _atom_site_label
    _atom_site_type_symbol
    _atom_site_fract_x
    _atom_site_fract_y
    _atom_site_fract_z
    _atom_site_occupancy
    C1       C        0.82510    0.81160    0.80410    1.000
    H1       H        0.82370    0.85370    0.84080    1.000
    C2       C        0.75450    0.30000    0.93700    1.000
    C3       C        0.75790    0.30290    0.00020    1.000
    C4       C        0.93660    0.18990    0.93380    1.000
    C5       C        0.94570    0.18740    0.99590    1.000
    C6       C        0.86250    0.13690    0.12160    1.000
    C7       C        0.85880    0.13920    0.18749    1.000
    C8       C        0.86360    0.03090    0.21820    1.000
    H2       H        0.86680    0.95670    0.19720    1.000
    O1       O        0.83670    0.06610    0.80014    1.000
    O2       O        0.86320    0.04350    0.09306    1.000
    H3       H        0.68540    0.33380    0.91660    1.000
    H4       H        0.69410    0.34010    0.02250    1.000
    H5       H        0.99630    0.14630    0.91180    1.000
    H6       H        0.01040    0.14490    0.01540    1.000
    C9       C        0.82510    0.68840    0.69590    1.000
    H7       H        0.82370    0.64630    0.65920    1.000
    C10      C        0.75450    0.20000    0.56300    1.000
    C11      C        0.75790    0.19710    0.49980    1.000
    C12      C        0.93660    0.31010    0.56620    1.000
    C13      C        0.94570    0.31260    0.50410    1.000
    C14      C        0.86250    0.36310    0.37840    1.000
    C15      C        0.85880    0.36080    0.31251    1.000
    C16      C        0.86360    0.46910    0.28180    1.000
    H8       H        0.86680    0.54330    0.30280    1.000
    O3       O        0.83670    0.43390    0.69986    1.000
    O4       O        0.86320    0.45650    0.40694    1.000
    H9       H        0.68540    0.16620    0.58340    1.000
    H10      H        0.69410    0.15990    0.47750    1.000
    H11      H        0.99630    0.35370    0.58820    1.000
    H12      H        0.01040    0.35510    0.48460    1.000
    C17      C        0.82510    0.81160    0.69590    1.000
    H13      H        0.82370    0.85370    0.65920    1.000
    C18      C        0.75450    0.30000    0.56300    1.000
    C19      C        0.75790    0.30290    0.49980    1.000
    C20      C        0.93660    0.18990    0.56620    1.000
    C21      C        0.94570    0.18740    0.50410    1.000
    C22      C        0.86250    0.13690    0.37840    1.000
    C23      C        0.85880    0.13920    0.31251    1.000
    C24      C        0.86360    0.03090    0.28180    1.000
    H14      H        0.86680    0.95670    0.30280    1.000
    O5       O        0.83670    0.06610    0.69986    1.000
    O6       O        0.86320    0.04350    0.40694    1.000
    H15      H        0.68540    0.33380    0.58340    1.000
    H16      H        0.69410    0.34010    0.47750    1.000
    H17      H        0.99630    0.14630    0.58820    1.000
    H18      H        0.01040    0.14490    0.48460    1.000
    C25      C        0.82510    0.68840    0.80410    1.000
    H19      H        0.82370    0.64630    0.84080    1.000
    C26      C        0.75450    0.20000    0.93700    1.000
    C27      C        0.75790    0.19710    0.00020    1.000
    C28      C        0.93660    0.31010    0.93380    1.000
    C29      C        0.94570    0.31260    0.99590    1.000
    C30      C        0.86250    0.36310    0.12160    1.000
    C31      C        0.85880    0.36080    0.18749    1.000
    C32      C        0.86360    0.46910    0.21820    1.000
    H20      H        0.86680    0.54330    0.19720    1.000
    O7       O        0.83670    0.43390    0.80014    1.000
    O8       O        0.86320    0.45650    0.09306    1.000
    H21      H        0.68540    0.16620    0.91660    1.000
    H22      H        0.69410    0.15990    0.02250    1.000
    H23      H        0.99630    0.35370    0.91180    1.000
    H24      H        0.01040    0.35510    0.01540    1.000
    Zn1      Zn       0.83752    0.25000    0.81536    1.000
    C33      C        0.27630    0.25000    0.80450    1.000
    H25      H        0.23400    0.25000    0.84120    1.000
    C34      C        0.40340    0.25000    0.80340    1.000
    H26      H        0.44750    0.25000    0.83950    1.000
    C35      C        0.85370    0.25000    0.02890    1.000
    C36      C        0.85800    0.25000    0.21780    1.000
    N1       N        0.84500    0.25000    0.90530    1.000
    N2       N        0.85980    0.25000    0.09310    1.000
    O9       O        0.02090    0.25000    0.80060    1.000
    O10      O        0.65630    0.25000    0.80020    1.000
    Zn2      Zn       0.83752    0.25000    0.68464    1.000
    C37      C        0.27630    0.25000    0.69550    1.000
    H27      H        0.23400    0.25000    0.65880    1.000
    C38      C        0.40340    0.25000    0.69660    1.000
    H28      H        0.44750    0.25000    0.66050    1.000
    C39      C        0.85370    0.25000    0.47110    1.000
    C40      C        0.85800    0.25000    0.28220    1.000
    N3       N        0.84500    0.25000    0.59470    1.000
    N4       N        0.85980    0.25000    0.40690    1.000
    O11      O        0.02090    0.25000    0.69940    1.000
    O12      O        0.65630    0.25000    0.69980    1.000
    C41      C        0.83460    0.01380    0.75000    1.000
    C42      C        0.82720    0.87830    0.75000    1.000
    C43      C        0.83460    0.48620    0.75000    1.000
    C44      C        0.82720    0.62170    0.75000    1.000
    C45      C        0.07370    0.25000    0.75000    1.000
    C46      C        0.21170    0.25000    0.75000    1.000
    C47      C        0.46540    0.25000    0.75000    1.000
    C48      C        0.60150    0.25000    0.75000    1.000
    C49      C        0.17490    0.18840    0.30410    1.000
    H29      H        0.17630    0.14630    0.34080    1.000
    C50      C        0.24550    0.70000    0.43700    1.000
    C51      C        0.24210    0.69710    0.50020    1.000
    C52      C        0.06340    0.81010    0.43380    1.000
    C53      C        0.05430    0.81260    0.49590    1.000
    C54      C        0.13750    0.86310    0.62160    1.000
    C55      C        0.14120    0.86080    0.68749    1.000
    C56      C        0.13640    0.96910    0.71820    1.000
    H30      H        0.13320    0.04330    0.69720    1.000
    O13      O        0.16330    0.93390    0.30014    1.000
    O14      O        0.13680    0.95650    0.59306    1.000
    H31      H        0.31460    0.66620    0.41660    1.000
    H32      H        0.30590    0.65990    0.52250    1.000
    H33      H        0.00370    0.85370    0.41180    1.000
    H34      H        0.98960    0.85510    0.51540    1.000
    C57      C        0.17490    0.31160    0.19590    1.000
    H35      H        0.17630    0.35370    0.15920    1.000
    C58      C        0.24550    0.80000    0.06300    1.000
    C59      C        0.24210    0.80290    0.99980    1.000
    C60      C        0.06340    0.68990    0.06620    1.000
    C61      C        0.05430    0.68740    0.00410    1.000
    C62      C        0.13750    0.63690    0.87840    1.000
    C63      C        0.14120    0.63920    0.81251    1.000
    C64      C        0.13640    0.53090    0.78180    1.000
    H36      H        0.13320    0.45670    0.80280    1.000
    O15      O        0.16330    0.56610    0.19986    1.000
    O16      O        0.13680    0.54350    0.90694    1.000
    H37      H        0.31460    0.83380    0.08340    1.000
    H38      H        0.30590    0.84010    0.97750    1.000
    H39      H        0.00370    0.64630    0.08820    1.000
    H40      H        0.98960    0.64490    0.98460    1.000
    C65      C        0.17490    0.18840    0.19590    1.000
    H41      H        0.17630    0.14630    0.15920    1.000
    C66      C        0.24550    0.70000    0.06300    1.000
    C67      C        0.24210    0.69710    0.99980    1.000
    C68      C        0.06340    0.81010    0.06620    1.000
    C69      C        0.05430    0.81260    0.00410    1.000
    C70      C        0.13750    0.86310    0.87840    1.000
    C71      C        0.14120    0.86080    0.81251    1.000
    C72      C        0.13640    0.96910    0.78180    1.000
    H42      H        0.13320    0.04330    0.80280    1.000
    O17      O        0.16330    0.93390    0.19986    1.000
    O18      O        0.13680    0.95650    0.90694    1.000
    H43      H        0.31460    0.66620    0.08340    1.000
    H44      H        0.30590    0.65990    0.97750    1.000
    H45      H        0.00370    0.85370    0.08820    1.000
    H46      H        0.98960    0.85510    0.98460    1.000
    C73      C        0.17490    0.31160    0.30410    1.000
    H47      H        0.17630    0.35370    0.34080    1.000
    C74      C        0.24550    0.80000    0.43700    1.000
    C75      C        0.24210    0.80290    0.50020    1.000
    C76      C        0.06340    0.68990    0.43380    1.000
    C77      C        0.05430    0.68740    0.49590    1.000
    C78      C        0.13750    0.63690    0.62160    1.000
    C79      C        0.14120    0.63920    0.68749    1.000
    C80      C        0.13640    0.53090    0.71820    1.000
    H48      H        0.13320    0.45670    0.69720    1.000
    O19      O        0.16330    0.56610    0.30014    1.000
    O20      O        0.13680    0.54350    0.59306    1.000
    H49      H        0.31460    0.83380    0.41660    1.000
    H50      H        0.30590    0.84010    0.52250    1.000
    H51      H        0.00370    0.64630    0.41180    1.000
    H52      H        0.98960    0.64490    0.51540    1.000
    Zn3      Zn       0.16248    0.75000    0.31536    1.000
    C81      C        0.72370    0.75000    0.30450    1.000
    H53      H        0.76600    0.75000    0.34120    1.000
    C82      C        0.59660    0.75000    0.30340    1.000
    H54      H        0.55250    0.75000    0.33950    1.000
    C83      C        0.14630    0.75000    0.52890    1.000
    C84      C        0.14200    0.75000    0.71780    1.000
    N5       N        0.15500    0.75000    0.40530    1.000
    N6       N        0.14020    0.75000    0.59310    1.000
    O21      O        0.97910    0.75000    0.30060    1.000
    O22      O        0.34370    0.75000    0.30020    1.000
    Zn4      Zn       0.16248    0.75000    0.18464    1.000
    C85      C        0.72370    0.75000    0.19550    1.000
    H55      H        0.76600    0.75000    0.15880    1.000
    C86      C        0.59660    0.75000    0.19660    1.000
    H56      H        0.55250    0.75000    0.16050    1.000
    C87      C        0.14630    0.75000    0.97110    1.000
    C88      C        0.14200    0.75000    0.78220    1.000
    N7       N        0.15500    0.75000    0.09470    1.000
    N8       N        0.14020    0.75000    0.90690    1.000
    O23      O        0.97910    0.75000    0.19940    1.000
    O24      O        0.34370    0.75000    0.19980    1.000
    C89      C        0.16540    0.98620    0.25000    1.000
    C90      C        0.17280    0.12170    0.25000    1.000
    C91      C        0.16540    0.51380    0.25000    1.000
    C92      C        0.17280    0.37830    0.25000    1.000
    C93      C        0.92630    0.75000    0.25000    1.000
    C94      C        0.78830    0.75000    0.25000    1.000
    C95      C        0.53460    0.75000    0.25000    1.000
    C96      C        0.39850    0.75000    0.25000    1.000
