# CIF file generated by openbabel 3.1.0, see https://openbabel.org
data_I
_chemical_name_common 'IDAGEA_charged'
_cell_length_a 9.0518
_cell_length_b 16.8846
_cell_length_c 16.8846
_cell_angle_alpha 94.6078
_cell_angle_beta 92.9178
_cell_angle_gamma 92.9178
_space_group_name_H-M_alt 'P 1'
_space_group_name_Hall 'P 1'
loop_
    _symmetry_equiv_pos_as_xyz
    x,y,z
loop_
    _atom_site_label
    _atom_site_type_symbol
    _atom_site_fract_x
    _atom_site_fract_y
    _atom_site_fract_z
    _atom_site_occupancy
    Cu1      Cu       0.12684    0.83266    0.68760    1.000
    Cu2      Cu       0.37316    0.31240    0.16734    1.000
    Cu3      Cu       0.87316    0.16734    0.31240    1.000
    Cu4      Cu       0.62684    0.68760    0.83266    1.000
    H1       H        0.08770    0.72130    0.58290    1.000
    H2       H        0.02030    0.79210    0.55170    1.000
    H3       H        0.86380    0.67670    0.59370    1.000
    H4       H        0.66100    0.75910    0.59830    1.000
    H5       H        0.75970    0.78170    0.52670    1.000
    H6       H        0.90630    0.91110    0.53770    1.000
    H7       H        0.91440    0.04440    0.58920    1.000
    H8       H        0.78150    0.08130    0.69670    1.000
    H9       H        0.64340    0.98800    0.75740    1.000
    H10      H        0.63690    0.85540    0.71120    1.000
    H11      H        0.22000    0.00350    0.66470    1.000
    H12      H        0.37710    0.07390    0.58910    1.000
    H13      H        0.32920    0.80070    0.55930    1.000
    H14      H        0.48730    0.86620    0.48060    1.000
    H15      H        0.97040    0.94060    0.79200    1.000
    H16      H        0.01140    0.03460    0.89600    1.000
    H17      H        0.39180    0.89210    0.79730    1.000
    H18      H        0.44490    0.99000    0.90060    1.000
    H19      H        0.41230    0.41710    0.27870    1.000
    H20      H        0.47970    0.44830    0.20790    1.000
    H21      H        0.63620    0.40630    0.32330    1.000
    H22      H        0.83900    0.40170    0.24090    1.000
    H23      H        0.74030    0.47330    0.21830    1.000
    H24      H        0.59370    0.46230    0.08890    1.000
    H25      H        0.58560    0.41080    0.95560    1.000
    H26      H        0.71850    0.30330    0.91870    1.000
    H27      H        0.85660    0.24260    0.01200    1.000
    H28      H        0.86310    0.28880    0.14460    1.000
    H29      H        0.28000    0.33530    0.99650    1.000
    H30      H        0.12290    0.41090    0.92610    1.000
    H31      H        0.17080    0.44070    0.19930    1.000
    H32      H        0.01270    0.51940    0.13380    1.000
    H33      H        0.52960    0.20800    0.05940    1.000
    H34      H        0.48860    0.10400    0.96540    1.000
    H35      H        0.10820    0.20270    0.10790    1.000
    H36      H        0.05510    0.09940    0.01000    1.000
    H37      H        0.91230    0.27870    0.41710    1.000
    H38      H        0.97970    0.20790    0.44830    1.000
    H39      H        0.13620    0.32330    0.40630    1.000
    H40      H        0.33900    0.24090    0.40170    1.000
    H41      H        0.24030    0.21830    0.47330    1.000
    H42      H        0.09370    0.08890    0.46230    1.000
    H43      H        0.08560    0.95560    0.41080    1.000
    H44      H        0.21850    0.91870    0.30330    1.000
    H45      H        0.35660    0.01200    0.24260    1.000
    H46      H        0.36310    0.14460    0.28880    1.000
    H47      H        0.78000    0.99650    0.33530    1.000
    H48      H        0.62290    0.92610    0.41090    1.000
    H49      H        0.67080    0.19930    0.44070    1.000
    H50      H        0.51270    0.13380    0.51940    1.000
    H51      H        0.02960    0.05940    0.20800    1.000
    H52      H        0.98860    0.96540    0.10400    1.000
    H53      H        0.60820    0.10790    0.20270    1.000
    H54      H        0.55510    0.01000    0.09940    1.000
    H55      H        0.58770    0.58290    0.72130    1.000
    H56      H        0.52030    0.55170    0.79210    1.000
    H57      H        0.36380    0.59370    0.67670    1.000
    H58      H        0.16100    0.59830    0.75910    1.000
    H59      H        0.25970    0.52670    0.78170    1.000
    H60      H        0.40630    0.53770    0.91110    1.000
    H61      H        0.41440    0.58920    0.04440    1.000
    H62      H        0.28150    0.69670    0.08130    1.000
    H63      H        0.14340    0.75740    0.98800    1.000
    H64      H        0.13690    0.71120    0.85540    1.000
    H65      H        0.72000    0.66470    0.00350    1.000
    H66      H        0.87710    0.58910    0.07390    1.000
    H67      H        0.82920    0.55930    0.80070    1.000
    H68      H        0.98730    0.48060    0.86620    1.000
    H69      H        0.47040    0.79200    0.94060    1.000
    H70      H        0.51140    0.89600    0.03460    1.000
    H71      H        0.89180    0.79730    0.89210    1.000
    H72      H        0.94490    0.90060    0.99000    1.000
    C1       C        0.87920    0.73526    0.70674    1.000
    C2       C        0.88200    0.73294    0.61686    1.000
    C3       C        0.75770    0.78350    0.58530    1.000
    C4       C        0.76830    0.86920    0.61840    1.000
    C5       C        0.85210    0.92610    0.58270    1.000
    C6       C        0.85650    0.00540    0.61320    1.000
    C7       C        0.77910    0.02700    0.67680    1.000
    C8       C        0.69740    0.97180    0.71260    1.000
    C9       C        0.69250    0.89360    0.68480    1.000
    C10      C        0.27560    0.97494    0.62686    1.000
    C11      C        0.36870    0.01747    0.58153    1.000
    C12      C        0.33880    0.85723    0.56557    1.000
    C13      C        0.43310    0.89593    0.51827    1.000
    C14      C        0.44900    0.97835    0.52549    1.000
    C15      C        0.06840    0.95070    0.81470    1.000
    C16      C        0.09260    0.00720    0.87600    1.000
    C17      C        0.31410    0.92250    0.81710    1.000
    C18      C        0.34590    0.98090    0.87910    1.000
    C19      C        0.23520    0.02623    0.91051    1.000
    C20      C        0.62080    0.29326    0.26474    1.000
    C21      C        0.61800    0.38314    0.26706    1.000
    C22      C        0.74230    0.41470    0.21650    1.000
    C23      C        0.73170    0.38160    0.13080    1.000
    C24      C        0.64790    0.41730    0.07390    1.000
    C25      C        0.64350    0.38680    0.99460    1.000
    C26      C        0.72090    0.32320    0.97300    1.000
    C27      C        0.80260    0.28740    0.02820    1.000
    C28      C        0.80750    0.31520    0.10640    1.000
    C29      C        0.22440    0.37314    0.02506    1.000
    C30      C        0.13130    0.41847    0.98253    1.000
    C31      C        0.16120    0.43443    0.14277    1.000
    C32      C        0.06690    0.48173    0.10407    1.000
    C33      C        0.05100    0.47451    0.02165    1.000
    C34      C        0.43160    0.18530    0.04930    1.000
    C35      C        0.40740    0.12400    0.99280    1.000
    C36      C        0.18590    0.18290    0.07750    1.000
    C37      C        0.15410    0.12090    0.01910    1.000
    C38      C        0.26480    0.08949    0.97377    1.000
    C39      C        0.12080    0.26474    0.29326    1.000
    C40      C        0.11800    0.26706    0.38314    1.000
    C41      C        0.24230    0.21650    0.41470    1.000
    C42      C        0.23170    0.13080    0.38160    1.000
    C43      C        0.14790    0.07390    0.41730    1.000
    C44      C        0.14350    0.99460    0.38680    1.000
    C45      C        0.22090    0.97300    0.32320    1.000
    C46      C        0.30260    0.02820    0.28740    1.000
    C47      C        0.30750    0.10640    0.31520    1.000
    C48      C        0.72440    0.02506    0.37314    1.000
    C49      C        0.63130    0.98253    0.41847    1.000
    C50      C        0.66120    0.14277    0.43443    1.000
    C51      C        0.56690    0.10407    0.48173    1.000
    C52      C        0.55100    0.02165    0.47451    1.000
    C53      C        0.93160    0.04930    0.18530    1.000
    C54      C        0.90740    0.99280    0.12400    1.000
    C55      C        0.68590    0.07750    0.18290    1.000
    C56      C        0.65410    0.01910    0.12090    1.000
    C57      C        0.76480    0.97377    0.08949    1.000
    C58      C        0.37920    0.70674    0.73526    1.000
    C59      C        0.38200    0.61686    0.73294    1.000
    C60      C        0.25770    0.58530    0.78350    1.000
    C61      C        0.26830    0.61840    0.86920    1.000
    C62      C        0.35210    0.58270    0.92610    1.000
    C63      C        0.35650    0.61320    0.00540    1.000
    C64      C        0.27910    0.67680    0.02700    1.000
    C65      C        0.19740    0.71260    0.97180    1.000
    C66      C        0.19250    0.68480    0.89360    1.000
    C67      C        0.77560    0.62686    0.97494    1.000
    C68      C        0.86870    0.58153    0.01747    1.000
    C69      C        0.83880    0.56557    0.85723    1.000
    C70      C        0.93310    0.51827    0.89593    1.000
    C71      C        0.94900    0.52549    0.97835    1.000
    C72      C        0.56840    0.81470    0.95070    1.000
    C73      C        0.59260    0.87600    0.00720    1.000
    C74      C        0.81410    0.81710    0.92250    1.000
    C75      C        0.84590    0.87910    0.98090    1.000
    C76      C        0.73520    0.91051    0.02623    1.000
    N1       N        0.02990    0.76324    0.59548    1.000
    N2       N        0.25990    0.89527    0.61997    1.000
    N3       N        0.17640    0.90824    0.78434    1.000
    N4       N        0.47010    0.40452    0.23676    1.000
    N5       N        0.24010    0.38003    0.10473    1.000
    N6       N        0.32360    0.21566    0.09176    1.000
    N7       N        0.97010    0.23676    0.40452    1.000
    N8       N        0.74010    0.10473    0.38003    1.000
    N9       N        0.82360    0.09176    0.21566    1.000
    N10      N        0.52990    0.59548    0.76324    1.000
    N11      N        0.75990    0.61997    0.89527    1.000
    N12      N        0.67640    0.78434    0.90824    1.000
    O1       O        0.97690    0.78009    0.74755    1.000
    O2       O        0.78030    0.69555    0.73507    1.000
    O3       O        0.52310    0.25245    0.21991    1.000
    O4       O        0.71970    0.26493    0.30445    1.000
    O5       O        0.02310    0.21991    0.25245    1.000
    O6       O        0.21970    0.30445    0.26493    1.000
    O7       O        0.47690    0.74755    0.78009    1.000
    O8       O        0.28030    0.73507    0.69555    1.000
    N13      N        0.75000    0.12380    0.87620    1.000
    O9       O        0.86370    0.15990    0.86130    1.000
    O10      O        0.63630    0.13870    0.84010    1.000
    O11      O        0.75000    0.07680    0.92320    1.000
    N14      N        0.25000    0.87620    0.12380    1.000
    O12      O        0.13630    0.84010    0.13870    1.000
    O13      O        0.36370    0.86130    0.15990    1.000
    O14      O        0.25000    0.92320    0.07680    1.000
