data_functionalizedCrystal
_audit_creation_method	'EQeq! by Chris Wilmer'
_symmetry_space_group_name_H-M	'P1'
_symmetry_Int_Tables_number	1
_symmetry_cell_setting	triclinic
loop_
_symmetry_equiv_pos_as_xyz
  x,y,z
_cell_length_a	9.9941
_cell_length_b	29.2846
_cell_length_c	29.2846
_cell_angle_alpha	90
_cell_angle_beta	90
_cell_angle_gamma	90
loop_
_atom_site_label
_atom_site_type_symbol
_atom_site_fract_x
_atom_site_fract_y
_atom_site_fract_z
_atom_site_charge
Mof_Cd	Cd	5.49322e-33	0	0.5	0.49
Mof_Cd	Cd	-0	0.5	-0	0.49
Mof_Cd	Cd	-0	0	-0	0.484
Mof_Cd	Cd	-6.28794e-33	0.5	0.5	0.497
Mof_Cu	Cu	0.78688	0.9929	0.40209	0.945
Mof_Cu	Cu	0.78688	0.5071	0.09791	0.943
Mof_Cu	Cu	0.78688	0.09791	0.9929	0.945
Mof_Cu	Cu	0.78688	0.40209	0.5071	0.943
Mof_Cu	Cu	0.21312	0.0071	0.59791	0.94
Mof_Cu	Cu	0.21312	0.4929	0.90209	0.942
Mof_Cu	Cu	0.21312	0.90209	0.0071	0.94
Mof_Cu	Cu	0.21312	0.59791	0.4929	0.941
Mof_H 	H 	0.5307	0.7225	0.4794	0.052
Mof_H 	H 	0.6586	0.5941	0.494	0.052
Mof_H 	H 	0.9213	0.6963	0.4911	0.06
Mof_H 	H 	0.9033	0.7749	0.5238	0.081
Mof_H 	H 	0.9536	0.8503	0.5098	0.047
Mof_H 	H 	0.6652	0.8534	0.4144	0.036
Mof_H 	H 	0.613	0.7787	0.4316	0.084
Mof_H 	H 	0.5307	0.7775	0.0206	0.055
Mof_H 	H 	0.6586	0.9059	0.006	0.053
Mof_H 	H 	0.9213	0.8037	0.0089	0.063
Mof_H 	H 	0.9033	0.7251	0.9762	0.064
Mof_H 	H 	0.9536	0.6497	0.9902	0.071
Mof_H 	H 	0.6652	0.6466	0.0856	0.046
Mof_H 	H 	0.613	0.7213	0.0684	0.073
Mof_H 	H 	0.5307	0.0206	0.7225	0.055
Mof_H 	H 	0.6586	0.006	0.5941	0.052
Mof_H 	H 	0.9213	0.0089	0.6963	0.063
Mof_H 	H 	0.9033	0.9762	0.7749	0.064
Mof_H 	H 	0.9536	0.9902	0.8503	0.072
Mof_H 	H 	0.6652	0.0856	0.8534	0.046
Mof_H 	H 	0.613	0.0684	0.7787	0.073
Mof_H 	H 	0.5307	0.4794	0.7775	0.052
Mof_H 	H 	0.6586	0.494	0.9059	0.053
Mof_H 	H 	0.9213	0.4911	0.8037	0.06
Mof_H 	H 	0.9033	0.5238	0.7251	0.081
Mof_H 	H 	0.9536	0.5098	0.6497	0.047
Mof_H 	H 	0.6652	0.4144	0.6466	0.036
Mof_H 	H 	0.613	0.4316	0.7213	0.084
Mof_H 	H 	0.4693	0.2775	0.5206	0.058
Mof_H 	H 	0.3414	0.4059	0.506	0.057
Mof_H 	H 	0.0787	0.3037	0.5089	0.05
Mof_H 	H 	0.0967	0.2251	0.4762	0.073
Mof_H 	H 	0.0464	0.1497	0.4902	0.034
Mof_H 	H 	0.3348	0.1466	0.5856	0.035
Mof_H 	H 	0.387	0.2213	0.5684	0.085
Mof_H 	H 	0.4693	0.2225	0.9794	0.055
Mof_H 	H 	0.3414	0.0941	0.994	0.056
Mof_H 	H 	0.0787	0.1963	0.9911	0.047
Mof_H 	H 	0.0967	0.2749	0.0238	0.09
Mof_H 	H 	0.0464	0.3503	0.0098	0.01
Mof_H 	H 	0.3348	0.3534	0.9144	0.025
Mof_H 	H 	0.387	0.2787	0.9316	0.096
Mof_H 	H 	0.4693	0.9794	0.2775	0.055
Mof_H 	H 	0.3414	0.994	0.4059	0.057
Mof_H 	H 	0.0787	0.9911	0.3037	0.047
Mof_H 	H 	0.0967	0.0238	0.2251	0.09
Mof_H 	H 	0.0464	0.0098	0.1497	0.01
Mof_H 	H 	0.3348	0.9144	0.1466	0.025
Mof_H 	H 	0.387	0.9316	0.2213	0.096
Mof_H 	H 	0.4693	0.5206	0.2225	0.058
Mof_H 	H 	0.3414	0.506	0.0941	0.056
Mof_H 	H 	0.0787	0.5089	0.1963	0.05
Mof_H 	H 	0.0967	0.4762	0.2749	0.073
Mof_H 	H 	0.0464	0.4902	0.3503	0.034
Mof_H 	H 	0.3348	0.5856	0.3534	0.035
Mof_H 	H 	0.387	0.5684	0.2787	0.085
Mof_C 	C 	0.6005	0.702	0.4837	-0.015
Mof_C 	C 	0.6768	0.6252	0.4929	0.024
Mof_C 	C 	0.8074	0.6402	0.4946	-0.091
Mof_C 	C 	0.8334	0.686	0.4902	-0.004
Mof_C 	C 	0.5715	0.6564	0.4895	-0.072
Mof_C 	C 	0.8572	0.7908	0.5013	-0.119
Mof_C 	C 	0.8146	0.8599	0.4611	-0.093
Mof_C 	C 	0.7578	0.7682	0.4753	0.081
Mof_C 	C 	0.9194	0.6065	0.498	0.394
Mof_C 	C 	0.4297	0.6364	0.4894	0.322
Mof_C 	C 	0.8445	0.9113	0.4549	0.353
Mof_C 	C 	0.7282	0.7178	0.4843	-0.024
Mof_C 	C 	0.886	0.836	0.4934	0.042
Mof_C 	C 	0.7132	0.8379	0.4367	0.046
Mof_C 	C 	0.6851	0.7925	0.4462	-0.127
Mof_C 	C 	0.6005	0.798	0.0163	-0.027
Mof_C 	C 	0.6768	0.8748	0.0071	0.016
Mof_C 	C 	0.8074	0.8598	0.0054	-0.082
Mof_C 	C 	0.8334	0.814	0.0098	-0.016
Mof_C 	C 	0.5715	0.8436	0.0105	-0.067
Mof_C 	C 	0.8572	0.7092	0.9987	-0.064
Mof_C 	C 	0.8146	0.6401	0.0389	-0.065
Mof_C 	C 	0.7578	0.7318	0.0247	0.045
Mof_C 	C 	0.9194	0.8935	0.002	0.38
Mof_C 	C 	0.4297	0.8636	0.0106	0.32
Mof_C 	C 	0.8445	0.5887	0.0451	0.344
Mof_C 	C 	0.7282	0.7822	0.0157	-0.009
Mof_C 	C 	0.886	0.664	0.0066	-0.015
Mof_C 	C 	0.7132	0.6621	0.0633	0.017
Mof_C 	C 	0.6851	0.7075	0.0538	-0.096
Mof_C 	C 	0.6005	0.0163	0.702	-0.027
Mof_C 	C 	0.6768	0.0071	0.6252	0.017
Mof_C 	C 	0.8074	0.0054	0.6402	-0.083
Mof_C 	C 	0.8334	0.0098	0.686	-0.015
Mof_C 	C 	0.5715	0.0105	0.6564	-0.067
Mof_C 	C 	0.8572	0.9987	0.7908	-0.063
Mof_C 	C 	0.8146	0.0389	0.8599	-0.065
Mof_C 	C 	0.7578	0.0247	0.7682	0.045
Mof_C 	C 	0.9194	0.002	0.6065	0.382
Mof_C 	C 	0.4297	0.0106	0.6364	0.32
Mof_C 	C 	0.8445	0.0451	0.9113	0.343
Mof_C 	C 	0.7282	0.0157	0.7178	-0.009
Mof_C 	C 	0.886	0.0066	0.836	-0.016
Mof_C 	C 	0.7132	0.0633	0.8379	0.016
Mof_C 	C 	0.6851	0.0538	0.7925	-0.096
Mof_C 	C 	0.6005	0.4837	0.798	-0.016
Mof_C 	C 	0.6768	0.4929	0.8748	0.023
Mof_C 	C 	0.8074	0.4946	0.8598	-0.09
Mof_C 	C 	0.8334	0.4902	0.814	-0.004
Mof_C 	C 	0.5715	0.4895	0.8436	-0.071
Mof_C 	C 	0.8572	0.5013	0.7092	-0.119
Mof_C 	C 	0.8146	0.4611	0.6401	-0.093
Mof_C 	C 	0.7578	0.4753	0.7318	0.081
Mof_C 	C 	0.9194	0.498	0.8935	0.393
Mof_C 	C 	0.4297	0.4894	0.8636	0.322
Mof_C 	C 	0.8445	0.4549	0.5887	0.354
Mof_C 	C 	0.7282	0.4843	0.7822	-0.024
Mof_C 	C 	0.886	0.4934	0.664	0.042
Mof_C 	C 	0.7132	0.4367	0.6621	0.046
Mof_C 	C 	0.6851	0.4462	0.7075	-0.127
Mof_C 	C 	0.3995	0.298	0.5163	-0.025
Mof_C 	C 	0.3232	0.3748	0.5071	0.006
Mof_C 	C 	0.1926	0.3598	0.5054	-0.07
Mof_C 	C 	0.1666	0.314	0.5098	-0.022
Mof_C 	C 	0.4285	0.3436	0.5105	-0.062
Mof_C 	C 	0.1428	0.2092	0.4987	-0.123
Mof_C 	C 	0.1854	0.1401	0.5389	-0.101
Mof_C 	C 	0.2422	0.2318	0.5247	0.076
Mof_C 	C 	0.0806	0.3935	0.502	0.315
Mof_C 	C 	0.5703	0.3636	0.5106	0.317
Mof_C 	C 	0.1555	0.0887	0.5451	0.356
Mof_C 	C 	0.2718	0.2822	0.5157	-0.018
Mof_C 	C 	0.114	0.164	0.5066	0.042
Mof_C 	C 	0.2868	0.1621	0.5633	0.047
Mof_C 	C 	0.3149	0.2075	0.5538	-0.129
Mof_C 	C 	0.3995	0.202	0.9837	-0.014
Mof_C 	C 	0.3232	0.1252	0.9929	0.013
Mof_C 	C 	0.1926	0.1402	0.9946	-0.078
Mof_C 	C 	0.1666	0.186	0.9902	-0.011
Mof_C 	C 	0.4285	0.1564	0.9895	-0.067
Mof_C 	C 	0.1428	0.2908	0.0013	-0.178
Mof_C 	C 	0.1854	0.3599	0.9611	-0.129
Mof_C 	C 	0.2422	0.2682	0.9753	0.113
Mof_C 	C 	0.0806	0.1065	0.998	0.328
Mof_C 	C 	0.5703	0.1364	0.9894	0.319
Mof_C 	C 	0.1555	0.4113	0.9549	0.365
Mof_C 	C 	0.2718	0.2178	0.9843	-0.033
Mof_C 	C 	0.114	0.336	0.9934	0.099
Mof_C 	C 	0.2868	0.3379	0.9367	0.076
Mof_C 	C 	0.3149	0.2925	0.9462	-0.16
Mof_C 	C 	0.3995	0.9837	0.298	-0.015
Mof_C 	C 	0.3232	0.9929	0.3748	0.013
Mof_C 	C 	0.1926	0.9946	0.3598	-0.077
Mof_C 	C 	0.1666	0.9902	0.314	-0.011
Mof_C 	C 	0.4285	0.9895	0.3436	-0.067
Mof_C 	C 	0.1428	0.0013	0.2092	-0.177
Mof_C 	C 	0.1854	0.9611	0.1401	-0.129
Mof_C 	C 	0.2422	0.9753	0.2318	0.112
Mof_C 	C 	0.0806	0.998	0.3935	0.328
Mof_C 	C 	0.5703	0.9894	0.3636	0.319
Mof_C 	C 	0.1555	0.9549	0.0887	0.365
Mof_C 	C 	0.2718	0.9843	0.2822	-0.033
Mof_C 	C 	0.114	0.9934	0.164	0.098
Mof_C 	C 	0.2868	0.9367	0.1621	0.076
Mof_C 	C 	0.3149	0.9462	0.2075	-0.16
Mof_C 	C 	0.3995	0.5163	0.202	-0.025
Mof_C 	C 	0.3232	0.5071	0.1252	0.006
Mof_C 	C 	0.1926	0.5054	0.1402	-0.071
Mof_C 	C 	0.1666	0.5098	0.186	-0.022
Mof_C 	C 	0.4285	0.5105	0.1564	-0.062
Mof_C 	C 	0.1428	0.4987	0.2908	-0.123
Mof_C 	C 	0.1854	0.5389	0.3599	-0.101
Mof_C 	C 	0.2422	0.5247	0.2682	0.076
Mof_C 	C 	0.0806	0.502	0.1065	0.315
Mof_C 	C 	0.5703	0.5106	0.1364	0.317
Mof_C 	C 	0.1555	0.5451	0.4113	0.356
Mof_C 	C 	0.2718	0.5157	0.2178	-0.018
Mof_C 	C 	0.114	0.5066	0.336	0.042
Mof_C 	C 	0.2868	0.5633	0.3379	0.047
Mof_C 	C 	0.3149	0.5538	0.2925	-0.129
Mof_Cl	Cl	0.8101	0.0463	0.4612	-0.452
Mof_Cl	Cl	0.8101	0.4537	0.0388	-0.45
Mof_Cl	Cl	0.8101	0.0388	0.0463	-0.453
Mof_Cl	Cl	0.8101	0.4612	0.4537	-0.448
Mof_Cl	Cl	0.1899	0.9537	0.5388	-0.47
Mof_Cl	Cl	0.1899	0.5463	0.9612	-0.472
Mof_Cl	Cl	0.1899	0.9612	0.9537	-0.466
Mof_Cl	Cl	0.1899	0.5388	0.5463	-0.477
Mof_O 	O 	0.9121	0.93023	0.4823	-0.292
Mof_O 	O 	0.0361	0.6231	0.4923	-0.419
Mof_O 	O 	0.4079	0.5962	0.4949	-0.385
Mof_O 	O 	0.89	0.5664	0.504	-0.296
Mof_O 	O 	0.791	0.92679	0.4185	-0.366
Mof_O 	O 	0.3359	0.6653	0.4867	-0.317
Mof_O 	O 	0.9121	0.56977	0.0177	-0.294
Mof_O 	O 	0.0361	0.8769	0.0077	-0.417
Mof_O 	O 	0.4079	0.9038	0.0051	-0.386
Mof_O 	O 	0.89	0.9336	0.996	-0.282
Mof_O 	O 	0.791	0.57321	0.0815	-0.364
Mof_O 	O 	0.3359	0.8347	0.0133	-0.318
Mof_O 	O 	0.9121	0.0177	0.93023	-0.292
Mof_O 	O 	0.0361	0.0077	0.6231	-0.418
Mof_O 	O 	0.4079	0.0051	0.5962	-0.387
Mof_O 	O 	0.89	0.996	0.5664	-0.286
Mof_O 	O 	0.791	0.0815	0.92679	-0.364
Mof_O 	O 	0.3359	0.0133	0.6653	-0.318
Mof_O 	O 	0.9121	0.4823	0.56977	-0.294
Mof_O 	O 	0.0361	0.4923	0.8769	-0.418
Mof_O 	O 	0.4079	0.4949	0.9038	-0.384
Mof_O 	O 	0.89	0.504	0.9336	-0.293
Mof_O 	O 	0.791	0.4185	0.57321	-0.367
Mof_O 	O 	0.3359	0.4867	0.8347	-0.316
Mof_O 	O 	0.0879	0.06977	0.5177	-0.314
Mof_O 	O 	0.9639	0.3769	0.5077	-0.353
Mof_O 	O 	0.5921	0.4038	0.5051	-0.383
Mof_O 	O 	0.11	0.4336	0.496	-0.294
Mof_O 	O 	0.209	0.07321	0.5815	-0.374
Mof_O 	O 	0.6641	0.3347	0.5133	-0.307
Mof_O 	O 	0.0879	0.43023	0.9823	-0.312
Mof_O 	O 	0.9639	0.1231	0.9923	-0.354
Mof_O 	O 	0.5921	0.0962	0.9949	-0.382
Mof_O 	O 	0.11	0.0664	0.004	-0.303
Mof_O 	O 	0.209	0.42679	0.9185	-0.375
Mof_O 	O 	0.6641	0.1653	0.9867	-0.306
Mof_O 	O 	0.0879	0.9823	0.06977	-0.312
Mof_O 	O 	0.9639	0.9923	0.3769	-0.354
Mof_O 	O 	0.5921	0.9949	0.4038	-0.381
Mof_O 	O 	0.11	0.004	0.4336	-0.303
Mof_O 	O 	0.209	0.9185	0.07321	-0.375
Mof_O 	O 	0.6641	0.9867	0.3347	-0.306
Mof_O 	O 	0.0879	0.5177	0.43023	-0.314
Mof_O 	O 	0.9639	0.5077	0.1231	-0.353
Mof_O 	O 	0.5921	0.5051	0.0962	-0.383
Mof_O 	O 	0.11	0.496	0.0664	-0.295
Mof_O 	O 	0.209	0.5815	0.42679	-0.373
Mof_O 	O 	0.6641	0.5133	0.1653	-0.307
Mof_Cu	Cu	0.6452	0.75	0.75	0.864
Mof_H 	H 	0.8161	0.868	0.6116	0.099
Mof_H 	H 	0.625	0.7747	0.5777	0.068
Mof_H 	H 	0.4734	0.9504	0.5068	0.189
Mof_H 	H 	0.6053	0.9766	0.5191	0.187
Mof_H 	H 	0.609	0.9363	0.484	0.181
Mof_H 	H 	0.6387	0.6923	0.5876	0.071
Mof_H 	H 	0.4277	0.8532	0.6204	0.09
Mof_H 	H 	0.7912	0.9201	0.5515	0.045
Mof_H 	H 	0.3945	0.9009	0.5551	0.043
Mof_H 	H 	0.8161	0.632	0.8884	0.099
Mof_H 	H 	0.625	0.7253	0.9223	0.069
Mof_H 	H 	0.4734	0.5496	0.9932	0.181
Mof_H 	H 	0.6053	0.5234	0.9809	0.178
Mof_H 	H 	0.609	0.5637	0.016	0.167
Mof_H 	H 	0.6387	0.8077	0.9124	0.073
Mof_H 	H 	0.4277	0.6468	0.8796	0.09
Mof_H 	H 	0.7912	0.5799	0.9485	0.045
Mof_H 	H 	0.3945	0.5991	0.9449	0.043
Mof_H 	H 	0.8161	0.8884	0.868	0.099
Mof_H 	H 	0.625	0.9223	0.7747	0.069
Mof_H 	H 	0.4734	0.9932	0.9504	0.183
Mof_H 	H 	0.6053	0.9809	0.9766	0.181
Mof_H 	H 	0.609	0.016	0.9363	0.168
Mof_H 	H 	0.6387	0.9124	0.6923	0.073
Mof_H 	H 	0.4277	0.8796	0.8532	0.091
Mof_H 	H 	0.7912	0.9485	0.9201	0.046
Mof_H 	H 	0.3945	0.9449	0.9009	0.043
Mof_H 	H 	0.8161	0.6116	0.632	0.098
Mof_H 	H 	0.625	0.5777	0.7253	0.068
Mof_H 	H 	0.4734	0.5068	0.5496	0.186
Mof_H 	H 	0.6053	0.5191	0.5234	0.183
Mof_H 	H 	0.609	0.484	0.5637	0.179
Mof_H 	H 	0.6387	0.5876	0.8077	0.071
Mof_H 	H 	0.4277	0.6204	0.6468	0.09
Mof_H 	H 	0.7912	0.5515	0.5799	0.045
Mof_H 	H 	0.3945	0.5551	0.5991	0.043
Mof_C 	C 	0.7311	0.8751	0.6008	-0.166
Mof_C 	C 	0.622	0.8552	0.6206	0.146
Mof_C 	C 	0.6378	0.7763	0.6508	0.115
Mof_C 	C 	0.6313	0.7585	0.605	-0.085
Mof_C 	C 	0.6343	0.822	0.6588	-0.154
Mof_C 	C 	0.5681	0.9474	0.5114	-0.437
Mof_C 	C 	0.6363	0.7139	0.6109	-0.086
Mof_C 	C 	0.6373	0.7037	0.6582	0.106
Mof_C 	C 	0.5015	0.8656	0.6055	-0.164
Mof_C 	C 	0.7175	0.9059	0.5647	0.069
Mof_C 	C 	0.4789	0.8951	0.5672	0.06
Mof_C 	C 	0.7311	0.6249	0.8992	-0.167
Mof_C 	C 	0.622	0.6448	0.8794	0.147
Mof_C 	C 	0.6378	0.7237	0.8492	0.115
Mof_C 	C 	0.6313	0.7415	0.895	-0.084
Mof_C 	C 	0.6343	0.678	0.8412	-0.154
Mof_C 	C 	0.5681	0.5526	0.9886	-0.408
Mof_C 	C 	0.6363	0.7861	0.8891	-0.086
Mof_C 	C 	0.6373	0.7963	0.8418	0.106
Mof_C 	C 	0.5015	0.6344	0.8945	-0.165
Mof_C 	C 	0.7175	0.5941	0.9353	0.07
Mof_C 	C 	0.4789	0.6049	0.9328	0.061
Mof_C 	C 	0.7311	0.8992	0.8751	-0.167
Mof_C 	C 	0.622	0.8794	0.8552	0.148
Mof_C 	C 	0.6378	0.8492	0.7763	0.116
Mof_C 	C 	0.6313	0.895	0.7585	-0.084
Mof_C 	C 	0.6343	0.8412	0.822	-0.154
Mof_C 	C 	0.5681	0.9886	0.9474	-0.411
Mof_C 	C 	0.6363	0.8891	0.7139	-0.086
Mof_C 	C 	0.6373	0.8418	0.7037	0.106
Mof_C 	C 	0.5015	0.8945	0.8656	-0.165
Mof_C 	C 	0.7175	0.9353	0.9059	0.071
Mof_C 	C 	0.4789	0.9328	0.8951	0.062
Mof_C 	C 	0.7311	0.6008	0.6249	-0.166
Mof_C 	C 	0.622	0.6206	0.6448	0.146
Mof_C 	C 	0.6378	0.6508	0.7237	0.115
Mof_C 	C 	0.6313	0.605	0.7415	-0.085
Mof_C 	C 	0.6343	0.6588	0.678	-0.154
Mof_C 	C 	0.5681	0.5114	0.5526	-0.433
Mof_C 	C 	0.6363	0.6109	0.7861	-0.087
Mof_C 	C 	0.6373	0.6582	0.7963	0.106
Mof_C 	C 	0.5015	0.6055	0.6344	-0.164
Mof_C 	C 	0.7175	0.5647	0.5941	0.068
Mof_C 	C 	0.4789	0.5672	0.6049	0.059
Mof_N 	N 	0.6405	0.743	0.6829	-0.254
Mof_N 	N 	0.5941	0.9139	0.5502	-0.074
Mof_N 	N 	0.6405	0.757	0.8171	-0.254
Mof_N 	N 	0.5941	0.5861	0.9498	-0.077
Mof_N 	N 	0.6405	0.8171	0.743	-0.254
Mof_N 	N 	0.5941	0.9498	0.9139	-0.077
Mof_N 	N 	0.6405	0.6829	0.757	-0.254
Mof_N 	N 	0.5941	0.5502	0.5861	-0.075
Mof_Cu	Cu	0.3548	0.25	0.25	0.863
Mof_H 	H 	0.1839	0.132	0.3884	0.09
Mof_H 	H 	0.375	0.2253	0.4223	0.069
Mof_H 	H 	0.5266	0.0496	0.4932	0.185
Mof_H 	H 	0.3947	0.0234	0.4809	0.179
Mof_H 	H 	0.391	0.0637	0.516	0.179
Mof_H 	H 	0.3613	0.3077	0.4124	0.071
Mof_H 	H 	0.5723	0.1468	0.3796	0.096
Mof_H 	H 	0.2088	0.0799	0.4485	0.041
Mof_H 	H 	0.6055	0.0991	0.4449	0.047
Mof_H 	H 	0.1839	0.368	0.1116	0.09
Mof_H 	H 	0.375	0.2747	0.0777	0.068
Mof_H 	H 	0.5266	0.4504	0.0068	0.193
Mof_H 	H 	0.3947	0.4766	0.0191	0.188
Mof_H 	H 	0.391	0.4363	0.984	0.193
Mof_H 	H 	0.3613	0.1923	0.0876	0.069
Mof_H 	H 	0.5723	0.3532	0.1204	0.096
Mof_H 	H 	0.2088	0.4201	0.0515	0.041
Mof_H 	H 	0.6055	0.4009	0.0551	0.047
Mof_H 	H 	0.1839	0.1116	0.132	0.089
Mof_H 	H 	0.375	0.0777	0.2253	0.068
Mof_H 	H 	0.5266	0.0068	0.0496	0.19
Mof_H 	H 	0.3947	0.0191	0.0234	0.185
Mof_H 	H 	0.391	0.984	0.0637	0.19
Mof_H 	H 	0.3613	0.0876	0.3077	0.069
Mof_H 	H 	0.5723	0.1204	0.1468	0.095
Mof_H 	H 	0.2088	0.0515	0.0799	0.041
Mof_H 	H 	0.6055	0.0551	0.0991	0.047
Mof_H 	H 	0.1839	0.3884	0.368	0.09
Mof_H 	H 	0.375	0.4223	0.2747	0.069
Mof_H 	H 	0.5266	0.4932	0.4504	0.188
Mof_H 	H 	0.3947	0.4809	0.4766	0.183
Mof_H 	H 	0.391	0.516	0.4363	0.18
Mof_H 	H 	0.3613	0.4124	0.1923	0.071
Mof_H 	H 	0.5723	0.3796	0.3532	0.096
Mof_H 	H 	0.2088	0.4485	0.4201	0.041
Mof_H 	H 	0.6055	0.4449	0.4009	0.047
Mof_C 	C 	0.2689	0.1249	0.3992	-0.166
Mof_C 	C 	0.378	0.1448	0.3794	0.145
Mof_C 	C 	0.3622	0.2237	0.3492	0.115
Mof_C 	C 	0.3687	0.2415	0.395	-0.085
Mof_C 	C 	0.3657	0.178	0.3412	-0.154
Mof_C 	C 	0.4319	0.0526	0.4886	-0.43
Mof_C 	C 	0.3637	0.2861	0.3891	-0.086
Mof_C 	C 	0.3627	0.2963	0.3418	0.105
Mof_C 	C 	0.4985	0.1344	0.3945	-0.164
Mof_C 	C 	0.2825	0.0941	0.4353	0.066
Mof_C 	C 	0.5211	0.1049	0.4328	0.06
Mof_C 	C 	0.2689	0.3751	0.1008	-0.164
Mof_C 	C 	0.378	0.3552	0.1206	0.144
Mof_C 	C 	0.3622	0.2763	0.1508	0.114
Mof_C 	C 	0.3687	0.2585	0.105	-0.085
Mof_C 	C 	0.3657	0.322	0.1588	-0.153
Mof_C 	C 	0.4319	0.4474	0.0114	-0.46
Mof_C 	C 	0.3637	0.2139	0.1109	-0.086
Mof_C 	C 	0.3627	0.2037	0.1582	0.104
Mof_C 	C 	0.4985	0.3656	0.1055	-0.163
Mof_C 	C 	0.2825	0.4059	0.0647	0.065
Mof_C 	C 	0.5211	0.3951	0.0672	0.059
Mof_C 	C 	0.2689	0.1008	0.1249	-0.165
Mof_C 	C 	0.378	0.1206	0.1448	0.144
Mof_C 	C 	0.3622	0.1508	0.2237	0.114
Mof_C 	C 	0.3687	0.105	0.2415	-0.085
Mof_C 	C 	0.3657	0.1588	0.178	-0.153
Mof_C 	C 	0.4319	0.0114	0.0526	-0.454
Mof_C 	C 	0.3637	0.1109	0.2861	-0.087
Mof_C 	C 	0.3627	0.1582	0.2963	0.104
Mof_C 	C 	0.4985	0.1055	0.1344	-0.163
Mof_C 	C 	0.2825	0.0647	0.0941	0.064
Mof_C 	C 	0.5211	0.0672	0.1049	0.058
Mof_C 	C 	0.2689	0.3992	0.3751	-0.165
Mof_C 	C 	0.378	0.3794	0.3552	0.146
Mof_C 	C 	0.3622	0.3492	0.2763	0.115
Mof_C 	C 	0.3687	0.395	0.2585	-0.085
Mof_C 	C 	0.3657	0.3412	0.322	-0.154
Mof_C 	C 	0.4319	0.4886	0.4474	-0.434
Mof_C 	C 	0.3637	0.3891	0.2139	-0.086
Mof_C 	C 	0.3627	0.3418	0.2037	0.105
Mof_C 	C 	0.4985	0.3945	0.3656	-0.163
Mof_C 	C 	0.2825	0.4353	0.4059	0.067
Mof_C 	C 	0.5211	0.4328	0.3951	0.061
Mof_N 	N 	0.3595	0.257	0.3171	-0.254
Mof_N 	N 	0.4059	0.0861	0.4498	-0.075
Mof_N 	N 	0.3595	0.243	0.1829	-0.254
Mof_N 	N 	0.4059	0.4139	0.0502	-0.072
Mof_N 	N 	0.3595	0.1829	0.257	-0.254
Mof_N 	N 	0.4059	0.0502	0.0861	-0.073
Mof_N 	N 	0.3595	0.3171	0.243	-0.254
Mof_N 	N 	0.4059	0.4498	0.4139	-0.074
_end
