# CIF file generated by openbabel 3.1.0, see https://openbabel.org
data_I
_chemical_name_common 'image0'
_cell_length_a 11.1967
_cell_length_b 11.1967
_cell_length_c 44.0828
_cell_angle_alpha 90
_cell_angle_beta 90
_cell_angle_gamma 120
_space_group_name_H-M_alt 'P 1'
_space_group_name_Hall 'P 1'
loop_
    _symmetry_equiv_pos_as_xyz
    x,y,z
loop_
    _atom_site_label
    _atom_site_type_symbol
    _atom_site_fract_x
    _atom_site_fract_y
    _atom_site_fract_z
    _atom_site_occupancy
    H1       H        0.65300    0.79500    0.76660    1.000
    O1       O        0.67544    0.53890    0.60344    1.000
    O2       O        0.48831    0.47933    0.63013    1.000
    O3       O        0.70670    0.75980    0.76609    1.000
    N1       N        0.56380    0.72960    0.58612    1.000
    C1       C        0.76090    0.55430    0.70926    1.000
    C2       C        0.69950    0.69550    0.73957    1.000
    C3       C        0.82790    0.47560    0.70584    1.000
    H2       H        0.87460    0.46590    0.72220    1.000
    C4       C        0.68600    0.49940    0.65624    1.000
    C5       C        0.68540    0.56410    0.68415    1.000
    C6       C        0.76820    0.62290    0.73702    1.000
    C7       C        0.61820    0.64150    0.68776    1.000
    H3       H        0.56890    0.64910    0.67160    1.000
    C8       C        0.62420    0.70550    0.71463    1.000
    H4       H        0.57900    0.75570    0.71660    1.000
    C9       C        0.54570    0.78670    0.61122    1.000
    H5       H        0.49080    0.72900    0.62670    1.000
    C10      C        0.61220    0.50720    0.62855    1.000
    C11      C        0.68340    0.01580    0.59182    1.000
    C12      C        0.70390    0.95720    0.56614    1.000
    H6       H        0.75780    0.01270    0.55030    1.000
    C13      C        0.64340    0.81450    0.56428    1.000
    H7       H        0.65910    0.77660    0.54700    1.000
    C14      C        0.75650    0.42940    0.65362    1.000
    H8       H        0.75940    0.39160    0.63500    1.000
    C15      C        0.60480    0.92690    0.61498    1.000
    H9       H        0.59230    0.96230    0.63300    1.000
    C16      C        0.82490    0.41420    0.67898    1.000
    H10      H        0.86820    0.36200    0.67730    1.000
    C17      C        0.73300    0.16820    0.59520    1.000
    H11      H        0.77750    0.19730    0.61480    1.000
    H12      H        0.65250    0.17920    0.59560    1.000
    H13      H        0.20500    0.85800    0.43327    1.000
    O4       O        0.46110    0.13654    0.27011    1.000
    O5       O        0.52067    0.00898    0.29680    1.000
    O6       O        0.24020    0.94690    0.43276    1.000
    N2       N        0.27040    0.83420    0.25279    1.000
    C18      C        0.44570    0.20660    0.37593    1.000
    C19      C        0.30450    0.00400    0.40624    1.000
    C20      C        0.52440    0.35230    0.37251    1.000
    H14      H        0.53410    0.40870    0.38887    1.000
    C21      C        0.50060    0.18660    0.32291    1.000
    C22      C        0.43590    0.12130    0.35082    1.000
    C23      C        0.37710    0.14530    0.40369    1.000
    C24      C        0.35850    0.97670    0.35443    1.000
    H15      H        0.35090    0.91980    0.33827    1.000
    C25      C        0.29450    0.91870    0.38130    1.000
    H16      H        0.24430    0.82330    0.38327    1.000
    C26      C        0.21330    0.75900    0.27789    1.000
    H17      H        0.27100    0.76180    0.29337    1.000
    C27      C        0.49280    0.10500    0.29522    1.000
    C28      C        0.98420    0.66760    0.25849    1.000
    C29      C        0.04280    0.74670    0.23281    1.000
    H18      H        0.98730    0.74510    0.21697    1.000
    C30      C        0.18550    0.82890    0.23095    1.000
    H19      H        0.22340    0.88250    0.21367    1.000
    C31      C        0.57060    0.32710    0.32029    1.000
    H20      H        0.60840    0.36780    0.30167    1.000
    C32      C        0.07310    0.67790    0.28165    1.000
    H21      H        0.03770    0.63000    0.29967    1.000
    C33      C        0.58580    0.41070    0.34565    1.000
    H22      H        0.63800    0.50620    0.34397    1.000
    C34      C        0.83180    0.56480    0.26187    1.000
    H23      H        0.80270    0.58020    0.28147    1.000
    H24      H        0.82080    0.47330    0.26227    1.000
    H25      H        0.14200    0.34700    0.09993    1.000
    O7       O        0.86346    0.32456    0.93677    1.000
    O8       O        0.99102    0.51169    0.96346    1.000
    O9       O        0.05310    0.29330    0.09942    1.000
    N3       N        0.16580    0.43620    0.91945    1.000
    C35      C        0.79340    0.23910    0.04259    1.000
    C36      C        0.99600    0.30050    0.07290    1.000
    C37      C        0.64770    0.17210    0.03917    1.000
    H26      H        0.59130    0.12540    0.05553    1.000
    C38      C        0.81340    0.31400    0.98957    1.000
    C39      C        0.87870    0.31460    0.01748    1.000
    C40      C        0.85470    0.23180    0.07035    1.000
    C41      C        0.02330    0.38180    0.02109    1.000
    H27      H        0.08020    0.43110    0.00493    1.000
    C42      C        0.08130    0.37580    0.04796    1.000
    H28      H        0.17670    0.42100    0.04993    1.000
    C43      C        0.24100    0.45430    0.94455    1.000
    H29      H        0.23820    0.50920    0.96003    1.000
    C44      C        0.89500    0.38780    0.96188    1.000
    C45      C        0.33240    0.31660    0.92515    1.000
    C46      C        0.25330    0.29610    0.89947    1.000
    H30      H        0.25490    0.24220    0.88363    1.000
    C47      C        0.17110    0.35660    0.89761    1.000
    H31      H        0.11750    0.34090    0.88033    1.000
    C48      C        0.67290    0.24350    0.98695    1.000
    H32      H        0.63220    0.24060    0.96833    1.000
    C49      C        0.32210    0.39520    0.94831    1.000
    H33      H        0.37000    0.40770    0.96633    1.000
    C50      C        0.58930    0.17510    0.01231    1.000
    H34      H        0.49380    0.13180    0.01063    1.000
    C51      C        0.43520    0.26700    0.92853    1.000
    H35      H        0.41980    0.22250    0.94813    1.000
    H36      H        0.52670    0.34750    0.92893    1.000
    H37      H        0.20500    0.34700    0.40007    1.000
    O10      O        0.46110    0.32456    0.56323    1.000
    O11      O        0.52067    0.51169    0.53654    1.000
    O12      O        0.24020    0.29330    0.40058    1.000
    N4       N        0.27040    0.43620    0.58055    1.000
    C52      C        0.44570    0.23910    0.45741    1.000
    C53      C        0.30450    0.30050    0.42710    1.000
    C54      C        0.52440    0.17210    0.46083    1.000
    H38      H        0.53410    0.12540    0.44447    1.000
    C55      C        0.50060    0.31400    0.51043    1.000
    C56      C        0.43590    0.31460    0.48252    1.000
    C57      C        0.37710    0.23180    0.42965    1.000
    C58      C        0.35850    0.38180    0.47891    1.000
    H39      H        0.35090    0.43110    0.49507    1.000
    C59      C        0.29450    0.37580    0.45204    1.000
    H40      H        0.24430    0.42100    0.45007    1.000
    C60      C        0.21330    0.45430    0.55545    1.000
    H41      H        0.27100    0.50920    0.53997    1.000
    C61      C        0.49280    0.38780    0.53812    1.000
    C62      C        0.98420    0.31660    0.57485    1.000
    C63      C        0.04280    0.29610    0.60053    1.000
    H42      H        0.98730    0.24220    0.61637    1.000
    C64      C        0.18550    0.35660    0.60239    1.000
    H43      H        0.22340    0.34090    0.61967    1.000
    C65      C        0.57060    0.24350    0.51305    1.000
    H44      H        0.60840    0.24060    0.53167    1.000
    C66      C        0.07310    0.39520    0.55169    1.000
    H45      H        0.03770    0.40770    0.53367    1.000
    C67      C        0.58580    0.17510    0.48769    1.000
    H46      H        0.63800    0.13180    0.48937    1.000
    C68      C        0.83180    0.26700    0.57147    1.000
    H47      H        0.80270    0.22250    0.55187    1.000
    H48      H        0.82080    0.34750    0.57107    1.000
    H49      H        0.14200    0.79500    0.73340    1.000
    O13      O        0.86346    0.53890    0.89656    1.000
    O14      O        0.99102    0.47933    0.86987    1.000
    O15      O        0.05310    0.75980    0.73391    1.000
    N5       N        0.16580    0.72960    0.91388    1.000
    C69      C        0.79340    0.55430    0.79074    1.000
    C70      C        0.99600    0.69550    0.76043    1.000
    C71      C        0.64770    0.47560    0.79416    1.000
    H50      H        0.59130    0.46590    0.77780    1.000
    C72      C        0.81340    0.49940    0.84376    1.000
    C73      C        0.87870    0.56410    0.81585    1.000
    C74      C        0.85470    0.62290    0.76298    1.000
    C75      C        0.02330    0.64150    0.81224    1.000
    H51      H        0.08020    0.64910    0.82840    1.000
    C76      C        0.08130    0.70550    0.78537    1.000
    H52      H        0.17670    0.75570    0.78340    1.000
    C77      C        0.24100    0.78670    0.88878    1.000
    H53      H        0.23820    0.72900    0.87330    1.000
    C78      C        0.89500    0.50720    0.87145    1.000
    C79      C        0.33240    0.01580    0.90818    1.000
    C80      C        0.25330    0.95720    0.93386    1.000
    H54      H        0.25490    0.01270    0.94970    1.000
    C81      C        0.17110    0.81450    0.93572    1.000
    H55      H        0.11750    0.77660    0.95300    1.000
    C82      C        0.67290    0.42940    0.84638    1.000
    H56      H        0.63220    0.39160    0.86500    1.000
    C83      C        0.32210    0.92690    0.88502    1.000
    H57      H        0.37000    0.96230    0.86700    1.000
    C84      C        0.58930    0.41420    0.82102    1.000
    H58      H        0.49380    0.36200    0.82270    1.000
    C85      C        0.43520    0.16820    0.90480    1.000
    H59      H        0.41980    0.19730    0.88520    1.000
    H60      H        0.52670    0.17920    0.90440    1.000
    H61      H        0.65300    0.85800    0.06673    1.000
    O16      O        0.67544    0.13654    0.22989    1.000
    O17      O        0.48831    0.00898    0.20320    1.000
    O18      O        0.70670    0.94690    0.06724    1.000
    N6       N        0.56380    0.83420    0.24721    1.000
    C86      C        0.76090    0.20660    0.12407    1.000
    C87      C        0.69950    0.00400    0.09376    1.000
    C88      C        0.82790    0.35230    0.12749    1.000
    H62      H        0.87460    0.40870    0.11113    1.000
    C89      C        0.68600    0.18660    0.17709    1.000
    C90      C        0.68540    0.12130    0.14918    1.000
    C91      C        0.76820    0.14530    0.09631    1.000
    C92      C        0.61820    0.97670    0.14557    1.000
    H63      H        0.56890    0.91980    0.16173    1.000
    C93      C        0.62420    0.91870    0.11870    1.000
    H64      H        0.57900    0.82330    0.11673    1.000
    C94      C        0.54570    0.75900    0.22211    1.000
    H65      H        0.49080    0.76180    0.20663    1.000
    C95      C        0.61220    0.10500    0.20478    1.000
    C96      C        0.68340    0.66760    0.24151    1.000
    C97      C        0.70390    0.74670    0.26719    1.000
    H66      H        0.75780    0.74510    0.28303    1.000
    C98      C        0.64340    0.82890    0.26905    1.000
    H67      H        0.65910    0.88250    0.28633    1.000
    C99      C        0.75650    0.32710    0.17971    1.000
    H68      H        0.75940    0.36780    0.19833    1.000
    C100     C        0.60480    0.67790    0.21835    1.000
    H69      H        0.59230    0.63000    0.20033    1.000
    C101     C        0.82490    0.41070    0.15435    1.000
    H70      H        0.86820    0.50620    0.15603    1.000
    C102     C        0.73300    0.56480    0.23813    1.000
    H71      H        0.77750    0.58020    0.21853    1.000
    H72      H        0.65250    0.47330    0.23773    1.000
    Zn1      Zn       0.48155    0.51845    0.58333    1.000
    Zn2      Zn       0.48155    0.96310    0.25000    1.000
    Zn3      Zn       0.03690    0.51845    0.91667    1.000
    H73      H        0.34700    0.20500    0.26660    1.000
    O19      O        0.32456    0.46110    0.10344    1.000
    O20      O        0.51169    0.52067    0.13013    1.000
    O21      O        0.29330    0.24020    0.26609    1.000
    N7       N        0.43620    0.27040    0.08612    1.000
    C103     C        0.23910    0.44570    0.20926    1.000
    C104     C        0.30050    0.30450    0.23957    1.000
    C105     C        0.17210    0.52440    0.20584    1.000
    H74      H        0.12540    0.53410    0.22220    1.000
    C106     C        0.31400    0.50060    0.15624    1.000
    C107     C        0.31460    0.43590    0.18415    1.000
    C108     C        0.23180    0.37710    0.23702    1.000
    C109     C        0.38180    0.35850    0.18776    1.000
    H75      H        0.43110    0.35090    0.17160    1.000
    C110     C        0.37580    0.29450    0.21463    1.000
    H76      H        0.42100    0.24430    0.21660    1.000
    C111     C        0.45430    0.21330    0.11122    1.000
    H77      H        0.50920    0.27100    0.12670    1.000
    C112     C        0.38780    0.49280    0.12855    1.000
    C113     C        0.31660    0.98420    0.09182    1.000
    C114     C        0.29610    0.04280    0.06614    1.000
    H78      H        0.24220    0.98730    0.05030    1.000
    C115     C        0.35660    0.18550    0.06428    1.000
    H79      H        0.34090    0.22340    0.04700    1.000
    C116     C        0.24350    0.57060    0.15362    1.000
    H80      H        0.24060    0.60840    0.13500    1.000
    C117     C        0.39520    0.07310    0.11498    1.000
    H81      H        0.40770    0.03770    0.13300    1.000
    C118     C        0.17510    0.58580    0.17898    1.000
    H82      H        0.13180    0.63800    0.17730    1.000
    C119     C        0.26700    0.83180    0.09520    1.000
    H83      H        0.22250    0.80270    0.11480    1.000
    H84      H        0.34750    0.82080    0.09560    1.000
    H85      H        0.79500    0.14200    0.93327    1.000
    O22      O        0.53890    0.86346    0.77011    1.000
    O23      O        0.47933    0.99102    0.79680    1.000
    O24      O        0.75980    0.05310    0.93276    1.000
    N8       N        0.72960    0.16580    0.75279    1.000
    C120     C        0.55430    0.79340    0.87593    1.000
    C121     C        0.69550    0.99600    0.90624    1.000
    C122     C        0.47560    0.64770    0.87251    1.000
    H86      H        0.46590    0.59130    0.88887    1.000
    C123     C        0.49940    0.81340    0.82291    1.000
    C124     C        0.56410    0.87870    0.85082    1.000
    C125     C        0.62290    0.85470    0.90369    1.000
    C126     C        0.64150    0.02330    0.85443    1.000
    H87      H        0.64910    0.08020    0.83827    1.000
    C127     C        0.70550    0.08130    0.88130    1.000
    H88      H        0.75570    0.17670    0.88327    1.000
    C128     C        0.78670    0.24100    0.77789    1.000
    H89      H        0.72900    0.23820    0.79337    1.000
    C129     C        0.50720    0.89500    0.79522    1.000
    C130     C        0.01580    0.33240    0.75849    1.000
    C131     C        0.95720    0.25330    0.73281    1.000
    H90      H        0.01270    0.25490    0.71697    1.000
    C132     C        0.81450    0.17110    0.73095    1.000
    H91      H        0.77660    0.11750    0.71367    1.000
    C133     C        0.42940    0.67290    0.82029    1.000
    H92      H        0.39160    0.63220    0.80167    1.000
    C134     C        0.92690    0.32210    0.78165    1.000
    H93      H        0.96230    0.37000    0.79967    1.000
    C135     C        0.41420    0.58930    0.84565    1.000
    H94      H        0.36200    0.49380    0.84397    1.000
    C136     C        0.16820    0.43520    0.76187    1.000
    H95      H        0.19730    0.41980    0.78147    1.000
    H96      H        0.17920    0.52670    0.76227    1.000
    H97      H        0.85800    0.65300    0.59993    1.000
    O25      O        0.13654    0.67544    0.43677    1.000
    O26      O        0.00898    0.48831    0.46346    1.000
    O27      O        0.94690    0.70670    0.59942    1.000
    N9       N        0.83420    0.56380    0.41945    1.000
    C137     C        0.20660    0.76090    0.54259    1.000
    C138     C        0.00400    0.69950    0.57290    1.000
    C139     C        0.35230    0.82790    0.53917    1.000
    H98      H        0.40870    0.87460    0.55553    1.000
    C140     C        0.18660    0.68600    0.48957    1.000
    C141     C        0.12130    0.68540    0.51748    1.000
    C142     C        0.14530    0.76820    0.57035    1.000
    C143     C        0.97670    0.61820    0.52109    1.000
    H99      H        0.91980    0.56890    0.50493    1.000
    C144     C        0.91870    0.62420    0.54796    1.000
    H100     H        0.82330    0.57900    0.54993    1.000
    C145     C        0.75900    0.54570    0.44455    1.000
    H101     H        0.76180    0.49080    0.46003    1.000
    C146     C        0.10500    0.61220    0.46188    1.000
    C147     C        0.66760    0.68340    0.42515    1.000
    C148     C        0.74670    0.70390    0.39947    1.000
    H102     H        0.74510    0.75780    0.38363    1.000
    C149     C        0.82890    0.64340    0.39761    1.000
    H103     H        0.88250    0.65910    0.38033    1.000
    C150     C        0.32710    0.75650    0.48695    1.000
    H104     H        0.36780    0.75940    0.46833    1.000
    C151     C        0.67790    0.60480    0.44831    1.000
    H105     H        0.63000    0.59230    0.46633    1.000
    C152     C        0.41070    0.82490    0.51231    1.000
    H106     H        0.50620    0.86820    0.51063    1.000
    C153     C        0.56480    0.73300    0.42853    1.000
    H107     H        0.58020    0.77750    0.44813    1.000
    H108     H        0.47330    0.65250    0.42893    1.000
    H109     H        0.79500    0.65300    0.90007    1.000
    O28      O        0.53890    0.67544    0.06323    1.000
    O29      O        0.47933    0.48831    0.03654    1.000
    O30      O        0.75980    0.70670    0.90058    1.000
    N10      N        0.72960    0.56380    0.08055    1.000
    C154     C        0.55430    0.76090    0.95741    1.000
    C155     C        0.69550    0.69950    0.92710    1.000
    C156     C        0.47560    0.82790    0.96083    1.000
    H110     H        0.46590    0.87460    0.94447    1.000
    C157     C        0.49940    0.68600    0.01043    1.000
    C158     C        0.56410    0.68540    0.98252    1.000
    C159     C        0.62290    0.76820    0.92965    1.000
    C160     C        0.64150    0.61820    0.97891    1.000
    H111     H        0.64910    0.56890    0.99507    1.000
    C161     C        0.70550    0.62420    0.95204    1.000
    H112     H        0.75570    0.57900    0.95007    1.000
    C162     C        0.78670    0.54570    0.05545    1.000
    H113     H        0.72900    0.49080    0.03997    1.000
    C163     C        0.50720    0.61220    0.03812    1.000
    C164     C        0.01580    0.68340    0.07485    1.000
    C165     C        0.95720    0.70390    0.10053    1.000
    H114     H        0.01270    0.75780    0.11637    1.000
    C166     C        0.81450    0.64340    0.10239    1.000
    H115     H        0.77660    0.65910    0.11967    1.000
    C167     C        0.42940    0.75650    0.01305    1.000
    H116     H        0.39160    0.75940    0.03167    1.000
    C168     C        0.92690    0.60480    0.05169    1.000
    H117     H        0.96230    0.59230    0.03367    1.000
    C169     C        0.41420    0.82490    0.98769    1.000
    H118     H        0.36200    0.86820    0.98937    1.000
    C170     C        0.16820    0.73300    0.07147    1.000
    H119     H        0.19730    0.77750    0.05187    1.000
    H120     H        0.17920    0.65250    0.07107    1.000
    H121     H        0.85800    0.20500    0.23340    1.000
    O31      O        0.13654    0.46110    0.39656    1.000
    O32      O        0.00898    0.52067    0.36987    1.000
    O33      O        0.94690    0.24020    0.23391    1.000
    N11      N        0.83420    0.27040    0.41388    1.000
    C171     C        0.20660    0.44570    0.29074    1.000
    C172     C        0.00400    0.30450    0.26043    1.000
    C173     C        0.35230    0.52440    0.29416    1.000
    H122     H        0.40870    0.53410    0.27780    1.000
    C174     C        0.18660    0.50060    0.34376    1.000
    C175     C        0.12130    0.43590    0.31585    1.000
    C176     C        0.14530    0.37710    0.26298    1.000
    C177     C        0.97670    0.35850    0.31224    1.000
    H123     H        0.91980    0.35090    0.32840    1.000
    C178     C        0.91870    0.29450    0.28537    1.000
    H124     H        0.82330    0.24430    0.28340    1.000
    C179     C        0.75900    0.21330    0.38878    1.000
    H125     H        0.76180    0.27100    0.37330    1.000
    C180     C        0.10500    0.49280    0.37145    1.000
    C181     C        0.66760    0.98420    0.40818    1.000
    C182     C        0.74670    0.04280    0.43386    1.000
    H126     H        0.74510    0.98730    0.44970    1.000
    C183     C        0.82890    0.18550    0.43572    1.000
    H127     H        0.88250    0.22340    0.45300    1.000
    C184     C        0.32710    0.57060    0.34638    1.000
    H128     H        0.36780    0.60840    0.36500    1.000
    C185     C        0.67790    0.07310    0.38502    1.000
    H129     H        0.63000    0.03770    0.36700    1.000
    C186     C        0.41070    0.58580    0.32102    1.000
    H130     H        0.50620    0.63800    0.32270    1.000
    C187     C        0.56480    0.83180    0.40480    1.000
    H131     H        0.58020    0.80270    0.38520    1.000
    H132     H        0.47330    0.82080    0.40440    1.000
    H133     H        0.34700    0.14200    0.56673    1.000
    O34      O        0.32456    0.86346    0.72989    1.000
    O35      O        0.51169    0.99102    0.70320    1.000
    O36      O        0.29330    0.05310    0.56724    1.000
    N12      N        0.43620    0.16580    0.74721    1.000
    C188     C        0.23910    0.79340    0.62407    1.000
    C189     C        0.30050    0.99600    0.59376    1.000
    C190     C        0.17210    0.64770    0.62749    1.000
    H134     H        0.12540    0.59130    0.61113    1.000
    C191     C        0.31400    0.81340    0.67709    1.000
    C192     C        0.31460    0.87870    0.64918    1.000
    C193     C        0.23180    0.85470    0.59631    1.000
    C194     C        0.38180    0.02330    0.64557    1.000
    H135     H        0.43110    0.08020    0.66173    1.000
    C195     C        0.37580    0.08130    0.61870    1.000
    H136     H        0.42100    0.17670    0.61673    1.000
    C196     C        0.45430    0.24100    0.72211    1.000
    H137     H        0.50920    0.23820    0.70663    1.000
    C197     C        0.38780    0.89500    0.70478    1.000
    C198     C        0.31660    0.33240    0.74151    1.000
    C199     C        0.29610    0.25330    0.76719    1.000
    H138     H        0.24220    0.25490    0.78303    1.000
    C200     C        0.35660    0.17110    0.76905    1.000
    H139     H        0.34090    0.11750    0.78633    1.000
    C201     C        0.24350    0.67290    0.67971    1.000
    H140     H        0.24060    0.63220    0.69833    1.000
    C202     C        0.39520    0.32210    0.71835    1.000
    H141     H        0.40770    0.37000    0.70033    1.000
    C203     C        0.17510    0.58930    0.65435    1.000
    H142     H        0.13180    0.49380    0.65603    1.000
    C204     C        0.26700    0.43520    0.73813    1.000
    H143     H        0.22250    0.41980    0.71853    1.000
    H144     H        0.34750    0.52670    0.73773    1.000
    Zn4      Zn       0.51845    0.48155    0.08333    1.000
    Zn5      Zn       0.51845    0.03690    0.75000    1.000
    Zn6      Zn       0.96310    0.48155    0.41667    1.000
