data_functionalizedCrystal
_audit_creation_method	'EQeq! by Chris Wilmer'
_symmetry_space_group_name_H-M	'P1'
_symmetry_Int_Tables_number	1
_symmetry_cell_setting	triclinic
loop_
_symmetry_equiv_pos_as_xyz
  x,y,z
_cell_length_a	17.7875
_cell_length_b	17.7875
_cell_length_c	32.8115
_cell_angle_alpha	90
_cell_angle_beta	90
_cell_angle_gamma	90
loop_
_atom_site_label
_atom_site_type_symbol
_atom_site_fract_x
_atom_site_fract_y
_atom_site_fract_z
_atom_site_charge
Mof_O 	O 	0.42646	0.63049	0.21158	-0.441
Mof_O 	O 	0.363	0.5586	0.16677	-0.462
Mof_C 	C 	0.422	0.5923	0.17939	0.404
Mof_C 	C 	0.489	0.5852	0.15314	-0.163
Mof_C 	C 	0.4901	0.5398	0.12031	0.086
Mof_H 	H 	0.4466	0.5135	0.1136	0.008
Mof_C 	C 	0.5522	0.5306	0.09642	-0.145
Mof_H 	H 	0.551	0.4966	0.0749	0.077
Mof_C 	C 	0.6176	0.5717	0.10406	0.065
Mof_C 	C 	0.6172	0.6222	0.13678	-0.138
Mof_H 	H 	0.6594	0.6512	0.1426	0.081
Mof_C 	C 	0.554	0.6281	0.16004	0.077
Mof_H 	H 	0.554	0.6622	0.1815	0.009
Mof_C 	C 	0.6849	0.5644	0.07895	0.054
Mof_C 	C 	0.6829	0.5458	0.03671	-0.098
Mof_H 	H 	0.6371	0.5408	0.0233	0.059
Mof_C 	C 	0.7021	0.4588	0.9594	-0.111
Mof_H 	H 	0.6763	0.4293	0.9782	0.065
Mof_C 	C 	0.7022	0.4378	0.918	0.051
Mof_H 	H 	0.6773	0.3939	0.9105	0.017
Mof_C 	C 	0.7068	0.5455	0.9455	-0.102
Mof_C 	C 	0.7083	0.5258	0.9037	0.04
Mof_H 	H 	0.6822	0.5896	0.9529	0.059
Mof_H 	H 	0.682	0.5545	0.8847	-0.004
Mof_O 	O 	0.07354	0.86951	0.21158	-0.441
Mof_O 	O 	0.137	0.9414	0.16677	-0.462
Mof_C 	C 	0.078	0.9077	0.17939	0.404
Mof_C 	C 	0.011	0.9148	0.15314	-0.163
Mof_C 	C 	0.0099	0.9602	0.12031	0.085
Mof_H 	H 	0.0534	0.9865	0.1136	0.01
Mof_C 	C 	0.9478	0.9694	0.09642	-0.142
Mof_H 	H 	0.949	0.0034	0.0749	0.076
Mof_C 	C 	0.8824	0.9283	0.10406	0.065
Mof_C 	C 	0.8828	0.8778	0.13678	-0.136
Mof_H 	H 	0.8406	0.8488	0.1426	0.082
Mof_C 	C 	0.946	0.8719	0.16004	0.078
Mof_H 	H 	0.946	0.8378	0.1815	0.01
Mof_C 	C 	0.8151	0.9356	0.07895	0.055
Mof_C 	C 	0.8171	0.9542	0.03671	-0.098
Mof_H 	H 	0.8629	0.9592	0.0233	0.061
Mof_C 	C 	0.7979	0.0412	0.9594	-0.109
Mof_H 	H 	0.8237	0.0707	0.9782	0.066
Mof_C 	C 	0.7978	0.0622	0.918	0.052
Mof_H 	H 	0.8227	0.1061	0.9105	0.018
Mof_C 	C 	0.7932	0.9545	0.9455	-0.101
Mof_C 	C 	0.7917	0.9742	0.9037	0.04
Mof_H 	H 	0.8178	0.9104	0.9529	0.06
Mof_H 	H 	0.818	0.9455	0.8847	-0.003
Mof_O 	O 	0.86951	0.42646	0.71158	-0.44
Mof_O 	O 	0.9414	0.363	0.66677	-0.461
Mof_C 	C 	0.9077	0.422	0.67939	0.405
Mof_C 	C 	0.9148	0.489	0.65314	-0.162
Mof_C 	C 	0.9602	0.4901	0.62031	0.087
Mof_H 	H 	0.9865	0.4466	0.6136	0.009
Mof_C 	C 	0.9694	0.5522	0.59642	-0.144
Mof_H 	H 	0.0034	0.551	0.5749	0.078
Mof_C 	C 	0.9283	0.6176	0.60406	0.066
Mof_C 	C 	0.8778	0.6172	0.63678	-0.137
Mof_H 	H 	0.8488	0.6594	0.6426	0.082
Mof_C 	C 	0.8719	0.554	0.66004	0.078
Mof_H 	H 	0.8378	0.554	0.6815	0.01
Mof_C 	C 	0.9356	0.6849	0.57895	0.055
Mof_C 	C 	0.9542	0.6829	0.53671	-0.097
Mof_H 	H 	0.9592	0.6371	0.5233	0.06
Mof_C 	C 	0.0412	0.7021	0.4594	-0.11
Mof_H 	H 	0.0707	0.6763	0.4782	0.066
Mof_C 	C 	0.0622	0.7022	0.418	0.052
Mof_H 	H 	0.1061	0.6773	0.4105	0.018
Mof_C 	C 	0.9545	0.7068	0.4455	-0.101
Mof_C 	C 	0.9742	0.7083	0.4037	0.041
Mof_H 	H 	0.9104	0.6822	0.4529	0.06
Mof_H 	H 	0.9455	0.682	0.3847	-0.003
Mof_O 	O 	0.63049	0.07354	0.71158	-0.44
Mof_O 	O 	0.5586	0.137	0.66677	-0.461
Mof_C 	C 	0.5923	0.078	0.67939	0.405
Mof_C 	C 	0.5852	0.011	0.65314	-0.162
Mof_C 	C 	0.5398	0.0099	0.62031	0.087
Mof_H 	H 	0.5135	0.0534	0.6136	0.009
Mof_C 	C 	0.5306	0.9478	0.59642	-0.145
Mof_H 	H 	0.4966	0.949	0.5749	0.078
Mof_C 	C 	0.5717	0.8824	0.60406	0.066
Mof_C 	C 	0.6222	0.8828	0.63678	-0.137
Mof_H 	H 	0.6512	0.8406	0.6426	0.082
Mof_C 	C 	0.6281	0.946	0.66004	0.078
Mof_H 	H 	0.6622	0.946	0.6815	0.01
Mof_C 	C 	0.5644	0.8151	0.57895	0.055
Mof_C 	C 	0.5458	0.8171	0.53671	-0.097
Mof_H 	H 	0.5408	0.8629	0.5233	0.06
Mof_C 	C 	0.4588	0.7979	0.4594	-0.11
Mof_H 	H 	0.4293	0.8237	0.4782	0.066
Mof_C 	C 	0.4378	0.7978	0.418	0.052
Mof_H 	H 	0.3939	0.8227	0.4105	0.018
Mof_C 	C 	0.5455	0.7932	0.4455	-0.101
Mof_C 	C 	0.5258	0.7917	0.4037	0.041
Mof_H 	H 	0.5896	0.8178	0.4529	0.06
Mof_H 	H 	0.5545	0.818	0.3847	-0.003
Mof_O 	O 	0.57354	0.13049	0.78842	-0.44
Mof_O 	O 	0.637	0.0586	0.83323	-0.461
Mof_C 	C 	0.578	0.0923	0.82061	0.405
Mof_C 	C 	0.511	0.0852	0.84686	-0.162
Mof_C 	C 	0.5099	0.0398	0.87969	0.086
Mof_H 	H 	0.5534	0.0135	0.8864	0.009
Mof_C 	C 	0.4478	0.0306	0.90358	-0.143
Mof_H 	H 	0.449	0.9966	0.9251	0.077
Mof_C 	C 	0.3824	0.0717	0.89594	0.065
Mof_C 	C 	0.3828	0.1222	0.86322	-0.136
Mof_H 	H 	0.3406	0.1512	0.8574	0.082
Mof_C 	C 	0.446	0.1281	0.83996	0.078
Mof_H 	H 	0.446	0.1622	0.8185	0.01
Mof_C 	C 	0.3151	0.0644	0.92105	0.055
Mof_C 	C 	0.3171	0.0458	0.96329	-0.098
Mof_H 	H 	0.3629	0.0408	0.9767	0.061
Mof_C 	C 	0.2979	0.9588	0.0406	-0.109
Mof_H 	H 	0.3237	0.9293	0.0218	0.066
Mof_C 	C 	0.2978	0.9378	0.082	0.052
Mof_H 	H 	0.3227	0.8939	0.0895	0.018
Mof_C 	C 	0.2932	0.0455	0.0545	-0.101
Mof_C 	C 	0.2917	0.0258	0.0963	0.04
Mof_H 	H 	0.3178	0.0896	0.0471	0.06
Mof_H 	H 	0.318	0.0545	0.1153	-0.003
Mof_O 	O 	0.92646	0.36951	0.78842	-0.44
Mof_O 	O 	0.863	0.4414	0.83323	-0.461
Mof_C 	C 	0.922	0.4077	0.82061	0.405
Mof_C 	C 	0.989	0.4148	0.84686	-0.162
Mof_C 	C 	0.9901	0.4602	0.87969	0.087
Mof_H 	H 	0.9466	0.4865	0.8864	0.009
Mof_C 	C 	0.0522	0.4694	0.90358	-0.145
Mof_H 	H 	0.051	0.5034	0.9251	0.078
Mof_C 	C 	0.1176	0.4283	0.89594	0.066
Mof_C 	C 	0.1172	0.3778	0.86322	-0.137
Mof_H 	H 	0.1594	0.3488	0.8574	0.082
Mof_C 	C 	0.054	0.3719	0.83996	0.078
Mof_H 	H 	0.054	0.3378	0.8185	0.01
Mof_C 	C 	0.1849	0.4356	0.92105	0.055
Mof_C 	C 	0.1829	0.4542	0.96329	-0.097
Mof_H 	H 	0.1371	0.4592	0.9767	0.06
Mof_C 	C 	0.2021	0.5412	0.0406	-0.11
Mof_H 	H 	0.1763	0.5707	0.0218	0.066
Mof_C 	C 	0.2022	0.5622	0.082	0.052
Mof_H 	H 	0.1773	0.6061	0.0895	0.018
Mof_C 	C 	0.2068	0.4545	0.0545	-0.101
Mof_C 	C 	0.2083	0.4742	0.0963	0.041
Mof_H 	H 	0.1822	0.4104	0.0471	0.06
Mof_H 	H 	0.182	0.4455	0.1153	-0.003
Mof_O 	O 	0.13049	0.92646	0.28842	-0.44
Mof_O 	O 	0.0586	0.863	0.33323	-0.461
Mof_C 	C 	0.0923	0.922	0.32061	0.405
Mof_C 	C 	0.0852	0.989	0.34686	-0.162
Mof_C 	C 	0.0398	0.9901	0.37969	0.086
Mof_H 	H 	0.0135	0.9466	0.3864	0.009
Mof_C 	C 	0.0306	0.0522	0.40358	-0.143
Mof_H 	H 	0.9966	0.051	0.4251	0.077
Mof_C 	C 	0.0717	0.1176	0.39594	0.066
Mof_C 	C 	0.1222	0.1172	0.36322	-0.136
Mof_H 	H 	0.1512	0.1594	0.3574	0.082
Mof_C 	C 	0.1281	0.054	0.33996	0.078
Mof_H 	H 	0.1622	0.054	0.3185	0.01
Mof_C 	C 	0.0644	0.1849	0.42105	0.055
Mof_C 	C 	0.0458	0.1829	0.46329	-0.097
Mof_H 	H 	0.0408	0.1371	0.4767	0.06
Mof_C 	C 	0.9588	0.2021	0.5406	-0.11
Mof_H 	H 	0.9293	0.1763	0.5218	0.066
Mof_C 	C 	0.9378	0.2022	0.582	0.052
Mof_H 	H 	0.8939	0.1773	0.5895	0.018
Mof_C 	C 	0.0455	0.2068	0.5545	-0.101
Mof_C 	C 	0.0258	0.2083	0.5963	0.041
Mof_H 	H 	0.0896	0.1822	0.5471	0.06
Mof_H 	H 	0.0545	0.182	0.6153	-0.003
Mof_O 	O 	0.36951	0.57354	0.28842	-0.44
Mof_O 	O 	0.4414	0.637	0.33323	-0.461
Mof_C 	C 	0.4077	0.578	0.32061	0.405
Mof_C 	C 	0.4148	0.511	0.34686	-0.162
Mof_C 	C 	0.4602	0.5099	0.37969	0.087
Mof_H 	H 	0.4865	0.5534	0.3864	0.009
Mof_C 	C 	0.4694	0.4478	0.40358	-0.144
Mof_H 	H 	0.5034	0.449	0.4251	0.078
Mof_C 	C 	0.4283	0.3824	0.39594	0.066
Mof_C 	C 	0.3778	0.3828	0.36322	-0.137
Mof_H 	H 	0.3488	0.3406	0.3574	0.082
Mof_C 	C 	0.3719	0.446	0.33996	0.078
Mof_H 	H 	0.3378	0.446	0.3185	0.01
Mof_C 	C 	0.4356	0.3151	0.42105	0.055
Mof_C 	C 	0.4542	0.3171	0.46329	-0.097
Mof_H 	H 	0.4592	0.3629	0.4767	0.06
Mof_C 	C 	0.5412	0.2979	0.5406	-0.11
Mof_H 	H 	0.5707	0.3237	0.5218	0.066
Mof_C 	C 	0.5622	0.2978	0.582	0.052
Mof_H 	H 	0.6061	0.3227	0.5895	0.018
Mof_C 	C 	0.4545	0.2932	0.5545	-0.101
Mof_C 	C 	0.4742	0.2917	0.5963	0.041
Mof_H 	H 	0.4104	0.3178	0.5471	0.06
Mof_H 	H 	0.4455	0.318	0.6153	-0.003
Mof_O 	O 	0.57354	0.36951	0.78842	-0.44
Mof_O 	O 	0.637	0.4414	0.83323	-0.461
Mof_C 	C 	0.578	0.4077	0.82061	0.405
Mof_C 	C 	0.511	0.4148	0.84686	-0.162
Mof_C 	C 	0.5099	0.4602	0.87969	0.087
Mof_H 	H 	0.5534	0.4865	0.8864	0.009
Mof_C 	C 	0.4478	0.4694	0.90358	-0.144
Mof_H 	H 	0.449	0.5034	0.9251	0.078
Mof_C 	C 	0.3824	0.4283	0.89594	0.066
Mof_C 	C 	0.3828	0.3778	0.86322	-0.137
Mof_H 	H 	0.3406	0.3488	0.8574	0.082
Mof_C 	C 	0.446	0.3719	0.83996	0.078
Mof_H 	H 	0.446	0.3378	0.8185	0.01
Mof_C 	C 	0.3151	0.4356	0.92105	0.055
Mof_C 	C 	0.3171	0.4542	0.96329	-0.097
Mof_H 	H 	0.3629	0.4592	0.9767	0.06
Mof_C 	C 	0.2979	0.5412	0.0406	-0.11
Mof_H 	H 	0.3237	0.5707	0.0218	0.066
Mof_C 	C 	0.2978	0.5622	0.082	0.052
Mof_H 	H 	0.3227	0.6061	0.0895	0.018
Mof_C 	C 	0.2932	0.4545	0.0545	-0.101
Mof_C 	C 	0.2917	0.4742	0.0963	0.041
Mof_H 	H 	0.3178	0.4104	0.0471	0.06
Mof_H 	H 	0.318	0.4455	0.1153	-0.003
Mof_O 	O 	0.92646	0.13049	0.78842	-0.44
Mof_O 	O 	0.863	0.0586	0.83323	-0.461
Mof_C 	C 	0.922	0.0923	0.82061	0.405
Mof_C 	C 	0.989	0.0852	0.84686	-0.162
Mof_C 	C 	0.9901	0.0398	0.87969	0.085
Mof_H 	H 	0.9466	0.0135	0.8864	0.01
Mof_C 	C 	0.0522	0.0306	0.90358	-0.142
Mof_H 	H 	0.051	0.9966	0.9251	0.076
Mof_C 	C 	0.1176	0.0717	0.89594	0.065
Mof_C 	C 	0.1172	0.1222	0.86322	-0.136
Mof_H 	H 	0.1594	0.1512	0.8574	0.082
Mof_C 	C 	0.054	0.1281	0.83996	0.078
Mof_H 	H 	0.054	0.1622	0.8185	0.01
Mof_C 	C 	0.1849	0.0644	0.92105	0.055
Mof_C 	C 	0.1829	0.0458	0.96329	-0.098
Mof_H 	H 	0.1371	0.0408	0.9767	0.061
Mof_C 	C 	0.2021	0.9588	0.0406	-0.109
Mof_H 	H 	0.1763	0.9293	0.0218	0.066
Mof_C 	C 	0.2022	0.9378	0.082	0.052
Mof_H 	H 	0.1773	0.8939	0.0895	0.018
Mof_C 	C 	0.2068	0.0455	0.0545	-0.101
Mof_C 	C 	0.2083	0.0258	0.0963	0.04
Mof_H 	H 	0.1822	0.0896	0.0471	0.06
Mof_H 	H 	0.182	0.0545	0.1153	-0.003
Mof_O 	O 	0.13049	0.57354	0.28842	-0.44
Mof_O 	O 	0.0586	0.637	0.33323	-0.461
Mof_C 	C 	0.0923	0.578	0.32061	0.405
Mof_C 	C 	0.0852	0.511	0.34686	-0.162
Mof_C 	C 	0.0398	0.5099	0.37969	0.087
Mof_H 	H 	0.0135	0.5534	0.3864	0.009
Mof_C 	C 	0.0306	0.4478	0.40358	-0.144
Mof_H 	H 	0.9966	0.449	0.4251	0.078
Mof_C 	C 	0.0717	0.3824	0.39594	0.066
Mof_C 	C 	0.1222	0.3828	0.36322	-0.137
Mof_H 	H 	0.1512	0.3406	0.3574	0.082
Mof_C 	C 	0.1281	0.446	0.33996	0.078
Mof_H 	H 	0.1622	0.446	0.3185	0.01
Mof_C 	C 	0.0644	0.3151	0.42105	0.055
Mof_C 	C 	0.0458	0.3171	0.46329	-0.097
Mof_H 	H 	0.0408	0.3629	0.4767	0.06
Mof_C 	C 	0.9588	0.2979	0.5406	-0.11
Mof_H 	H 	0.9293	0.3237	0.5218	0.066
Mof_C 	C 	0.9378	0.2978	0.582	0.052
Mof_H 	H 	0.8939	0.3227	0.5895	0.018
Mof_C 	C 	0.0455	0.2932	0.5545	-0.101
Mof_C 	C 	0.0258	0.2917	0.5963	0.041
Mof_H 	H 	0.0896	0.3178	0.5471	0.06
Mof_H 	H 	0.0545	0.318	0.6153	-0.003
Mof_O 	O 	0.36951	0.92646	0.28842	-0.44
Mof_O 	O 	0.4414	0.863	0.33323	-0.461
Mof_C 	C 	0.4077	0.922	0.32061	0.405
Mof_C 	C 	0.4148	0.989	0.34686	-0.162
Mof_C 	C 	0.4602	0.9901	0.37969	0.087
Mof_H 	H 	0.4865	0.9466	0.3864	0.009
Mof_C 	C 	0.4694	0.0522	0.40358	-0.145
Mof_H 	H 	0.5034	0.051	0.4251	0.078
Mof_C 	C 	0.4283	0.1176	0.39594	0.066
Mof_C 	C 	0.3778	0.1172	0.36322	-0.137
Mof_H 	H 	0.3488	0.1594	0.3574	0.082
Mof_C 	C 	0.3719	0.054	0.33996	0.078
Mof_H 	H 	0.3378	0.054	0.3185	0.01
Mof_C 	C 	0.4356	0.1849	0.42105	0.055
Mof_C 	C 	0.4542	0.1829	0.46329	-0.097
Mof_H 	H 	0.4592	0.1371	0.4767	0.06
Mof_C 	C 	0.5412	0.2021	0.5406	-0.11
Mof_H 	H 	0.5707	0.1763	0.5218	0.066
Mof_C 	C 	0.5622	0.2022	0.582	0.052
Mof_H 	H 	0.6061	0.1773	0.5895	0.018
Mof_C 	C 	0.4545	0.2068	0.5545	-0.101
Mof_C 	C 	0.4742	0.2083	0.5963	0.041
Mof_H 	H 	0.4104	0.1822	0.5471	0.06
Mof_H 	H 	0.4455	0.182	0.6153	-0.003
Mof_O 	O 	0.42646	0.86951	0.21158	-0.44
Mof_O 	O 	0.363	0.9414	0.16677	-0.461
Mof_C 	C 	0.422	0.9077	0.17939	0.405
Mof_C 	C 	0.489	0.9148	0.15314	-0.162
Mof_C 	C 	0.4901	0.9602	0.12031	0.086
Mof_H 	H 	0.4466	0.9865	0.1136	0.009
Mof_C 	C 	0.5522	0.9694	0.09642	-0.143
Mof_H 	H 	0.551	0.0034	0.0749	0.077
Mof_C 	C 	0.6176	0.9283	0.10406	0.065
Mof_C 	C 	0.6172	0.8778	0.13678	-0.136
Mof_H 	H 	0.6594	0.8488	0.1426	0.082
Mof_C 	C 	0.554	0.8719	0.16004	0.078
Mof_H 	H 	0.554	0.8378	0.1815	0.01
Mof_C 	C 	0.6849	0.9356	0.07895	0.055
Mof_C 	C 	0.6829	0.9542	0.03671	-0.098
Mof_H 	H 	0.6371	0.9592	0.0233	0.061
Mof_C 	C 	0.7021	0.0412	0.9594	-0.109
Mof_H 	H 	0.6763	0.0707	0.9782	0.066
Mof_C 	C 	0.7022	0.0622	0.918	0.052
Mof_H 	H 	0.6773	0.1061	0.9105	0.018
Mof_C 	C 	0.7068	0.9545	0.9455	-0.101
Mof_C 	C 	0.7083	0.9742	0.9037	0.04
Mof_H 	H 	0.6822	0.9104	0.9529	0.06
Mof_H 	H 	0.682	0.9455	0.8847	-0.003
Mof_O 	O 	0.07354	0.63049	0.21158	-0.44
Mof_O 	O 	0.137	0.5586	0.16677	-0.461
Mof_C 	C 	0.078	0.5923	0.17939	0.405
Mof_C 	C 	0.011	0.5852	0.15314	-0.162
Mof_C 	C 	0.0099	0.5398	0.12031	0.087
Mof_H 	H 	0.0534	0.5135	0.1136	0.009
Mof_C 	C 	0.9478	0.5306	0.09642	-0.145
Mof_H 	H 	0.949	0.4966	0.0749	0.078
Mof_C 	C 	0.8824	0.5717	0.10406	0.066
Mof_C 	C 	0.8828	0.6222	0.13678	-0.137
Mof_H 	H 	0.8406	0.6512	0.1426	0.082
Mof_C 	C 	0.946	0.6281	0.16004	0.078
Mof_H 	H 	0.946	0.6622	0.1815	0.01
Mof_C 	C 	0.8151	0.5644	0.07895	0.055
Mof_C 	C 	0.8171	0.5458	0.03671	-0.097
Mof_H 	H 	0.8629	0.5408	0.0233	0.06
Mof_C 	C 	0.7979	0.4588	0.9594	-0.11
Mof_H 	H 	0.8237	0.4293	0.9782	0.066
Mof_C 	C 	0.7978	0.4378	0.918	0.052
Mof_H 	H 	0.8227	0.3939	0.9105	0.018
Mof_C 	C 	0.7932	0.5455	0.9455	-0.101
Mof_C 	C 	0.7917	0.5258	0.9037	0.041
Mof_H 	H 	0.8178	0.5896	0.9529	0.06
Mof_H 	H 	0.818	0.5545	0.8847	-0.003
Mof_O 	O 	0.86951	0.07354	0.71158	-0.44
Mof_O 	O 	0.9414	0.137	0.66677	-0.461
Mof_C 	C 	0.9077	0.078	0.67939	0.405
Mof_C 	C 	0.9148	0.011	0.65314	-0.162
Mof_C 	C 	0.9602	0.0099	0.62031	0.086
Mof_H 	H 	0.9865	0.0534	0.6136	0.009
Mof_C 	C 	0.9694	0.9478	0.59642	-0.143
Mof_H 	H 	0.0034	0.949	0.5749	0.077
Mof_C 	C 	0.9283	0.8824	0.60406	0.066
Mof_C 	C 	0.8778	0.8828	0.63678	-0.136
Mof_H 	H 	0.8488	0.8406	0.6426	0.082
Mof_C 	C 	0.8719	0.946	0.66004	0.078
Mof_H 	H 	0.8378	0.946	0.6815	0.01
Mof_C 	C 	0.9356	0.8151	0.57895	0.055
Mof_C 	C 	0.9542	0.8171	0.53671	-0.097
Mof_H 	H 	0.9592	0.8629	0.5233	0.06
Mof_C 	C 	0.0412	0.7979	0.4594	-0.11
Mof_H 	H 	0.0707	0.8237	0.4782	0.066
Mof_C 	C 	0.0622	0.7978	0.418	0.052
Mof_H 	H 	0.1061	0.8227	0.4105	0.018
Mof_C 	C 	0.9545	0.7932	0.4455	-0.101
Mof_C 	C 	0.9742	0.7917	0.4037	0.041
Mof_H 	H 	0.9104	0.8178	0.4529	0.06
Mof_H 	H 	0.9455	0.818	0.3847	-0.003
Mof_O 	O 	0.63049	0.42646	0.71158	-0.44
Mof_O 	O 	0.5586	0.363	0.66677	-0.461
Mof_C 	C 	0.5923	0.422	0.67939	0.405
Mof_C 	C 	0.5852	0.489	0.65314	-0.162
Mof_C 	C 	0.5398	0.4901	0.62031	0.087
Mof_H 	H 	0.5135	0.4466	0.6136	0.009
Mof_C 	C 	0.5306	0.5522	0.59642	-0.144
Mof_H 	H 	0.4966	0.551	0.5749	0.078
Mof_C 	C 	0.5717	0.6176	0.60406	0.066
Mof_C 	C 	0.6222	0.6172	0.63678	-0.137
Mof_H 	H 	0.6512	0.6594	0.6426	0.082
Mof_C 	C 	0.6281	0.554	0.66004	0.078
Mof_H 	H 	0.6622	0.554	0.6815	0.01
Mof_C 	C 	0.5644	0.6849	0.57895	0.055
Mof_C 	C 	0.5458	0.6829	0.53671	-0.097
Mof_H 	H 	0.5408	0.6371	0.5233	0.06
Mof_C 	C 	0.4588	0.7021	0.4594	-0.11
Mof_H 	H 	0.4293	0.6763	0.4782	0.066
Mof_C 	C 	0.4378	0.7022	0.418	0.052
Mof_H 	H 	0.3939	0.6773	0.4105	0.018
Mof_C 	C 	0.5455	0.7068	0.4455	-0.101
Mof_C 	C 	0.5258	0.7083	0.4037	0.041
Mof_H 	H 	0.5896	0.6822	0.4529	0.06
Mof_H 	H 	0.5545	0.682	0.3847	-0.003
Mof_S 	S 	0.25	0.75	0.17836	0.736
Mof_S 	S 	0.75	0.25	0.67836	0.736
Mof_S 	S 	0.75	0.25	0.82164	0.736
Mof_S 	S 	0.25	0.75	0.32164	0.736
Mof_Co	Co	0.34092	0.65908	0.25	1.184
Mof_Co	Co	0.15908	0.84092	0.25	1.184
Mof_Co	Co	0.84092	0.34092	0.75	1.184
Mof_Co	Co	0.65908	0.15908	0.75	1.184
Mof_Co	Co	0.65908	0.34092	0.75	1.184
Mof_Co	Co	0.84092	0.15908	0.75	1.184
Mof_Co	Co	0.15908	0.65908	0.25	1.184
Mof_Co	Co	0.34092	0.84092	0.25	1.184
Mof_Co	Co	0.25	0.56464	0.17123	1.164
Mof_O 	O 	0.25	0.5983	0.22933	-0.826
Mof_H 	H 	0.25	0.5595	0.2428	0.295
Mof_O 	O 	0.25	0.6825	0.15293	-0.429
Mof_Co	Co	0.25	0.93536	0.17123	1.164
Mof_O 	O 	0.25	0.9017	0.22933	-0.826
Mof_H 	H 	0.25	0.9405	0.2428	0.295
Mof_O 	O 	0.25	0.8175	0.15293	-0.429
Mof_Co	Co	0.93536	0.25	0.67123	1.164
Mof_O 	O 	0.9017	0.25	0.72933	-0.826
Mof_H 	H 	0.9405	0.25	0.7428	0.295
Mof_O 	O 	0.8175	0.25	0.65293	-0.429
Mof_Co	Co	0.56464	0.25	0.67123	1.164
Mof_O 	O 	0.5983	0.25	0.72933	-0.826
Mof_H 	H 	0.5595	0.25	0.7428	0.295
Mof_O 	O 	0.6825	0.25	0.65293	-0.429
Mof_Co	Co	0.75	0.06464	0.82877	1.164
Mof_O 	O 	0.75	0.0983	0.77067	-0.826
Mof_H 	H 	0.75	0.0595	0.7572	0.295
Mof_O 	O 	0.75	0.1825	0.84707	-0.429
Mof_Co	Co	0.75	0.43536	0.82877	1.164
Mof_O 	O 	0.75	0.4017	0.77067	-0.826
Mof_H 	H 	0.75	0.4405	0.7572	0.295
Mof_O 	O 	0.75	0.3175	0.84707	-0.429
Mof_Co	Co	0.06464	0.75	0.32877	1.164
Mof_O 	O 	0.0983	0.75	0.27067	-0.826
Mof_H 	H 	0.0595	0.75	0.2572	0.295
Mof_O 	O 	0.1825	0.75	0.34707	-0.429
Mof_Co	Co	0.43536	0.75	0.32877	1.164
Mof_O 	O 	0.4017	0.75	0.27067	-0.826
Mof_H 	H 	0.4405	0.75	0.2572	0.295
Mof_O 	O 	0.3175	0.75	0.34707	-0.429
Mof_O 	O 	0.3169	0.75	0.2058	-0.546
Mof_O 	O 	0.1831	0.75	0.2058	-0.546
Mof_O 	O 	0.75	0.3169	0.7058	-0.546
Mof_O 	O 	0.75	0.1831	0.7058	-0.546
Mof_O 	O 	0.6831	0.25	0.7942	-0.546
Mof_O 	O 	0.8169	0.25	0.7942	-0.546
Mof_O 	O 	0.25	0.8169	0.2942	-0.546
Mof_O 	O 	0.25	0.6831	0.2942	-0.546
Mof_C 	C 	0.75	0.5354	0.0157	0.004
Mof_C 	C 	0.75	0.5126	0.9728	0.126
Mof_N 	N 	0.75	0.4686	0.89145	-0.235
Mof_N 	N 	0.75	0.5734	0.09882	-0.124
Mof_C 	C 	0.75	0.9646	0.0157	0.005
Mof_C 	C 	0.75	0.9874	0.9728	0.124
Mof_N 	N 	0.75	0.0314	0.89145	-0.235
Mof_N 	N 	0.75	0.9266	0.09882	-0.125
Mof_C 	C 	0.9646	0.75	0.5157	0.004
Mof_C 	C 	0.9874	0.75	0.4728	0.126
Mof_N 	N 	0.0314	0.75	0.39145	-0.235
Mof_N 	N 	0.9266	0.75	0.59882	-0.124
Mof_C 	C 	0.5354	0.75	0.5157	0.004
Mof_C 	C 	0.5126	0.75	0.4728	0.126
Mof_N 	N 	0.4686	0.75	0.39145	-0.235
Mof_N 	N 	0.5734	0.75	0.59882	-0.124
Mof_C 	C 	0.25	0.0354	0.9843	0.005
Mof_C 	C 	0.25	0.0126	0.0272	0.124
Mof_N 	N 	0.25	0.9686	0.10855	-0.235
Mof_N 	N 	0.25	0.0734	0.90118	-0.125
Mof_C 	C 	0.25	0.4646	0.9843	0.004
Mof_C 	C 	0.25	0.4874	0.0272	0.126
Mof_N 	N 	0.25	0.5314	0.10855	-0.235
Mof_N 	N 	0.25	0.4266	0.90118	-0.124
Mof_C 	C 	0.0354	0.25	0.4843	0.004
Mof_C 	C 	0.0126	0.25	0.5272	0.126
Mof_N 	N 	0.9686	0.25	0.60855	-0.235
Mof_N 	N 	0.0734	0.25	0.40118	-0.124
Mof_C 	C 	0.4646	0.25	0.4843	0.004
Mof_C 	C 	0.4874	0.25	0.5272	0.126
Mof_N 	N 	0.5314	0.25	0.60855	-0.235
Mof_N 	N 	0.4266	0.25	0.40118	-0.124
_end
