# CIF file generated by openbabel 3.1.0, see https://openbabel.org
data_I
_chemical_name_common 'XICYEP_clean'
_cell_length_a 13.53
_cell_length_b 19.71
_cell_length_c 28.3
_cell_angle_alpha 90
_cell_angle_beta 90
_cell_angle_gamma 90
_space_group_name_H-M_alt 'P 1'
_space_group_name_Hall 'P 1'
loop_
    _symmetry_equiv_pos_as_xyz
    x,y,z
loop_
    _atom_site_label
    _atom_site_type_symbol
    _atom_site_fract_x
    _atom_site_fract_y
    _atom_site_fract_z
    _atom_site_occupancy
    Hf1      Hf       0.19339    0.12173    0.12602    1.000
    Hf2      Hf       0.30437    0.88321    0.12423    1.000
    Hf3      Hf       0.14331    0.97835    0.19439    1.000
    Hf4      Hf       0.38744    0.03157    0.17989    1.000
    Hf5      Hf       0.35586    0.02735    0.05516    1.000
    Hf6      Hf       0.11262    0.97423    0.07166    1.000
    H7       H        0.28030    0.32750    0.19300    1.000
    H8       H        0.37300    0.41550    0.23290    1.000
    H9       H        0.28750    0.32830    0.06010    1.000
    H10      H        0.38440    0.41280    0.01630    1.000
    H11      H        0.18920    0.67170    0.07070    1.000
    H12      H        0.08680    0.58850    0.03250    1.000
    H13      H        0.19400    0.68070    0.17920    1.000
    H14      H        0.10270    0.59090    0.22140    1.000
    H15      H        0.45790    0.02810    0.33220    1.000
    H16      H        0.45990    0.03960    0.41740    1.000
    C17      C        0.34010    0.19310    0.19710    1.000
    C18      C        0.37230    0.25620    0.22070    1.000
    C19      C        0.33400    0.31920    0.21270    1.000
    C20      C        0.38400    0.36950    0.23750    1.000
    C21      C        0.45370    0.34460    0.27010    1.000
    C22      C        0.51800    0.38410    0.30230    1.000
    C23      C        0.31900    0.18610    0.04420    1.000
    C24      C        0.35400    0.25210    0.02090    1.000
    C25      C        0.33200    0.31780    0.03630    1.000
    C26      C        0.38900    0.36700    0.01050    1.000
    C27      C        0.44700    0.34160    0.97820    1.000
    C28      C        0.51650    0.37810    0.94720    1.000
    C29      C        0.15120    0.81660    0.05580    1.000
    C30      C        0.11470    0.74850    0.03480    1.000
    C31      C        0.14000    0.68210    0.04880    1.000
    C32      C        0.08300    0.63450    0.02540    1.000
    C33      C        0.02300    0.65770    0.99280    1.000
    C34      C        0.95620    0.61810    0.96130    1.000
    C35      C        0.17140    0.81450    0.20380    1.000
    C36      C        0.12900    0.75050    0.22120    1.000
    C37      C        0.15000    0.68870    0.20370    1.000
    C38      C        0.09500    0.63710    0.22700    1.000
    C39      C        0.03200    0.66390    0.25820    1.000
    C40      C        0.95800    0.62480    0.28680    1.000
    C41      C        0.29230    0.00870    0.27960    1.000
    C42      C        0.31000    0.01010    0.33060    1.000
    C43      C        0.40200    0.02300    0.35060    1.000
    C44      C        0.40500    0.02700    0.39980    1.000
    C45      C        0.31380    0.00840    0.41870    1.000
    C46      C        0.29190    0.00170    0.47040    1.000
    S47      S        0.46030    0.25630    0.26580    1.000
    S48      S        0.44060    0.25330    0.97770    1.000
    S49      S        0.02500    0.74530    0.99250    1.000
    S50      S        0.04110    0.74950    0.26480    1.000
    S51      S        0.22630    0.99400    0.37580    1.000
    O52      O        0.35270    0.09280    0.11980    1.000
    O53      O        0.21540    0.05200    0.07280    1.000
    O54      O        0.08920    0.03400    0.13240    1.000
    O55      O        0.23310    0.06450    0.18480    1.000
    O56      O        0.29310    0.93830    0.18920    1.000
    O57      O        0.39020    0.97320    0.11780    1.000
    O58      O        0.26200    0.94160    0.06240    1.000
    O59      O        0.15630    0.91960    0.13100    1.000
    O60      O        0.25410    0.19510    0.07570    1.000
    O61      O        0.35490    0.13350    0.02730    1.000
    O62      O        0.56660    0.34420    0.91740    1.000
    O63      O        0.51420    0.44120    0.95300    1.000
    O64      O        0.91680    0.65600    0.32120    1.000
    O65      O        0.94570    0.56490    0.27540    1.000
    O66      O        0.27130    0.19730    0.17020    1.000
    O67      O        0.39120    0.13780    0.20820    1.000
    O68      O        0.19700    0.98890    0.26780    1.000
    O69      O        0.36000    0.02400    0.25640    1.000
    O70      O        0.36820    0.01840    0.49480    1.000
    O71      O        0.20770    0.98350    0.48350    1.000
    O72      O        0.51550    0.44640    0.29710    1.000
    O73      O        0.56900    0.35050    0.33240    1.000
    O74      O        0.94480    0.55500    0.97220    1.000
    O75      O        0.91520    0.65170    0.92840    1.000
    O76      O        0.10530    0.86580    0.04330    1.000
    O77      O        0.22350    0.80780    0.08180    1.000
    O78      O        0.13680    0.87080    0.22160    1.000
    O79      O        0.23990    0.80930    0.17380    1.000
    H80      H        0.68479    0.40989    0.28778    1.000
    H81      H        0.72306    0.40709    0.45845    1.000
    H82      H        0.98471    0.53400    0.36760    1.000
    H83      H        0.58100    0.62320    0.38745    1.000
    Hf84     Hf       0.30661    0.87827    0.62602    1.000
    Hf85     Hf       0.19563    0.11679    0.62423    1.000
    Hf86     Hf       0.35669    0.02165    0.69439    1.000
    Hf87     Hf       0.11256    0.96843    0.67989    1.000
    Hf88     Hf       0.14414    0.97265    0.55516    1.000
    Hf89     Hf       0.38738    0.02577    0.57166    1.000
    H90      H        0.21970    0.67250    0.69300    1.000
    H91      H        0.12700    0.58450    0.73290    1.000
    H92      H        0.21250    0.67170    0.56010    1.000
    H93      H        0.11560    0.58720    0.51630    1.000
    H94      H        0.31080    0.32830    0.57070    1.000
    H95      H        0.41320    0.41150    0.53250    1.000
    H96      H        0.30600    0.31930    0.67920    1.000
    H97      H        0.39730    0.40910    0.72140    1.000
    H98      H        0.04210    0.97190    0.83220    1.000
    H99      H        0.04010    0.96040    0.91740    1.000
    C100     C        0.15990    0.80690    0.69710    1.000
    C101     C        0.12770    0.74380    0.72070    1.000
    C102     C        0.16600    0.68080    0.71270    1.000
    C103     C        0.11600    0.63050    0.73750    1.000
    C104     C        0.04630    0.65540    0.77010    1.000
    C105     C        0.98200    0.61590    0.80230    1.000
    C106     C        0.18100    0.81390    0.54420    1.000
    C107     C        0.14600    0.74790    0.52090    1.000
    C108     C        0.16800    0.68220    0.53630    1.000
    C109     C        0.11100    0.63300    0.51050    1.000
    C110     C        0.05300    0.65840    0.47820    1.000
    C111     C        0.98350    0.62190    0.44720    1.000
    C112     C        0.34880    0.18340    0.55580    1.000
    C113     C        0.38530    0.25150    0.53480    1.000
    C114     C        0.36000    0.31790    0.54880    1.000
    C115     C        0.41700    0.36550    0.52540    1.000
    C116     C        0.47700    0.34230    0.49280    1.000
    C117     C        0.54380    0.38190    0.46130    1.000
    C118     C        0.32860    0.18550    0.70380    1.000
    C119     C        0.37100    0.24950    0.72120    1.000
    C120     C        0.35000    0.31130    0.70370    1.000
    C121     C        0.40500    0.36290    0.72700    1.000
    C122     C        0.46800    0.33610    0.75820    1.000
    C123     C        0.54200    0.37520    0.78680    1.000
    C124     C        0.20770    0.99130    0.77960    1.000
    C125     C        0.19000    0.98990    0.83060    1.000
    C126     C        0.09800    0.97700    0.85060    1.000
    C127     C        0.09500    0.97300    0.89980    1.000
    C128     C        0.18620    0.99160    0.91870    1.000
    C129     C        0.20810    0.99830    0.97040    1.000
    S130     S        0.03970    0.74370    0.76580    1.000
    S131     S        0.05940    0.74670    0.47770    1.000
    S132     S        0.47500    0.25470    0.49250    1.000
    S133     S        0.45890    0.25050    0.76480    1.000
    S134     S        0.27370    0.00600    0.87580    1.000
    O135     O        0.14730    0.90720    0.61980    1.000
    O136     O        0.28460    0.94800    0.57280    1.000
    O137     O        0.41080    0.96600    0.63240    1.000
    O138     O        0.26690    0.93550    0.68480    1.000
    O139     O        0.20690    0.06170    0.68920    1.000
    O140     O        0.10980    0.02680    0.61780    1.000
    O141     O        0.23800    0.05840    0.56240    1.000
    O142     O        0.34370    0.08040    0.63100    1.000
    O143     O        0.24590    0.80490    0.57570    1.000
    O144     O        0.14510    0.86650    0.52730    1.000
    O145     O        0.93340    0.65580    0.41740    1.000
    O146     O        0.98580    0.55880    0.45300    1.000
    O147     O        0.58320    0.34400    0.82120    1.000
    O148     O        0.55430    0.43510    0.77540    1.000
    O149     O        0.22870    0.80270    0.67020    1.000
    O150     O        0.10880    0.86220    0.70820    1.000
    O151     O        0.30300    0.01110    0.76780    1.000
    O152     O        0.14000    0.97600    0.75640    1.000
    O153     O        0.13180    0.98160    0.99480    1.000
    O154     O        0.29230    0.01650    0.98350    1.000
    O155     O        0.98450    0.55360    0.79710    1.000
    O156     O        0.93100    0.64950    0.83240    1.000
    O157     O        0.55520    0.44500    0.47220    1.000
    O158     O        0.58480    0.34830    0.42840    1.000
    O159     O        0.39470    0.13420    0.54330    1.000
    O160     O        0.27650    0.19220    0.58180    1.000
    O161     O        0.36320    0.12920    0.72160    1.000
    O162     O        0.26010    0.19070    0.67380    1.000
    H163     H        0.81521    0.59011    0.78778    1.000
    H164     H        0.77694    0.59291    0.95845    1.000
    H165     H        0.51529    0.46600    0.86760    1.000
    H166     H        0.91900    0.37680    0.88745    1.000
    Hf167    Hf       0.80661    0.62173    0.37398    1.000
    Hf168    Hf       0.69563    0.38321    0.37577    1.000
    Hf169    Hf       0.85669    0.47835    0.30561    1.000
    Hf170    Hf       0.61256    0.53157    0.32011    1.000
    Hf171    Hf       0.64414    0.52735    0.44484    1.000
    Hf172    Hf       0.88738    0.47423    0.42834    1.000
    H173     H        0.71970    0.82750    0.30700    1.000
    H174     H        0.62700    0.91550    0.26710    1.000
    H175     H        0.71250    0.82830    0.43990    1.000
    H176     H        0.61560    0.91280    0.48370    1.000
    H177     H        0.81080    0.17170    0.42930    1.000
    H178     H        0.91320    0.08850    0.46750    1.000
    H179     H        0.80600    0.18070    0.32080    1.000
    H180     H        0.89730    0.09090    0.27860    1.000
    H181     H        0.54210    0.52810    0.16780    1.000
    H182     H        0.54010    0.53960    0.08260    1.000
    C183     C        0.65990    0.69310    0.30290    1.000
    C184     C        0.62770    0.75620    0.27930    1.000
    C185     C        0.66600    0.81920    0.28730    1.000
    C186     C        0.61600    0.86950    0.26250    1.000
    C187     C        0.54630    0.84460    0.22990    1.000
    C188     C        0.48200    0.88410    0.19770    1.000
    C189     C        0.68100    0.68610    0.45580    1.000
    C190     C        0.64600    0.75210    0.47910    1.000
    C191     C        0.66800    0.81780    0.46370    1.000
    C192     C        0.61100    0.86700    0.48950    1.000
    C193     C        0.55300    0.84160    0.52180    1.000
    C194     C        0.48350    0.87810    0.55280    1.000
    C195     C        0.84880    0.31660    0.44420    1.000
    C196     C        0.88530    0.24850    0.46520    1.000
    C197     C        0.86000    0.18210    0.45120    1.000
    C198     C        0.91700    0.13450    0.47460    1.000
    C199     C        0.97700    0.15770    0.50720    1.000
    C200     C        0.04380    0.11810    0.53870    1.000
    C201     C        0.82860    0.31450    0.29620    1.000
    C202     C        0.87100    0.25050    0.27880    1.000
    C203     C        0.85000    0.18870    0.29630    1.000
    C204     C        0.90500    0.13710    0.27300    1.000
    C205     C        0.96800    0.16390    0.24180    1.000
    C206     C        0.04200    0.12480    0.21320    1.000
    C207     C        0.70770    0.50870    0.22040    1.000
    C208     C        0.69000    0.51010    0.16940    1.000
    C209     C        0.59800    0.52300    0.14940    1.000
    C210     C        0.59500    0.52700    0.10020    1.000
    C211     C        0.68620    0.50840    0.08130    1.000
    C212     C        0.70810    0.50170    0.02960    1.000
    S213     S        0.53970    0.75630    0.23420    1.000
    S214     S        0.55940    0.75330    0.52230    1.000
    S215     S        0.97500    0.24530    0.50750    1.000
    S216     S        0.95890    0.24950    0.23520    1.000
    S217     S        0.77370    0.49400    0.12420    1.000
    O218     O        0.64730    0.59280    0.38020    1.000
    O219     O        0.78460    0.55200    0.42720    1.000
    O220     O        0.91080    0.53400    0.36760    1.000
    O221     O        0.76690    0.56450    0.31520    1.000
    O222     O        0.70690    0.43830    0.31080    1.000
    O223     O        0.60980    0.47320    0.38220    1.000
    O224     O        0.73800    0.44160    0.43760    1.000
    O225     O        0.84370    0.41960    0.36900    1.000
    O226     O        0.74590    0.69510    0.42430    1.000
    O227     O        0.64510    0.63350    0.47270    1.000
    O228     O        0.43340    0.84420    0.58260    1.000
    O229     O        0.48580    0.94120    0.54700    1.000
    O230     O        0.08320    0.15600    0.17880    1.000
    O231     O        0.05430    0.06490    0.22460    1.000
    O232     O        0.72870    0.69730    0.32980    1.000
    O233     O        0.60880    0.63780    0.29180    1.000
    O234     O        0.80300    0.48890    0.23220    1.000
    O235     O        0.64000    0.52400    0.24360    1.000
    O236     O        0.63180    0.51840    0.00520    1.000
    O237     O        0.79230    0.48350    0.01650    1.000
    O238     O        0.48450    0.94640    0.20290    1.000
    O239     O        0.43100    0.85050    0.16760    1.000
    O240     O        0.05520    0.05500    0.52780    1.000
    O241     O        0.08480    0.15170    0.57160    1.000
    O242     O        0.89470    0.36580    0.45670    1.000
    O243     O        0.77650    0.30780    0.41820    1.000
    O244     O        0.86320    0.37080    0.27840    1.000
    O245     O        0.76010    0.30930    0.32620    1.000
    H246     H        0.31521    0.90989    0.21222    1.000
    H247     H        0.27694    0.90709    0.04155    1.000
    H248     H        0.01529    0.03400    0.13240    1.000
    H249     H        0.41900    0.12320    0.11255    1.000
    Hf250    Hf       0.69339    0.37827    0.87398    1.000
    Hf251    Hf       0.80437    0.61679    0.87577    1.000
    Hf252    Hf       0.64331    0.52165    0.80561    1.000
    Hf253    Hf       0.88744    0.46843    0.82011    1.000
    Hf254    Hf       0.85586    0.47265    0.94484    1.000
    Hf255    Hf       0.61262    0.52577    0.92834    1.000
    H256     H        0.78030    0.17250    0.80700    1.000
    H257     H        0.87300    0.08450    0.76710    1.000
    H258     H        0.78750    0.17170    0.93990    1.000
    H259     H        0.88440    0.08720    0.98370    1.000
    H260     H        0.68920    0.82830    0.92930    1.000
    H261     H        0.58680    0.91150    0.96750    1.000
    H262     H        0.69400    0.81930    0.82080    1.000
    H263     H        0.60270    0.90910    0.77860    1.000
    H264     H        0.95790    0.47190    0.66780    1.000
    H265     H        0.95990    0.46040    0.58260    1.000
    C266     C        0.84010    0.30690    0.80290    1.000
    C267     C        0.87230    0.24380    0.77930    1.000
    C268     C        0.83400    0.18080    0.78730    1.000
    C269     C        0.88400    0.13050    0.76250    1.000
    C270     C        0.95370    0.15540    0.72990    1.000
    C271     C        0.01800    0.11590    0.69770    1.000
    C272     C        0.81900    0.31390    0.95580    1.000
    C273     C        0.85400    0.24790    0.97910    1.000
    C274     C        0.83200    0.18220    0.96370    1.000
    C275     C        0.88900    0.13300    0.98950    1.000
    C276     C        0.94700    0.15840    0.02180    1.000
    C277     C        0.01650    0.12190    0.05280    1.000
    C278     C        0.65120    0.68340    0.94420    1.000
    C279     C        0.61470    0.75150    0.96520    1.000
    C280     C        0.64000    0.81790    0.95120    1.000
    C281     C        0.58300    0.86550    0.97460    1.000
    C282     C        0.52300    0.84230    0.00720    1.000
    C283     C        0.45620    0.88190    0.03870    1.000
    C284     C        0.67140    0.68550    0.79620    1.000
    C285     C        0.62900    0.74950    0.77880    1.000
    C286     C        0.65000    0.81130    0.79630    1.000
    C287     C        0.59500    0.86290    0.77300    1.000
    C288     C        0.53200    0.83610    0.74180    1.000
    C289     C        0.45800    0.87520    0.71320    1.000
    C290     C        0.79230    0.49130    0.72040    1.000
    C291     C        0.81000    0.48990    0.66940    1.000
    C292     C        0.90200    0.47700    0.64940    1.000
    C293     C        0.90500    0.47300    0.60020    1.000
    C294     C        0.81380    0.49160    0.58130    1.000
    C295     C        0.79190    0.49830    0.52960    1.000
    S296     S        0.96030    0.24370    0.73420    1.000
    S297     S        0.94060    0.24670    0.02230    1.000
    S298     S        0.52500    0.75470    0.00750    1.000
    S299     S        0.54110    0.75050    0.73520    1.000
    S300     S        0.72630    0.50600    0.62420    1.000
    O301     O        0.85270    0.40720    0.88020    1.000
    O302     O        0.71540    0.44800    0.92720    1.000
    O303     O        0.58920    0.46600    0.86760    1.000
    O304     O        0.73310    0.43550    0.81520    1.000
    O305     O        0.79310    0.56170    0.81080    1.000
    O306     O        0.89020    0.52680    0.88220    1.000
    O307     O        0.76200    0.55840    0.93760    1.000
    O308     O        0.65630    0.58040    0.86900    1.000
    O309     O        0.75410    0.30490    0.92430    1.000
    O310     O        0.85490    0.36650    0.97270    1.000
    O311     O        0.06660    0.15580    0.08260    1.000
    O312     O        0.01420    0.05880    0.04700    1.000
    O313     O        0.41680    0.84400    0.67880    1.000
    O314     O        0.44570    0.93510    0.72460    1.000
    O315     O        0.77130    0.30270    0.82980    1.000
    O316     O        0.89120    0.36220    0.79180    1.000
    O317     O        0.69700    0.51110    0.73220    1.000
    O318     O        0.86000    0.47600    0.74360    1.000
    O319     O        0.86820    0.48160    0.50520    1.000
    O320     O        0.70770    0.51650    0.51650    1.000
    O321     O        0.01550    0.05360    0.70290    1.000
    O322     O        0.06900    0.14950    0.66760    1.000
    O323     O        0.44480    0.94500    0.02780    1.000
    O324     O        0.41520    0.84830    0.07160    1.000
    O325     O        0.60530    0.63420    0.95670    1.000
    O326     O        0.72350    0.69220    0.91820    1.000
    O327     O        0.63680    0.62920    0.77840    1.000
    O328     O        0.73990    0.69070    0.82620    1.000
    H329     H        0.18479    0.09011    0.71222    1.000
    H330     H        0.22306    0.09291    0.54155    1.000
    H331     H        0.48471    0.96600    0.63240    1.000
    H332     H        0.08100    0.87680    0.61255    1.000
