# CIF file generated by openbabel 3.1.0, see https://openbabel.org
data_I
_chemical_name_common 'XOVVOU_clean'
_cell_length_a 13.7326
_cell_length_b 13.7326
_cell_length_c 14.0822
_cell_angle_alpha 87.481
_cell_angle_beta 87.481
_cell_angle_gamma 60.1379
_space_group_name_H-M_alt 'P 1'
_space_group_name_Hall 'P 1'
loop_
    _symmetry_equiv_pos_as_xyz
    x,y,z
loop_
    _atom_site_label
    _atom_site_type_symbol
    _atom_site_fract_x
    _atom_site_fract_y
    _atom_site_fract_z
    _atom_site_occupancy
    Zn1      Zn       0.53797    0.84635    0.01279    1.000
    Zn2      Zn       0.56112    0.02332    0.38988    1.000
    Zn3      Zn       0.15365    0.46203    0.48721    1.000
    Zn4      Zn       0.97668    0.43888    0.11012    1.000
    Zn5      Zn       0.46203    0.15365    0.98721    1.000
    Zn6      Zn       0.43888    0.97668    0.61012    1.000
    Zn7      Zn       0.84635    0.53797    0.51279    1.000
    Zn8      Zn       0.02332    0.56112    0.88988    1.000
    H1       H        0.55880    0.85180    0.23620    1.000
    H2       H        0.45420    0.17060    0.20760    1.000
    H3       H        0.38150    0.28550    0.38450    1.000
    H4       H        0.24050    0.23090    0.60870    1.000
    H5       H        0.89210    0.94970    0.31130    1.000
    H6       H        0.14820    0.44120    0.26380    1.000
    H7       H        0.82940    0.54580    0.29240    1.000
    H8       H        0.71450    0.61850    0.11550    1.000
    H9       H        0.76910    0.75950    0.89130    1.000
    H10      H        0.05030    0.10790    0.18870    1.000
    H11      H        0.44120    0.14820    0.76380    1.000
    H12      H        0.54580    0.82940    0.79240    1.000
    H13      H        0.61850    0.71450    0.61550    1.000
    H14      H        0.75950    0.76910    0.39130    1.000
    H15      H        0.10790    0.05030    0.68870    1.000
    H16      H        0.85180    0.55880    0.73620    1.000
    H17      H        0.17060    0.45420    0.70760    1.000
    H18      H        0.28550    0.38150    0.88450    1.000
    H19      H        0.23090    0.24050    0.10870    1.000
    H20      H        0.94970    0.89210    0.81130    1.000
    H21      H        0.71970    0.28030    0.25000    1.000
    H22      H        0.28030    0.71970    0.75000    1.000
    C1       C        0.53310    0.92350    0.21000    1.000
    C2       C        0.47690    0.09650    0.19400    1.000
    C3       C        0.36780    0.25020    0.43700    1.000
    C4       C        0.29100    0.22100    0.55870    1.000
    C5       C        0.78870    0.11630    0.28440    1.000
    C6       C        0.88920    0.01500    0.28640    1.000
    C7       C        0.68290    0.11850    0.32030    1.000
    C8       C        0.07650    0.46690    0.29000    1.000
    C9       C        0.90350    0.52310    0.30600    1.000
    C10      C        0.74980    0.63220    0.06300    1.000
    C11      C        0.77900    0.70900    0.94130    1.000
    C12      C        0.88370    0.21130    0.21560    1.000
    C13      C        0.98500    0.11080    0.21360    1.000
    C14      C        0.88150    0.31710    0.17970    1.000
    C15      C        0.46690    0.07650    0.79000    1.000
    C16      C        0.52310    0.90350    0.80600    1.000
    C17      C        0.63220    0.74980    0.56300    1.000
    C18      C        0.70900    0.77900    0.44130    1.000
    C19      C        0.21130    0.88370    0.71560    1.000
    C20      C        0.11080    0.98500    0.71360    1.000
    C21      C        0.31710    0.88150    0.67970    1.000
    C22      C        0.92350    0.53310    0.71000    1.000
    C23      C        0.09650    0.47690    0.69400    1.000
    C24      C        0.25020    0.36780    0.93700    1.000
    C25      C        0.22100    0.29100    0.05870    1.000
    C26      C        0.11630    0.78870    0.78440    1.000
    C27      C        0.01500    0.88920    0.78640    1.000
    C28      C        0.11850    0.68290    0.82030    1.000
    C29      C        0.78720    0.21280    0.25000    1.000
    C30      C        0.98560    0.01440    0.25000    1.000
    C31      C        0.21280    0.78720    0.75000    1.000
    C32      C        0.01440    0.98560    0.75000    1.000
    N1       N        0.51300    0.94920    0.11810    1.000
    N2       N        0.47790    0.06190    0.10750    1.000
    N3       N        0.51230    0.01270    0.26050    1.000
    N4       N        0.43367    0.14387    0.46170    1.000
    N5       N        0.38440    0.12380    0.54140    1.000
    N6       N        0.27820    0.30140    0.49670    1.000
    N7       N        0.05080    0.48700    0.38190    1.000
    N8       N        0.93810    0.52210    0.39250    1.000
    N9       N        0.98730    0.48770    0.23950    1.000
    N10      N        0.85613    0.56633    0.03830    1.000
    N11      N        0.87620    0.61560    0.95860    1.000
    N12      N        0.69860    0.72180    0.00330    1.000
    N13      N        0.48700    0.05080    0.88190    1.000
    N14      N        0.52210    0.93810    0.89250    1.000
    N15      N        0.48770    0.98730    0.73950    1.000
    N16      N        0.56633    0.85613    0.53830    1.000
    N17      N        0.61560    0.87620    0.45860    1.000
    N18      N        0.72180    0.69860    0.50330    1.000
    N19      N        0.94920    0.51300    0.61810    1.000
    N20      N        0.06190    0.47790    0.60750    1.000
    N21      N        0.01270    0.51230    0.76050    1.000
    N22      N        0.14387    0.43367    0.96170    1.000
    N23      N        0.12380    0.38440    0.04140    1.000
    N24      N        0.30140    0.27820    0.99670    1.000
    N25      N        0.09230    0.90770    0.25000    1.000
    N26      N        0.90770    0.09230    0.75000    1.000
    O1       O        0.69788    0.02968    0.36480    1.000
    O2       O        0.59033    0.19913    0.30590    1.000
    O3       O        0.17780    0.90980    0.22750    1.000
    O4       O        0.97032    0.30212    0.13520    1.000
    O5       O        0.80087    0.40967    0.19410    1.000
    O6       O        0.09020    0.82220    0.27250    1.000
    O7       O        0.30212    0.97032    0.63520    1.000
    O8       O        0.40967    0.80087    0.69410    1.000
    O9       O        0.82220    0.09020    0.77250    1.000
    O10      O        0.02968    0.69788    0.86480    1.000
    O11      O        0.19913    0.59033    0.80590    1.000
    O12      O        0.90980    0.17780    0.72750    1.000
