data_functionalizedCrystal
_audit_creation_method	'EQeq! by Chris Wilmer'
_symmetry_space_group_name_H-M	'P1'
_symmetry_Int_Tables_number	1
_symmetry_cell_setting	triclinic
loop_
_symmetry_equiv_pos_as_xyz
  x,y,z
_cell_length_a	13.3295
_cell_length_b	16.216
_cell_length_c	16.216
_cell_angle_alpha	67.208
_cell_angle_beta	74.0976
_cell_angle_gamma	105.902
loop_
_atom_site_label
_atom_site_type_symbol
_atom_site_fract_x
_atom_site_fract_y
_atom_site_fract_z
_atom_site_charge
Mof_Cd	Cd	-2.02461e-17	0.5	0.5	0.321
Mof_Cd	Cd	0.5	0.5	-0	0.32
Mof_Cd	Cd	0.5	4.04921e-17	0.5	0.323
Mof_H 	H 	0.6339	0.4546	0.2911	0.086
Mof_H 	H 	0.1289	0	0.3734	0.06
Mof_H 	H 	0.439	0.8334	0.7205	-0.003
Mof_H 	H 	0.6468	0.4756	0.1396	-0.005
Mof_H 	H 	0.6339	0.7089	0.5454	0.086
Mof_H 	H 	0.4977	0.6266	0.3734	0.051
Mof_H 	H 	0.439	0.2795	0.1666	-0.007
Mof_H 	H 	0.8375	0.4582	0.8574	0.081
Mof_H 	H 	0.8711	-4.04921e-17	0.6266	0.048
Mof_H 	H 	0.8207	0.7457	0.5454	0.086
Mof_H 	H 	0.6207	0.4582	0.6844	0.089
Mof_H 	H 	0.6207	0.3156	0.5418	0.089
Mof_H 	H 	0.1289	0.6266	-0	0.062
Mof_H 	H 	0.3532	0.5244	0.8604	0.005
Mof_H 	H 	0.3793	0.6844	0.4582	0.08
Mof_H 	H 	0.1625	0.5418	0.1426	0.09
Mof_H 	H 	0.2136	0.3848	0.1396	0.001
Mof_H 	H 	0.561	0.7205	0.8334	0.004
Mof_H 	H 	0.8207	0.4546	0.2543	0.086
Mof_H 	H 	0.3051	0.1426	0.3156	0.087
Mof_H 	H 	0.8405	0.4461	0.7205	-0
Mof_H 	H 	0.6056	0.1666	0.5539	-0.007
Mof_H 	H 	0.2136	0.8604	0.6152	0.005
Mof_H 	H 	0.8375	0.1426	0.5418	0.078
Mof_H 	H 	0.1712	0.5244	0.6152	-0.003
Mof_H 	H 	0.925	0.7457	0.7089	0.089
Mof_H 	H 	0.7864	0.1396	0.3848	-0.004
Mof_H 	H 	0.075	0.7089	0.7457	0.082
Mof_H 	H 	0.925	0.2911	0.2543	0.089
Mof_H 	H 	0.075	0.2543	0.2911	0.081
Mof_H 	H 	0.1793	0.5454	0.7457	0.085
Mof_H 	H 	0.5023	0.3734	0.6266	0.053
Mof_H 	H 	0.3661	0.2911	0.4546	0.086
Mof_H 	H 	0.3661	0.5454	0.7089	0.086
Mof_H 	H 	0.3051	0.6844	0.8574	0.091
Mof_H 	H 	0.3944	0.8334	0.4461	0.003
Mof_H 	H 	0.561	0.1666	0.2795	-0.001
Mof_H 	H 	0.6949	0.3156	0.1426	0.08
Mof_H 	H 	0.3532	0.1396	0.4756	0.001
Mof_H 	H 	0.6468	0.8604	0.5244	-0.001
Mof_H 	H 	0.1793	0.2543	0.4546	0.085
Mof_H 	H 	0.8405	0.2795	0.5539	-0.001
Mof_H 	H 	0.6056	0.4461	0.8334	-0.004
Mof_H 	H 	0.1595	0.7205	0.4461	-0.005
Mof_H 	H 	0.1712	0.3848	0.4756	-0.003
Mof_H 	H 	0.8711	0.3734	-0	0.047
Mof_H 	H 	0.6949	0.8574	0.6844	0.084
Mof_H 	H 	0.3944	0.5539	0.1666	0
Mof_H 	H 	0.7864	0.6152	0.8604	0
Mof_H 	H 	0.8288	0.6152	0.5244	0.002
Mof_H 	H 	0.1595	0.5539	0.2795	-0.005
Mof_H 	H 	0.8288	0.4756	0.3848	0.002
Mof_H 	H 	0.3793	0.5418	0.3156	0.081
Mof_H 	H 	0.1625	0.8574	0.4582	0.093
Mof_C 	C 	0.10351	0.33631	0.48768	0.084
Mof_C 	C 	0.44395	0.80833	0.46558	0.087
Mof_C 	C 	0.50084	0.42461	0.57539	-0.056
Mof_C 	C 	0.49363	0.32133	0.49704	0.093
Mof_C 	C 	0.85174	0.26681	0.25689	-0.158
Mof_C 	C 	0.90953	0.46558	0.72609	0.094
Mof_C 	C 	0.55605	0.46558	0.80833	0.092
Mof_C 	C 	0.8277	0.81837	0.67867	0.094
Mof_C 	C 	0.40881	0.17601	0.48768	0.086
Mof_C 	C 	0.00933	0.50296	0.81837	0.081
Mof_C 	C 	0.85174	0.74311	0.73319	-0.155
Mof_C 	C 	0.9932	0.49333	0.09053	0.002
Mof_C 	C 	0.2843	0.71807	0.80887	-0.156
Mof_C 	C 	0.99067	0.81837	0.50296	0.097
Mof_C 	C 	0.50637	0.49704	0.32133	0.089
Mof_C 	C 	0.89137	0.74311	0.5237	-0.155
Mof_C 	C 	0.59119	0.82399	0.51232	0.086
Mof_C 	C 	0.09317	0.52694	0.19113	-0.171
Mof_C 	C 	0.92377	0.42461	-0	-0.054
Mof_C 	C 	0.49363	0.50296	0.67867	0.092
Mof_C 	C 	0.56623	0.47306	0.71807	-0.162
Mof_C 	C 	0.07623	4.04921e-17	0.42461	-0.093
Mof_C 	C 	0.49916	0.57539	0.42461	-0.058
Mof_C 	C 	0.50013	0.58386	0.50667	-0.018
Mof_C 	C 	0.50013	0.49333	0.41614	-0.018
Mof_C 	C 	0.8277	0.32133	0.18163	0.093
Mof_C 	C 	0.91627	0.90947	0.58386	-0.018
Mof_C 	C 	0.14826	0.73319	0.74311	-0.148
Mof_C 	C 	0.07623	0.57539	-0	-0.097
Mof_C 	C 	0.9932	0.90947	0.50667	0.008
Mof_C 	C 	0.7157	0.28193	0.19113	-0.159
Mof_C 	C 	0.99067	0.49704	0.18163	0.096
Mof_C 	C 	0.43377	0.52694	0.28193	-0.156
Mof_C 	C 	0.41507	0.5237	0.73319	-0.155
Mof_C 	C 	0.41507	0.26681	0.4763	-0.157
Mof_C 	C 	0.1723	0.67867	0.81837	0.084
Mof_C 	C 	0.58493	0.73319	0.5237	-0.154
Mof_C 	C 	0.09047	0.72609	0.46558	0.085
Mof_C 	C 	0.55605	0.19167	0.53442	0.092
Mof_C 	C 	0.10863	0.25689	0.4763	-0.153
Mof_C 	C 	0.08373	0.58386	0.90947	0.006
Mof_C 	C 	0.58493	0.4763	0.26681	-0.155
Mof_C 	C 	0.10351	0.51232	0.66369	0.083
Mof_C 	C 	0.2328	0.82399	0.66369	0.083
Mof_C 	C 	0.7672	0.17601	0.33631	0.088
Mof_C 	C 	0.08373	0.09053	0.41614	-0.006
Mof_C 	C 	0.89137	0.4763	0.25689	-0.155
Mof_C 	C 	0.36438	0.80833	0.72609	0.09
Mof_C 	C 	0.2328	0.33631	0.17601	0.083
Mof_C 	C 	0.00933	0.18163	0.49704	0.081
Mof_C 	C 	0.89649	0.48768	0.33631	0.088
Mof_C 	C 	0.89649	0.66369	0.51232	0.089
Mof_C 	C 	0.49987	0.50667	0.58386	-0.019
Mof_C 	C 	0.90953	0.27391	0.53442	0.094
Mof_C 	C 	0.10863	0.5237	0.74311	-0.152
Mof_C 	C 	0.43377	0.71807	0.47306	-0.155
Mof_C 	C 	0.44395	0.53442	0.19167	0.087
Mof_C 	C 	0.0068	0.09053	0.49333	-0.032
Mof_C 	C 	0.7672	0.66369	0.82399	0.089
Mof_C 	C 	0.91627	0.41614	0.09053	-0.027
Mof_C 	C 	0.56623	0.28193	0.52694	-0.163
Mof_C 	C 	0.36438	0.27391	0.19167	0.089
Mof_C 	C 	0.90683	0.47306	0.80887	-0.145
Mof_C 	C 	0.50637	0.67867	0.50296	0.089
Mof_C 	C 	0.49987	0.41614	0.49333	-0.019
Mof_C 	C 	0.90683	0.19113	0.52694	-0.147
Mof_C 	C 	0.63562	0.72609	0.80833	0.089
Mof_C 	C 	0.0068	0.50667	0.90947	-0.023
Mof_C 	C 	0.92377	0	0.57539	-0.052
Mof_C 	C 	0.2843	0.19113	0.28193	-0.159
Mof_C 	C 	0.1723	0.18163	0.32133	0.085
Mof_C 	C 	0.7157	0.80887	0.71807	-0.156
Mof_C 	C 	0.09047	0.53442	0.27391	0.084
Mof_C 	C 	0.59119	0.48768	0.17601	0.086
Mof_C 	C 	0.63562	0.19167	0.27391	0.088
Mof_C 	C 	0.09317	0.80887	0.47306	-0.17
Mof_C 	C 	0.40881	0.51232	0.82399	0.086
Mof_C 	C 	0.14826	0.25689	0.26681	-0.152
Mof_S 	S 	0.7793	0.4158	0.5842	-0.077
Mof_S 	S 	0.3635	0.5842	-0	-0.093
Mof_S 	S 	0.3635	4.04921e-17	0.4158	-0.092
Mof_N 	N 	0.65931	0.13868	0.34605	-0.161
Mof_N 	N 	0.00536	0.48473	0.65395	-0.164
Mof_N 	N 	0.65931	0.65395	0.86132	-0.156
Mof_N 	N 	0.47937	0.48473	0.86132	-0.157
Mof_N 	N 	0.00536	0.34605	0.51527	-0.164
Mof_N 	N 	0.52063	0.51527	0.13868	-0.16
Mof_N 	N 	0.99464	0.51527	0.34605	-0.153
Mof_N 	N 	0.34069	0.34605	0.13868	-0.16
Mof_N 	N 	0.99464	0.65395	0.48473	-0.153
Mof_N 	N 	0.34069	0.86132	0.65395	-0.156
Mof_N 	N 	0.47937	0.13868	0.51527	-0.161
Mof_N 	N 	0.52063	0.86132	0.48473	-0.156
_end
