data_functionalizedCrystal
_audit_creation_method	'EQeq! by Chris Wilmer'
_symmetry_space_group_name_H-M	'P1'
_symmetry_Int_Tables_number	1
_symmetry_cell_setting	triclinic
loop_
_symmetry_equiv_pos_as_xyz
  x,y,z
_cell_length_a	11.09
_cell_length_b	23.206
_cell_length_c	23.91
_cell_angle_alpha	90
_cell_angle_beta	90
_cell_angle_gamma	90
loop_
_atom_site_label
_atom_site_type_symbol
_atom_site_fract_x
_atom_site_fract_y
_atom_site_fract_z
_atom_site_charge
Mof_Se	Se	0.25226	0.93302	0.43114	-0.443
Mof_N 	N 	0.2259	0.074	0.2919	-0.209
Mof_C 	C 	0.2779	0.0449	0.323	-0.216
Mof_Se	Se	0.25226	0.43302	0.93114	-0.443
Mof_N 	N 	0.2259	0.574	0.7919	-0.209
Mof_C 	C 	0.2779	0.5449	0.823	-0.217
Mof_Se	Se	0.75226	0.93302	0.93114	-0.442
Mof_N 	N 	0.7259	0.074	0.7919	-0.209
Mof_C 	C 	0.7779	0.0449	0.823	-0.216
Mof_Se	Se	0.75226	0.43302	0.43114	-0.442
Mof_N 	N 	0.7259	0.574	0.2919	-0.208
Mof_C 	C 	0.7779	0.5449	0.323	-0.216
Mof_Se	Se	0.49774	0.81698	0.43114	-0.442
Mof_N 	N 	0.5241	0.676	0.2919	-0.208
Mof_C 	C 	0.4721	0.7051	0.323	-0.216
Mof_Se	Se	0.49774	0.31698	0.93114	-0.442
Mof_N 	N 	0.5241	0.176	0.7919	-0.208
Mof_C 	C 	0.4721	0.2051	0.823	-0.216
Mof_Se	Se	0.99774	0.81698	0.93114	-0.442
Mof_N 	N 	0.0241	0.676	0.7919	-0.208
Mof_C 	C 	0.9721	0.7051	0.823	-0.216
Mof_Se	Se	0.99774	0.31698	0.43114	-0.443
Mof_N 	N 	0.0241	0.176	0.2919	-0.208
Mof_C 	C 	0.9721	0.2051	0.323	-0.216
Mof_Se	Se	0.49774	0.93302	0.31886	-0.442
Mof_N 	N 	0.5241	0.074	0.4581	-0.208
Mof_C 	C 	0.4721	0.0449	0.427	-0.215
Mof_Se	Se	0.49774	0.43302	0.81886	-0.442
Mof_N 	N 	0.5241	0.574	0.9581	-0.208
Mof_C 	C 	0.4721	0.5449	0.927	-0.216
Mof_Se	Se	0.99774	0.93302	0.81886	-0.442
Mof_N 	N 	0.0241	0.074	0.9581	-0.207
Mof_C 	C 	0.9721	0.0449	0.927	-0.217
Mof_Se	Se	0.99774	0.43302	0.31886	-0.442
Mof_N 	N 	0.0241	0.574	0.4581	-0.209
Mof_C 	C 	0.9721	0.5449	0.427	-0.216
Mof_Se	Se	0.25226	0.81698	0.31886	-0.442
Mof_N 	N 	0.2259	0.676	0.4581	-0.209
Mof_C 	C 	0.2779	0.7051	0.427	-0.216
Mof_Se	Se	0.25226	0.31698	0.81886	-0.442
Mof_N 	N 	0.2259	0.176	0.9581	-0.208
Mof_C 	C 	0.2779	0.2051	0.927	-0.215
Mof_Se	Se	0.75226	0.81698	0.81886	-0.442
Mof_N 	N 	0.7259	0.676	0.9581	-0.209
Mof_C 	C 	0.7779	0.7051	0.927	-0.216
Mof_Se	Se	0.75226	0.31698	0.31886	-0.442
Mof_N 	N 	0.7259	0.176	0.4581	-0.208
Mof_C 	C 	0.7779	0.2051	0.427	-0.216
Mof_Se	Se	0.74774	0.06698	0.56886	-0.442
Mof_N 	N 	0.7741	0.926	0.7081	-0.208
Mof_C 	C 	0.7221	0.9551	0.677	-0.215
Mof_Se	Se	0.74774	0.56698	0.06886	-0.442
Mof_N 	N 	0.7741	0.426	0.2081	-0.208
Mof_C 	C 	0.7221	0.4551	0.177	-0.216
Mof_Se	Se	0.24774	0.06698	0.06886	-0.441
Mof_N 	N 	0.2741	0.926	0.2081	-0.208
Mof_C 	C 	0.2221	0.9551	0.177	-0.216
Mof_Se	Se	0.24774	0.56698	0.56886	-0.442
Mof_N 	N 	0.2741	0.426	0.7081	-0.208
Mof_C 	C 	0.2221	0.4551	0.677	-0.216
Mof_Se	Se	0.50226	0.18302	0.56886	-0.442
Mof_N 	N 	0.4759	0.324	0.7081	-0.208
Mof_C 	C 	0.5279	0.2949	0.677	-0.216
Mof_Se	Se	0.50226	0.68302	0.06886	-0.442
Mof_N 	N 	0.4759	0.824	0.2081	-0.208
Mof_C 	C 	0.5279	0.7949	0.177	-0.216
Mof_Se	Se	0.00226	0.18302	0.06886	-0.442
Mof_N 	N 	0.9759	0.324	0.2081	-0.208
Mof_C 	C 	0.0279	0.2949	0.177	-0.216
Mof_Se	Se	0.00226	0.68302	0.56886	-0.443
Mof_N 	N 	0.9759	0.824	0.7081	-0.208
Mof_C 	C 	0.0279	0.7949	0.677	-0.216
Mof_Se	Se	0.50226	0.06698	0.68114	-0.442
Mof_N 	N 	0.4759	0.926	0.5419	-0.208
Mof_C 	C 	0.5279	0.9551	0.573	-0.215
Mof_Se	Se	0.50226	0.56698	0.18114	-0.442
Mof_N 	N 	0.4759	0.426	0.0419	-0.208
Mof_C 	C 	0.5279	0.4551	0.073	-0.216
Mof_Se	Se	0.00226	0.06698	0.18114	-0.442
Mof_N 	N 	0.9759	0.926	0.0419	-0.207
Mof_C 	C 	0.0279	0.9551	0.073	-0.217
Mof_Se	Se	0.00226	0.56698	0.68114	-0.442
Mof_N 	N 	0.9759	0.426	0.5419	-0.209
Mof_C 	C 	0.0279	0.4551	0.573	-0.216
Mof_Se	Se	0.74774	0.18302	0.68114	-0.442
Mof_N 	N 	0.7741	0.324	0.5419	-0.209
Mof_C 	C 	0.7221	0.2949	0.573	-0.216
Mof_Se	Se	0.74774	0.68302	0.18114	-0.442
Mof_N 	N 	0.7741	0.824	0.0419	-0.208
Mof_C 	C 	0.7221	0.7949	0.073	-0.215
Mof_Se	Se	0.24774	0.18302	0.18114	-0.442
Mof_N 	N 	0.2741	0.324	0.0419	-0.209
Mof_C 	C 	0.2221	0.2949	0.073	-0.216
Mof_Se	Se	0.24774	0.68302	0.68114	-0.442
Mof_N 	N 	0.2741	0.824	0.5419	-0.208
Mof_C 	C 	0.2221	0.7949	0.573	-0.216
Mof_W 	W 	0.375	0.875	0.375	0.211
Mof_W 	W 	0.375	0.375	0.875	0.211
Mof_W 	W 	0.875	0.875	0.875	0.211
Mof_W 	W 	0.875	0.375	0.375	0.211
Mof_W 	W 	0.625	0.125	0.625	0.211
Mof_W 	W 	0.625	0.625	0.125	0.211
Mof_W 	W 	0.125	0.125	0.125	0.211
Mof_W 	W 	0.125	0.625	0.625	0.211
Mof_Cu	Cu	0.375	0.875	0.25579	0.813
Mof_Cu	Cu	0.375	0.375	0.75579	0.813
Mof_Cu	Cu	0.875	0.875	0.75579	0.813
Mof_Cu	Cu	0.875	0.375	0.25579	0.813
Mof_Cu	Cu	0.375	0.875	0.49421	0.813
Mof_Cu	Cu	0.375	0.375	0.99421	0.813
Mof_Cu	Cu	0.875	0.875	0.99421	0.813
Mof_Cu	Cu	0.875	0.375	0.49421	0.813
Mof_Cu	Cu	0.625	0.125	0.74421	0.813
Mof_Cu	Cu	0.625	0.625	0.24421	0.813
Mof_Cu	Cu	0.125	0.125	0.24421	0.813
Mof_Cu	Cu	0.125	0.625	0.74421	0.813
Mof_Cu	Cu	0.625	0.125	0.50579	0.813
Mof_Cu	Cu	0.625	0.625	0.00579	0.813
Mof_Cu	Cu	0.125	0.125	0.00579	0.813
Mof_Cu	Cu	0.125	0.625	0.50579	0.813
Mof_Cu	Cu	0.375	0.00027	0.375	0.814
Mof_Cu	Cu	0.375	0.50027	0.875	0.814
Mof_Cu	Cu	0.875	0.00027	0.875	0.814
Mof_Cu	Cu	0.875	0.50027	0.375	0.814
Mof_Cu	Cu	0.375	0.74973	0.375	0.814
Mof_Cu	Cu	0.375	0.24973	0.875	0.814
Mof_Cu	Cu	0.875	0.74973	0.875	0.814
Mof_Cu	Cu	0.875	0.24973	0.375	0.814
Mof_Cu	Cu	0.625	0.99973	0.625	0.814
Mof_Cu	Cu	0.625	0.49973	0.125	0.814
Mof_Cu	Cu	0.125	0.99973	0.125	0.814
Mof_Cu	Cu	0.125	0.49973	0.625	0.814
Mof_Cu	Cu	0.625	0.25027	0.625	0.814
Mof_Cu	Cu	0.625	0.75027	0.125	0.814
Mof_Cu	Cu	0.125	0.25027	0.125	0.814
Mof_Cu	Cu	0.125	0.75027	0.625	0.814
_end
