# CIF file generated by openbabel 3.1.0, see https://openbabel.org
data_I
_chemical_name_common 'PEVYUM_clean'
_cell_length_a 7.324
_cell_length_b 9.6503
_cell_length_c 11.409
_cell_angle_alpha 97.0914
_cell_angle_beta 90
_cell_angle_gamma 112.301
_space_group_name_H-M_alt 'P 1'
_space_group_name_Hall 'P 1'
loop_
    _symmetry_equiv_pos_as_xyz
    x,y,z
loop_
    _atom_site_label
    _atom_site_type_symbol
    _atom_site_fract_x
    _atom_site_fract_y
    _atom_site_fract_z
    _atom_site_occupancy
    Co1      Co       0.59524    0.49808    0.50310    1.000
    Co2      Co       0.09716    0.50192    0.49690    1.000
    H1       H        0.86700    0.02740    0.39030    1.000
    H2       H        0.41140    0.28580    0.26980    1.000
    H3       H        0.40820    0.28040    0.06810    1.000
    H4       H        0.77890    0.71680    0.11590    1.000
    H5       H        0.77040    0.70980    0.31550    1.000
    H6       H        0.60070    0.70380    0.73320    1.000
    H7       H        0.61240    0.71520    0.93290    1.000
    H8       H        0.58490    0.28600    0.88920    1.000
    H9       H        0.58910    0.29400    0.69000    1.000
    H10      H        0.20870    0.00440    0.39820    1.000
    H11      H        0.83960    0.97260    0.60970    1.000
    H12      H        0.12560    0.71420    0.73020    1.000
    H13      H        0.12780    0.71960    0.93190    1.000
    H14      H        0.06210    0.28320    0.88410    1.000
    H15      H        0.06060    0.29020    0.68450    1.000
    H16      H        0.89690    0.29620    0.26680    1.000
    H17      H        0.89720    0.28480    0.06710    1.000
    H18      H        0.29890    0.71400    0.11080    1.000
    H19      H        0.29510    0.70600    0.31000    1.000
    H20      H        0.20430    0.99560    0.60180    1.000
    C1       C        0.48690    0.37280    0.23800    1.000
    C2       C        0.48310    0.36900    0.11660    1.000
    C3       C        0.59340    0.50020    0.06680    1.000
    C4       C        0.70280    0.62780    0.14480    1.000
    C5       C        0.69840    0.62240    0.26500    1.000
    C6       C        0.60110    0.62000    0.76570    1.000
    C7       C        0.60390    0.62700    0.88570    1.000
    C8       C        0.59370    0.50020    0.93730    1.000
    C9       C        0.58950    0.37280    0.85960    1.000
    C10      C        0.59220    0.37880    0.73970    1.000
    C11      C        0.19900    0.20920    0.46750    1.000
    C12      C        0.11120    0.03540    0.44070    1.000
    C13      C        0.11410    0.62720    0.76200    1.000
    C14      C        0.11410    0.63100    0.88340    1.000
    C15      C        0.09320    0.49980    0.93320    1.000
    C16      C        0.07500    0.37220    0.85520    1.000
    C17      C        0.07600    0.37760    0.73500    1.000
    C18      C        0.98110    0.38000    0.23430    1.000
    C19      C        0.97690    0.37300    0.11430    1.000
    C20      C        0.09350    0.49980    0.06270    1.000
    C21      C        0.21670    0.62720    0.14040    1.000
    C22      C        0.21340    0.62120    0.26030    1.000
    C23      C        0.98980    0.79080    0.53250    1.000
    C24      C        0.07580    0.96460    0.55930    1.000
    N1       N        0.59890    0.49880    0.69050    1.000
    N2       N        0.59520    0.49720    0.31230    1.000
    N3       N        0.10010    0.50120    0.30950    1.000
    N4       N        0.09800    0.50280    0.68770    1.000
    O1       O        0.38500    0.26960    0.48900    1.000
    O2       O        0.08110    0.27400    0.46530    1.000
    O3       O        0.93600    0.98000    0.36880    1.000
    O4       O        0.11540    0.73040    0.51100    1.000
    O5       O        0.80710    0.72600    0.53470    1.000
    O6       O        0.95600    0.02000    0.63120    1.000
    F1       F        0.79979    0.40658    0.48940    1.000
    F2       F        0.39321    0.59342    0.51060    1.000
