# CIF file generated by openbabel 3.1.0, see https://openbabel.org
data_I
_chemical_name_common 'image0'
_cell_length_a 18.786
_cell_length_b 16.768
_cell_length_c 12.803
_cell_angle_alpha 90
_cell_angle_beta 100.02
_cell_angle_gamma 90
_space_group_name_H-M_alt 'P 1'
_space_group_name_Hall 'P 1'
loop_
    _symmetry_equiv_pos_as_xyz
    x,y,z
loop_
    _atom_site_label
    _atom_site_type_symbol
    _atom_site_fract_x
    _atom_site_fract_y
    _atom_site_fract_z
    _atom_site_occupancy
    Zn1      Zn       0.78935    0.55165    0.66777    1.000
    O1       O        0.81810    0.64690    0.60270    1.000
    O2       O        0.83280    0.55640    0.51190    1.000
    O3       O        0.79350    0.67830    0.55740    1.000
    O4       O        0.84620    0.56530    0.55900    1.000
    O5       O        0.76760    0.42450    0.81670    1.000
    O6       O        0.85070    0.46190    0.73190    1.000
    O7       O        0.97360    0.86600    0.21960    1.000
    N1       N        0.68430    0.52580    0.60040    1.000
    C1       C        0.64010    0.49430    0.65540    1.000
    H1       H        0.65900    0.47870    0.72430    1.000
    C2       C        0.56880    0.48200    0.62140    1.000
    H2       H        0.54070    0.45850    0.66600    1.000
    C3       C        0.53790    0.50480    0.51980    1.000
    C4       C        0.58560    0.53840    0.46190    1.000
    H3       H        0.56870    0.55530    0.39290    1.000
    C5       C        0.65730    0.54760    0.50380    1.000
    H4       H        0.68790    0.57010    0.46190    1.000
    N2       N        0.77570    0.62330    0.79130    1.000
    C6       C        0.75730    0.72140    0.95510    1.000
    C7       C        0.81530    0.60600    0.88830    1.000
    H5       H        0.84780    0.56360    0.89760    1.000
    C8       C        0.80530    0.65380    0.97190    1.000
    H6       H        0.82980    0.64250    0.03980    1.000
    C9       C        0.72160    0.73180    0.85700    1.000
    H7       H        0.69040    0.77470    0.84010    1.000
    C10      C        0.73250    0.67570    0.77950    1.000
    H8       H        0.70340    0.68010    0.71320    1.000
    C11      C        0.76000    0.60000    0.88560    1.000
    H9       H        0.76090    0.54530    0.89740    1.000
    C12      C        0.74310    0.64570    0.96640    1.000
    H10      H        0.72360    0.62540    0.02290    1.000
    C13      C        0.75660    0.75880    0.85820    1.000
    H11      H        0.75100    0.81330    0.84660    1.000
    C14      C        0.76590    0.70070    0.77780    1.000
    H12      H        0.76480    0.72010    0.70950    1.000
    C15      C        0.95260    0.77800    0.41470    1.000
    H13      H        0.97470    0.82600    0.43750    1.000
    C16      C        0.91210    0.73820    0.47960    1.000
    H14      H        0.90950    0.75880    0.54620    1.000
    C17      C        0.87660    0.67050    0.44760    1.000
    C18      C        0.87870    0.64360    0.34470    1.000
    C19      C        0.92270    0.68180    0.28500    1.000
    H15      H        0.92680    0.66150    0.21870    1.000
    C20      C        0.96030    0.74900    0.32110    1.000
    C21      C        0.98290    0.79150    0.22820    1.000
    C22      C        0.83490    0.63000    0.52120    1.000
    C23      C        0.82950    0.41830    0.79610    1.000
    Zn2      Zn       0.28935    0.05165    0.66777    1.000
    O8       O        0.31810    0.14690    0.60270    1.000
    O9       O        0.33280    0.05640    0.51190    1.000
    O10      O        0.29350    0.17830    0.55740    1.000
    O11      O        0.34620    0.06530    0.55900    1.000
    O12      O        0.26760    0.92450    0.81670    1.000
    O13      O        0.35070    0.96190    0.73190    1.000
    O14      O        0.47360    0.36600    0.21960    1.000
    N3       N        0.18430    0.02580    0.60040    1.000
    C24      C        0.14010    0.99430    0.65540    1.000
    H16      H        0.15900    0.97870    0.72430    1.000
    C25      C        0.06880    0.98200    0.62140    1.000
    H17      H        0.04070    0.95850    0.66600    1.000
    C26      C        0.03790    0.00480    0.51980    1.000
    C27      C        0.08560    0.03840    0.46190    1.000
    H18      H        0.06870    0.05530    0.39290    1.000
    C28      C        0.15730    0.04760    0.50380    1.000
    H19      H        0.18790    0.07010    0.46190    1.000
    N4       N        0.27570    0.12330    0.79130    1.000
    C29      C        0.25730    0.22140    0.95510    1.000
    C30      C        0.31530    0.10600    0.88830    1.000
    H20      H        0.34780    0.06360    0.89760    1.000
    C31      C        0.30530    0.15380    0.97190    1.000
    H21      H        0.32980    0.14250    0.03980    1.000
    C32      C        0.22160    0.23180    0.85700    1.000
    H22      H        0.19040    0.27470    0.84010    1.000
    C33      C        0.23250    0.17570    0.77950    1.000
    H23      H        0.20340    0.18010    0.71320    1.000
    C34      C        0.26000    0.10000    0.88560    1.000
    H24      H        0.26090    0.04530    0.89740    1.000
    C35      C        0.24310    0.14570    0.96640    1.000
    H25      H        0.22360    0.12540    0.02290    1.000
    C36      C        0.25660    0.25880    0.85820    1.000
    H26      H        0.25100    0.31330    0.84660    1.000
    C37      C        0.26590    0.20070    0.77780    1.000
    H27      H        0.26480    0.22010    0.70950    1.000
    C38      C        0.45260    0.27800    0.41470    1.000
    H28      H        0.47470    0.32600    0.43750    1.000
    C39      C        0.41210    0.23820    0.47960    1.000
    H29      H        0.40950    0.25880    0.54620    1.000
    C40      C        0.37660    0.17050    0.44760    1.000
    C41      C        0.37870    0.14360    0.34470    1.000
    C42      C        0.42270    0.18180    0.28500    1.000
    H30      H        0.42680    0.16150    0.21870    1.000
    C43      C        0.46030    0.24900    0.32110    1.000
    C44      C        0.48290    0.29150    0.22820    1.000
    C45      C        0.33490    0.13000    0.52120    1.000
    C46      C        0.32950    0.91830    0.79610    1.000
    Zn3      Zn       0.21065    0.55165    0.83223    1.000
    O15      O        0.18190    0.64690    0.89730    1.000
    O16      O        0.16720    0.55640    0.98810    1.000
    O17      O        0.20650    0.67830    0.94260    1.000
    O18      O        0.15380    0.56530    0.94100    1.000
    O19      O        0.23240    0.42450    0.68330    1.000
    O20      O        0.14930    0.46190    0.76810    1.000
    O21      O        0.02640    0.86600    0.28040    1.000
    N5       N        0.31570    0.52580    0.89960    1.000
    C47      C        0.35990    0.49430    0.84460    1.000
    H31      H        0.34100    0.47870    0.77570    1.000
    C48      C        0.43120    0.48200    0.87860    1.000
    H32      H        0.45930    0.45850    0.83400    1.000
    C49      C        0.46210    0.50480    0.98020    1.000
    C50      C        0.41440    0.53840    0.03810    1.000
    H33      H        0.43130    0.55530    0.10710    1.000
    C51      C        0.34270    0.54760    0.99620    1.000
    H34      H        0.31210    0.57010    0.03810    1.000
    N6       N        0.22430    0.62330    0.70870    1.000
    C52      C        0.24270    0.72140    0.54490    1.000
    C53      C        0.18470    0.60600    0.61170    1.000
    H35      H        0.15220    0.56360    0.60240    1.000
    C54      C        0.19470    0.65380    0.52810    1.000
    H36      H        0.17020    0.64250    0.46020    1.000
    C55      C        0.27840    0.73180    0.64300    1.000
    H37      H        0.30960    0.77470    0.65990    1.000
    C56      C        0.26750    0.67570    0.72050    1.000
    H38      H        0.29660    0.68010    0.78680    1.000
    C57      C        0.24000    0.60000    0.61440    1.000
    H39      H        0.23910    0.54530    0.60260    1.000
    C58      C        0.25690    0.64570    0.53360    1.000
    H40      H        0.27640    0.62540    0.47710    1.000
    C59      C        0.24340    0.75880    0.64180    1.000
    H41      H        0.24900    0.81330    0.65340    1.000
    C60      C        0.23410    0.70070    0.72220    1.000
    H42      H        0.23520    0.72010    0.79050    1.000
    C61      C        0.04740    0.77800    0.08530    1.000
    H43      H        0.02530    0.82600    0.06250    1.000
    C62      C        0.08790    0.73820    0.02040    1.000
    H44      H        0.09050    0.75880    0.95380    1.000
    C63      C        0.12340    0.67050    0.05240    1.000
    C64      C        0.12130    0.64360    0.15530    1.000
    C65      C        0.07730    0.68180    0.21500    1.000
    H45      H        0.07320    0.66150    0.28130    1.000
    C66      C        0.03970    0.74900    0.17890    1.000
    C67      C        0.01710    0.79150    0.27180    1.000
    C68      C        0.16510    0.63000    0.97880    1.000
    C69      C        0.17050    0.41830    0.70390    1.000
    Zn4      Zn       0.71065    0.05165    0.83223    1.000
    O22      O        0.68190    0.14690    0.89730    1.000
    O23      O        0.66720    0.05640    0.98810    1.000
    O24      O        0.70650    0.17830    0.94260    1.000
    O25      O        0.65380    0.06530    0.94100    1.000
    O26      O        0.73240    0.92450    0.68330    1.000
    O27      O        0.64930    0.96190    0.76810    1.000
    O28      O        0.52640    0.36600    0.28040    1.000
    N7       N        0.81570    0.02580    0.89960    1.000
    C70      C        0.85990    0.99430    0.84460    1.000
    H46      H        0.84100    0.97870    0.77570    1.000
    C71      C        0.93120    0.98200    0.87860    1.000
    H47      H        0.95930    0.95850    0.83400    1.000
    C72      C        0.96210    0.00480    0.98020    1.000
    C73      C        0.91440    0.03840    0.03810    1.000
    H48      H        0.93130    0.05530    0.10710    1.000
    C74      C        0.84270    0.04760    0.99620    1.000
    H49      H        0.81210    0.07010    0.03810    1.000
    N8       N        0.72430    0.12330    0.70870    1.000
    C75      C        0.74270    0.22140    0.54490    1.000
    C76      C        0.68470    0.10600    0.61170    1.000
    H50      H        0.65220    0.06360    0.60240    1.000
    C77      C        0.69470    0.15380    0.52810    1.000
    H51      H        0.67020    0.14250    0.46020    1.000
    C78      C        0.77840    0.23180    0.64300    1.000
    H52      H        0.80960    0.27470    0.65990    1.000
    C79      C        0.76750    0.17570    0.72050    1.000
    H53      H        0.79660    0.18010    0.78680    1.000
    C80      C        0.74000    0.10000    0.61440    1.000
    H54      H        0.73910    0.04530    0.60260    1.000
    C81      C        0.75690    0.14570    0.53360    1.000
    H55      H        0.77640    0.12540    0.47710    1.000
    C82      C        0.74340    0.25880    0.64180    1.000
    H56      H        0.74900    0.31330    0.65340    1.000
    C83      C        0.73410    0.20070    0.72220    1.000
    H57      H        0.73520    0.22010    0.79050    1.000
    C84      C        0.54740    0.27800    0.08530    1.000
    H58      H        0.52530    0.32600    0.06250    1.000
    C85      C        0.58790    0.23820    0.02040    1.000
    H59      H        0.59050    0.25880    0.95380    1.000
    C86      C        0.62340    0.17050    0.05240    1.000
    C87      C        0.62130    0.14360    0.15530    1.000
    C88      C        0.57730    0.18180    0.21500    1.000
    H60      H        0.57320    0.16150    0.28130    1.000
    C89      C        0.53970    0.24900    0.17890    1.000
    C90      C        0.51710    0.29150    0.27180    1.000
    C91      C        0.66510    0.13000    0.97880    1.000
    C92      C        0.67050    0.91830    0.70390    1.000
    Zn5      Zn       0.21065    0.44835    0.33223    1.000
    O29      O        0.18190    0.35310    0.39730    1.000
    O30      O        0.16720    0.44360    0.48810    1.000
    O31      O        0.20650    0.32170    0.44260    1.000
    O32      O        0.15380    0.43470    0.44100    1.000
    O33      O        0.23240    0.57550    0.18330    1.000
    O34      O        0.14930    0.53810    0.26810    1.000
    O35      O        0.02640    0.13400    0.78040    1.000
    N9       N        0.31570    0.47420    0.39960    1.000
    C93      C        0.35990    0.50570    0.34460    1.000
    H61      H        0.34100    0.52130    0.27570    1.000
    C94      C        0.43120    0.51800    0.37860    1.000
    H62      H        0.45930    0.54150    0.33400    1.000
    C95      C        0.46210    0.49520    0.48020    1.000
    C96      C        0.41440    0.46160    0.53810    1.000
    H63      H        0.43130    0.44470    0.60710    1.000
    C97      C        0.34270    0.45240    0.49620    1.000
    H64      H        0.31210    0.42990    0.53810    1.000
    N10      N        0.22430    0.37670    0.20870    1.000
    C98      C        0.24270    0.27860    0.04490    1.000
    C99      C        0.18470    0.39400    0.11170    1.000
    H65      H        0.15220    0.43640    0.10240    1.000
    C100     C        0.19470    0.34620    0.02810    1.000
    H66      H        0.17020    0.35750    0.96020    1.000
    C101     C        0.27840    0.26820    0.14300    1.000
    H67      H        0.30960    0.22530    0.15990    1.000
    C102     C        0.26750    0.32430    0.22050    1.000
    H68      H        0.29660    0.31990    0.28680    1.000
    C103     C        0.24000    0.40000    0.11440    1.000
    H69      H        0.23910    0.45470    0.10260    1.000
    C104     C        0.25690    0.35430    0.03360    1.000
    H70      H        0.27640    0.37460    0.97710    1.000
    C105     C        0.24340    0.24120    0.14180    1.000
    H71      H        0.24900    0.18670    0.15340    1.000
    C106     C        0.23410    0.29930    0.22220    1.000
    H72      H        0.23520    0.27990    0.29050    1.000
    C107     C        0.04740    0.22200    0.58530    1.000
    H73      H        0.02530    0.17400    0.56250    1.000
    C108     C        0.08790    0.26180    0.52040    1.000
    H74      H        0.09050    0.24120    0.45380    1.000
    C109     C        0.12340    0.32950    0.55240    1.000
    C110     C        0.12130    0.35640    0.65530    1.000
    C111     C        0.07730    0.31820    0.71500    1.000
    H75      H        0.07320    0.33850    0.78130    1.000
    C112     C        0.03970    0.25100    0.67890    1.000
    C113     C        0.01710    0.20850    0.77180    1.000
    C114     C        0.16510    0.37000    0.47880    1.000
    C115     C        0.17050    0.58170    0.20390    1.000
    Zn6      Zn       0.71065    0.94835    0.33223    1.000
    O36      O        0.68190    0.85310    0.39730    1.000
    O37      O        0.66720    0.94360    0.48810    1.000
    O38      O        0.70650    0.82170    0.44260    1.000
    O39      O        0.65380    0.93470    0.44100    1.000
    O40      O        0.73240    0.07550    0.18330    1.000
    O41      O        0.64930    0.03810    0.26810    1.000
    O42      O        0.52640    0.63400    0.78040    1.000
    N11      N        0.81570    0.97420    0.39960    1.000
    C116     C        0.85990    0.00570    0.34460    1.000
    H76      H        0.84100    0.02130    0.27570    1.000
    C117     C        0.93120    0.01800    0.37860    1.000
    H77      H        0.95930    0.04150    0.33400    1.000
    C118     C        0.96210    0.99520    0.48020    1.000
    C119     C        0.91440    0.96160    0.53810    1.000
    H78      H        0.93130    0.94470    0.60710    1.000
    C120     C        0.84270    0.95240    0.49620    1.000
    H79      H        0.81210    0.92990    0.53810    1.000
    N12      N        0.72430    0.87670    0.20870    1.000
    C121     C        0.74270    0.77860    0.04490    1.000
    C122     C        0.68470    0.89400    0.11170    1.000
    H80      H        0.65220    0.93640    0.10240    1.000
    C123     C        0.69470    0.84620    0.02810    1.000
    H81      H        0.67020    0.85750    0.96020    1.000
    C124     C        0.77840    0.76820    0.14300    1.000
    H82      H        0.80960    0.72530    0.15990    1.000
    C125     C        0.76750    0.82430    0.22050    1.000
    H83      H        0.79660    0.81990    0.28680    1.000
    C126     C        0.74000    0.90000    0.11440    1.000
    H84      H        0.73910    0.95470    0.10260    1.000
    C127     C        0.75690    0.85430    0.03360    1.000
    H85      H        0.77640    0.87460    0.97710    1.000
    C128     C        0.74340    0.74120    0.14180    1.000
    H86      H        0.74900    0.68670    0.15340    1.000
    C129     C        0.73410    0.79930    0.22220    1.000
    H87      H        0.73520    0.77990    0.29050    1.000
    C130     C        0.54740    0.72200    0.58530    1.000
    H88      H        0.52530    0.67400    0.56250    1.000
    C131     C        0.58790    0.76180    0.52040    1.000
    H89      H        0.59050    0.74120    0.45380    1.000
    C132     C        0.62340    0.82950    0.55240    1.000
    C133     C        0.62130    0.85640    0.65530    1.000
    C134     C        0.57730    0.81820    0.71500    1.000
    H90      H        0.57320    0.83850    0.78130    1.000
    C135     C        0.53970    0.75100    0.67890    1.000
    C136     C        0.51710    0.70850    0.77180    1.000
    C137     C        0.66510    0.87000    0.47880    1.000
    C138     C        0.67050    0.08170    0.20390    1.000
    Zn7      Zn       0.78935    0.44835    0.16777    1.000
    O43      O        0.81810    0.35310    0.10270    1.000
    O44      O        0.83280    0.44360    0.01190    1.000
    O45      O        0.79350    0.32170    0.05740    1.000
    O46      O        0.84620    0.43470    0.05900    1.000
    O47      O        0.76760    0.57550    0.31670    1.000
    O48      O        0.85070    0.53810    0.23190    1.000
    O49      O        0.97360    0.13400    0.71960    1.000
    N13      N        0.68430    0.47420    0.10040    1.000
    C139     C        0.64010    0.50570    0.15540    1.000
    H91      H        0.65900    0.52130    0.22430    1.000
    C140     C        0.56880    0.51800    0.12140    1.000
    H92      H        0.54070    0.54150    0.16600    1.000
    C141     C        0.53790    0.49520    0.01980    1.000
    C142     C        0.58560    0.46160    0.96190    1.000
    H93      H        0.56870    0.44470    0.89290    1.000
    C143     C        0.65730    0.45240    0.00380    1.000
    H94      H        0.68790    0.42990    0.96190    1.000
    N14      N        0.77570    0.37670    0.29130    1.000
    C144     C        0.75730    0.27860    0.45510    1.000
    C145     C        0.81530    0.39400    0.38830    1.000
    H95      H        0.84780    0.43640    0.39760    1.000
    C146     C        0.80530    0.34620    0.47190    1.000
    H96      H        0.82980    0.35750    0.53980    1.000
    C147     C        0.72160    0.26820    0.35700    1.000
    H97      H        0.69040    0.22530    0.34010    1.000
    C148     C        0.73250    0.32430    0.27950    1.000
    H98      H        0.70340    0.31990    0.21320    1.000
    C149     C        0.76000    0.40000    0.38560    1.000
    H99      H        0.76090    0.45470    0.39740    1.000
    C150     C        0.74310    0.35430    0.46640    1.000
    H100     H        0.72360    0.37460    0.52290    1.000
    C151     C        0.75660    0.24120    0.35820    1.000
    H101     H        0.75100    0.18670    0.34660    1.000
    C152     C        0.76590    0.29930    0.27780    1.000
    H102     H        0.76480    0.27990    0.20950    1.000
    C153     C        0.95260    0.22200    0.91470    1.000
    H103     H        0.97470    0.17400    0.93750    1.000
    C154     C        0.91210    0.26180    0.97960    1.000
    H104     H        0.90950    0.24120    0.04620    1.000
    C155     C        0.87660    0.32950    0.94760    1.000
    C156     C        0.87870    0.35640    0.84470    1.000
    C157     C        0.92270    0.31820    0.78500    1.000
    H105     H        0.92680    0.33850    0.71870    1.000
    C158     C        0.96030    0.25100    0.82110    1.000
    C159     C        0.98290    0.20850    0.72820    1.000
    C160     C        0.83490    0.37000    0.02120    1.000
    C161     C        0.82950    0.58170    0.29610    1.000
    Zn8      Zn       0.28935    0.94835    0.16777    1.000
    O50      O        0.31810    0.85310    0.10270    1.000
    O51      O        0.33280    0.94360    0.01190    1.000
    O52      O        0.29350    0.82170    0.05740    1.000
    O53      O        0.34620    0.93470    0.05900    1.000
    O54      O        0.26760    0.07550    0.31670    1.000
    O55      O        0.35070    0.03810    0.23190    1.000
    O56      O        0.47360    0.63400    0.71960    1.000
    N15      N        0.18430    0.97420    0.10040    1.000
    C162     C        0.14010    0.00570    0.15540    1.000
    H106     H        0.15900    0.02130    0.22430    1.000
    C163     C        0.06880    0.01800    0.12140    1.000
    H107     H        0.04070    0.04150    0.16600    1.000
    C164     C        0.03790    0.99520    0.01980    1.000
    C165     C        0.08560    0.96160    0.96190    1.000
    H108     H        0.06870    0.94470    0.89290    1.000
    C166     C        0.15730    0.95240    0.00380    1.000
    H109     H        0.18790    0.92990    0.96190    1.000
    N16      N        0.27570    0.87670    0.29130    1.000
    C167     C        0.25730    0.77860    0.45510    1.000
    C168     C        0.31530    0.89400    0.38830    1.000
    H110     H        0.34780    0.93640    0.39760    1.000
    C169     C        0.30530    0.84620    0.47190    1.000
    H111     H        0.32980    0.85750    0.53980    1.000
    C170     C        0.22160    0.76820    0.35700    1.000
    H112     H        0.19040    0.72530    0.34010    1.000
    C171     C        0.23250    0.82430    0.27950    1.000
    H113     H        0.20340    0.81990    0.21320    1.000
    C172     C        0.26000    0.90000    0.38560    1.000
    H114     H        0.26090    0.95470    0.39740    1.000
    C173     C        0.24310    0.85430    0.46640    1.000
    H115     H        0.22360    0.87460    0.52290    1.000
    C174     C        0.25660    0.74120    0.35820    1.000
    H116     H        0.25100    0.68670    0.34660    1.000
    C175     C        0.26590    0.79930    0.27780    1.000
    H117     H        0.26480    0.77990    0.20950    1.000
    C176     C        0.45260    0.72200    0.91470    1.000
    H118     H        0.47470    0.67400    0.93750    1.000
    C177     C        0.41210    0.76180    0.97960    1.000
    H119     H        0.40950    0.74120    0.04620    1.000
    C178     C        0.37660    0.82950    0.94760    1.000
    C179     C        0.37870    0.85640    0.84470    1.000
    C180     C        0.42270    0.81820    0.78500    1.000
    H120     H        0.42680    0.83850    0.71870    1.000
    C181     C        0.46030    0.75100    0.82110    1.000
    C182     C        0.48290    0.70850    0.72820    1.000
    C183     C        0.33490    0.87000    0.02120    1.000
    C184     C        0.32950    0.08170    0.29610    1.000
