data_functionalizedCrystal
_audit_creation_method	'EQeq! by Chris Wilmer'
_symmetry_space_group_name_H-M	'P1'
_symmetry_Int_Tables_number	1
_symmetry_cell_setting	triclinic
loop_
_symmetry_equiv_pos_as_xyz
  x,y,z
_cell_length_a	24.814
_cell_length_b	18.458
_cell_length_c	10.2575
_cell_angle_alpha	90
_cell_angle_beta	90
_cell_angle_gamma	90
loop_
_atom_site_label
_atom_site_type_symbol
_atom_site_fract_x
_atom_site_fract_y
_atom_site_fract_z
_atom_site_charge
Mof_Ga	Ga	0.4377	0.91761	0.11401	3.425
Mof_Ga	Ga	0.34273	0.1539	0.898	1.656
Mof_Ga	Ga	0.55938	0.92899	0.38085	3.17
Mof_Ga	Ga	0.2368	0.08636	0.60162	4.246
Mof_Ga	Ga	0.34554	0.82949	0.59191	4.213
Mof_Ga	Ga	0.241	0.8954	0.898	4.306
Mof_Ga	Ga	0.27488	0.70562	0.92034	4.472
Mof_Ga	Ga	0.23092	0.77514	0.42295	4.407
Mof_P 	P 	0.2332	0.06748	0.8953	1.017
Mof_P 	P 	0.43742	0.90546	0.41625	0.969
Mof_P 	P 	0.43598	0.08568	0.08163	0.943
Mof_P 	P 	0.23474	0.91363	0.60555	1.062
Mof_P 	P 	0.35993	0.83409	0.90788	1.036
Mof_P 	P 	0.35558	0.14817	0.58176	0.966
Mof_P 	P 	0.29866	0.68301	0.62347	0.995
Mof_P 	P 	0.29261	0.29777	0.87534	0.968
Mof_F 	F 	0.24538	0.79102	0.8337	-1.455
Mof_F 	F 	0.23872	0.19063	0.6656	-1.422
Mof_F 	F 	0.30635	0.8148	0.4198	-1.352
Mof_O 	O 	0.29264	0.0875	0.8675	-1.091
Mof_O 	O 	0.20459	0.0672	0.7615	-1.105
Mof_O 	O 	0.2319	0.9925	0.9591	-1.051
Mof_O 	O 	0.20348	0.1213	0.9826	-1.031
Mof_O 	O 	0.4961	0.906	0.4655	-1.028
Mof_O 	O 	0.4123	0.9816	0.4199	-1.131
Mof_O 	O 	0.43475	0.874	0.2769	-1.105
Mof_O 	O 	0.40774	0.8554	0.5074	-1.094
Mof_O 	O 	0.40472	0.1336	0.9879	-0.89
Mof_O 	O 	0.42887	0.1157	0.2208	-1.033
Mof_O 	O 	0.41383	0.0079	0.0739	-1.179
Mof_O 	O 	0.49497	0.0911	0.0375	-1.048
Mof_O 	O 	0.20666	0.8584	0.5192	-1.035
Mof_O 	O 	0.29493	0.8975	0.6318	-1.335
Mof_O 	O 	0.22914	0.9883	0.5416	-1.03
Mof_O 	O 	0.20673	0.9122	0.7414	-1.134
Mof_O 	O 	0.3436	0.7553	0.9314	-1.056
Mof_O 	O 	0.40612	0.8504	0.0026	-0.953
Mof_O 	O 	0.37986	0.8454	0.7668	-0.965
Mof_O 	O 	0.3141	0.8888	0.9378	-1.224
Mof_O 	O 	0.30957	0.0936	0.559	-1.187
Mof_O 	O 	0.33869	0.2274	0.5718	-1.022
Mof_O 	O 	0.3792	0.1353	0.7208	-0.622
Mof_O 	O 	0.3984	0.1353	0.477	-0.888
Mof_O 	O 	0.34919	0.7306	0.611	-1.141
Mof_O 	O 	0.24858	0.7257	0.584	-1.168
Mof_O 	O 	0.30702	0.6157	0.5358	-1.063
Mof_O 	O 	0.2924	0.656	0.7637	-1.044
Mof_O 	O 	0.28435	0.3258	0.7356	-1.002
Mof_O 	O 	0.34378	0.2514	0.8835	-0.904
Mof_O 	O 	0.30132	0.3642	0.9632	-1.08
Mof_O 	O 	0.24364	0.2532	0.9181	-1.155
Mof_O 	O 	0.30167	0.1684	0.09	-1.259
Mof_Ga	Ga	0.16309	0.65642	0.046	1.435
Mof_Ga	Ga	0.5623	0.08239	0.11401	3.424
Mof_Ga	Ga	0.65727	0.8461	0.898	1.655
Mof_Ga	Ga	0.44062	0.07101	0.38085	3.169
Mof_Ga	Ga	0.7632	0.91364	0.60162	4.245
Mof_Ga	Ga	0.65446	0.17051	0.59191	4.212
Mof_Ga	Ga	0.759	0.1046	0.898	4.305
Mof_Ga	Ga	0.72512	0.29438	0.92034	4.472
Mof_Ga	Ga	0.76908	0.22486	0.42295	4.407
Mof_P 	P 	0.7668	0.93252	0.8953	1.017
Mof_P 	P 	0.56258	0.09454	0.41625	0.969
Mof_P 	P 	0.56402	0.91432	0.08163	0.943
Mof_P 	P 	0.76526	0.08637	0.60555	1.062
Mof_P 	P 	0.64007	0.16591	0.90788	1.036
Mof_P 	P 	0.64442	0.85183	0.58176	0.966
Mof_P 	P 	0.70134	0.31699	0.62347	0.995
Mof_P 	P 	0.70739	0.70223	0.87534	0.968
Mof_F 	F 	0.75462	0.20898	0.8337	-1.455
Mof_F 	F 	0.76128	0.80937	0.6656	-1.422
Mof_F 	F 	0.69365	0.1852	0.4198	-1.352
Mof_O 	O 	0.70736	0.9125	0.8675	-1.091
Mof_O 	O 	0.79541	0.9328	0.7615	-1.105
Mof_O 	O 	0.7681	0.0075	0.9591	-1.051
Mof_O 	O 	0.79652	0.8787	0.9826	-1.031
Mof_O 	O 	0.5039	0.094	0.4655	-1.028
Mof_O 	O 	0.5877	0.0184	0.4199	-1.131
Mof_O 	O 	0.56525	0.126	0.2769	-1.105
Mof_O 	O 	0.59226	0.1446	0.5074	-1.094
Mof_O 	O 	0.59528	0.8664	0.9879	-0.89
Mof_O 	O 	0.57113	0.8843	0.2208	-1.033
Mof_O 	O 	0.58617	0.9921	0.0739	-1.179
Mof_O 	O 	0.50503	0.9089	0.0375	-1.048
Mof_O 	O 	0.79334	0.1416	0.5192	-1.035
Mof_O 	O 	0.70507	0.1025	0.6318	-1.335
Mof_O 	O 	0.77086	0.0117	0.5416	-1.03
Mof_O 	O 	0.79327	0.0878	0.7414	-1.134
Mof_O 	O 	0.6564	0.2447	0.9314	-1.056
Mof_O 	O 	0.59388	0.1496	0.0026	-0.953
Mof_O 	O 	0.62014	0.1546	0.7668	-0.965
Mof_O 	O 	0.6859	0.1112	0.9378	-1.224
Mof_O 	O 	0.69043	0.9064	0.559	-1.187
Mof_O 	O 	0.66131	0.7726	0.5718	-1.022
Mof_O 	O 	0.6208	0.8647	0.7208	-0.622
Mof_O 	O 	0.6016	0.8647	0.477	-0.888
Mof_O 	O 	0.65081	0.2694	0.611	-1.141
Mof_O 	O 	0.75142	0.2743	0.584	-1.168
Mof_O 	O 	0.69298	0.3843	0.5358	-1.063
Mof_O 	O 	0.7076	0.344	0.7637	-1.044
Mof_O 	O 	0.71565	0.6742	0.7356	-1.002
Mof_O 	O 	0.65622	0.7486	0.8835	-0.904
Mof_O 	O 	0.69868	0.6358	0.9632	-1.08
Mof_O 	O 	0.75636	0.7468	0.9181	-1.155
Mof_O 	O 	0.69833	0.8316	0.09	-1.259
Mof_Ga	Ga	0.83691	0.34358	0.046	1.435
Mof_Ga	Ga	0.0623	0.41761	0.88599	3.423
Mof_Ga	Ga	0.15727	0.6539	0.102	1.655
Mof_Ga	Ga	0.94062	0.42899	0.61915	3.171
Mof_Ga	Ga	0.2632	0.58636	0.39838	4.248
Mof_Ga	Ga	0.15446	0.32949	0.40809	4.212
Mof_Ga	Ga	0.259	0.3954	0.102	4.304
Mof_Ga	Ga	0.22512	0.20562	0.07966	4.471
Mof_Ga	Ga	0.26908	0.27514	0.57705	4.407
Mof_P 	P 	0.2668	0.56748	0.1047	1.018
Mof_P 	P 	0.06258	0.40546	0.58375	0.969
Mof_P 	P 	0.06402	0.58568	0.91837	0.943
Mof_P 	P 	0.26526	0.41363	0.39445	1.062
Mof_P 	P 	0.14007	0.33409	0.09212	1.036
Mof_P 	P 	0.14442	0.64817	0.41824	0.966
Mof_P 	P 	0.20134	0.18301	0.37653	0.995
Mof_P 	P 	0.20739	0.79777	0.12466	0.968
Mof_F 	F 	0.25462	0.29102	0.1663	-1.455
Mof_F 	F 	0.26128	0.69063	0.3344	-1.422
Mof_F 	F 	0.19365	0.3148	0.5802	-1.352
Mof_O 	O 	0.20736	0.5875	0.1325	-1.091
Mof_O 	O 	0.29541	0.5672	0.2385	-1.104
Mof_O 	O 	0.2681	0.4925	0.0409	-1.051
Mof_O 	O 	0.29652	0.6213	0.0174	-1.031
Mof_O 	O 	0.0039	0.406	0.5345	-1.029
Mof_O 	O 	0.0877	0.4816	0.5801	-1.131
Mof_O 	O 	0.06525	0.374	0.7231	-1.105
Mof_O 	O 	0.09226	0.3554	0.4926	-1.094
Mof_O 	O 	0.09528	0.6336	0.0121	-0.89
Mof_O 	O 	0.07113	0.6157	0.7792	-1.033
Mof_O 	O 	0.08617	0.5079	0.9261	-1.177
Mof_O 	O 	0.00503	0.5911	0.9625	-1.048
Mof_O 	O 	0.29334	0.3584	0.4808	-1.035
Mof_O 	O 	0.20507	0.3975	0.3682	-1.335
Mof_O 	O 	0.27086	0.4883	0.4584	-1.031
Mof_O 	O 	0.29327	0.4122	0.2586	-1.134
Mof_O 	O 	0.1564	0.2553	0.0686	-1.056
Mof_O 	O 	0.09388	0.3504	0.9974	-0.953
Mof_O 	O 	0.12014	0.3454	0.2332	-0.966
Mof_O 	O 	0.1859	0.3888	0.0622	-1.224
Mof_O 	O 	0.19043	0.5936	0.441	-1.187
Mof_O 	O 	0.16131	0.7274	0.4282	-1.022
Mof_O 	O 	0.1208	0.6353	0.2792	-0.622
Mof_O 	O 	0.1016	0.6353	0.523	-0.888
Mof_O 	O 	0.15081	0.2306	0.389	-1.141
Mof_O 	O 	0.25142	0.2257	0.416	-1.168
Mof_O 	O 	0.19298	0.1157	0.4642	-1.064
Mof_O 	O 	0.2076	0.156	0.2363	-1.044
Mof_O 	O 	0.21565	0.8258	0.2644	-1.002
Mof_O 	O 	0.15622	0.7514	0.1165	-0.905
Mof_O 	O 	0.19868	0.8642	0.0368	-1.08
Mof_O 	O 	0.25636	0.7532	0.0819	-1.155
Mof_O 	O 	0.19833	0.6684	0.91	-1.259
Mof_Ga	Ga	0.33691	0.15642	0.954	1.435
Mof_Ga	Ga	0.9377	0.58239	0.88599	3.423
Mof_Ga	Ga	0.84273	0.3461	0.102	1.655
Mof_Ga	Ga	0.05938	0.57101	0.61915	3.171
Mof_Ga	Ga	0.7368	0.41364	0.39838	4.248
Mof_Ga	Ga	0.84554	0.67051	0.40809	4.212
Mof_Ga	Ga	0.741	0.6046	0.102	4.304
Mof_Ga	Ga	0.77488	0.79438	0.07966	4.471
Mof_Ga	Ga	0.73092	0.72486	0.57705	4.407
Mof_P 	P 	0.7332	0.43252	0.1047	1.018
Mof_P 	P 	0.93742	0.59454	0.58375	0.969
Mof_P 	P 	0.93598	0.41432	0.91837	0.943
Mof_P 	P 	0.73474	0.58637	0.39445	1.062
Mof_P 	P 	0.85993	0.66591	0.09212	1.036
Mof_P 	P 	0.85558	0.35183	0.41824	0.966
Mof_P 	P 	0.79866	0.81699	0.37653	0.995
Mof_P 	P 	0.79261	0.20223	0.12466	0.968
Mof_F 	F 	0.74538	0.70898	0.1663	-1.455
Mof_F 	F 	0.73872	0.30937	0.3344	-1.422
Mof_F 	F 	0.80635	0.6852	0.5802	-1.352
Mof_O 	O 	0.79264	0.4125	0.1325	-1.091
Mof_O 	O 	0.70459	0.4328	0.2385	-1.104
Mof_O 	O 	0.7319	0.5075	0.0409	-1.051
Mof_O 	O 	0.70348	0.3787	0.0174	-1.031
Mof_O 	O 	0.9961	0.594	0.5345	-1.029
Mof_O 	O 	0.9123	0.5184	0.5801	-1.131
Mof_O 	O 	0.93475	0.626	0.7231	-1.105
Mof_O 	O 	0.90774	0.6446	0.4926	-1.094
Mof_O 	O 	0.90472	0.3664	0.0121	-0.89
Mof_O 	O 	0.92887	0.3843	0.7792	-1.033
Mof_O 	O 	0.91383	0.4921	0.9261	-1.177
Mof_O 	O 	0.99497	0.4089	0.9625	-1.048
Mof_O 	O 	0.70666	0.6416	0.4808	-1.035
Mof_O 	O 	0.79493	0.6025	0.3682	-1.335
Mof_O 	O 	0.72914	0.5117	0.4584	-1.031
Mof_O 	O 	0.70673	0.5878	0.2586	-1.134
Mof_O 	O 	0.8436	0.7447	0.0686	-1.056
Mof_O 	O 	0.90612	0.6496	0.9974	-0.953
Mof_O 	O 	0.87986	0.6546	0.2332	-0.966
Mof_O 	O 	0.8141	0.6112	0.0622	-1.224
Mof_O 	O 	0.80957	0.4064	0.441	-1.187
Mof_O 	O 	0.83869	0.2726	0.4282	-1.022
Mof_O 	O 	0.8792	0.3647	0.2792	-0.622
Mof_O 	O 	0.8984	0.3647	0.523	-0.888
Mof_O 	O 	0.84919	0.7694	0.389	-1.141
Mof_O 	O 	0.74858	0.7743	0.416	-1.168
Mof_O 	O 	0.80702	0.8843	0.4642	-1.064
Mof_O 	O 	0.7924	0.844	0.2363	-1.044
Mof_O 	O 	0.78435	0.1742	0.2644	-1.002
Mof_O 	O 	0.84378	0.2486	0.1165	-0.905
Mof_O 	O 	0.80132	0.1358	0.0368	-1.08
Mof_O 	O 	0.74364	0.2468	0.0819	-1.155
Mof_O 	O 	0.80167	0.3316	0.91	-1.259
Mof_Ga	Ga	0.66309	0.84358	0.954	1.435
_end
