# CIF file generated by openbabel 3.1.0, see https://openbabel.org
data_I
_chemical_name_common 'image0'
_cell_length_a 42.61
_cell_length_b 6.32
_cell_length_c 25.202
_cell_angle_alpha 90
_cell_angle_beta 126.229
_cell_angle_gamma 90
_space_group_name_H-M_alt 'P 1'
_space_group_name_Hall 'P 1'
loop_
    _symmetry_equiv_pos_as_xyz
    x,y,z
loop_
    _atom_site_label
    _atom_site_type_symbol
    _atom_site_fract_x
    _atom_site_fract_y
    _atom_site_fract_z
    _atom_site_occupancy
    C1       C        0.60305    0.14579    0.73854    1.000
    H1       H        0.59370    0.00450    0.73140    1.000
    Ni1      Ni       0.24269    0.75006    0.55194    1.000
    O1       O        0.26627    0.94533    0.52004    1.000
    C2       C        0.63117    0.55181    0.75936    1.000
    H2       H        0.64090    0.69190    0.76610    1.000
    O2       O        0.71588    0.29253    0.89797    1.000
    C3       C        0.59406    0.50416    0.70326    1.000
    H3       H        0.57860    0.61250    0.67240    1.000
    C4       C        0.65361    0.39788    0.80474    1.000
    O3       O        0.70279    0.63817    0.87744    1.000
    C5       C        0.63942    0.19339    0.79454    1.000
    H4       H        0.65470    0.08620    0.82610    1.000
    C6       C        0.49877    0.93763    0.47541    1.000
    C7       C        0.56988    0.93965    0.54021    1.000
    H5       H        0.59310    0.89990    0.54550    1.000
    O4       O        0.31285    0.63911    0.51158    1.000
    C8       C        0.37660    0.19372    0.55352    1.000
    H6       H        0.36220    0.08560    0.55640    1.000
    C9       C        0.57255    0.05295    0.58736    1.000
    H7       H        0.59760    0.08900    0.62560    1.000
    O5       O        0.29998    0.29193    0.50431    1.000
    C10      C        0.69376    0.44923    0.86505    1.000
    C11      C        0.53859    0.12219    0.58200    1.000
    C12      C        0.41227    0.14809    0.56568    1.000
    H8       H        0.42200    0.00760    0.57710    1.000
    C13      C        0.57971    0.30084    0.69227    1.000
    C14      C        0.32212    0.44720    0.51676    1.000
    C15      C        0.53296    0.87562    0.48158    1.000
    C16      C        0.38473    0.55609    0.53710    1.000
    H9       H        0.37590    0.69850    0.52960    1.000
    C17      C        0.50699    0.30741    0.62189    1.000
    H10      H        0.50880    0.39660    0.65390    1.000
    C18      C        0.36229    0.39998    0.53712    1.000
    C19      C        0.42032    0.51030    0.54793    1.000
    H11      H        0.43480    0.62020    0.54600    1.000
    C20      C        0.43431    0.30430    0.56149    1.000
    C21      C        0.54076    0.24395    0.63029    1.000
    C22      C        0.47029    0.24356    0.56745    1.000
    H12      H        0.29292    0.93700    0.56120    1.000
    C23      C        0.10305    0.64579    0.73854    1.000
    H13      H        0.09370    0.50450    0.73140    1.000
    Ni2      Ni       0.74269    0.25006    0.55194    1.000
    O6       O        0.76627    0.44533    0.52004    1.000
    C24      C        0.13117    0.05181    0.75936    1.000
    H14      H        0.14090    0.19190    0.76610    1.000
    O7       O        0.21588    0.79253    0.89797    1.000
    C25      C        0.09406    0.00416    0.70326    1.000
    H15      H        0.07860    0.11250    0.67240    1.000
    C26      C        0.15361    0.89788    0.80474    1.000
    O8       O        0.20279    0.13817    0.87744    1.000
    C27      C        0.13942    0.69339    0.79454    1.000
    H16      H        0.15470    0.58620    0.82610    1.000
    C28      C        0.99877    0.43763    0.47541    1.000
    C29      C        0.06988    0.43965    0.54021    1.000
    H17      H        0.09310    0.39990    0.54550    1.000
    O9       O        0.81285    0.13911    0.51158    1.000
    C30      C        0.87660    0.69372    0.55352    1.000
    H18      H        0.86220    0.58560    0.55640    1.000
    C31      C        0.07255    0.55295    0.58736    1.000
    H19      H        0.09760    0.58900    0.62560    1.000
    O10      O        0.79998    0.79193    0.50431    1.000
    C32      C        0.19376    0.94923    0.86505    1.000
    C33      C        0.03859    0.62219    0.58200    1.000
    C34      C        0.91227    0.64809    0.56568    1.000
    H20      H        0.92200    0.50760    0.57710    1.000
    C35      C        0.07971    0.80084    0.69227    1.000
    C36      C        0.82212    0.94720    0.51676    1.000
    C37      C        0.03296    0.37562    0.48158    1.000
    C38      C        0.88473    0.05609    0.53710    1.000
    H21      H        0.87590    0.19850    0.52960    1.000
    C39      C        0.00699    0.80741    0.62189    1.000
    H22      H        0.00880    0.89660    0.65390    1.000
    C40      C        0.86229    0.89998    0.53712    1.000
    C41      C        0.92032    0.01030    0.54793    1.000
    H23      H        0.93480    0.12020    0.54600    1.000
    C42      C        0.93431    0.80430    0.56149    1.000
    C43      C        0.04076    0.74395    0.63029    1.000
    C44      C        0.97029    0.74356    0.56745    1.000
    H24      H        0.79292    0.43700    0.56120    1.000
    C45      C        0.39695    0.14579    0.76146    1.000
    H25      H        0.40630    0.00450    0.76860    1.000
    Ni3      Ni       0.75731    0.75006    0.94806    1.000
    O11      O        0.73373    0.94533    0.97996    1.000
    C46      C        0.36883    0.55181    0.74064    1.000
    H26      H        0.35910    0.69190    0.73390    1.000
    O12      O        0.28412    0.29253    0.60203    1.000
    C47      C        0.40594    0.50416    0.79674    1.000
    H27      H        0.42140    0.61250    0.82760    1.000
    C48      C        0.34639    0.39788    0.69526    1.000
    O13      O        0.29721    0.63817    0.62256    1.000
    C49      C        0.36058    0.19339    0.70546    1.000
    H28      H        0.34530    0.08620    0.67390    1.000
    C50      C        0.50123    0.93763    0.02459    1.000
    C51      C        0.43012    0.93965    0.95979    1.000
    H29      H        0.40690    0.89990    0.95450    1.000
    O14      O        0.68715    0.63911    0.98842    1.000
    C52      C        0.62340    0.19372    0.94648    1.000
    H30      H        0.63780    0.08560    0.94360    1.000
    C53      C        0.42745    0.05295    0.91264    1.000
    H31      H        0.40240    0.08900    0.87440    1.000
    O15      O        0.70002    0.29193    0.99569    1.000
    C54      C        0.30624    0.44923    0.63495    1.000
    C55      C        0.46141    0.12219    0.91800    1.000
    C56      C        0.58773    0.14809    0.93432    1.000
    H32      H        0.57800    0.00760    0.92290    1.000
    C57      C        0.42029    0.30084    0.80773    1.000
    C58      C        0.67788    0.44720    0.98324    1.000
    C59      C        0.46704    0.87562    0.01842    1.000
    C60      C        0.61527    0.55609    0.96290    1.000
    H33      H        0.62410    0.69850    0.97040    1.000
    C61      C        0.49301    0.30741    0.87811    1.000
    H34      H        0.49120    0.39660    0.84610    1.000
    C62      C        0.63771    0.39998    0.96288    1.000
    C63      C        0.57968    0.51030    0.95207    1.000
    H35      H        0.56520    0.62020    0.95400    1.000
    C64      C        0.56569    0.30430    0.93851    1.000
    C65      C        0.45924    0.24395    0.86971    1.000
    C66      C        0.52971    0.24356    0.93255    1.000
    H36      H        0.70708    0.93700    0.93880    1.000
    C67      C        0.89695    0.64579    0.76146    1.000
    H37      H        0.90630    0.50450    0.76860    1.000
    Ni4      Ni       0.25731    0.25006    0.94806    1.000
    O16      O        0.23373    0.44533    0.97996    1.000
    C68      C        0.86883    0.05181    0.74064    1.000
    H38      H        0.85910    0.19190    0.73390    1.000
    O17      O        0.78412    0.79253    0.60203    1.000
    C69      C        0.90594    0.00416    0.79674    1.000
    H39      H        0.92140    0.11250    0.82760    1.000
    C70      C        0.84639    0.89788    0.69526    1.000
    O18      O        0.79721    0.13817    0.62256    1.000
    C71      C        0.86058    0.69339    0.70546    1.000
    H40      H        0.84530    0.58620    0.67390    1.000
    C72      C        0.00123    0.43763    0.02459    1.000
    C73      C        0.93012    0.43965    0.95979    1.000
    H41      H        0.90690    0.39990    0.95450    1.000
    O19      O        0.18715    0.13911    0.98842    1.000
    C74      C        0.12340    0.69372    0.94648    1.000
    H42      H        0.13780    0.58560    0.94360    1.000
    C75      C        0.92745    0.55295    0.91264    1.000
    H43      H        0.90240    0.58900    0.87440    1.000
    O20      O        0.20002    0.79193    0.99569    1.000
    C76      C        0.80624    0.94923    0.63495    1.000
    C77      C        0.96141    0.62219    0.91800    1.000
    C78      C        0.08773    0.64809    0.93432    1.000
    H44      H        0.07800    0.50760    0.92290    1.000
    C79      C        0.92029    0.80084    0.80773    1.000
    C80      C        0.17788    0.94720    0.98324    1.000
    C81      C        0.96704    0.37562    0.01842    1.000
    C82      C        0.11527    0.05609    0.96290    1.000
    H45      H        0.12410    0.19850    0.97040    1.000
    C83      C        0.99301    0.80741    0.87811    1.000
    H46      H        0.99120    0.89660    0.84610    1.000
    C84      C        0.13771    0.89998    0.96288    1.000
    C85      C        0.07968    0.01030    0.95207    1.000
    H47      H        0.06520    0.12020    0.95400    1.000
    C86      C        0.06569    0.80430    0.93851    1.000
    C87      C        0.95924    0.74395    0.86971    1.000
    C88      C        0.02971    0.74356    0.93255    1.000
    H48      H        0.20708    0.43700    0.93880    1.000
    C89      C        0.39695    0.85421    0.26146    1.000
    H49      H        0.40630    0.99550    0.26860    1.000
    Ni5      Ni       0.75731    0.24994    0.44806    1.000
    O21      O        0.73373    0.05467    0.47996    1.000
    C90      C        0.36883    0.44819    0.24064    1.000
    H50      H        0.35910    0.30810    0.23390    1.000
    O22      O        0.28412    0.70747    0.10203    1.000
    C91      C        0.40594    0.49584    0.29674    1.000
    H51      H        0.42140    0.38750    0.32760    1.000
    C92      C        0.34639    0.60212    0.19526    1.000
    O23      O        0.29721    0.36183    0.12256    1.000
    C93      C        0.36058    0.80661    0.20546    1.000
    H52      H        0.34530    0.91380    0.17390    1.000
    C94      C        0.50123    0.06237    0.52459    1.000
    C95      C        0.43012    0.06035    0.45979    1.000
    H53      H        0.40690    0.10010    0.45450    1.000
    O24      O        0.68715    0.36089    0.48842    1.000
    C96      C        0.62340    0.80628    0.44648    1.000
    H54      H        0.63780    0.91440    0.44360    1.000
    C97      C        0.42745    0.94705    0.41264    1.000
    H55      H        0.40240    0.91100    0.37440    1.000
    O25      O        0.70002    0.70807    0.49569    1.000
    C98      C        0.30624    0.55077    0.13495    1.000
    C99      C        0.46141    0.87781    0.41800    1.000
    C100     C        0.58773    0.85191    0.43432    1.000
    H56      H        0.57800    0.99240    0.42290    1.000
    C101     C        0.42029    0.69916    0.30773    1.000
    C102     C        0.67788    0.55280    0.48324    1.000
    C103     C        0.46704    0.12438    0.51842    1.000
    C104     C        0.61527    0.44391    0.46290    1.000
    H57      H        0.62410    0.30150    0.47040    1.000
    C105     C        0.49301    0.69259    0.37811    1.000
    H58      H        0.49120    0.60340    0.34610    1.000
    C106     C        0.63771    0.60002    0.46288    1.000
    C107     C        0.57968    0.48970    0.45207    1.000
    H59      H        0.56520    0.37980    0.45400    1.000
    C108     C        0.56569    0.69570    0.43851    1.000
    C109     C        0.45924    0.75605    0.36971    1.000
    C110     C        0.52971    0.75644    0.43255    1.000
    H60      H        0.70708    0.06300    0.43880    1.000
    C111     C        0.89695    0.35421    0.26146    1.000
    H61      H        0.90630    0.49550    0.26860    1.000
    Ni6      Ni       0.25731    0.74994    0.44806    1.000
    O26      O        0.23373    0.55467    0.47996    1.000
    C112     C        0.86883    0.94819    0.24064    1.000
    H62      H        0.85910    0.80810    0.23390    1.000
    O27      O        0.78412    0.20747    0.10203    1.000
    C113     C        0.90594    0.99584    0.29674    1.000
    H63      H        0.92140    0.88750    0.32760    1.000
    C114     C        0.84639    0.10212    0.19526    1.000
    O28      O        0.79721    0.86183    0.12256    1.000
    C115     C        0.86058    0.30661    0.20546    1.000
    H64      H        0.84530    0.41380    0.17390    1.000
    C116     C        0.00123    0.56237    0.52459    1.000
    C117     C        0.93012    0.56035    0.45979    1.000
    H65      H        0.90690    0.60010    0.45450    1.000
    O29      O        0.18715    0.86089    0.48842    1.000
    C118     C        0.12340    0.30628    0.44648    1.000
    H66      H        0.13780    0.41440    0.44360    1.000
    C119     C        0.92745    0.44705    0.41264    1.000
    H67      H        0.90240    0.41100    0.37440    1.000
    O30      O        0.20002    0.20807    0.49569    1.000
    C120     C        0.80624    0.05077    0.13495    1.000
    C121     C        0.96141    0.37781    0.41800    1.000
    C122     C        0.08773    0.35191    0.43432    1.000
    H68      H        0.07800    0.49240    0.42290    1.000
    C123     C        0.92029    0.19916    0.30773    1.000
    C124     C        0.17788    0.05280    0.48324    1.000
    C125     C        0.96704    0.62438    0.51842    1.000
    C126     C        0.11527    0.94391    0.46290    1.000
    H69      H        0.12410    0.80150    0.47040    1.000
    C127     C        0.99301    0.19259    0.37811    1.000
    H70      H        0.99120    0.10340    0.34610    1.000
    C128     C        0.13771    0.10002    0.46288    1.000
    C129     C        0.07968    0.98970    0.45207    1.000
    H71      H        0.06520    0.87980    0.45400    1.000
    C130     C        0.06569    0.19570    0.43851    1.000
    C131     C        0.95924    0.25605    0.36971    1.000
    C132     C        0.02971    0.25644    0.43255    1.000
    H72      H        0.20708    0.56300    0.43880    1.000
    C133     C        0.60305    0.85421    0.23854    1.000
    H73      H        0.59370    0.99550    0.23140    1.000
    Ni7      Ni       0.24269    0.24994    0.05194    1.000
    O31      O        0.26627    0.05467    0.02004    1.000
    C134     C        0.63117    0.44819    0.25936    1.000
    H74      H        0.64090    0.30810    0.26610    1.000
    O32      O        0.71588    0.70747    0.39797    1.000
    C135     C        0.59406    0.49584    0.20326    1.000
    H75      H        0.57860    0.38750    0.17240    1.000
    C136     C        0.65361    0.60212    0.30474    1.000
    O33      O        0.70279    0.36183    0.37744    1.000
    C137     C        0.63942    0.80661    0.29454    1.000
    H76      H        0.65470    0.91380    0.32610    1.000
    C138     C        0.49877    0.06237    0.97541    1.000
    C139     C        0.56988    0.06035    0.04021    1.000
    H77      H        0.59310    0.10010    0.04550    1.000
    O34      O        0.31285    0.36089    0.01158    1.000
    C140     C        0.37660    0.80628    0.05352    1.000
    H78      H        0.36220    0.91440    0.05640    1.000
    C141     C        0.57255    0.94705    0.08736    1.000
    H79      H        0.59760    0.91100    0.12560    1.000
    O35      O        0.29998    0.70807    0.00431    1.000
    C142     C        0.69376    0.55077    0.36505    1.000
    C143     C        0.53859    0.87781    0.08200    1.000
    C144     C        0.41227    0.85191    0.06568    1.000
    H80      H        0.42200    0.99240    0.07710    1.000
    C145     C        0.57971    0.69916    0.19227    1.000
    C146     C        0.32212    0.55280    0.01676    1.000
    C147     C        0.53296    0.12438    0.98158    1.000
    C148     C        0.38473    0.44391    0.03710    1.000
    H81      H        0.37590    0.30150    0.02960    1.000
    C149     C        0.50699    0.69259    0.12189    1.000
    H82      H        0.50880    0.60340    0.15390    1.000
    C150     C        0.36229    0.60002    0.03712    1.000
    C151     C        0.42032    0.48970    0.04793    1.000
    H83      H        0.43480    0.37980    0.04600    1.000
    C152     C        0.43431    0.69570    0.06149    1.000
    C153     C        0.54076    0.75605    0.13029    1.000
    C154     C        0.47029    0.75644    0.06745    1.000
    H84      H        0.29292    0.06300    0.06120    1.000
    C155     C        0.10305    0.35421    0.23854    1.000
    H85      H        0.09370    0.49550    0.23140    1.000
    Ni8      Ni       0.74269    0.74994    0.05194    1.000
    O36      O        0.76627    0.55467    0.02004    1.000
    C156     C        0.13117    0.94819    0.25936    1.000
    H86      H        0.14090    0.80810    0.26610    1.000
    O37      O        0.21588    0.20747    0.39797    1.000
    C157     C        0.09406    0.99584    0.20326    1.000
    H87      H        0.07860    0.88750    0.17240    1.000
    C158     C        0.15361    0.10212    0.30474    1.000
    O38      O        0.20279    0.86183    0.37744    1.000
    C159     C        0.13942    0.30661    0.29454    1.000
    H88      H        0.15470    0.41380    0.32610    1.000
    C160     C        0.99877    0.56237    0.97541    1.000
    C161     C        0.06988    0.56035    0.04021    1.000
    H89      H        0.09310    0.60010    0.04550    1.000
    O39      O        0.81285    0.86089    0.01158    1.000
    C162     C        0.87660    0.30628    0.05352    1.000
    H90      H        0.86220    0.41440    0.05640    1.000
    C163     C        0.07255    0.44705    0.08736    1.000
    H91      H        0.09760    0.41100    0.12560    1.000
    O40      O        0.79998    0.20807    0.00431    1.000
    C164     C        0.19376    0.05077    0.36505    1.000
    C165     C        0.03859    0.37781    0.08200    1.000
    C166     C        0.91227    0.35191    0.06568    1.000
    H92      H        0.92200    0.49240    0.07710    1.000
    C167     C        0.07971    0.19916    0.19227    1.000
    C168     C        0.82212    0.05280    0.01676    1.000
    C169     C        0.03296    0.62438    0.98158    1.000
    C170     C        0.88473    0.94391    0.03710    1.000
    H93      H        0.87590    0.80150    0.02960    1.000
    C171     C        0.00699    0.19259    0.12189    1.000
    H94      H        0.00880    0.10340    0.15390    1.000
    C172     C        0.86229    0.10002    0.03712    1.000
    C173     C        0.92032    0.98970    0.04793    1.000
    H95      H        0.93480    0.87980    0.04600    1.000
    C174     C        0.93431    0.19570    0.06149    1.000
    C175     C        0.04076    0.25605    0.13029    1.000
    C176     C        0.97029    0.25644    0.06745    1.000
    H96      H        0.79292    0.56300    0.06120    1.000
    Ni9      Ni       0.25000    0.25000    0.50000    1.000
    Ni10     Ni       0.75000    0.25000    0.00000    1.000
    Ni11     Ni       0.75000    0.75000    0.50000    1.000
    Ni12     Ni       0.25000    0.75000    0.00000    1.000
