# CIF file generated by openbabel 3.1.0, see https://openbabel.org
data_I
_chemical_name_common 'image0'
_cell_length_a 11.379
_cell_length_b 13.386
_cell_length_c 25.904
_cell_angle_alpha 90
_cell_angle_beta 90
_cell_angle_gamma 90
_space_group_name_H-M_alt 'P 1'
_space_group_name_Hall 'P 1'
loop_
    _symmetry_equiv_pos_as_xyz
    x,y,z
loop_
    _atom_site_label
    _atom_site_type_symbol
    _atom_site_fract_x
    _atom_site_fract_y
    _atom_site_fract_z
    _atom_site_occupancy
    Co1      Co       0.84432    0.44353    0.42199    1.000
    Co2      Co       0.09813    0.55392    0.36133    1.000
    O1       O        0.91630    0.57300    0.38498    1.000
    H1       H        0.91120    0.63040    0.40900    1.000
    H2       H        0.86830    0.58900    0.35420    1.000
    O2       O        0.47150    0.76950    0.56333    1.000
    O3       O        0.71960    0.60330    0.33633    1.000
    O4       O        0.69850    0.45100    0.37352    1.000
    O5       O        0.64600    0.82620    0.59254    1.000
    O6       O        0.92560    0.34950    0.36743    1.000
    O7       O        0.04920    0.43630    0.31623    1.000
    O8       O        0.14070    0.45350    0.42034    1.000
    O9       O        0.98420    0.43630    0.47309    1.000
    N1       N        0.26570    0.18200    0.54101    1.000
    N2       N        0.93170    0.15440    0.20251    1.000
    N3       N        0.75750    0.54210    0.47677    1.000
    N4       N        0.28260    0.54360    0.34269    1.000
    C1       C        0.34000    0.45560    0.34660    1.000
    H3       H        0.29490    0.39590    0.34780    1.000
    C2       C        0.28860    0.19820    0.49090    1.000
    H4       H        0.34470    0.15700    0.47400    1.000
    C3       C        0.99300    0.23960    0.19600    1.000
    H5       H        0.02540    0.25360    0.16300    1.000
    C4       C        0.23220    0.27490    0.46210    1.000
    H6       H        0.24890    0.28480    0.42660    1.000
    C5       C        0.63820    0.54960    0.47760    1.000
    H7       H        0.59350    0.50240    0.45840    1.000
    C6       C        0.64240    0.68660    0.53530    1.000
    C7       C        0.98050    0.36540    0.32683    1.000
    C8       C        0.15050    0.33540    0.48830    1.000
    C9       C        0.01080    0.30740    0.23550    1.000
    H8       H        0.05430    0.36670    0.22910    1.000
    C10      C        0.88760    0.13550    0.24960    1.000
    H9       H        0.84530    0.07520    0.25500    1.000
    C11      C        0.34720    0.62620    0.33910    1.000
    H10      H        0.30830    0.68870    0.33620    1.000
    C12      C        0.76530    0.67860    0.53590    1.000
    H11      H        0.81130    0.72270    0.55630    1.000
    C13      C        0.18570    0.23930    0.56410    1.000
    H12      H        0.16930    0.22800    0.59960    1.000
    C14      C        0.08650    0.41510    0.45779    1.000
    C15      C        0.96620    0.28980    0.28350    1.000
    C16      C        0.57950    0.76780    0.56560    1.000
    C17      C        0.81910    0.60450    0.50590    1.000
    H13      H        0.90230    0.59870    0.50650    1.000
    C18      C        0.12480    0.31550    0.53870    1.000
    H14      H        0.06620    0.35290    0.55630    1.000
    C19      C        0.57890    0.62270    0.50510    1.000
    H15      H        0.49580    0.62830    0.50300    1.000
    C20      C        0.90190    0.20210    0.29130    1.000
    H16      H        0.86850    0.18760    0.32410    1.000
    C21      C        0.47090    0.62430    0.33940    1.000
    H17      H        0.51490    0.68430    0.33600    1.000
    C22      C        0.45870    0.44830    0.34897    1.000
    H18      H        0.49500    0.38500    0.35350    1.000
    C23      C        0.52690    0.53370    0.34475    1.000
    C24      C        0.65860    0.53020    0.35149    1.000
    Co3      Co       0.65568    0.55647    0.92199    1.000
    Co4      Co       0.40187    0.44608    0.86133    1.000
    O10      O        0.58370    0.42700    0.88498    1.000
    H19      H        0.58880    0.36960    0.90900    1.000
    H20      H        0.63170    0.41100    0.85420    1.000
    O11      O        0.02850    0.23050    0.06333    1.000
    O12      O        0.78040    0.39670    0.83633    1.000
    O13      O        0.80150    0.54900    0.87352    1.000
    O14      O        0.85400    0.17380    0.09254    1.000
    O15      O        0.57440    0.65050    0.86743    1.000
    O16      O        0.45080    0.56370    0.81623    1.000
    O17      O        0.35930    0.54650    0.92034    1.000
    O18      O        0.51580    0.56370    0.97309    1.000
    N5       N        0.23430    0.81800    0.04101    1.000
    N6       N        0.56830    0.84560    0.70251    1.000
    N7       N        0.74250    0.45790    0.97677    1.000
    N8       N        0.21740    0.45640    0.84269    1.000
    C25      C        0.16000    0.54440    0.84660    1.000
    H21      H        0.20510    0.60410    0.84780    1.000
    C26      C        0.21140    0.80180    0.99090    1.000
    H22      H        0.15530    0.84300    0.97400    1.000
    C27      C        0.50700    0.76040    0.69600    1.000
    H23      H        0.47460    0.74640    0.66300    1.000
    C28      C        0.26780    0.72510    0.96210    1.000
    H24      H        0.25110    0.71520    0.92660    1.000
    C29      C        0.86180    0.45040    0.97760    1.000
    H25      H        0.90650    0.49760    0.95840    1.000
    C30      C        0.85760    0.31340    0.03530    1.000
    C31      C        0.51950    0.63460    0.82683    1.000
    C32      C        0.34950    0.66460    0.98830    1.000
    C33      C        0.48920    0.69260    0.73550    1.000
    H26      H        0.44570    0.63330    0.72910    1.000
    C34      C        0.61240    0.86450    0.74960    1.000
    H27      H        0.65470    0.92480    0.75500    1.000
    C35      C        0.15280    0.37380    0.83910    1.000
    H28      H        0.19170    0.31130    0.83620    1.000
    C36      C        0.73470    0.32140    0.03590    1.000
    H29      H        0.68870    0.27730    0.05630    1.000
    C37      C        0.31430    0.76070    0.06410    1.000
    H30      H        0.33070    0.77200    0.09960    1.000
    C38      C        0.41350    0.58490    0.95779    1.000
    C39      C        0.53380    0.71020    0.78350    1.000
    C40      C        0.92050    0.23220    0.06560    1.000
    C41      C        0.68090    0.39550    0.00590    1.000
    H31      H        0.59770    0.40130    0.00650    1.000
    C42      C        0.37520    0.68450    0.03870    1.000
    H32      H        0.43380    0.64710    0.05630    1.000
    C43      C        0.92110    0.37730    0.00510    1.000
    H33      H        0.00420    0.37170    0.00300    1.000
    C44      C        0.59810    0.79790    0.79130    1.000
    H34      H        0.63150    0.81240    0.82410    1.000
    C45      C        0.02910    0.37570    0.83940    1.000
    H35      H        0.98510    0.31570    0.83600    1.000
    C46      C        0.04130    0.55170    0.84897    1.000
    H36      H        0.00500    0.61500    0.85350    1.000
    C47      C        0.97310    0.46630    0.84475    1.000
    C48      C        0.84140    0.46980    0.85149    1.000
    Co5      Co       0.15568    0.94353    0.07801    1.000
    Co6      Co       0.90187    0.05392    0.13867    1.000
    O19      O        0.08370    0.07300    0.11502    1.000
    H37      H        0.08880    0.13040    0.09100    1.000
    H38      H        0.13170    0.08900    0.14580    1.000
    O20      O        0.52850    0.26950    0.93667    1.000
    O21      O        0.28040    0.10330    0.16367    1.000
    O22      O        0.30150    0.95100    0.12648    1.000
    O23      O        0.35400    0.32620    0.90746    1.000
    O24      O        0.07440    0.84950    0.13257    1.000
    O25      O        0.95080    0.93630    0.18377    1.000
    O26      O        0.85930    0.95350    0.07966    1.000
    O27      O        0.01580    0.93630    0.02691    1.000
    N9       N        0.73430    0.68200    0.95899    1.000
    N10      N        0.06830    0.65440    0.29749    1.000
    N11      N        0.24250    0.04210    0.02323    1.000
    N12      N        0.71740    0.04360    0.15731    1.000
    C49      C        0.66000    0.95560    0.15340    1.000
    H39      H        0.70510    0.89590    0.15220    1.000
    C50      C        0.71140    0.69820    0.00910    1.000
    H40      H        0.65530    0.65700    0.02600    1.000
    C51      C        0.00700    0.73960    0.30400    1.000
    H41      H        0.97460    0.75360    0.33700    1.000
    C52      C        0.76780    0.77490    0.03790    1.000
    H42      H        0.75110    0.78480    0.07340    1.000
    C53      C        0.36180    0.04960    0.02240    1.000
    H43      H        0.40650    0.00240    0.04160    1.000
    C54      C        0.35760    0.18660    0.96470    1.000
    C55      C        0.01950    0.86540    0.17317    1.000
    C56      C        0.84950    0.83540    0.01170    1.000
    C57      C        0.98920    0.80740    0.26450    1.000
    H44      H        0.94570    0.86670    0.27090    1.000
    C58      C        0.11240    0.63550    0.25040    1.000
    H45      H        0.15470    0.57520    0.24500    1.000
    C59      C        0.65280    0.12620    0.16090    1.000
    H46      H        0.69170    0.18870    0.16380    1.000
    C60      C        0.23470    0.17860    0.96410    1.000
    H47      H        0.18870    0.22270    0.94370    1.000
    C61      C        0.81430    0.73930    0.93590    1.000
    H48      H        0.83070    0.72800    0.90040    1.000
    C62      C        0.91350    0.91510    0.04221    1.000
    C63      C        0.03380    0.78980    0.21650    1.000
    C64      C        0.42050    0.26780    0.93440    1.000
    C65      C        0.18090    0.10450    0.99410    1.000
    H49      H        0.09770    0.09870    0.99350    1.000
    C66      C        0.87520    0.81550    0.96130    1.000
    H50      H        0.93380    0.85290    0.94370    1.000
    C67      C        0.42110    0.12270    0.99490    1.000
    H51      H        0.50420    0.12830    0.99700    1.000
    C68      C        0.09810    0.70210    0.20870    1.000
    H52      H        0.13150    0.68760    0.17590    1.000
    C69      C        0.52910    0.12430    0.16060    1.000
    H53      H        0.48510    0.18430    0.16400    1.000
    C70      C        0.54130    0.94830    0.15103    1.000
    H54      H        0.50500    0.88500    0.14650    1.000
    C71      C        0.47310    0.03370    0.15525    1.000
    C72      C        0.34140    0.03020    0.14851    1.000
    Co7      Co       0.34432    0.05647    0.57801    1.000
    Co8      Co       0.59813    0.94608    0.63867    1.000
    O28      O        0.41630    0.92700    0.61502    1.000
    H55      H        0.41120    0.86960    0.59100    1.000
    H56      H        0.36830    0.91100    0.64580    1.000
    O29      O        0.97150    0.73050    0.43667    1.000
    O30      O        0.21960    0.89670    0.66367    1.000
    O31      O        0.19850    0.04900    0.62648    1.000
    O32      O        0.14600    0.67380    0.40746    1.000
    O33      O        0.42560    0.15050    0.63257    1.000
    O34      O        0.54920    0.06370    0.68377    1.000
    O35      O        0.64070    0.04650    0.57966    1.000
    O36      O        0.48420    0.06370    0.52691    1.000
    N13      N        0.76570    0.31800    0.45899    1.000
    N14      N        0.43170    0.34560    0.79749    1.000
    N15      N        0.25750    0.95790    0.52323    1.000
    N16      N        0.78260    0.95640    0.65731    1.000
    C73      C        0.84000    0.04440    0.65340    1.000
    H57      H        0.79490    0.10410    0.65220    1.000
    C74      C        0.78860    0.30180    0.50910    1.000
    H58      H        0.84470    0.34300    0.52600    1.000
    C75      C        0.49300    0.26040    0.80400    1.000
    H59      H        0.52540    0.24640    0.83700    1.000
    C76      C        0.73220    0.22510    0.53790    1.000
    H60      H        0.74890    0.21520    0.57340    1.000
    C77      C        0.13820    0.95040    0.52240    1.000
    H61      H        0.09350    0.99760    0.54160    1.000
    C78      C        0.14240    0.81340    0.46470    1.000
    C79      C        0.48050    0.13460    0.67317    1.000
    C80      C        0.65050    0.16460    0.51170    1.000
    C81      C        0.51080    0.19260    0.76450    1.000
    H62      H        0.55430    0.13330    0.77090    1.000
    C82      C        0.38760    0.36450    0.75040    1.000
    H63      H        0.34530    0.42480    0.74500    1.000
    C83      C        0.84720    0.87380    0.66090    1.000
    H64      H        0.80830    0.81130    0.66380    1.000
    C84      C        0.26530    0.82140    0.46410    1.000
    H65      H        0.31130    0.77730    0.44370    1.000
    C85      C        0.68570    0.26070    0.43590    1.000
    H66      H        0.66930    0.27200    0.40040    1.000
    C86      C        0.58650    0.08490    0.54221    1.000
    C87      C        0.46620    0.21020    0.71650    1.000
    C88      C        0.07950    0.73220    0.43440    1.000
    C89      C        0.31910    0.89550    0.49410    1.000
    H67      H        0.40230    0.90130    0.49350    1.000
    C90      C        0.62480    0.18450    0.46130    1.000
    H68      H        0.56620    0.14710    0.44370    1.000
    C91      C        0.07890    0.87730    0.49490    1.000
    H69      H        0.99580    0.87170    0.49700    1.000
    C92      C        0.40190    0.29790    0.70870    1.000
    H70      H        0.36850    0.31240    0.67590    1.000
    C93      C        0.97090    0.87570    0.66060    1.000
    H71      H        0.01490    0.81570    0.66400    1.000
    C94      C        0.95870    0.05170    0.65103    1.000
    H72      H        0.99500    0.11500    0.64650    1.000
    C95      C        0.02690    0.96630    0.65525    1.000
    C96      C        0.15860    0.96980    0.64851    1.000
