data_functionalizedCrystal
_audit_creation_method	'EQeq! by Chris Wilmer'
_symmetry_space_group_name_H-M	'P1'
_symmetry_Int_Tables_number	1
_symmetry_cell_setting	triclinic
loop_
_symmetry_equiv_pos_as_xyz
  x,y,z
_cell_length_a	38.027
_cell_length_b	19.03
_cell_length_c	19.7515
_cell_angle_alpha	90
_cell_angle_beta	104.123
_cell_angle_gamma	90
loop_
_atom_site_label
_atom_site_type_symbol
_atom_site_fract_x
_atom_site_fract_y
_atom_site_fract_z
_atom_site_charge
Mof_Zn	Zn	0.90116	0.3889	0.08891	1.231
Mof_Zn	Zn	0.89303	0.109	0.20344	1.212
Mof_Zn	Zn	0.811	0.41066	0.05121	1.217
Mof_C 	C 	0.9304	0.0567	0.104	0.34
Mof_C 	C 	0.9283	0.0319	0.0324	-0.096
Mof_C 	C 	0.9564	0.9915	0.022	0.006
Mof_H 	H 	0.9756	0.9811	0.0598	0.051
Mof_C 	C 	0.9568	0.966	0.9568	-0.047
Mof_H 	H 	0.9764	0.9395	0.951	0.07
Mof_C 	C 	0.9281	0.9797	0.8998	-0.039
Mof_C 	C 	0.89877	0.0205	0.9105	-0.068
Mof_H 	H 	0.8792	0.0295	0.8729	0.071
Mof_C 	C 	0.89851	0.047	0.9749	0.056
Mof_C 	C 	0.9278	0.9531	0.8284	0.338
Mof_C 	C 	0.86703	0.09	0.9815	-0.005
Mof_C 	C 	0.87258	0.1588	0.0079	-0.02
Mof_H 	H 	0.896	0.1766	0.0219	0.055
Mof_C 	C 	0.84322	0.2004	0.0133	-0.107
Mof_C 	C 	0.80832	0.1718	0.9948	0.023
Mof_H 	H 	0.7887	0.1986	0.0001	0.055
Mof_C 	C 	0.80254	0.1049	0.9688	-0.085
Mof_C 	C 	0.83264	0.064	0.9612	-0.024
Mof_H 	H 	0.8288	0.0192	0.9421	0.057
Mof_C 	C 	0.84841	0.2741	0.0413	0.398
Mof_C 	C 	0.7656	0.0733	0.952	0.339
Mof_C 	C 	0.93608	0.2243	0.248	0.336
Mof_C 	C 	0.94389	0.2955	0.2813	-0.066
Mof_C 	C 	0.97955	0.3156	0.3104	0.008
Mof_H 	H 	0.9985	0.2845	0.3107	0.072
Mof_C 	C 	0.98691	0.383	0.3394	-0.065
Mof_C 	C 	0.95752	0.4284	0.3388	-0.023
Mof_H 	H 	0.9622	0.4738	0.3562	0.063
Mof_C 	C 	0.92214	0.4072	0.3131	-0.001
Mof_C 	C 	0.91496	0.3408	0.2827	-0.03
Mof_H 	H 	0.8912	0.3268	0.2635	0.055
Mof_C 	C 	0.02464	0.406	0.3689	0.332
Mof_C 	C 	0.89095	0.4539	0.3166	0.073
Mof_C 	C 	0.89011	0.4829	0.3796	-0.079
Mof_H 	H 	0.9096	0.4756	0.4179	0.081
Mof_C 	C 	0.861	0.5229	0.388	-0.034
Mof_C 	C 	0.8319	0.5338	0.3314	-0.058
Mof_H 	H 	0.8124	0.5609	0.3363	0.066
Mof_C 	C 	0.8321	0.5041	0.267	0.029
Mof_H 	H 	0.8125	0.5111	0.2289	0.031
Mof_C 	C 	0.86132	0.464	0.2597	-0.129
Mof_C 	C 	0.8604	0.5521	0.46	0.362
Mof_C 	C 	0.8603	0.4363	0.1875	0.422
Mof_O 	O 	0.89988	0.0589	0.1232	-0.457
Mof_O 	O 	0.95968	0.0708	0.1415	-0.248
Mof_O 	O 	0.89783	0.9498	0.7855	-0.466
Mof_O 	O 	0.95663	0.9347	0.817	-0.255
Mof_O 	O 	0.82085	0.3066	0.0461	-0.455
Mof_O 	O 	0.88031	0.2978	0.0569	-0.484
Mof_O 	O 	0.74055	0.1099	0.9655	-0.442
Mof_O 	O 	0.76092	0.0129	0.9256	-0.288
Mof_O 	O 	0.90315	0.2062	0.2279	-0.471
Mof_O 	O 	0.96145	0.1889	0.2401	-0.252
Mof_O 	O 	0.03122	0.4692	0.38	-0.278
Mof_O 	O 	0.0492	0.3591	0.3793	-0.432
Mof_O 	O 	0.83041	0.4136	0.1534	-0.499
Mof_O 	O 	0.88766	0.4406	0.1653	-0.502
Mof_O 	O 	0.83014	0.5747	0.4655	-0.48
Mof_O 	O 	0.88965	0.5511	0.5053	-0.475
Mof_Zn	Zn	0.40116	0.8889	0.08891	1.232
Mof_Zn	Zn	0.39303	0.609	0.20344	1.213
Mof_Zn	Zn	0.311	0.91066	0.05121	1.218
Mof_C 	C 	0.4304	0.5567	0.104	0.341
Mof_C 	C 	0.4283	0.5319	0.0324	-0.096
Mof_C 	C 	0.4564	0.4915	0.022	0.009
Mof_H 	H 	0.4756	0.4811	0.0598	0.052
Mof_C 	C 	0.4568	0.466	0.9568	-0.047
Mof_H 	H 	0.4764	0.4395	0.951	0.071
Mof_C 	C 	0.4281	0.4797	0.8998	-0.037
Mof_C 	C 	0.39877	0.5205	0.9105	-0.068
Mof_H 	H 	0.3792	0.5295	0.8729	0.072
Mof_C 	C 	0.39851	0.547	0.9749	0.057
Mof_C 	C 	0.4278	0.4531	0.8284	0.338
Mof_C 	C 	0.36703	0.59	0.9815	-0.005
Mof_C 	C 	0.37258	0.6588	0.0079	-0.019
Mof_H 	H 	0.396	0.6766	0.0219	0.055
Mof_C 	C 	0.34322	0.7004	0.0133	-0.108
Mof_C 	C 	0.30832	0.6718	0.9948	0.024
Mof_H 	H 	0.2887	0.6986	0.0001	0.055
Mof_C 	C 	0.30254	0.6049	0.9688	-0.085
Mof_C 	C 	0.33264	0.564	0.9612	-0.023
Mof_H 	H 	0.3288	0.5192	0.9421	0.057
Mof_C 	C 	0.34841	0.7741	0.0413	0.398
Mof_C 	C 	0.2656	0.5733	0.952	0.339
Mof_C 	C 	0.43608	0.7243	0.248	0.336
Mof_C 	C 	0.44389	0.7955	0.2813	-0.066
Mof_C 	C 	0.47955	0.8156	0.3104	0.008
Mof_H 	H 	0.4985	0.7845	0.3107	0.072
Mof_C 	C 	0.48691	0.883	0.3394	-0.065
Mof_C 	C 	0.45752	0.9284	0.3388	-0.023
Mof_H 	H 	0.4622	0.9738	0.3562	0.063
Mof_C 	C 	0.42214	0.9072	0.3131	-0.001
Mof_C 	C 	0.41496	0.8408	0.2827	-0.03
Mof_H 	H 	0.3912	0.8268	0.2635	0.055
Mof_C 	C 	0.52464	0.906	0.3689	0.332
Mof_C 	C 	0.39095	0.9539	0.3166	0.073
Mof_C 	C 	0.39011	0.9829	0.3796	-0.079
Mof_H 	H 	0.4096	0.9756	0.4179	0.081
Mof_C 	C 	0.361	0.0229	0.388	-0.034
Mof_C 	C 	0.3319	0.0338	0.3314	-0.059
Mof_H 	H 	0.3124	0.0609	0.3363	0.066
Mof_C 	C 	0.3321	0.0041	0.267	0.029
Mof_H 	H 	0.3125	0.0111	0.2289	0.031
Mof_C 	C 	0.36132	0.964	0.2597	-0.13
Mof_C 	C 	0.3604	0.0521	0.46	0.362
Mof_C 	C 	0.3603	0.9363	0.1875	0.422
Mof_O 	O 	0.39988	0.5589	0.1232	-0.457
Mof_O 	O 	0.45968	0.5708	0.1415	-0.248
Mof_O 	O 	0.39783	0.4498	0.7855	-0.466
Mof_O 	O 	0.45663	0.4347	0.817	-0.255
Mof_O 	O 	0.32085	0.8066	0.0461	-0.455
Mof_O 	O 	0.38031	0.7978	0.0569	-0.484
Mof_O 	O 	0.24055	0.6099	0.9655	-0.442
Mof_O 	O 	0.26092	0.5129	0.9256	-0.287
Mof_O 	O 	0.40315	0.7062	0.2279	-0.471
Mof_O 	O 	0.46145	0.6889	0.2401	-0.252
Mof_O 	O 	0.53122	0.9692	0.38	-0.278
Mof_O 	O 	0.5492	0.8591	0.3793	-0.432
Mof_O 	O 	0.33041	0.9136	0.1534	-0.499
Mof_O 	O 	0.38766	0.9406	0.1653	-0.503
Mof_O 	O 	0.33014	0.0747	0.4655	-0.48
Mof_O 	O 	0.38965	0.0511	0.5053	-0.475
Mof_Zn	Zn	0.09884	0.3889	0.41109	1.232
Mof_Zn	Zn	0.10697	0.109	0.29656	1.213
Mof_Zn	Zn	0.189	0.41066	0.44879	1.218
Mof_C 	C 	0.0696	0.0567	0.396	0.341
Mof_C 	C 	0.0717	0.0319	0.4676	-0.096
Mof_C 	C 	0.0436	0.9915	0.478	0.009
Mof_H 	H 	0.0244	0.9811	0.4402	0.052
Mof_C 	C 	0.0432	0.966	0.5432	-0.047
Mof_H 	H 	0.0236	0.9395	0.549	0.071
Mof_C 	C 	0.0719	0.9797	0.6002	-0.037
Mof_C 	C 	0.10123	0.0205	0.5895	-0.068
Mof_H 	H 	0.1208	0.0295	0.6271	0.072
Mof_C 	C 	0.10149	0.047	0.5251	0.057
Mof_C 	C 	0.0722	0.9531	0.6716	0.338
Mof_C 	C 	0.13297	0.09	0.5185	-0.005
Mof_C 	C 	0.12742	0.1588	0.4921	-0.019
Mof_H 	H 	0.104	0.1766	0.4781	0.055
Mof_C 	C 	0.15678	0.2004	0.4867	-0.108
Mof_C 	C 	0.19168	0.1718	0.5052	0.024
Mof_H 	H 	0.2113	0.1986	0.4999	0.055
Mof_C 	C 	0.19746	0.1049	0.5312	-0.085
Mof_C 	C 	0.16736	0.064	0.5388	-0.023
Mof_H 	H 	0.1712	0.0192	0.5579	0.057
Mof_C 	C 	0.15159	0.2741	0.4587	0.398
Mof_C 	C 	0.2344	0.0733	0.548	0.339
Mof_C 	C 	0.06392	0.2243	0.252	0.336
Mof_C 	C 	0.05611	0.2955	0.2187	-0.066
Mof_C 	C 	0.02045	0.3156	0.1896	0.008
Mof_H 	H 	0.0015	0.2845	0.1893	0.072
Mof_C 	C 	0.01309	0.383	0.1606	-0.065
Mof_C 	C 	0.04248	0.4284	0.1612	-0.023
Mof_H 	H 	0.0378	0.4738	0.1438	0.063
Mof_C 	C 	0.07786	0.4072	0.1869	-0.001
Mof_C 	C 	0.08504	0.3408	0.2173	-0.03
Mof_H 	H 	0.1088	0.3268	0.2365	0.055
Mof_C 	C 	0.97536	0.406	0.1311	0.332
Mof_C 	C 	0.10905	0.4539	0.1834	0.073
Mof_C 	C 	0.10989	0.4829	0.1204	-0.079
Mof_H 	H 	0.0904	0.4756	0.0821	0.081
Mof_C 	C 	0.139	0.5229	0.112	-0.034
Mof_C 	C 	0.1681	0.5338	0.1686	-0.058
Mof_H 	H 	0.1876	0.5609	0.1637	0.066
Mof_C 	C 	0.1679	0.5041	0.233	0.029
Mof_H 	H 	0.1875	0.5111	0.2711	0.031
Mof_C 	C 	0.13868	0.464	0.2403	-0.129
Mof_C 	C 	0.1396	0.5521	0.04	0.362
Mof_C 	C 	0.1397	0.4363	0.3125	0.422
Mof_O 	O 	0.10012	0.0589	0.3768	-0.457
Mof_O 	O 	0.04032	0.0708	0.3585	-0.248
Mof_O 	O 	0.10217	0.9498	0.7145	-0.466
Mof_O 	O 	0.04337	0.9347	0.683	-0.255
Mof_O 	O 	0.17915	0.3066	0.4539	-0.455
Mof_O 	O 	0.11969	0.2978	0.4431	-0.484
Mof_O 	O 	0.25945	0.1099	0.5345	-0.442
Mof_O 	O 	0.23908	0.0129	0.5744	-0.288
Mof_O 	O 	0.09685	0.2062	0.2721	-0.471
Mof_O 	O 	0.03855	0.1889	0.2599	-0.252
Mof_O 	O 	0.96878	0.4692	0.12	-0.278
Mof_O 	O 	0.9508	0.3591	0.1207	-0.432
Mof_O 	O 	0.16959	0.4136	0.3466	-0.499
Mof_O 	O 	0.11234	0.4406	0.3347	-0.502
Mof_O 	O 	0.16986	0.5747	0.0345	-0.48
Mof_O 	O 	0.11035	0.5511	0.9947	-0.475
Mof_Zn	Zn	0.59884	0.8889	0.41109	1.232
Mof_Zn	Zn	0.60697	0.609	0.29656	1.213
Mof_Zn	Zn	0.689	0.91066	0.44879	1.218
Mof_C 	C 	0.5696	0.5567	0.396	0.341
Mof_C 	C 	0.5717	0.5319	0.4676	-0.096
Mof_C 	C 	0.5436	0.4915	0.478	0.009
Mof_H 	H 	0.5244	0.4811	0.4402	0.052
Mof_C 	C 	0.5432	0.466	0.5432	-0.047
Mof_H 	H 	0.5236	0.4395	0.549	0.071
Mof_C 	C 	0.5719	0.4797	0.6002	-0.037
Mof_C 	C 	0.60123	0.5205	0.5895	-0.068
Mof_H 	H 	0.6208	0.5295	0.6271	0.072
Mof_C 	C 	0.60149	0.547	0.5251	0.057
Mof_C 	C 	0.5722	0.4531	0.6716	0.338
Mof_C 	C 	0.63297	0.59	0.5185	-0.005
Mof_C 	C 	0.62742	0.6588	0.4921	-0.02
Mof_H 	H 	0.604	0.6766	0.4781	0.055
Mof_C 	C 	0.65678	0.7004	0.4867	-0.108
Mof_C 	C 	0.69168	0.6718	0.5052	0.024
Mof_H 	H 	0.7113	0.6986	0.4999	0.055
Mof_C 	C 	0.69746	0.6049	0.5312	-0.085
Mof_C 	C 	0.66736	0.564	0.5388	-0.024
Mof_H 	H 	0.6712	0.5192	0.5579	0.057
Mof_C 	C 	0.65159	0.7741	0.4587	0.398
Mof_C 	C 	0.7344	0.5733	0.548	0.339
Mof_C 	C 	0.56392	0.7243	0.252	0.336
Mof_C 	C 	0.55611	0.7955	0.2187	-0.066
Mof_C 	C 	0.52045	0.8156	0.1896	0.008
Mof_H 	H 	0.5015	0.7845	0.1893	0.072
Mof_C 	C 	0.51309	0.883	0.1606	-0.065
Mof_C 	C 	0.54248	0.9284	0.1612	-0.023
Mof_H 	H 	0.5378	0.9738	0.1438	0.063
Mof_C 	C 	0.57786	0.9072	0.1869	-0.001
Mof_C 	C 	0.58504	0.8408	0.2173	-0.03
Mof_H 	H 	0.6088	0.8268	0.2365	0.055
Mof_C 	C 	0.47536	0.906	0.1311	0.332
Mof_C 	C 	0.60905	0.9539	0.1834	0.073
Mof_C 	C 	0.60989	0.9829	0.1204	-0.08
Mof_H 	H 	0.5904	0.9756	0.0821	0.081
Mof_C 	C 	0.639	0.0229	0.112	-0.034
Mof_C 	C 	0.6681	0.0338	0.1686	-0.059
Mof_H 	H 	0.6876	0.0609	0.1637	0.066
Mof_C 	C 	0.6679	0.0041	0.233	0.029
Mof_H 	H 	0.6875	0.0111	0.2711	0.031
Mof_C 	C 	0.63868	0.964	0.2403	-0.13
Mof_C 	C 	0.6396	0.0521	0.04	0.362
Mof_C 	C 	0.6397	0.9363	0.3125	0.422
Mof_O 	O 	0.60012	0.5589	0.3768	-0.457
Mof_O 	O 	0.54032	0.5708	0.3585	-0.248
Mof_O 	O 	0.60217	0.4498	0.7145	-0.466
Mof_O 	O 	0.54337	0.4347	0.683	-0.255
Mof_O 	O 	0.67915	0.8066	0.4539	-0.455
Mof_O 	O 	0.61969	0.7978	0.4431	-0.484
Mof_O 	O 	0.75945	0.6099	0.5345	-0.442
Mof_O 	O 	0.73908	0.5129	0.5744	-0.287
Mof_O 	O 	0.59685	0.7062	0.2721	-0.471
Mof_O 	O 	0.53855	0.6889	0.2599	-0.252
Mof_O 	O 	0.46878	0.9692	0.12	-0.278
Mof_O 	O 	0.4508	0.8591	0.1207	-0.432
Mof_O 	O 	0.66959	0.9136	0.3466	-0.499
Mof_O 	O 	0.61234	0.9406	0.3347	-0.503
Mof_O 	O 	0.66986	0.0747	0.0345	-0.48
Mof_O 	O 	0.61035	0.0511	0.9947	-0.475
Mof_Zn	Zn	0.09884	0.6111	0.91109	1.232
Mof_Zn	Zn	0.10697	0.891	0.79656	1.213
Mof_Zn	Zn	0.189	0.58934	0.94879	1.218
Mof_C 	C 	0.0696	0.9433	0.896	0.341
Mof_C 	C 	0.0717	0.9681	0.9676	-0.095
Mof_C 	C 	0.0436	0.0085	0.978	0.007
Mof_H 	H 	0.0244	0.0189	0.9402	0.052
Mof_C 	C 	0.0432	0.034	0.0432	-0.046
Mof_H 	H 	0.0236	0.0605	0.049	0.071
Mof_C 	C 	0.0719	0.0203	0.1002	-0.038
Mof_C 	C 	0.10123	0.9795	0.0895	-0.067
Mof_H 	H 	0.1208	0.9705	0.1271	0.072
Mof_C 	C 	0.10149	0.953	0.0251	0.056
Mof_C 	C 	0.0722	0.0469	0.1716	0.338
Mof_C 	C 	0.13297	0.91	0.0185	-0.005
Mof_C 	C 	0.12742	0.8412	0.9921	-0.02
Mof_H 	H 	0.104	0.8234	0.9781	0.055
Mof_C 	C 	0.15678	0.7996	0.9867	-0.107
Mof_C 	C 	0.19168	0.8282	0.0052	0.023
Mof_H 	H 	0.2113	0.8014	0.9999	0.055
Mof_C 	C 	0.19746	0.8951	0.0312	-0.085
Mof_C 	C 	0.16736	0.936	0.0388	-0.024
Mof_H 	H 	0.1712	0.9808	0.0579	0.057
Mof_C 	C 	0.15159	0.7259	0.9587	0.398
Mof_C 	C 	0.2344	0.9267	0.048	0.339
Mof_C 	C 	0.06392	0.7757	0.752	0.336
Mof_C 	C 	0.05611	0.7045	0.7187	-0.066
Mof_C 	C 	0.02045	0.6844	0.6896	0.008
Mof_H 	H 	0.0015	0.7155	0.6893	0.072
Mof_C 	C 	0.01309	0.617	0.6606	-0.065
Mof_C 	C 	0.04248	0.5716	0.6612	-0.023
Mof_H 	H 	0.0378	0.5262	0.6438	0.063
Mof_C 	C 	0.07786	0.5928	0.6869	-0.001
Mof_C 	C 	0.08504	0.6592	0.7173	-0.03
Mof_H 	H 	0.1088	0.6732	0.7365	0.055
Mof_C 	C 	0.97536	0.594	0.6311	0.332
Mof_C 	C 	0.10905	0.5461	0.6834	0.073
Mof_C 	C 	0.10989	0.5171	0.6204	-0.079
Mof_H 	H 	0.0904	0.5244	0.5821	0.081
Mof_C 	C 	0.139	0.4771	0.612	-0.034
Mof_C 	C 	0.1681	0.4662	0.6686	-0.058
Mof_H 	H 	0.1876	0.4391	0.6637	0.066
Mof_C 	C 	0.1679	0.4959	0.733	0.029
Mof_H 	H 	0.1875	0.4889	0.7711	0.031
Mof_C 	C 	0.13868	0.536	0.7403	-0.129
Mof_C 	C 	0.1396	0.4479	0.54	0.362
Mof_C 	C 	0.1397	0.5637	0.8125	0.422
Mof_O 	O 	0.10012	0.9411	0.8768	-0.457
Mof_O 	O 	0.04032	0.9292	0.8585	-0.248
Mof_O 	O 	0.10217	0.0502	0.2145	-0.466
Mof_O 	O 	0.04337	0.0653	0.183	-0.255
Mof_O 	O 	0.17915	0.6934	0.9539	-0.455
Mof_O 	O 	0.11969	0.7022	0.9431	-0.484
Mof_O 	O 	0.25945	0.8901	0.0345	-0.442
Mof_O 	O 	0.23908	0.9871	0.0744	-0.288
Mof_O 	O 	0.09685	0.7938	0.7721	-0.471
Mof_O 	O 	0.03855	0.8111	0.7599	-0.252
Mof_O 	O 	0.96878	0.5308	0.62	-0.278
Mof_O 	O 	0.9508	0.6409	0.6207	-0.432
Mof_O 	O 	0.16959	0.5864	0.8466	-0.499
Mof_O 	O 	0.11234	0.5594	0.8347	-0.502
Mof_O 	O 	0.16986	0.4253	0.5345	-0.48
Mof_O 	O 	0.11035	0.4489	0.4947	-0.475
Mof_Zn	Zn	0.59884	0.1111	0.91109	1.232
Mof_Zn	Zn	0.60697	0.391	0.79656	1.213
Mof_Zn	Zn	0.689	0.08934	0.94879	1.218
Mof_C 	C 	0.5696	0.4433	0.896	0.341
Mof_C 	C 	0.5717	0.4681	0.9676	-0.096
Mof_C 	C 	0.5436	0.5085	0.978	0.009
Mof_H 	H 	0.5244	0.5189	0.9402	0.052
Mof_C 	C 	0.5432	0.534	0.0432	-0.047
Mof_H 	H 	0.5236	0.5605	0.049	0.071
Mof_C 	C 	0.5719	0.5203	0.1002	-0.037
Mof_C 	C 	0.60123	0.4795	0.0895	-0.068
Mof_H 	H 	0.6208	0.4705	0.1271	0.072
Mof_C 	C 	0.60149	0.453	0.0251	0.057
Mof_C 	C 	0.5722	0.5469	0.1716	0.338
Mof_C 	C 	0.63297	0.41	0.0185	-0.005
Mof_C 	C 	0.62742	0.3412	0.9921	-0.019
Mof_H 	H 	0.604	0.3234	0.9781	0.055
Mof_C 	C 	0.65678	0.2996	0.9867	-0.108
Mof_C 	C 	0.69168	0.3282	0.0052	0.024
Mof_H 	H 	0.7113	0.3014	0.9999	0.055
Mof_C 	C 	0.69746	0.3951	0.0312	-0.085
Mof_C 	C 	0.66736	0.436	0.0388	-0.023
Mof_H 	H 	0.6712	0.4808	0.0579	0.057
Mof_C 	C 	0.65159	0.2259	0.9587	0.398
Mof_C 	C 	0.7344	0.4267	0.048	0.339
Mof_C 	C 	0.56392	0.2757	0.752	0.336
Mof_C 	C 	0.55611	0.2045	0.7187	-0.066
Mof_C 	C 	0.52045	0.1844	0.6896	0.008
Mof_H 	H 	0.5015	0.2155	0.6893	0.072
Mof_C 	C 	0.51309	0.117	0.6606	-0.065
Mof_C 	C 	0.54248	0.0716	0.6612	-0.023
Mof_H 	H 	0.5378	0.0262	0.6438	0.063
Mof_C 	C 	0.57786	0.0928	0.6869	-0.001
Mof_C 	C 	0.58504	0.1592	0.7173	-0.03
Mof_H 	H 	0.6088	0.1732	0.7365	0.055
Mof_C 	C 	0.47536	0.094	0.6311	0.332
Mof_C 	C 	0.60905	0.0461	0.6834	0.073
Mof_C 	C 	0.60989	0.0171	0.6204	-0.079
Mof_H 	H 	0.5904	0.0244	0.5821	0.081
Mof_C 	C 	0.639	0.9771	0.612	-0.034
Mof_C 	C 	0.6681	0.9662	0.6686	-0.059
Mof_H 	H 	0.6876	0.9391	0.6637	0.066
Mof_C 	C 	0.6679	0.9959	0.733	0.029
Mof_H 	H 	0.6875	0.9889	0.7711	0.031
Mof_C 	C 	0.63868	0.036	0.7403	-0.13
Mof_C 	C 	0.6396	0.9479	0.54	0.362
Mof_C 	C 	0.6397	0.0637	0.8125	0.422
Mof_O 	O 	0.60012	0.4411	0.8768	-0.457
Mof_O 	O 	0.54032	0.4292	0.8585	-0.248
Mof_O 	O 	0.60217	0.5502	0.2145	-0.466
Mof_O 	O 	0.54337	0.5653	0.183	-0.255
Mof_O 	O 	0.67915	0.1934	0.9539	-0.455
Mof_O 	O 	0.61969	0.2022	0.9431	-0.484
Mof_O 	O 	0.75945	0.3901	0.0345	-0.442
Mof_O 	O 	0.73908	0.4871	0.0744	-0.287
Mof_O 	O 	0.59685	0.2938	0.7721	-0.471
Mof_O 	O 	0.53855	0.3111	0.7599	-0.252
Mof_O 	O 	0.46878	0.0308	0.62	-0.278
Mof_O 	O 	0.4508	0.1409	0.6207	-0.432
Mof_O 	O 	0.66959	0.0864	0.8466	-0.499
Mof_O 	O 	0.61234	0.0594	0.8347	-0.503
Mof_O 	O 	0.66986	0.9253	0.5345	-0.48
Mof_O 	O 	0.61035	0.9489	0.4947	-0.475
Mof_Zn	Zn	0.90116	0.6111	0.58891	1.232
Mof_Zn	Zn	0.89303	0.891	0.70344	1.213
Mof_Zn	Zn	0.811	0.58934	0.55121	1.218
Mof_C 	C 	0.9304	0.9433	0.604	0.341
Mof_C 	C 	0.9283	0.9681	0.5324	-0.096
Mof_C 	C 	0.9564	0.0085	0.522	0.009
Mof_H 	H 	0.9756	0.0189	0.5598	0.052
Mof_C 	C 	0.9568	0.034	0.4568	-0.047
Mof_H 	H 	0.9764	0.0605	0.451	0.071
Mof_C 	C 	0.9281	0.0203	0.3998	-0.037
Mof_C 	C 	0.89877	0.9795	0.4105	-0.068
Mof_H 	H 	0.8792	0.9705	0.3729	0.072
Mof_C 	C 	0.89851	0.953	0.4749	0.057
Mof_C 	C 	0.9278	0.0469	0.3284	0.338
Mof_C 	C 	0.86703	0.91	0.4815	-0.005
Mof_C 	C 	0.87258	0.8412	0.5079	-0.019
Mof_H 	H 	0.896	0.8234	0.5219	0.055
Mof_C 	C 	0.84322	0.7996	0.5133	-0.108
Mof_C 	C 	0.80832	0.8282	0.4948	0.024
Mof_H 	H 	0.7887	0.8014	0.5001	0.055
Mof_C 	C 	0.80254	0.8951	0.4688	-0.085
Mof_C 	C 	0.83264	0.936	0.4612	-0.023
Mof_H 	H 	0.8288	0.9808	0.4421	0.057
Mof_C 	C 	0.84841	0.7259	0.5413	0.398
Mof_C 	C 	0.7656	0.9267	0.452	0.339
Mof_C 	C 	0.93608	0.7757	0.748	0.336
Mof_C 	C 	0.94389	0.7045	0.7813	-0.066
Mof_C 	C 	0.97955	0.6844	0.8104	0.008
Mof_H 	H 	0.9985	0.7155	0.8107	0.072
Mof_C 	C 	0.98691	0.617	0.8394	-0.065
Mof_C 	C 	0.95752	0.5716	0.8388	-0.023
Mof_H 	H 	0.9622	0.5262	0.8562	0.063
Mof_C 	C 	0.92214	0.5928	0.8131	-0.001
Mof_C 	C 	0.91496	0.6592	0.7827	-0.03
Mof_H 	H 	0.8912	0.6732	0.7635	0.055
Mof_C 	C 	0.02464	0.594	0.8689	0.332
Mof_C 	C 	0.89095	0.5461	0.8166	0.073
Mof_C 	C 	0.89011	0.5171	0.8796	-0.079
Mof_H 	H 	0.9096	0.5244	0.9179	0.081
Mof_C 	C 	0.861	0.4771	0.888	-0.034
Mof_C 	C 	0.8319	0.4662	0.8314	-0.058
Mof_H 	H 	0.8124	0.4391	0.8363	0.066
Mof_C 	C 	0.8321	0.4959	0.767	0.029
Mof_H 	H 	0.8125	0.4889	0.7289	0.031
Mof_C 	C 	0.86132	0.536	0.7597	-0.129
Mof_C 	C 	0.8604	0.4479	0.96	0.362
Mof_C 	C 	0.8603	0.5637	0.6875	0.422
Mof_O 	O 	0.89988	0.9411	0.6232	-0.457
Mof_O 	O 	0.95968	0.9292	0.6415	-0.248
Mof_O 	O 	0.89783	0.0502	0.2855	-0.466
Mof_O 	O 	0.95663	0.0653	0.317	-0.255
Mof_O 	O 	0.82085	0.6934	0.5461	-0.455
Mof_O 	O 	0.88031	0.7022	0.5569	-0.484
Mof_O 	O 	0.74055	0.8901	0.4655	-0.442
Mof_O 	O 	0.76092	0.9871	0.4256	-0.288
Mof_O 	O 	0.90315	0.7938	0.7279	-0.471
Mof_O 	O 	0.96145	0.8111	0.7401	-0.252
Mof_O 	O 	0.03122	0.5308	0.88	-0.278
Mof_O 	O 	0.0492	0.6409	0.8793	-0.432
Mof_O 	O 	0.83041	0.5864	0.6534	-0.499
Mof_O 	O 	0.88766	0.5594	0.6653	-0.502
Mof_O 	O 	0.83014	0.4253	0.9655	-0.48
Mof_O 	O 	0.88965	0.4489	0.0053	-0.475
Mof_Zn	Zn	0.40116	0.1111	0.58891	1.232
Mof_Zn	Zn	0.39303	0.391	0.70344	1.213
Mof_Zn	Zn	0.311	0.08934	0.55121	1.218
Mof_C 	C 	0.4304	0.4433	0.604	0.341
Mof_C 	C 	0.4283	0.4681	0.5324	-0.096
Mof_C 	C 	0.4564	0.5085	0.522	0.009
Mof_H 	H 	0.4756	0.5189	0.5598	0.052
Mof_C 	C 	0.4568	0.534	0.4568	-0.047
Mof_H 	H 	0.4764	0.5605	0.451	0.071
Mof_C 	C 	0.4281	0.5203	0.3998	-0.037
Mof_C 	C 	0.39877	0.4795	0.4105	-0.068
Mof_H 	H 	0.3792	0.4705	0.3729	0.072
Mof_C 	C 	0.39851	0.453	0.4749	0.057
Mof_C 	C 	0.4278	0.5469	0.3284	0.338
Mof_C 	C 	0.36703	0.41	0.4815	-0.005
Mof_C 	C 	0.37258	0.3412	0.5079	-0.02
Mof_H 	H 	0.396	0.3234	0.5219	0.055
Mof_C 	C 	0.34322	0.2996	0.5133	-0.108
Mof_C 	C 	0.30832	0.3282	0.4948	0.024
Mof_H 	H 	0.2887	0.3014	0.5001	0.055
Mof_C 	C 	0.30254	0.3951	0.4688	-0.085
Mof_C 	C 	0.33264	0.436	0.4612	-0.024
Mof_H 	H 	0.3288	0.4808	0.4421	0.057
Mof_C 	C 	0.34841	0.2259	0.5413	0.398
Mof_C 	C 	0.2656	0.4267	0.452	0.339
Mof_C 	C 	0.43608	0.2757	0.748	0.336
Mof_C 	C 	0.44389	0.2045	0.7813	-0.066
Mof_C 	C 	0.47955	0.1844	0.8104	0.008
Mof_H 	H 	0.4985	0.2155	0.8107	0.072
Mof_C 	C 	0.48691	0.117	0.8394	-0.065
Mof_C 	C 	0.45752	0.0716	0.8388	-0.023
Mof_H 	H 	0.4622	0.0262	0.8562	0.063
Mof_C 	C 	0.42214	0.0928	0.8131	-0.001
Mof_C 	C 	0.41496	0.1592	0.7827	-0.03
Mof_H 	H 	0.3912	0.1732	0.7635	0.055
Mof_C 	C 	0.52464	0.094	0.8689	0.332
Mof_C 	C 	0.39095	0.0461	0.8166	0.073
Mof_C 	C 	0.39011	0.0171	0.8796	-0.08
Mof_H 	H 	0.4096	0.0244	0.9179	0.081
Mof_C 	C 	0.361	0.9771	0.888	-0.034
Mof_C 	C 	0.3319	0.9662	0.8314	-0.059
Mof_H 	H 	0.3124	0.9391	0.8363	0.066
Mof_C 	C 	0.3321	0.9959	0.767	0.029
Mof_H 	H 	0.3125	0.9889	0.7289	0.031
Mof_C 	C 	0.36132	0.036	0.7597	-0.13
Mof_C 	C 	0.3604	0.9479	0.96	0.362
Mof_C 	C 	0.3603	0.0637	0.6875	0.422
Mof_O 	O 	0.39988	0.4411	0.6232	-0.457
Mof_O 	O 	0.45968	0.4292	0.6415	-0.248
Mof_O 	O 	0.39783	0.5502	0.2855	-0.466
Mof_O 	O 	0.45663	0.5653	0.317	-0.255
Mof_O 	O 	0.32085	0.1934	0.5461	-0.455
Mof_O 	O 	0.38031	0.2022	0.5569	-0.484
Mof_O 	O 	0.24055	0.3901	0.4655	-0.442
Mof_O 	O 	0.26092	0.4871	0.4256	-0.287
Mof_O 	O 	0.40315	0.2938	0.7279	-0.471
Mof_O 	O 	0.46145	0.3111	0.7401	-0.252
Mof_O 	O 	0.53122	0.0308	0.88	-0.278
Mof_O 	O 	0.5492	0.1409	0.8793	-0.432
Mof_O 	O 	0.33041	0.0864	0.6534	-0.499
Mof_O 	O 	0.38766	0.0594	0.6653	-0.503
Mof_O 	O 	0.33014	0.9253	0.9655	-0.48
Mof_O 	O 	0.38965	0.9489	0.0053	-0.475
_end
