data_functionalizedCrystal
_audit_creation_method	'EQeq! by Chris Wilmer'
_symmetry_space_group_name_H-M	'P1'
_symmetry_Int_Tables_number	1
_symmetry_cell_setting	triclinic
loop_
_symmetry_equiv_pos_as_xyz
  x,y,z
_cell_length_a	13.135
_cell_length_b	14.855
_cell_length_c	15.39
_cell_angle_alpha	90
_cell_angle_beta	91.13
_cell_angle_gamma	90
loop_
_atom_site_label
_atom_site_type_symbol
_atom_site_fract_x
_atom_site_fract_y
_atom_site_fract_z
_atom_site_charge
Mof_Cu	Cu	0.98225	0.70819	0.09707	0.869
Mof_Cu	Cu	-0	0.5	-0	0.841
Mof_Cu	Cu	0.51775	0.20819	0.40293	0.86
Mof_Cu	Cu	0.01775	0.29181	0.90293	0.853
Mof_Cu	Cu	0.48225	0.79181	0.59707	0.865
Mof_Cu	Cu	0.5	0	0.5	0.858
Mof_H 	H 	0.5981	0.6307	0.6487	-0.023
Mof_H 	H 	0.7325	0.3076	0.1644	0.087
Mof_H 	H 	0.65	0.3712	0.4443	-0.012
Mof_H 	H 	0.2944	0.1696	0.1433	0.075
Mof_H 	H 	0.7835	0.0848	0.7487	0.087
Mof_H 	H 	0.2614	0.0361	0.8761	0.082
Mof_H 	H 	0.7165	0.5848	0.7513	0.097
Mof_H 	H 	0.2835	0.4152	0.2487	0.088
Mof_H 	H 	0.85	0.8712	0.0557	-0.015
Mof_H 	H 	0.2386	0.5361	0.6239	0.083
Mof_H 	H 	0.091	0.6298	0.2505	-0.017
Mof_H 	H 	0.7944	0.3304	0.6433	0.091
Mof_H 	H 	0.9019	0.1307	0.8513	-0.014
Mof_H 	H 	0.4019	0.3693	0.3513	-0.024
Mof_H 	H 	0.7675	0.8076	0.3356	0.096
Mof_H 	H 	0.7614	0.4639	0.3761	0.089
Mof_H 	H 	0.6244	0.2183	0.2398	-0.009
Mof_H 	H 	0.35	0.6288	0.5557	-0.014
Mof_H 	H 	0.2165	0.9152	0.2513	0.098
Mof_H 	H 	0.7056	0.8304	0.8567	0.104
Mof_H 	H 	0.409	0.1298	0.2495	-0.016
Mof_H 	H 	0.7386	0.9639	0.1239	0.088
Mof_H 	H 	0.1244	0.2817	0.7398	-0.012
Mof_H 	H 	0.0981	0.8693	0.1487	-0.032
Mof_H 	H 	0.2675	0.6924	0.8356	0.103
Mof_H 	H 	0.2325	0.1924	0.6644	0.094
Mof_H 	H 	0.909	0.3702	0.7495	0.004
Mof_H 	H 	0.2056	0.6696	0.3567	0.088
Mof_H 	H 	0.3756	0.7817	0.7602	-0
Mof_H 	H 	0.591	0.8702	0.7505	0.001
Mof_H 	H 	0.8756	0.7183	0.2602	0.003
Mof_H 	H 	0.15	0.1288	0.9443	-0.013
Mof_C 	C 	0.7234	0.7028	0.816	0.085
Mof_C 	C 	0.8843	0.3115	0.7483	0.097
Mof_C 	C 	0.2234	0.7972	0.316	0.078
Mof_C 	C 	0.3327	0.6416	0.6127	0.087
Mof_C 	C 	0.652	0.2688	0.2672	0.086
Mof_C 	C 	0.26	0.103	0.7605	0.075
Mof_C 	C 	0.7766	0.2028	0.684	0.074
Mof_C 	C 	0.6673	0.3584	0.3873	0.086
Mof_C 	C 	0.24	0.603	0.7395	0.068
Mof_C 	C 	0.348	0.7312	0.7328	0.09
Mof_C 	C 	0.1199	0.8289	0.1914	0.097
Mof_C 	C 	0.3091	0.3568	0.2474	-0.146
Mof_C 	C 	0.7978	0.673	0.8834	0.1
Mof_C 	C 	0.17	0.5451	0.7873	0.093
Mof_C 	C 	0.2338	0.0855	0.8468	-0.148
Mof_C 	C 	0.1673	0.1416	0.8873	0.087
Mof_C 	C 	0.3151	0.2114	0.1851	-0.147
Mof_C 	C 	0.74	0.897	0.2395	0.06
Mof_C 	C 	0.7829	0.822	0.2785	-0.129
Mof_C 	C 	0.2171	0.178	0.7215	-0.149
Mof_C 	C 	0.6199	0.6711	0.6914	0.102
Mof_C 	C 	0.1909	0.8568	0.2526	-0.152
Mof_C 	C 	0.1849	0.7114	0.3149	-0.152
Mof_C 	C 	0.8151	0.2886	0.6851	-0.14
Mof_C 	C 	0.33	0.0451	0.7127	0.057
Mof_C 	C 	0.2022	0.327	0.1166	0.086
Mof_C 	C 	0.76	0.397	0.2605	0.066
Mof_C 	C 	0.7338	0.4145	0.3468	-0.137
Mof_C 	C 	0.6157	0.8115	0.7517	0.102
Mof_C 	C 	0.7022	0.173	0.6166	0.094
Mof_C 	C 	0.3843	0.1885	0.2483	0.09
Mof_C 	C 	0.848	0.7688	0.2328	0.087
Mof_C 	C 	0.6849	0.7886	0.8149	-0.146
Mof_C 	C 	0.83	0.4549	0.2127	0.095
Mof_C 	C 	0.3801	0.3289	0.3086	0.092
Mof_C 	C 	0.7662	0.9145	0.1532	-0.13
Mof_C 	C 	0.152	0.2312	0.7672	0.089
Mof_C 	C 	0.7171	0.322	0.2215	-0.138
Mof_C 	C 	0.1157	0.6885	0.2517	0.095
Mof_C 	C 	0.8327	0.8584	0.1127	0.085
Mof_C 	C 	0.2829	0.678	0.7785	-0.139
Mof_C 	C 	0.2662	0.5855	0.6532	-0.139
Mof_C 	C 	0.2766	0.2972	0.184	0.067
Mof_C 	C 	0.67	0.9549	0.2873	0.13
Mof_C 	C 	0.8091	0.1432	0.7474	-0.14
Mof_C 	C 	0.8801	0.1711	0.8086	0.097
Mof_C 	C 	0.2978	0.827	0.3834	0.092
Mof_C 	C 	0.6909	0.6432	0.7526	-0.147
Mof_N 	N 	0.4185	0.2463	0.3088	-0.237
Mof_N 	N 	0.3284	0.1453	0.4548	-0.043
Mof_N 	N 	0.7449	0.3339	0.9649	-0.059
Mof_N 	N 	0.4138	0.1238	0.4479	-0.245
Mof_N 	N 	0.2551	0.6661	0.0351	-0.084
Mof_N 	N 	0.6447	0.0398	0.2671	-0.116
Mof_N 	N 	0.6716	0.8547	0.5452	-0.036
Mof_N 	N 	0.3742	0.7145	0.651	-0.234
Mof_N 	N 	0.3729	0.0731	0.6399	-0.088
Mof_N 	N 	0.8425	0.5926	0.8839	-0.082
Mof_N 	N 	0.0837	0.4343	0.831	-0.109
Mof_N 	N 	0.6729	0.2245	0.5495	-0.096
Mof_N 	N 	0.1076	0.3268	0.0056	-0.175
Mof_N 	N 	0.9138	0.3762	0.9479	-0.21
Mof_N 	N 	0.3924	0.8268	0.4944	-0.154
Mof_N 	N 	0.0738	0.50257	0.8858	-0.144
Mof_N 	N 	0.1258	0.2145	0.849	-0.237
Mof_N 	N 	0.0862	0.6238	0.0521	-0.259
Mof_N 	N 	0.6076	0.1732	0.5056	-0.157
Mof_N 	N 	0.2449	0.1661	0.4649	-0.083
Mof_N 	N 	0.4262	0.00257	0.6142	-0.169
Mof_N 	N 	0.4163	0.9343	0.669	-0.087
Mof_N 	N 	0.6575	0.0926	0.6161	-0.094
Mof_N 	N 	0.5738	0.99743	0.3858	-0.123
Mof_N 	N 	0.5815	0.7537	0.6912	-0.236
Mof_N 	N 	0.9163	0.5657	0.169	-0.101
Mof_N 	N 	0.9019	0.5946	0.9548	-0.124
Mof_N 	N 	0.3553	0.9602	0.7329	-0.06
Mof_N 	N 	0.5862	0.8762	0.5521	-0.23
Mof_N 	N 	0.8729	0.4269	0.1399	-0.093
Mof_N 	N 	0.0981	0.4054	0.0452	-0.159
Mof_N 	N 	0.8553	0.5398	0.2329	-0.087
Mof_N 	N 	0.1716	0.6453	0.0452	-0.045
Mof_N 	N 	0.5981	0.0946	0.5452	-0.152
Mof_N 	N 	0.1271	0.5731	0.8601	-0.087
Mof_N 	N 	0.4019	0.9054	0.4548	-0.137
Mof_N 	N 	0.9185	0.2537	0.8088	-0.224
Mof_N 	N 	0.1729	0.2755	0.0495	-0.109
Mof_N 	N 	0.1575	0.4074	0.1161	-0.094
Mof_N 	N 	0.9262	0.49743	0.1142	-0.144
Mof_N 	N 	0.3425	0.9074	0.3839	-0.083
Mof_N 	N 	0.7551	0.8339	0.5351	-0.06
Mof_N 	N 	0.8271	0.7245	0.9505	-0.084
Mof_N 	N 	0.8924	0.6732	0.9944	-0.134
Mof_N 	N 	0.6258	0.2855	0.349	-0.234
Mof_N 	N 	0.8742	0.7855	0.151	-0.232
Mof_N 	N 	0.0815	0.7463	0.1912	-0.248
Mof_N 	N 	0.1447	0.4602	0.7671	-0.091
Mof_N 	N 	0.3271	0.7755	0.4505	-0.097
Mof_N 	N 	0.5837	0.0657	0.331	-0.122
Mof_N 	N 	0.8284	0.3547	0.9548	-0.033
Mof_N 	N 	0.6271	0.9269	0.3601	-0.092
_end
