# CIF file generated by openbabel 3.1.0, see https://openbabel.org
data_I
_chemical_name_common 'image0'
_cell_length_a 14.6163
_cell_length_b 26.0625
_cell_length_c 12.6784
_cell_angle_alpha 90
_cell_angle_beta 105.046
_cell_angle_gamma 90
_space_group_name_H-M_alt 'P 1'
_space_group_name_Hall 'P 1'
loop_
    _symmetry_equiv_pos_as_xyz
    x,y,z
loop_
    _atom_site_label
    _atom_site_type_symbol
    _atom_site_fract_x
    _atom_site_fract_y
    _atom_site_fract_z
    _atom_site_occupancy
    Er1      Er       0.22533    0.46538    0.30476    1.000
    Er2      Er       0.24874    0.21581    0.18151    1.000
    Er3      Er       0.28169    0.71437    0.19605    1.000
    Er4      Er       0.24379    0.53473    0.80814    1.000
    O1       O        0.37560    0.47070    0.43410    1.000
    O2       O        0.37500    0.48310    0.26590    1.000
    O3       O        0.10360    0.25512    0.06850    1.000
    O4       O        0.10170    0.22478    0.22830    1.000
    O5       O        0.13110    0.72030    0.07190    1.000
    O6       O        0.13400    0.73475    0.23910    1.000
    O7       O        0.38860    0.49960    0.92390    1.000
    O8       O        0.39100    0.52367    0.76000    1.000
    O9       O        0.26370    0.38480    0.25190    1.000
    O10      O        0.26670    0.30108    0.23040    1.000
    O11      O        0.40050    0.19241    0.21220    1.000
    O12      O        0.55380    0.20886    0.25940    1.000
    O13      O        0.29670    0.80205    0.23080    1.000
    O14      O        0.27450    0.88471    0.24570    1.000
    O15      O        0.21540    0.55303    0.26630    1.000
    O16      O        0.24680    0.63508    0.25860    1.000
    O17      O        0.18700    0.46793    0.11250    1.000
    O18      O        0.19140    0.49103    0.94670    1.000
    O19      O        0.18410    0.51278    0.44480    1.000
    O20      O        0.18840    0.53382    0.61540    1.000
    O21      O        0.06310    0.45692    0.24670    1.000
    O22      O        0.91060    0.44186    0.22530    1.000
    O23      O        0.19220    0.40598    0.42730    1.000
    O24      O        0.20230    0.33819    0.53260    1.000
    O25      O        0.30260    0.21706    0.37610    1.000
    O26      O        0.30220    0.24204    0.54250    1.000
    O27      O        0.22850    0.13384    0.24410    1.000
    O28      O        0.22920    0.05014    0.26030    1.000
    O29      O        0.30230    0.65262    0.07260    1.000
    O30      O        0.27730    0.58902    0.95500    1.000
    O31      O        0.32240    0.75930    0.05360    1.000
    O32      O        0.32780    0.78028    0.88730    1.000
    C1       C        0.41740    0.48380    0.36370    1.000
    H1       H        0.48180    0.49420    0.38560    1.000
    C2       C        0.06230    0.24680    0.14170    1.000
    H2       H        0.99850    0.25780    0.13060    1.000
    C3       C        0.09150    0.73410    0.14220    1.000
    H3       H        0.02700    0.74440    0.12070    1.000
    C4       C        0.43050    0.50480    0.85180    1.000
    H4       H        0.49470    0.49430    0.86610    1.000
    C5       C        0.22610    0.34130    0.24250    1.000
    H5       H        0.16180    0.33910    0.24470    1.000
    C6       C        0.48570    0.18110    0.22700    1.000
    H6       H        0.49890    0.14660    0.21100    1.000
    C7       C        0.24840    0.83980    0.24570    1.000
    H7       H        0.18790    0.83330    0.25770    1.000
    C8       C        0.26800    0.58910    0.25750    1.000
    H8       H        0.32910    0.58090    0.24940    1.000
    C9       C        0.22520    0.48960    0.04770    1.000
    H9       H        0.28410    0.50630    0.07710    1.000
    C10      C        0.21630    0.50940    0.54650    1.000
    H10      H        0.26670    0.48580    0.57270    1.000
    C11      C        0.99570    0.43080    0.25230    1.000
    H11      H        0.01050    0.39730    0.28130    1.000
    C12      C        0.23700    0.37510    0.49510    1.000
    H12      H        0.30350    0.38010    0.52060    1.000
    C13      C        0.26590    0.24040    0.44030    1.000
    H13      H        0.20780    0.25790    0.41130    1.000
    C14      C        0.26560    0.09180    0.24890    1.000
    H14      H        0.32920    0.09090    0.24330    1.000
    C15      C        0.25200    0.62670    0.99760    1.000
    H15      H        0.18780    0.63710    0.97060    1.000
    C16      C        0.29230    0.75710    0.95260    1.000
    H16      H        0.23830    0.73620    0.92330    1.000
    Er5      Er       0.77467    0.96538    0.19524    1.000
    Er6      Er       0.75126    0.71581    0.31849    1.000
    Er7      Er       0.71831    0.21437    0.30395    1.000
    Er8      Er       0.75621    0.03473    0.69186    1.000
    O33      O        0.62440    0.97070    0.06590    1.000
    O34      O        0.62500    0.98310    0.23410    1.000
    O35      O        0.89640    0.75512    0.43150    1.000
    O36      O        0.89830    0.72478    0.27170    1.000
    O37      O        0.86890    0.22030    0.42810    1.000
    O38      O        0.86600    0.23475    0.26090    1.000
    O39      O        0.61140    0.99960    0.57610    1.000
    O40      O        0.60900    0.02367    0.74000    1.000
    O41      O        0.73630    0.88480    0.24810    1.000
    O42      O        0.73330    0.80108    0.26960    1.000
    O43      O        0.59950    0.69241    0.28780    1.000
    O44      O        0.44620    0.70886    0.24060    1.000
    O45      O        0.70330    0.30205    0.26920    1.000
    O46      O        0.72550    0.38471    0.25430    1.000
    O47      O        0.78460    0.05303    0.23370    1.000
    O48      O        0.75320    0.13508    0.24140    1.000
    O49      O        0.81300    0.96793    0.38750    1.000
    O50      O        0.80860    0.99103    0.55330    1.000
    O51      O        0.81590    0.01278    0.05520    1.000
    O52      O        0.81160    0.03382    0.88460    1.000
    O53      O        0.93690    0.95692    0.25330    1.000
    O54      O        0.08940    0.94186    0.27470    1.000
    O55      O        0.80780    0.90598    0.07270    1.000
    O56      O        0.79770    0.83819    0.96740    1.000
    O57      O        0.69740    0.71706    0.12390    1.000
    O58      O        0.69780    0.74204    0.95750    1.000
    O59      O        0.77150    0.63384    0.25590    1.000
    O60      O        0.77080    0.55014    0.23970    1.000
    O61      O        0.69770    0.15262    0.42740    1.000
    O62      O        0.72270    0.08902    0.54500    1.000
    O63      O        0.67760    0.25930    0.44640    1.000
    O64      O        0.67220    0.28028    0.61270    1.000
    C17      C        0.58260    0.98380    0.13630    1.000
    H17      H        0.51820    0.99420    0.11440    1.000
    C18      C        0.93770    0.74680    0.35830    1.000
    H18      H        0.00150    0.75780    0.36940    1.000
    C19      C        0.90850    0.23410    0.35780    1.000
    H19      H        0.97300    0.24440    0.37930    1.000
    C20      C        0.56950    0.00480    0.64820    1.000
    H20      H        0.50530    0.99430    0.63390    1.000
    C21      C        0.77390    0.84130    0.25750    1.000
    H21      H        0.83820    0.83910    0.25530    1.000
    C22      C        0.51430    0.68110    0.27300    1.000
    H22      H        0.50110    0.64660    0.28900    1.000
    C23      C        0.75160    0.33980    0.25430    1.000
    H23      H        0.81210    0.33330    0.24230    1.000
    C24      C        0.73200    0.08910    0.24250    1.000
    H24      H        0.67090    0.08090    0.25060    1.000
    C25      C        0.77480    0.98960    0.45230    1.000
    H25      H        0.71590    0.00630    0.42290    1.000
    C26      C        0.78370    0.00940    0.95350    1.000
    H26      H        0.73330    0.98580    0.92730    1.000
    C27      C        0.00430    0.93080    0.24770    1.000
    H27      H        0.98950    0.89730    0.21870    1.000
    C28      C        0.76300    0.87510    0.00490    1.000
    H28      H        0.69650    0.88010    0.97940    1.000
    C29      C        0.73410    0.74040    0.05970    1.000
    H29      H        0.79220    0.75790    0.08870    1.000
    C30      C        0.73440    0.59180    0.25110    1.000
    H30      H        0.67080    0.59090    0.25670    1.000
    C31      C        0.74800    0.12670    0.50240    1.000
    H31      H        0.81220    0.13710    0.52940    1.000
    C32      C        0.70770    0.25710    0.54740    1.000
    H32      H        0.76170    0.23620    0.57670    1.000
    Er9      Er       0.77467    0.53462    0.69524    1.000
    Er10     Er       0.75126    0.78419    0.81849    1.000
    Er11     Er       0.71831    0.28563    0.80395    1.000
    Er12     Er       0.75621    0.46527    0.19186    1.000
    O65      O        0.62440    0.52930    0.56590    1.000
    O66      O        0.62500    0.51690    0.73410    1.000
    O67      O        0.89640    0.74488    0.93150    1.000
    O68      O        0.89830    0.77522    0.77170    1.000
    O69      O        0.86890    0.27970    0.92810    1.000
    O70      O        0.86600    0.26525    0.76090    1.000
    O71      O        0.61140    0.50040    0.07610    1.000
    O72      O        0.60900    0.47633    0.24000    1.000
    O73      O        0.73630    0.61520    0.74810    1.000
    O74      O        0.73330    0.69892    0.76960    1.000
    O75      O        0.59950    0.80759    0.78780    1.000
    O76      O        0.44620    0.79114    0.74060    1.000
    O77      O        0.70330    0.19795    0.76920    1.000
    O78      O        0.72550    0.11529    0.75430    1.000
    O79      O        0.78460    0.44697    0.73370    1.000
    O80      O        0.75320    0.36492    0.74140    1.000
    O81      O        0.81300    0.53207    0.88750    1.000
    O82      O        0.80860    0.50897    0.05330    1.000
    O83      O        0.81590    0.48722    0.55520    1.000
    O84      O        0.81160    0.46618    0.38460    1.000
    O85      O        0.93690    0.54308    0.75330    1.000
    O86      O        0.08940    0.55814    0.77470    1.000
    O87      O        0.80780    0.59402    0.57270    1.000
    O88      O        0.79770    0.66181    0.46740    1.000
    O89      O        0.69740    0.78294    0.62390    1.000
    O90      O        0.69780    0.75796    0.45750    1.000
    O91      O        0.77150    0.86616    0.75590    1.000
    O92      O        0.77080    0.94986    0.73970    1.000
    O93      O        0.69770    0.34738    0.92740    1.000
    O94      O        0.72270    0.41098    0.04500    1.000
    O95      O        0.67760    0.24070    0.94640    1.000
    O96      O        0.67220    0.21972    0.11270    1.000
    C33      C        0.58260    0.51620    0.63630    1.000
    H33      H        0.51820    0.50580    0.61440    1.000
    C34      C        0.93770    0.75320    0.85830    1.000
    H34      H        0.00150    0.74220    0.86940    1.000
    C35      C        0.90850    0.26590    0.85780    1.000
    H35      H        0.97300    0.25560    0.87930    1.000
    C36      C        0.56950    0.49520    0.14820    1.000
    H36      H        0.50530    0.50570    0.13390    1.000
    C37      C        0.77390    0.65870    0.75750    1.000
    H37      H        0.83820    0.66090    0.75530    1.000
    C38      C        0.51430    0.81890    0.77300    1.000
    H38      H        0.50110    0.85340    0.78900    1.000
    C39      C        0.75160    0.16020    0.75430    1.000
    H39      H        0.81210    0.16670    0.74230    1.000
    C40      C        0.73200    0.41090    0.74250    1.000
    H40      H        0.67090    0.41910    0.75060    1.000
    C41      C        0.77480    0.51040    0.95230    1.000
    H41      H        0.71590    0.49370    0.92290    1.000
    C42      C        0.78370    0.49060    0.45350    1.000
    H42      H        0.73330    0.51420    0.42730    1.000
    C43      C        0.00430    0.56920    0.74770    1.000
    H43      H        0.98950    0.60270    0.71870    1.000
    C44      C        0.76300    0.62490    0.50490    1.000
    H44      H        0.69650    0.61990    0.47940    1.000
    C45      C        0.73410    0.75960    0.55970    1.000
    H45      H        0.79220    0.74210    0.58870    1.000
    C46      C        0.73440    0.90820    0.75110    1.000
    H46      H        0.67080    0.90910    0.75670    1.000
    C47      C        0.74800    0.37330    0.00240    1.000
    H47      H        0.81220    0.36290    0.02940    1.000
    C48      C        0.70770    0.24290    0.04740    1.000
    H48      H        0.76170    0.26380    0.07670    1.000
    Er13     Er       0.22533    0.03462    0.80476    1.000
    Er14     Er       0.24874    0.28419    0.68151    1.000
    Er15     Er       0.28169    0.78563    0.69605    1.000
    Er16     Er       0.24379    0.96527    0.30814    1.000
    O97      O        0.37560    0.02930    0.93410    1.000
    O98      O        0.37500    0.01690    0.76590    1.000
    O99      O        0.10360    0.24488    0.56850    1.000
    O100     O        0.10170    0.27522    0.72830    1.000
    O101     O        0.13110    0.77970    0.57190    1.000
    O102     O        0.13400    0.76525    0.73910    1.000
    O103     O        0.38860    0.00040    0.42390    1.000
    O104     O        0.39100    0.97633    0.26000    1.000
    O105     O        0.26370    0.11520    0.75190    1.000
    O106     O        0.26670    0.19892    0.73040    1.000
    O107     O        0.40050    0.30759    0.71220    1.000
    O108     O        0.55380    0.29114    0.75940    1.000
    O109     O        0.29670    0.69795    0.73080    1.000
    O110     O        0.27450    0.61529    0.74570    1.000
    O111     O        0.21540    0.94697    0.76630    1.000
    O112     O        0.24680    0.86492    0.75860    1.000
    O113     O        0.18700    0.03207    0.61250    1.000
    O114     O        0.19140    0.00897    0.44670    1.000
    O115     O        0.18410    0.98722    0.94480    1.000
    O116     O        0.18840    0.96618    0.11540    1.000
    O117     O        0.06310    0.04308    0.74670    1.000
    O118     O        0.91060    0.05814    0.72530    1.000
    O119     O        0.19220    0.09402    0.92730    1.000
    O120     O        0.20230    0.16181    0.03260    1.000
    O121     O        0.30260    0.28294    0.87610    1.000
    O122     O        0.30220    0.25796    0.04250    1.000
    O123     O        0.22850    0.36616    0.74410    1.000
    O124     O        0.22920    0.44986    0.76030    1.000
    O125     O        0.30230    0.84738    0.57260    1.000
    O126     O        0.27730    0.91098    0.45500    1.000
    O127     O        0.32240    0.74070    0.55360    1.000
    O128     O        0.32780    0.71972    0.38730    1.000
    C49      C        0.41740    0.01620    0.86370    1.000
    H49      H        0.48180    0.00580    0.88560    1.000
    C50      C        0.06230    0.25320    0.64170    1.000
    H50      H        0.99850    0.24220    0.63060    1.000
    C51      C        0.09150    0.76590    0.64220    1.000
    H51      H        0.02700    0.75560    0.62070    1.000
    C52      C        0.43050    0.99520    0.35180    1.000
    H52      H        0.49470    0.00570    0.36610    1.000
    C53      C        0.22610    0.15870    0.74250    1.000
    H53      H        0.16180    0.16090    0.74470    1.000
    C54      C        0.48570    0.31890    0.72700    1.000
    H54      H        0.49890    0.35340    0.71100    1.000
    C55      C        0.24840    0.66020    0.74570    1.000
    H55      H        0.18790    0.66670    0.75770    1.000
    C56      C        0.26800    0.91090    0.75750    1.000
    H56      H        0.32910    0.91910    0.74940    1.000
    C57      C        0.22520    0.01040    0.54770    1.000
    H57      H        0.28410    0.99370    0.57710    1.000
    C58      C        0.21630    0.99060    0.04650    1.000
    H58      H        0.26670    0.01420    0.07270    1.000
    C59      C        0.99570    0.06920    0.75230    1.000
    H59      H        0.01050    0.10270    0.78130    1.000
    C60      C        0.23700    0.12490    0.99510    1.000
    H60      H        0.30350    0.11990    0.02060    1.000
    C61      C        0.26590    0.25960    0.94030    1.000
    H61      H        0.20780    0.24210    0.91130    1.000
    C62      C        0.26560    0.40820    0.74890    1.000
    H62      H        0.32920    0.40910    0.74330    1.000
    C63      C        0.25200    0.87330    0.49760    1.000
    H63      H        0.18780    0.86290    0.47060    1.000
    C64      C        0.29230    0.74290    0.45260    1.000
    H64      H        0.23830    0.76380    0.42330    1.000
