# CIF file generated by openbabel 3.1.0, see https://openbabel.org
data_I
_chemical_name_common 'image0'
_cell_length_a 36.991
_cell_length_b 8.394
_cell_length_c 36.94
_cell_angle_alpha 90
_cell_angle_beta 116.75
_cell_angle_gamma 90
_space_group_name_H-M_alt 'P 1'
_space_group_name_Hall 'P 1'
loop_
    _symmetry_equiv_pos_as_xyz
    x,y,z
loop_
    _atom_site_label
    _atom_site_type_symbol
    _atom_site_fract_x
    _atom_site_fract_y
    _atom_site_fract_z
    _atom_site_occupancy
    Zn1      Zn       0.83075    0.03267    0.17702    1.000
    O1       O        0.59234    0.19700    0.02214    1.000
    O2       O        0.41362    0.04650    0.87831    1.000
    O3       O        0.42730    0.32090    0.02048    1.000
    O4       O        0.76270    0.87630    0.13257    1.000
    O5       O        0.77862    0.13200    0.14470    1.000
    O6       O        0.34648    0.63750    0.71711    1.000
    O7       O        0.32210    0.51190    0.75030    1.000
    O8       O        0.35552    0.45970    0.14270    1.000
    O9       O        0.36360    0.71830    0.12770    1.000
    C1       C        0.50161    0.15370    0.94336    1.000
    C2       C        0.46296    0.21970    0.92191    1.000
    C3       C        0.44450    0.30550    0.94164    1.000
    C4       C        0.46558    0.32700    0.98378    1.000
    C5       C        0.50302    0.25380    0.00574    1.000
    C6       C        0.52061    0.16220    0.98485    1.000
    C7       C        0.52260    0.07680    0.92050    1.000
    H1       H        0.50500    0.08050    0.89190    1.000
    H2       H        0.52900    0.96790    0.92900    1.000
    H3       H        0.54720    0.13360    0.92630    1.000
    C8       C        0.40203    0.36980    0.91849    1.000
    H4       H        0.39200    0.34530    0.89020    1.000
    H5       H        0.40230    0.48320    0.92200    1.000
    H6       H        0.38480    0.32170    0.92860    1.000
    C9       C        0.52452    0.26960    0.05139    1.000
    H7       H        0.54970    0.21300    0.06180    1.000
    H8       H        0.50790    0.22570    0.06270    1.000
    H9       H        0.52960    0.38010    0.05860    1.000
    C10      C        0.56014    0.07690    0.00913    1.000
    H10      H        0.55990    0.02530    0.03250    1.000
    H11      H        0.56440    0.99630    0.99260    1.000
    C11      C        0.63061    0.14380    0.04721    1.000
    C12      C        0.65991    0.26290    0.06288    1.000
    H12      H        0.65290    0.36910    0.05630    1.000
    C13      C        0.69953    0.22090    0.08839    1.000
    H13      H        0.71930    0.29960    0.09850    1.000
    C14      C        0.71007    0.06400    0.09905    1.000
    C15      C        0.68069    0.94700    0.08166    1.000
    H14      H        0.68790    0.84060    0.08780    1.000
    C16      C        0.64167    0.98460    0.05589    1.000
    H15      H        0.62250    0.90450    0.04420    1.000
    C17      C        0.75348    0.01490    0.12749    1.000
    C18      C        0.43883    0.17680    0.87780    1.000
    H16      H        0.45650    0.14390    0.86610    1.000
    H17      H        0.42250    0.26610    0.86240    1.000
    C19      C        0.39647    0.94900    0.84462    1.000
    C20      C        0.37590    0.81740    0.84930    1.000
    H18      H        0.37320    0.80300    0.87290    1.000
    C21      C        0.35980    0.71060    0.81820    1.000
    H19      H        0.34760    0.61900    0.82160    1.000
    C22      C        0.36119    0.73360    0.78223    1.000
    C23      C        0.38010    0.86460    0.77765    1.000
    H20      H        0.38130    0.88090    0.75330    1.000
    C24      C        0.39760    0.97410    0.80850    1.000
    H21      H        0.41020    0.06440    0.80480    1.000
    C25      C        0.34370    0.61430    0.74780    1.000
    C26      C        0.44799    0.42510    0.00534    1.000
    H22      H        0.46930    0.48200    0.02760    1.000
    H23      H        0.42920    0.50240    0.98690    1.000
    C27      C        0.41323    0.39050    0.04511    1.000
    C28      C        0.41233    0.55240    0.05169    1.000
    H24      H        0.42250    0.62410    0.03930    1.000
    C29      C        0.39620    0.60730    0.07690    1.000
    H25      H        0.39450    0.71630    0.08040    1.000
    C30      C        0.38240    0.49960    0.09710    1.000
    C31      C        0.38280    0.34210    0.09020    1.000
    H26      H        0.37230    0.27100    0.10240    1.000
    C32      C        0.39890    0.28440    0.06460    1.000
    H27      H        0.39990    0.17530    0.06070    1.000
    C33      C        0.36620    0.56330    0.12540    1.000
    H28      H        0.37900    0.80330    0.12140    1.000
    Zn2      Zn       0.33075    0.53267    0.17702    1.000
    O10      O        0.09234    0.69700    0.02214    1.000
    O11      O        0.91362    0.54650    0.87831    1.000
    O12      O        0.92730    0.82090    0.02048    1.000
    O13      O        0.26270    0.37630    0.13257    1.000
    O14      O        0.27862    0.63200    0.14470    1.000
    O15      O        0.84648    0.13750    0.71711    1.000
    O16      O        0.82210    0.01190    0.75030    1.000
    O17      O        0.85552    0.95970    0.14270    1.000
    O18      O        0.86360    0.21830    0.12770    1.000
    C34      C        0.00161    0.65370    0.94336    1.000
    C35      C        0.96296    0.71970    0.92191    1.000
    C36      C        0.94450    0.80550    0.94164    1.000
    C37      C        0.96558    0.82700    0.98378    1.000
    C38      C        0.00302    0.75380    0.00574    1.000
    C39      C        0.02061    0.66220    0.98485    1.000
    C40      C        0.02260    0.57680    0.92050    1.000
    H29      H        0.00500    0.58050    0.89190    1.000
    H30      H        0.02900    0.46790    0.92900    1.000
    H31      H        0.04720    0.63360    0.92630    1.000
    C41      C        0.90203    0.86980    0.91849    1.000
    H32      H        0.89200    0.84530    0.89020    1.000
    H33      H        0.90230    0.98320    0.92200    1.000
    H34      H        0.88480    0.82170    0.92860    1.000
    C42      C        0.02452    0.76960    0.05139    1.000
    H35      H        0.04970    0.71300    0.06180    1.000
    H36      H        0.00790    0.72570    0.06270    1.000
    H37      H        0.02960    0.88010    0.05860    1.000
    C43      C        0.06014    0.57690    0.00913    1.000
    H38      H        0.05990    0.52530    0.03250    1.000
    H39      H        0.06440    0.49630    0.99260    1.000
    C44      C        0.13061    0.64380    0.04721    1.000
    C45      C        0.15991    0.76290    0.06288    1.000
    H40      H        0.15290    0.86910    0.05630    1.000
    C46      C        0.19953    0.72090    0.08839    1.000
    H41      H        0.21930    0.79960    0.09850    1.000
    C47      C        0.21007    0.56400    0.09905    1.000
    C48      C        0.18069    0.44700    0.08166    1.000
    H42      H        0.18790    0.34060    0.08780    1.000
    C49      C        0.14167    0.48460    0.05589    1.000
    H43      H        0.12250    0.40450    0.04420    1.000
    C50      C        0.25348    0.51490    0.12749    1.000
    C51      C        0.93883    0.67680    0.87780    1.000
    H44      H        0.95650    0.64390    0.86610    1.000
    H45      H        0.92250    0.76610    0.86240    1.000
    C52      C        0.89647    0.44900    0.84462    1.000
    C53      C        0.87590    0.31740    0.84930    1.000
    H46      H        0.87320    0.30300    0.87290    1.000
    C54      C        0.85980    0.21060    0.81820    1.000
    H47      H        0.84760    0.11900    0.82160    1.000
    C55      C        0.86119    0.23360    0.78223    1.000
    C56      C        0.88010    0.36460    0.77765    1.000
    H48      H        0.88130    0.38090    0.75330    1.000
    C57      C        0.89760    0.47410    0.80850    1.000
    H49      H        0.91020    0.56440    0.80480    1.000
    C58      C        0.84370    0.11430    0.74780    1.000
    C59      C        0.94799    0.92510    0.00534    1.000
    H50      H        0.96930    0.98200    0.02760    1.000
    H51      H        0.92920    0.00240    0.98690    1.000
    C60      C        0.91323    0.89050    0.04511    1.000
    C61      C        0.91233    0.05240    0.05169    1.000
    H52      H        0.92250    0.12410    0.03930    1.000
    C62      C        0.89620    0.10730    0.07690    1.000
    H53      H        0.89450    0.21630    0.08040    1.000
    C63      C        0.88240    0.99960    0.09710    1.000
    C64      C        0.88280    0.84210    0.09020    1.000
    H54      H        0.87230    0.77100    0.10240    1.000
    C65      C        0.89890    0.78440    0.06460    1.000
    H55      H        0.89990    0.67530    0.06070    1.000
    C66      C        0.86620    0.06330    0.12540    1.000
    H56      H        0.87900    0.30330    0.12140    1.000
    Zn3      Zn       0.83075    0.96733    0.67702    1.000
    O19      O        0.59234    0.80300    0.52214    1.000
    O20      O        0.41362    0.95350    0.37831    1.000
    O21      O        0.42730    0.67910    0.52048    1.000
    O22      O        0.76270    0.12370    0.63257    1.000
    O23      O        0.77862    0.86800    0.64470    1.000
    O24      O        0.34648    0.36250    0.21711    1.000
    O25      O        0.32210    0.48810    0.25030    1.000
    O26      O        0.35552    0.54030    0.64270    1.000
    O27      O        0.36360    0.28170    0.62770    1.000
    C67      C        0.50161    0.84630    0.44336    1.000
    C68      C        0.46296    0.78030    0.42191    1.000
    C69      C        0.44450    0.69450    0.44164    1.000
    C70      C        0.46558    0.67300    0.48378    1.000
    C71      C        0.50302    0.74620    0.50574    1.000
    C72      C        0.52061    0.83780    0.48485    1.000
    C73      C        0.52260    0.92320    0.42050    1.000
    H57      H        0.50500    0.91950    0.39190    1.000
    H58      H        0.52900    0.03210    0.42900    1.000
    H59      H        0.54720    0.86640    0.42630    1.000
    C74      C        0.40203    0.63020    0.41849    1.000
    H60      H        0.39200    0.65470    0.39020    1.000
    H61      H        0.40230    0.51680    0.42200    1.000
    H62      H        0.38480    0.67830    0.42860    1.000
    C75      C        0.52452    0.73040    0.55139    1.000
    H63      H        0.54970    0.78700    0.56180    1.000
    H64      H        0.50790    0.77430    0.56270    1.000
    H65      H        0.52960    0.61990    0.55860    1.000
    C76      C        0.56014    0.92310    0.50913    1.000
    H66      H        0.55990    0.97470    0.53250    1.000
    H67      H        0.56440    0.00370    0.49260    1.000
    C77      C        0.63061    0.85620    0.54721    1.000
    C78      C        0.65991    0.73710    0.56288    1.000
    H68      H        0.65290    0.63090    0.55630    1.000
    C79      C        0.69953    0.77910    0.58839    1.000
    H69      H        0.71930    0.70040    0.59850    1.000
    C80      C        0.71007    0.93600    0.59905    1.000
    C81      C        0.68069    0.05300    0.58166    1.000
    H70      H        0.68790    0.15940    0.58780    1.000
    C82      C        0.64167    0.01540    0.55589    1.000
    H71      H        0.62250    0.09550    0.54420    1.000
    C83      C        0.75348    0.98510    0.62749    1.000
    C84      C        0.43883    0.82320    0.37780    1.000
    H72      H        0.45650    0.85610    0.36610    1.000
    H73      H        0.42250    0.73390    0.36240    1.000
    C85      C        0.39647    0.05100    0.34462    1.000
    C86      C        0.37590    0.18260    0.34930    1.000
    H74      H        0.37320    0.19700    0.37290    1.000
    C87      C        0.35980    0.28940    0.31820    1.000
    H75      H        0.34760    0.38100    0.32160    1.000
    C88      C        0.36119    0.26640    0.28223    1.000
    C89      C        0.38010    0.13540    0.27765    1.000
    H76      H        0.38130    0.11910    0.25330    1.000
    C90      C        0.39760    0.02590    0.30850    1.000
    H77      H        0.41020    0.93560    0.30480    1.000
    C91      C        0.34370    0.38570    0.24780    1.000
    C92      C        0.44799    0.57490    0.50534    1.000
    H78      H        0.46930    0.51800    0.52760    1.000
    H79      H        0.42920    0.49760    0.48690    1.000
    C93      C        0.41323    0.60950    0.54511    1.000
    C94      C        0.41233    0.44760    0.55169    1.000
    H80      H        0.42250    0.37590    0.53930    1.000
    C95      C        0.39620    0.39270    0.57690    1.000
    H81      H        0.39450    0.28370    0.58040    1.000
    C96      C        0.38240    0.50040    0.59710    1.000
    C97      C        0.38280    0.65790    0.59020    1.000
    H82      H        0.37230    0.72900    0.60240    1.000
    C98      C        0.39890    0.71560    0.56460    1.000
    H83      H        0.39990    0.82470    0.56070    1.000
    C99      C        0.36620    0.43670    0.62540    1.000
    H84      H        0.37900    0.19670    0.62140    1.000
    Zn4      Zn       0.33075    0.46733    0.67702    1.000
    O28      O        0.09234    0.30300    0.52214    1.000
    O29      O        0.91362    0.45350    0.37831    1.000
    O30      O        0.92730    0.17910    0.52048    1.000
    O31      O        0.26270    0.62370    0.63257    1.000
    O32      O        0.27862    0.36800    0.64470    1.000
    O33      O        0.84648    0.86250    0.21711    1.000
    O34      O        0.82210    0.98810    0.25030    1.000
    O35      O        0.85552    0.04030    0.64270    1.000
    O36      O        0.86360    0.78170    0.62770    1.000
    C100     C        0.00161    0.34630    0.44336    1.000
    C101     C        0.96296    0.28030    0.42191    1.000
    C102     C        0.94450    0.19450    0.44164    1.000
    C103     C        0.96558    0.17300    0.48378    1.000
    C104     C        0.00302    0.24620    0.50574    1.000
    C105     C        0.02061    0.33780    0.48485    1.000
    C106     C        0.02260    0.42320    0.42050    1.000
    H85      H        0.00500    0.41950    0.39190    1.000
    H86      H        0.02900    0.53210    0.42900    1.000
    H87      H        0.04720    0.36640    0.42630    1.000
    C107     C        0.90203    0.13020    0.41849    1.000
    H88      H        0.89200    0.15470    0.39020    1.000
    H89      H        0.90230    0.01680    0.42200    1.000
    H90      H        0.88480    0.17830    0.42860    1.000
    C108     C        0.02452    0.23040    0.55139    1.000
    H91      H        0.04970    0.28700    0.56180    1.000
    H92      H        0.00790    0.27430    0.56270    1.000
    H93      H        0.02960    0.11990    0.55860    1.000
    C109     C        0.06014    0.42310    0.50913    1.000
    H94      H        0.05990    0.47470    0.53250    1.000
    H95      H        0.06440    0.50370    0.49260    1.000
    C110     C        0.13061    0.35620    0.54721    1.000
    C111     C        0.15991    0.23710    0.56288    1.000
    H96      H        0.15290    0.13090    0.55630    1.000
    C112     C        0.19953    0.27910    0.58839    1.000
    H97      H        0.21930    0.20040    0.59850    1.000
    C113     C        0.21007    0.43600    0.59905    1.000
    C114     C        0.18069    0.55300    0.58166    1.000
    H98      H        0.18790    0.65940    0.58780    1.000
    C115     C        0.14167    0.51540    0.55589    1.000
    H99      H        0.12250    0.59550    0.54420    1.000
    C116     C        0.25348    0.48510    0.62749    1.000
    C117     C        0.93883    0.32320    0.37780    1.000
    H100     H        0.95650    0.35610    0.36610    1.000
    H101     H        0.92250    0.23390    0.36240    1.000
    C118     C        0.89647    0.55100    0.34462    1.000
    C119     C        0.87590    0.68260    0.34930    1.000
    H102     H        0.87320    0.69700    0.37290    1.000
    C120     C        0.85980    0.78940    0.31820    1.000
    H103     H        0.84760    0.88100    0.32160    1.000
    C121     C        0.86119    0.76640    0.28223    1.000
    C122     C        0.88010    0.63540    0.27765    1.000
    H104     H        0.88130    0.61910    0.25330    1.000
    C123     C        0.89760    0.52590    0.30850    1.000
    H105     H        0.91020    0.43560    0.30480    1.000
    C124     C        0.84370    0.88570    0.24780    1.000
    C125     C        0.94799    0.07490    0.50534    1.000
    H106     H        0.96930    0.01800    0.52760    1.000
    H107     H        0.92920    0.99760    0.48690    1.000
    C126     C        0.91323    0.10950    0.54511    1.000
    C127     C        0.91233    0.94760    0.55169    1.000
    H108     H        0.92250    0.87590    0.53930    1.000
    C128     C        0.89620    0.89270    0.57690    1.000
    H109     H        0.89450    0.78370    0.58040    1.000
    C129     C        0.88240    0.00040    0.59710    1.000
    C130     C        0.88280    0.15790    0.59020    1.000
    H110     H        0.87230    0.22900    0.60240    1.000
    C131     C        0.89890    0.21560    0.56460    1.000
    H111     H        0.89990    0.32470    0.56070    1.000
    C132     C        0.86620    0.93670    0.62540    1.000
    H112     H        0.87900    0.69670    0.62140    1.000
    Zn5      Zn       0.16925    0.03267    0.32298    1.000
    O37      O        0.40766    0.19700    0.47786    1.000
    O38      O        0.58638    0.04650    0.62169    1.000
    O39      O        0.57270    0.32090    0.47952    1.000
    O40      O        0.23730    0.87630    0.36743    1.000
    O41      O        0.22138    0.13200    0.35530    1.000
    O42      O        0.65352    0.63750    0.78289    1.000
    O43      O        0.67790    0.51190    0.74970    1.000
    O44      O        0.64448    0.45970    0.35730    1.000
    O45      O        0.63640    0.71830    0.37230    1.000
    C133     C        0.49839    0.15370    0.55664    1.000
    C134     C        0.53704    0.21970    0.57809    1.000
    C135     C        0.55550    0.30550    0.55836    1.000
    C136     C        0.53442    0.32700    0.51622    1.000
    C137     C        0.49698    0.25380    0.49426    1.000
    C138     C        0.47939    0.16220    0.51515    1.000
    C139     C        0.47740    0.07680    0.57950    1.000
    H113     H        0.49500    0.08050    0.60810    1.000
    H114     H        0.47100    0.96790    0.57100    1.000
    H115     H        0.45280    0.13360    0.57370    1.000
    C140     C        0.59797    0.36980    0.58151    1.000
    H116     H        0.60800    0.34530    0.60980    1.000
    H117     H        0.59770    0.48320    0.57800    1.000
    H118     H        0.61520    0.32170    0.57140    1.000
    C141     C        0.47548    0.26960    0.44861    1.000
    H119     H        0.45030    0.21300    0.43820    1.000
    H120     H        0.49210    0.22570    0.43730    1.000
    H121     H        0.47040    0.38010    0.44140    1.000
    C142     C        0.43986    0.07690    0.49087    1.000
    H122     H        0.44010    0.02530    0.46750    1.000
    H123     H        0.43560    0.99630    0.50740    1.000
    C143     C        0.36939    0.14380    0.45279    1.000
    C144     C        0.34009    0.26290    0.43712    1.000
    H124     H        0.34710    0.36910    0.44370    1.000
    C145     C        0.30047    0.22090    0.41161    1.000
    H125     H        0.28070    0.29960    0.40150    1.000
    C146     C        0.28993    0.06400    0.40095    1.000
    C147     C        0.31931    0.94700    0.41834    1.000
    H126     H        0.31210    0.84060    0.41220    1.000
    C148     C        0.35833    0.98460    0.44411    1.000
    H127     H        0.37750    0.90450    0.45580    1.000
    C149     C        0.24652    0.01490    0.37251    1.000
    C150     C        0.56117    0.17680    0.62220    1.000
    H128     H        0.54350    0.14390    0.63390    1.000
    H129     H        0.57750    0.26610    0.63760    1.000
    C151     C        0.60353    0.94900    0.65538    1.000
    C152     C        0.62410    0.81740    0.65070    1.000
    H130     H        0.62680    0.80300    0.62710    1.000
    C153     C        0.64020    0.71060    0.68180    1.000
    H131     H        0.65240    0.61900    0.67840    1.000
    C154     C        0.63881    0.73360    0.71777    1.000
    C155     C        0.61990    0.86460    0.72235    1.000
    H132     H        0.61870    0.88090    0.74670    1.000
    C156     C        0.60240    0.97410    0.69150    1.000
    H133     H        0.58980    0.06440    0.69520    1.000
    C157     C        0.65630    0.61430    0.75220    1.000
    C158     C        0.55201    0.42510    0.49466    1.000
    H134     H        0.53070    0.48200    0.47240    1.000
    H135     H        0.57080    0.50240    0.51310    1.000
    C159     C        0.58677    0.39050    0.45489    1.000
    C160     C        0.58767    0.55240    0.44831    1.000
    H136     H        0.57750    0.62410    0.46070    1.000
    C161     C        0.60380    0.60730    0.42310    1.000
    H137     H        0.60550    0.71630    0.41960    1.000
    C162     C        0.61760    0.49960    0.40290    1.000
    C163     C        0.61720    0.34210    0.40980    1.000
    H138     H        0.62770    0.27100    0.39760    1.000
    C164     C        0.60110    0.28440    0.43540    1.000
    H139     H        0.60010    0.17530    0.43930    1.000
    C165     C        0.63380    0.56330    0.37460    1.000
    H140     H        0.62100    0.80330    0.37860    1.000
    Zn6      Zn       0.66925    0.53267    0.32298    1.000
    O46      O        0.90766    0.69700    0.47786    1.000
    O47      O        0.08638    0.54650    0.62169    1.000
    O48      O        0.07270    0.82090    0.47952    1.000
    O49      O        0.73730    0.37630    0.36743    1.000
    O50      O        0.72138    0.63200    0.35530    1.000
    O51      O        0.15352    0.13750    0.78289    1.000
    O52      O        0.17790    0.01190    0.74970    1.000
    O53      O        0.14448    0.95970    0.35730    1.000
    O54      O        0.13640    0.21830    0.37230    1.000
    C166     C        0.99839    0.65370    0.55664    1.000
    C167     C        0.03704    0.71970    0.57809    1.000
    C168     C        0.05550    0.80550    0.55836    1.000
    C169     C        0.03442    0.82700    0.51622    1.000
    C170     C        0.99698    0.75380    0.49426    1.000
    C171     C        0.97939    0.66220    0.51515    1.000
    C172     C        0.97740    0.57680    0.57950    1.000
    H141     H        0.99500    0.58050    0.60810    1.000
    H142     H        0.97100    0.46790    0.57100    1.000
    H143     H        0.95280    0.63360    0.57370    1.000
    C173     C        0.09797    0.86980    0.58151    1.000
    H144     H        0.10800    0.84530    0.60980    1.000
    H145     H        0.09770    0.98320    0.57800    1.000
    H146     H        0.11520    0.82170    0.57140    1.000
    C174     C        0.97548    0.76960    0.44861    1.000
    H147     H        0.95030    0.71300    0.43820    1.000
    H148     H        0.99210    0.72570    0.43730    1.000
    H149     H        0.97040    0.88010    0.44140    1.000
    C175     C        0.93986    0.57690    0.49087    1.000
    H150     H        0.94010    0.52530    0.46750    1.000
    H151     H        0.93560    0.49630    0.50740    1.000
    C176     C        0.86939    0.64380    0.45279    1.000
    C177     C        0.84009    0.76290    0.43712    1.000
    H152     H        0.84710    0.86910    0.44370    1.000
    C178     C        0.80047    0.72090    0.41161    1.000
    H153     H        0.78070    0.79960    0.40150    1.000
    C179     C        0.78993    0.56400    0.40095    1.000
    C180     C        0.81931    0.44700    0.41834    1.000
    H154     H        0.81210    0.34060    0.41220    1.000
    C181     C        0.85833    0.48460    0.44411    1.000
    H155     H        0.87750    0.40450    0.45580    1.000
    C182     C        0.74652    0.51490    0.37251    1.000
    C183     C        0.06117    0.67680    0.62220    1.000
    H156     H        0.04350    0.64390    0.63390    1.000
    H157     H        0.07750    0.76610    0.63760    1.000
    C184     C        0.10353    0.44900    0.65538    1.000
    C185     C        0.12410    0.31740    0.65070    1.000
    H158     H        0.12680    0.30300    0.62710    1.000
    C186     C        0.14020    0.21060    0.68180    1.000
    H159     H        0.15240    0.11900    0.67840    1.000
    C187     C        0.13881    0.23360    0.71777    1.000
    C188     C        0.11990    0.36460    0.72235    1.000
    H160     H        0.11870    0.38090    0.74670    1.000
    C189     C        0.10240    0.47410    0.69150    1.000
    H161     H        0.08980    0.56440    0.69520    1.000
    C190     C        0.15630    0.11430    0.75220    1.000
    C191     C        0.05201    0.92510    0.49466    1.000
    H162     H        0.03070    0.98200    0.47240    1.000
    H163     H        0.07080    0.00240    0.51310    1.000
    C192     C        0.08677    0.89050    0.45489    1.000
    C193     C        0.08767    0.05240    0.44831    1.000
    H164     H        0.07750    0.12410    0.46070    1.000
    C194     C        0.10380    0.10730    0.42310    1.000
    H165     H        0.10550    0.21630    0.41960    1.000
    C195     C        0.11760    0.99960    0.40290    1.000
    C196     C        0.11720    0.84210    0.40980    1.000
    H166     H        0.12770    0.77100    0.39760    1.000
    C197     C        0.10110    0.78440    0.43540    1.000
    H167     H        0.10010    0.67530    0.43930    1.000
    C198     C        0.13380    0.06330    0.37460    1.000
    H168     H        0.12100    0.30330    0.37860    1.000
    Zn7      Zn       0.16925    0.96733    0.82298    1.000
    O55      O        0.40766    0.80300    0.97786    1.000
    O56      O        0.58638    0.95350    0.12169    1.000
    O57      O        0.57270    0.67910    0.97952    1.000
    O58      O        0.23730    0.12370    0.86743    1.000
    O59      O        0.22138    0.86800    0.85530    1.000
    O60      O        0.65352    0.36250    0.28289    1.000
    O61      O        0.67790    0.48810    0.24970    1.000
    O62      O        0.64448    0.54030    0.85730    1.000
    O63      O        0.63640    0.28170    0.87230    1.000
    C199     C        0.49839    0.84630    0.05664    1.000
    C200     C        0.53704    0.78030    0.07809    1.000
    C201     C        0.55550    0.69450    0.05836    1.000
    C202     C        0.53442    0.67300    0.01622    1.000
    C203     C        0.49698    0.74620    0.99426    1.000
    C204     C        0.47939    0.83780    0.01515    1.000
    C205     C        0.47740    0.92320    0.07950    1.000
    H169     H        0.49500    0.91950    0.10810    1.000
    H170     H        0.47100    0.03210    0.07100    1.000
    H171     H        0.45280    0.86640    0.07370    1.000
    C206     C        0.59797    0.63020    0.08151    1.000
    H172     H        0.60800    0.65470    0.10980    1.000
    H173     H        0.59770    0.51680    0.07800    1.000
    H174     H        0.61520    0.67830    0.07140    1.000
    C207     C        0.47548    0.73040    0.94861    1.000
    H175     H        0.45030    0.78700    0.93820    1.000
    H176     H        0.49210    0.77430    0.93730    1.000
    H177     H        0.47040    0.61990    0.94140    1.000
    C208     C        0.43986    0.92310    0.99087    1.000
    H178     H        0.44010    0.97470    0.96750    1.000
    H179     H        0.43560    0.00370    0.00740    1.000
    C209     C        0.36939    0.85620    0.95279    1.000
    C210     C        0.34009    0.73710    0.93712    1.000
    H180     H        0.34710    0.63090    0.94370    1.000
    C211     C        0.30047    0.77910    0.91161    1.000
    H181     H        0.28070    0.70040    0.90150    1.000
    C212     C        0.28993    0.93600    0.90095    1.000
    C213     C        0.31931    0.05300    0.91834    1.000
    H182     H        0.31210    0.15940    0.91220    1.000
    C214     C        0.35833    0.01540    0.94411    1.000
    H183     H        0.37750    0.09550    0.95580    1.000
    C215     C        0.24652    0.98510    0.87251    1.000
    C216     C        0.56117    0.82320    0.12220    1.000
    H184     H        0.54350    0.85610    0.13390    1.000
    H185     H        0.57750    0.73390    0.13760    1.000
    C217     C        0.60353    0.05100    0.15538    1.000
    C218     C        0.62410    0.18260    0.15070    1.000
    H186     H        0.62680    0.19700    0.12710    1.000
    C219     C        0.64020    0.28940    0.18180    1.000
    H187     H        0.65240    0.38100    0.17840    1.000
    C220     C        0.63881    0.26640    0.21777    1.000
    C221     C        0.61990    0.13540    0.22235    1.000
    H188     H        0.61870    0.11910    0.24670    1.000
    C222     C        0.60240    0.02590    0.19150    1.000
    H189     H        0.58980    0.93560    0.19520    1.000
    C223     C        0.65630    0.38570    0.25220    1.000
    C224     C        0.55201    0.57490    0.99466    1.000
    H190     H        0.53070    0.51800    0.97240    1.000
    H191     H        0.57080    0.49760    0.01310    1.000
    C225     C        0.58677    0.60950    0.95489    1.000
    C226     C        0.58767    0.44760    0.94831    1.000
    H192     H        0.57750    0.37590    0.96070    1.000
    C227     C        0.60380    0.39270    0.92310    1.000
    H193     H        0.60550    0.28370    0.91960    1.000
    C228     C        0.61760    0.50040    0.90290    1.000
    C229     C        0.61720    0.65790    0.90980    1.000
    H194     H        0.62770    0.72900    0.89760    1.000
    C230     C        0.60110    0.71560    0.93540    1.000
    H195     H        0.60010    0.82470    0.93930    1.000
    C231     C        0.63380    0.43670    0.87460    1.000
    H196     H        0.62100    0.19670    0.87860    1.000
    Zn8      Zn       0.66925    0.46733    0.82298    1.000
    O64      O        0.90766    0.30300    0.97786    1.000
    O65      O        0.08638    0.45350    0.12169    1.000
    O66      O        0.07270    0.17910    0.97952    1.000
    O67      O        0.73730    0.62370    0.86743    1.000
    O68      O        0.72138    0.36800    0.85530    1.000
    O69      O        0.15352    0.86250    0.28289    1.000
    O70      O        0.17790    0.98810    0.24970    1.000
    O71      O        0.14448    0.04030    0.85730    1.000
    O72      O        0.13640    0.78170    0.87230    1.000
    C232     C        0.99839    0.34630    0.05664    1.000
    C233     C        0.03704    0.28030    0.07809    1.000
    C234     C        0.05550    0.19450    0.05836    1.000
    C235     C        0.03442    0.17300    0.01622    1.000
    C236     C        0.99698    0.24620    0.99426    1.000
    C237     C        0.97939    0.33780    0.01515    1.000
    C238     C        0.97740    0.42320    0.07950    1.000
    H197     H        0.99500    0.41950    0.10810    1.000
    H198     H        0.97100    0.53210    0.07100    1.000
    H199     H        0.95280    0.36640    0.07370    1.000
    C239     C        0.09797    0.13020    0.08151    1.000
    H200     H        0.10800    0.15470    0.10980    1.000
    H201     H        0.09770    0.01680    0.07800    1.000
    H202     H        0.11520    0.17830    0.07140    1.000
    C240     C        0.97548    0.23040    0.94861    1.000
    H203     H        0.95030    0.28700    0.93820    1.000
    H204     H        0.99210    0.27430    0.93730    1.000
    H205     H        0.97040    0.11990    0.94140    1.000
    C241     C        0.93986    0.42310    0.99087    1.000
    H206     H        0.94010    0.47470    0.96750    1.000
    H207     H        0.93560    0.50370    0.00740    1.000
    C242     C        0.86939    0.35620    0.95279    1.000
    C243     C        0.84009    0.23710    0.93712    1.000
    H208     H        0.84710    0.13090    0.94370    1.000
    C244     C        0.80047    0.27910    0.91161    1.000
    H209     H        0.78070    0.20040    0.90150    1.000
    C245     C        0.78993    0.43600    0.90095    1.000
    C246     C        0.81931    0.55300    0.91834    1.000
    H210     H        0.81210    0.65940    0.91220    1.000
    C247     C        0.85833    0.51540    0.94411    1.000
    H211     H        0.87750    0.59550    0.95580    1.000
    C248     C        0.74652    0.48510    0.87251    1.000
    C249     C        0.06117    0.32320    0.12220    1.000
    H212     H        0.04350    0.35610    0.13390    1.000
    H213     H        0.07750    0.23390    0.13760    1.000
    C250     C        0.10353    0.55100    0.15538    1.000
    C251     C        0.12410    0.68260    0.15070    1.000
    H214     H        0.12680    0.69700    0.12710    1.000
    C252     C        0.14020    0.78940    0.18180    1.000
    H215     H        0.15240    0.88100    0.17840    1.000
    C253     C        0.13881    0.76640    0.21777    1.000
    C254     C        0.11990    0.63540    0.22235    1.000
    H216     H        0.11870    0.61910    0.24670    1.000
    C255     C        0.10240    0.52590    0.19150    1.000
    H217     H        0.08980    0.43560    0.19520    1.000
    C256     C        0.15630    0.88570    0.25220    1.000
    C257     C        0.05201    0.07490    0.99466    1.000
    H218     H        0.03070    0.01800    0.97240    1.000
    H219     H        0.07080    0.99760    0.01310    1.000
    C258     C        0.08677    0.10950    0.95489    1.000
    C259     C        0.08767    0.94760    0.94831    1.000
    H220     H        0.07750    0.87590    0.96070    1.000
    C260     C        0.10380    0.89270    0.92310    1.000
    H221     H        0.10550    0.78370    0.91960    1.000
    C261     C        0.11760    0.00040    0.90290    1.000
    C262     C        0.11720    0.15790    0.90980    1.000
    H222     H        0.12770    0.22900    0.89760    1.000
    C263     C        0.10110    0.21560    0.93540    1.000
    H223     H        0.10010    0.32470    0.93930    1.000
    C264     C        0.13380    0.93670    0.87460    1.000
    H224     H        0.12100    0.69670    0.87860    1.000
