data_functionalizedCrystal
_audit_creation_method	'EQeq! by Chris Wilmer'
_symmetry_space_group_name_H-M	'P1'
_symmetry_Int_Tables_number	1
_symmetry_cell_setting	triclinic
loop_
_symmetry_equiv_pos_as_xyz
  x,y,z
_cell_length_a	32.1446
_cell_length_b	32.1446
_cell_length_c	10.9808
_cell_angle_alpha	90
_cell_angle_beta	90
_cell_angle_gamma	90
loop_
_atom_site_label
_atom_site_type_symbol
_atom_site_fract_x
_atom_site_fract_y
_atom_site_fract_z
_atom_site_charge
Mof_Zn	Zn	0.28384	0.71609	0.60755	1.178
Mof_N 	N 	0.27538	0.85586	0.8801	-0.247
Mof_O 	O 	0.4185	0.79995	0.0881	-0.424
Mof_N 	N 	0.25632	0.81067	0.7214	-0.309
Mof_N 	N 	0.34388	0.8437	0.0176	-0.31
Mof_H 	H 	0.3275	0.8647	0.0232	0.048
Mof_H 	H 	0.365	0.8417	0.0651	0.136
Mof_O 	O 	0.65682	0.1572	0.6791	-0.343
Mof_C 	C 	0.2452	0.8479	0.7826	0.007
Mof_H 	H 	0.2225	0.8646	0.7639	-0.032
Mof_O 	O 	0.6812	0.1816	0.5045	-0.497
Mof_C 	C 	0.6588	0.1556	0.5675	0.334
Mof_C 	C 	0.33529	0.80943	0.9221	0.13
Mof_C 	C 	0.29962	0.82003	0.8576	-0.014
Mof_C 	C 	0.28648	0.79541	0.7609	0.133
Mof_N 	N 	0.30901	0.76018	0.7287	-0.284
Mof_C 	C 	0.34468	0.74957	0.7932	0.063
Mof_H 	H 	0.3598	0.726	0.7716	-0.007
Mof_N 	N 	0.35782	0.7742	0.8898	-0.254
Mof_C 	C 	0.5996	0.1111	0.5401	0.03
Mof_H 	H 	0.5888	0.1241	0.6089	0.025
Mof_C 	C 	0.5759	0.082	0.4773	-0.117
Mof_H 	H 	0.5492	0.0755	0.5041	0.05
Mof_C 	C 	0.592	0.0627	0.3744	0.054
Mof_C 	C 	0.6318	0.0724	0.3343	-0.124
Mof_H 	H 	0.6426	0.0595	0.2654	0.036
Mof_C 	C 	0.6555	0.1015	0.397	0.037
Mof_H 	H 	0.6822	0.1081	0.3702	0.001
Mof_C 	C 	0.6394	0.1209	0.5	-0.122
Mof_O 	O 	0.4587	0.7959	0.9286	-0.241
Mof_C 	C 	0.45	0.8142	0.029	0.175
Mof_C 	C 	0.4741	0.8472	0.082	-0.007
Mof_C 	C 	0.4641	0.8633	0.1957	-0.04
Mof_H 	H 	0.443	0.8513	0.2416	0.053
Mof_C 	C 	0.4856	0.8975	0.241	-0.115
Mof_H 	H 	0.4789	0.9083	0.317	0.048
Mof_C 	C 	0.5172	0.9155	0.1724	0.045
Mof_C 	C 	0.5272	0.8994	0.0587	-0.029
Mof_H 	H 	0.5483	0.9115	0.0128	0.009
Mof_C 	C 	0.5057	0.8653	0.0135	-0.209
Mof_H 	H 	0.5124	0.8545	0.9374	0.155
Mof_C 	C 	0.5684	0.0292	0.3142	-0.002
Mof_C 	C 	0.5413	0.951	0.214	-0.175
Mof_C 	C 	0.5496	0.9618	0.334	0.443
Mof_C 	C 	0.5625	0.0288	0.187	0.078
Mof_C 	C 	0.5607	0.9976	0.4	-0.302
Mof_H 	H 	0.5626	0	0.4844	0.121
Mof_C 	C 	0.5428	0.9909	0.157	-0.091
Mof_H 	H 	0.5278	0.9922	0.0844	0.036
Mof_C 	C 	0.5736	0.0638	0.099	-0.502
Mof_H 	H 	0.6034	0.0642	0.0925	0.14
Mof_H 	H 	0.5618	0.0566	0.0214	0.144
Mof_H 	H 	0.5638	0.0908	0.1229	0.163
Mof_C 	C 	0.5531	0.9262	0.402	-1.106
Mof_H 	H 	0.5363	0.9318	0.4726	0.34
Mof_H 	H 	0.5812	0.9209	0.4272	0.343
Mof_H 	H 	0.5424	0.9023	0.3603	0.357
Mof_Zn	Zn	0.21616	0.78391	0.60755	1.179
Mof_N 	N 	0.22462	0.64414	0.8801	-0.246
Mof_O 	O 	0.0815	0.70005	0.0881	-0.423
Mof_N 	N 	0.24368	0.68933	0.7214	-0.308
Mof_N 	N 	0.15612	0.6563	0.0176	-0.309
Mof_H 	H 	0.1725	0.6353	0.0232	0.049
Mof_H 	H 	0.135	0.6583	0.0651	0.137
Mof_O 	O 	0.84318	0.3428	0.6791	-0.342
Mof_C 	C 	0.2548	0.6521	0.7826	0.008
Mof_H 	H 	0.2775	0.6354	0.7639	-0.031
Mof_O 	O 	0.8188	0.3184	0.5045	-0.497
Mof_C 	C 	0.8412	0.3444	0.5675	0.333
Mof_C 	C 	0.16471	0.69057	0.9221	0.13
Mof_C 	C 	0.20038	0.67997	0.8576	-0.014
Mof_C 	C 	0.21352	0.70459	0.7609	0.133
Mof_N 	N 	0.19099	0.73982	0.7287	-0.284
Mof_C 	C 	0.15532	0.75043	0.7932	0.063
Mof_H 	H 	0.1402	0.774	0.7716	-0.007
Mof_N 	N 	0.14218	0.7258	0.8898	-0.254
Mof_C 	C 	0.9004	0.3889	0.5401	0.028
Mof_H 	H 	0.9112	0.3759	0.6089	0.026
Mof_C 	C 	0.9241	0.418	0.4773	-0.114
Mof_H 	H 	0.9508	0.4245	0.5041	0.05
Mof_C 	C 	0.908	0.4373	0.3744	0.051
Mof_C 	C 	0.8682	0.4276	0.3343	-0.122
Mof_H 	H 	0.8574	0.4405	0.2654	0.035
Mof_C 	C 	0.8445	0.3985	0.397	0.036
Mof_H 	H 	0.8178	0.3919	0.3702	0.002
Mof_C 	C 	0.8606	0.3791	0.5	-0.12
Mof_O 	O 	0.0413	0.7041	0.9286	-0.241
Mof_C 	C 	0.05	0.6858	0.029	0.175
Mof_C 	C 	0.0259	0.6528	0.082	-0.008
Mof_C 	C 	0.0359	0.6367	0.1957	-0.039
Mof_H 	H 	0.057	0.6487	0.2416	0.053
Mof_C 	C 	0.0144	0.6025	0.241	-0.117
Mof_H 	H 	0.0211	0.5917	0.317	0.048
Mof_C 	C 	0.9828	0.5845	0.1724	0.046
Mof_C 	C 	0.9728	0.6006	0.0587	-0.03
Mof_H 	H 	0.9517	0.5885	0.0128	0.009
Mof_C 	C 	0.9943	0.6347	0.0135	-0.208
Mof_H 	H 	0.9876	0.6455	0.9374	0.154
Mof_C 	C 	0.9316	0.4708	0.3142	0.006
Mof_C 	C 	0.9587	0.549	0.214	-0.177
Mof_C 	C 	0.9504	0.5382	0.334	0.45
Mof_C 	C 	0.9375	0.4712	0.187	0.078
Mof_C 	C 	0.9393	0.5024	0.4	-0.317
Mof_H 	H 	0.9374	0.5	0.4844	0.128
Mof_C 	C 	0.9572	0.5091	0.157	-0.094
Mof_H 	H 	0.9722	0.5078	0.0844	0.036
Mof_C 	C 	0.9264	0.4362	0.099	-0.503
Mof_H 	H 	0.8966	0.4358	0.0925	0.14
Mof_H 	H 	0.9382	0.4434	0.0214	0.144
Mof_H 	H 	0.9362	0.4092	0.1229	0.163
Mof_C 	C 	0.9469	0.5738	0.402	-1.115
Mof_H 	H 	0.9637	0.5682	0.4726	0.341
Mof_H 	H 	0.9188	0.5791	0.4272	0.345
Mof_H 	H 	0.9576	0.5977	0.3603	0.36
Mof_Zn	Zn	0.21616	0.71609	0.39245	1.178
Mof_N 	N 	0.22462	0.85586	0.1199	-0.286
Mof_O 	O 	0.0815	0.79995	0.9119	-0.453
Mof_N 	N 	0.24368	0.81067	0.2786	-0.307
Mof_N 	N 	0.15612	0.8437	0.9824	-0.249
Mof_H 	H 	0.1725	0.8647	0.9768	0.089
Mof_H 	H 	0.135	0.8417	0.9349	0.155
Mof_O 	O 	0.84318	0.1572	0.3209	-0.355
Mof_C 	C 	0.2548	0.8479	0.2174	-0.006
Mof_H 	H 	0.2775	0.8646	0.2361	-0.039
Mof_O 	O 	0.8188	0.1816	0.4955	-0.499
Mof_C 	C 	0.8412	0.1556	0.4325	0.34
Mof_C 	C 	0.16471	0.80943	0.0779	0.018
Mof_C 	C 	0.20038	0.82003	0.1424	-0.01
Mof_C 	C 	0.21352	0.79541	0.2391	0.119
Mof_N 	N 	0.19099	0.76018	0.2713	-0.284
Mof_C 	C 	0.15532	0.74957	0.2068	0.046
Mof_H 	H 	0.1402	0.726	0.2284	-0.013
Mof_N 	N 	0.14218	0.7742	0.1102	-0.269
Mof_C 	C 	0.9004	0.1111	0.4599	0.045
Mof_H 	H 	0.9112	0.1241	0.3911	0.014
Mof_C 	C 	0.9241	0.082	0.5227	-0.135
Mof_H 	H 	0.9508	0.0755	0.4959	0.06
Mof_C 	C 	0.908	0.0627	0.6256	0.073
Mof_C 	C 	0.8682	0.0724	0.6657	-0.141
Mof_H 	H 	0.8574	0.0595	0.7346	0.052
Mof_C 	C 	0.8445	0.1015	0.603	0.054
Mof_H 	H 	0.8178	0.1081	0.6298	-0.001
Mof_C 	C 	0.8606	0.1209	0.5	-0.137
Mof_O 	O 	0.0413	0.7959	0.0714	-0.417
Mof_C 	C 	0.05	0.8142	0.971	0.478
Mof_C 	C 	0.0259	0.8472	0.918	-0.325
Mof_C 	C 	0.0359	0.8633	0.8043	0.232
Mof_H 	H 	0.057	0.8513	0.7584	-0.037
Mof_C 	C 	0.0144	0.8975	0.759	-0.332
Mof_H 	H 	0.0211	0.9083	0.683	0.127
Mof_C 	C 	0.9828	0.9155	0.8276	0.266
Mof_C 	C 	0.9728	0.8994	0.9413	-0.371
Mof_H 	H 	0.9517	0.9115	0.9872	0.173
Mof_C 	C 	0.9943	0.8653	0.9865	0.38
Mof_H 	H 	0.9876	0.8545	0.0626	-0.148
Mof_C 	C 	0.9316	0.0292	0.6858	-0.019
Mof_C 	C 	0.9587	0.951	0.786	-0.237
Mof_C 	C 	0.9504	0.9618	0.666	0.483
Mof_C 	C 	0.9375	0.0288	0.813	0.138
Mof_C 	C 	0.9393	0.9976	0.6	-0.308
Mof_H 	H 	0.9374	0	0.5156	0.117
Mof_C 	C 	0.9572	0.9909	0.843	-0.085
Mof_H 	H 	0.9722	0.9922	0.9156	0.071
Mof_C 	C 	0.9264	0.0638	0.901	-0.663
Mof_H 	H 	0.8966	0.0642	0.9075	0.217
Mof_H 	H 	0.9382	0.0566	0.9786	0.242
Mof_H 	H 	0.9362	0.0908	0.8771	0.244
Mof_C 	C 	0.9469	0.9262	0.598	-1.151
Mof_H 	H 	0.9637	0.9318	0.5274	0.346
Mof_H 	H 	0.9188	0.9209	0.5728	0.355
Mof_H 	H 	0.9576	0.9023	0.6397	0.37
Mof_Zn	Zn	0.28384	0.78391	0.39245	1.178
Mof_N 	N 	0.27538	0.64414	0.1199	-0.286
Mof_O 	O 	0.4185	0.70005	0.9119	-0.454
Mof_N 	N 	0.25632	0.68933	0.2786	-0.307
Mof_N 	N 	0.34388	0.6563	0.9824	-0.249
Mof_H 	H 	0.3275	0.6353	0.9768	0.089
Mof_H 	H 	0.365	0.6583	0.9349	0.155
Mof_O 	O 	0.65682	0.3428	0.3209	-0.354
Mof_C 	C 	0.2452	0.6521	0.2174	-0.006
Mof_H 	H 	0.2225	0.6354	0.2361	-0.039
Mof_O 	O 	0.6812	0.3184	0.4955	-0.499
Mof_C 	C 	0.6588	0.3444	0.4325	0.34
Mof_C 	C 	0.33529	0.69057	0.0779	0.018
Mof_C 	C 	0.29962	0.67997	0.1424	-0.01
Mof_C 	C 	0.28648	0.70459	0.2391	0.119
Mof_N 	N 	0.30901	0.73982	0.2713	-0.284
Mof_C 	C 	0.34468	0.75043	0.2068	0.046
Mof_H 	H 	0.3598	0.774	0.2284	-0.013
Mof_N 	N 	0.35782	0.7258	0.1102	-0.269
Mof_C 	C 	0.5996	0.3889	0.4599	0.043
Mof_H 	H 	0.5888	0.3759	0.3911	0.015
Mof_C 	C 	0.5759	0.418	0.5227	-0.133
Mof_H 	H 	0.5492	0.4245	0.4959	0.06
Mof_C 	C 	0.592	0.4373	0.6256	0.07
Mof_C 	C 	0.6318	0.4276	0.6657	-0.139
Mof_H 	H 	0.6426	0.4405	0.7346	0.052
Mof_C 	C 	0.6555	0.3985	0.603	0.053
Mof_H 	H 	0.6822	0.3919	0.6298	0
Mof_C 	C 	0.6394	0.3791	0.5	-0.136
Mof_O 	O 	0.4587	0.7041	0.0714	-0.418
Mof_C 	C 	0.45	0.6858	0.971	0.479
Mof_C 	C 	0.4741	0.6528	0.918	-0.326
Mof_C 	C 	0.4641	0.6367	0.8043	0.233
Mof_H 	H 	0.443	0.6487	0.7584	-0.037
Mof_C 	C 	0.4856	0.6025	0.759	-0.334
Mof_H 	H 	0.4789	0.5917	0.683	0.127
Mof_C 	C 	0.5172	0.5845	0.8276	0.268
Mof_C 	C 	0.5272	0.6006	0.9413	-0.373
Mof_H 	H 	0.5483	0.5885	0.9872	0.174
Mof_C 	C 	0.5057	0.6347	0.9865	0.382
Mof_H 	H 	0.5124	0.6455	0.0626	-0.149
Mof_C 	C 	0.5684	0.4708	0.6858	-0.012
Mof_C 	C 	0.5413	0.549	0.786	-0.24
Mof_C 	C 	0.5496	0.5382	0.666	0.49
Mof_C 	C 	0.5625	0.4712	0.813	0.139
Mof_C 	C 	0.5607	0.5024	0.6	-0.322
Mof_H 	H 	0.5626	0.5	0.5156	0.124
Mof_C 	C 	0.5428	0.5091	0.843	-0.088
Mof_H 	H 	0.5278	0.5078	0.9156	0.07
Mof_C 	C 	0.5736	0.4362	0.901	-0.663
Mof_H 	H 	0.6034	0.4358	0.9075	0.217
Mof_H 	H 	0.5618	0.4434	0.9786	0.243
Mof_H 	H 	0.5638	0.4092	0.8771	0.244
Mof_C 	C 	0.5531	0.5738	0.598	-1.159
Mof_H 	H 	0.5363	0.5682	0.5274	0.348
Mof_H 	H 	0.5812	0.5791	0.5728	0.357
Mof_H 	H 	0.5424	0.5977	0.6397	0.372
Mof_Zn	Zn	0.71616	0.28391	0.39245	1.178
Mof_N 	N 	0.72462	0.14414	0.1199	-0.286
Mof_O 	O 	0.5815	0.20005	0.9119	-0.454
Mof_N 	N 	0.74368	0.18933	0.2786	-0.307
Mof_N 	N 	0.65612	0.1563	0.9824	-0.249
Mof_H 	H 	0.6725	0.1353	0.9768	0.089
Mof_H 	H 	0.635	0.1583	0.9349	0.155
Mof_O 	O 	0.34318	0.8428	0.3209	-0.354
Mof_C 	C 	0.7548	0.1521	0.2174	-0.006
Mof_H 	H 	0.7775	0.1354	0.2361	-0.039
Mof_O 	O 	0.3188	0.8184	0.4955	-0.499
Mof_C 	C 	0.3412	0.8444	0.4325	0.34
Mof_C 	C 	0.66471	0.19057	0.0779	0.018
Mof_C 	C 	0.70038	0.17997	0.1424	-0.01
Mof_C 	C 	0.71352	0.20459	0.2391	0.119
Mof_N 	N 	0.69099	0.23982	0.2713	-0.284
Mof_C 	C 	0.65532	0.25043	0.2068	0.046
Mof_H 	H 	0.6402	0.274	0.2284	-0.013
Mof_N 	N 	0.64218	0.2258	0.1102	-0.269
Mof_C 	C 	0.4004	0.8889	0.4599	0.043
Mof_H 	H 	0.4112	0.8759	0.3911	0.015
Mof_C 	C 	0.4241	0.918	0.5227	-0.132
Mof_H 	H 	0.4508	0.9245	0.4959	0.06
Mof_C 	C 	0.408	0.9373	0.6256	0.07
Mof_C 	C 	0.3682	0.9276	0.6657	-0.138
Mof_H 	H 	0.3574	0.9405	0.7346	0.052
Mof_C 	C 	0.3445	0.8985	0.603	0.052
Mof_H 	H 	0.3178	0.8919	0.6298	0
Mof_C 	C 	0.3606	0.8791	0.5	-0.135
Mof_O 	O 	0.5413	0.2041	0.0714	-0.418
Mof_C 	C 	0.55	0.1858	0.971	0.479
Mof_C 	C 	0.5259	0.1528	0.918	-0.325
Mof_C 	C 	0.5359	0.1367	0.8043	0.232
Mof_H 	H 	0.557	0.1487	0.7584	-0.037
Mof_C 	C 	0.5144	0.1025	0.759	-0.333
Mof_H 	H 	0.5211	0.0917	0.683	0.127
Mof_C 	C 	0.4828	0.0845	0.8276	0.266
Mof_C 	C 	0.4728	0.1006	0.9413	-0.372
Mof_H 	H 	0.4517	0.0885	0.9872	0.173
Mof_C 	C 	0.4943	0.1347	0.9865	0.381
Mof_H 	H 	0.4876	0.1455	0.0626	-0.149
Mof_C 	C 	0.4316	0.9708	0.6858	-0.009
Mof_C 	C 	0.4587	0.049	0.786	-0.239
Mof_C 	C 	0.4504	0.0382	0.666	0.489
Mof_C 	C 	0.4375	0.9712	0.813	0.143
Mof_C 	C 	0.4393	0.0024	0.6	-0.326
Mof_H 	H 	0.4374	0	0.5156	0.124
Mof_C 	C 	0.4572	0.0091	0.843	-0.093
Mof_H 	H 	0.4722	0.0078	0.9156	0.071
Mof_C 	C 	0.4264	0.9362	0.901	-0.667
Mof_H 	H 	0.3966	0.9358	0.9075	0.219
Mof_H 	H 	0.4382	0.9434	0.9786	0.244
Mof_H 	H 	0.4362	0.9092	0.8771	0.245
Mof_C 	C 	0.4469	0.0738	0.598	-1.158
Mof_H 	H 	0.4637	0.0682	0.5274	0.347
Mof_H 	H 	0.4188	0.0791	0.5728	0.356
Mof_H 	H 	0.4576	0.0977	0.6397	0.372
Mof_Zn	Zn	0.78384	0.21609	0.39245	1.178
Mof_N 	N 	0.77538	0.35586	0.1199	-0.286
Mof_O 	O 	0.9185	0.29995	0.9119	-0.454
Mof_N 	N 	0.75632	0.31067	0.2786	-0.307
Mof_N 	N 	0.84388	0.3437	0.9824	-0.249
Mof_H 	H 	0.8275	0.3647	0.9768	0.089
Mof_H 	H 	0.865	0.3417	0.9349	0.155
Mof_O 	O 	0.15682	0.6572	0.3209	-0.354
Mof_C 	C 	0.7452	0.3479	0.2174	-0.006
Mof_H 	H 	0.7225	0.3646	0.2361	-0.039
Mof_O 	O 	0.1812	0.6816	0.4955	-0.499
Mof_C 	C 	0.1588	0.6556	0.4325	0.34
Mof_C 	C 	0.83529	0.30943	0.0779	0.018
Mof_C 	C 	0.79962	0.32003	0.1424	-0.01
Mof_C 	C 	0.78648	0.29541	0.2391	0.119
Mof_N 	N 	0.80901	0.26018	0.2713	-0.284
Mof_C 	C 	0.84468	0.24957	0.2068	0.046
Mof_H 	H 	0.8598	0.226	0.2284	-0.013
Mof_N 	N 	0.85782	0.2742	0.1102	-0.269
Mof_C 	C 	0.0996	0.6111	0.4599	0.043
Mof_H 	H 	0.0888	0.6241	0.3911	0.015
Mof_C 	C 	0.0759	0.582	0.5227	-0.133
Mof_H 	H 	0.0492	0.5755	0.4959	0.06
Mof_C 	C 	0.092	0.5627	0.6256	0.07
Mof_C 	C 	0.1318	0.5724	0.6657	-0.139
Mof_H 	H 	0.1426	0.5595	0.7346	0.052
Mof_C 	C 	0.1555	0.6015	0.603	0.053
Mof_H 	H 	0.1822	0.6081	0.6298	0
Mof_C 	C 	0.1394	0.6209	0.5	-0.136
Mof_O 	O 	0.9587	0.2959	0.0714	-0.417
Mof_C 	C 	0.95	0.3142	0.971	0.479
Mof_C 	C 	0.9741	0.3472	0.918	-0.325
Mof_C 	C 	0.9641	0.3633	0.8043	0.233
Mof_H 	H 	0.943	0.3513	0.7584	-0.037
Mof_C 	C 	0.9856	0.3975	0.759	-0.333
Mof_H 	H 	0.9789	0.4083	0.683	0.127
Mof_C 	C 	0.0172	0.4155	0.8276	0.267
Mof_C 	C 	0.0272	0.3994	0.9413	-0.372
Mof_H 	H 	0.0483	0.4115	0.9872	0.173
Mof_C 	C 	0.0057	0.3653	0.9865	0.381
Mof_H 	H 	0.0124	0.3545	0.0626	-0.149
Mof_C 	C 	0.0684	0.5292	0.6858	-0.012
Mof_C 	C 	0.0413	0.451	0.786	-0.24
Mof_C 	C 	0.0496	0.4618	0.666	0.489
Mof_C 	C 	0.0625	0.5288	0.813	0.139
Mof_C 	C 	0.0607	0.4976	0.6	-0.322
Mof_H 	H 	0.0626	0.5	0.5156	0.124
Mof_C 	C 	0.0428	0.4909	0.843	-0.088
Mof_H 	H 	0.0278	0.4922	0.9156	0.07
Mof_C 	C 	0.0736	0.5638	0.901	-0.663
Mof_H 	H 	0.1034	0.5642	0.9075	0.217
Mof_H 	H 	0.0618	0.5566	0.9786	0.243
Mof_H 	H 	0.0638	0.5908	0.8771	0.244
Mof_C 	C 	0.0531	0.4262	0.598	-1.159
Mof_H 	H 	0.0363	0.4318	0.5274	0.347
Mof_H 	H 	0.0812	0.4209	0.5728	0.357
Mof_H 	H 	0.0424	0.4023	0.6397	0.372
Mof_Zn	Zn	0.78384	0.28391	0.60755	1.179
Mof_N 	N 	0.77538	0.14414	0.8801	-0.246
Mof_O 	O 	0.9185	0.20005	0.0881	-0.423
Mof_N 	N 	0.75632	0.18933	0.7214	-0.308
Mof_N 	N 	0.84388	0.1563	0.0176	-0.309
Mof_H 	H 	0.8275	0.1353	0.0232	0.049
Mof_H 	H 	0.865	0.1583	0.0651	0.137
Mof_O 	O 	0.15682	0.8428	0.6791	-0.341
Mof_C 	C 	0.7452	0.1521	0.7826	0.008
Mof_H 	H 	0.7225	0.1354	0.7639	-0.031
Mof_O 	O 	0.1812	0.8184	0.5045	-0.497
Mof_C 	C 	0.1588	0.8444	0.5675	0.333
Mof_C 	C 	0.83529	0.19057	0.9221	0.13
Mof_C 	C 	0.79962	0.17997	0.8576	-0.014
Mof_C 	C 	0.78648	0.20459	0.7609	0.133
Mof_N 	N 	0.80901	0.23982	0.7287	-0.284
Mof_C 	C 	0.84468	0.25043	0.7932	0.063
Mof_H 	H 	0.8598	0.274	0.7716	-0.007
Mof_N 	N 	0.85782	0.2258	0.8898	-0.254
Mof_C 	C 	0.0996	0.8889	0.5401	0.028
Mof_H 	H 	0.0888	0.8759	0.6089	0.026
Mof_C 	C 	0.0759	0.918	0.4773	-0.114
Mof_H 	H 	0.0492	0.9245	0.5041	0.05
Mof_C 	C 	0.092	0.9373	0.3744	0.05
Mof_C 	C 	0.1318	0.9276	0.3343	-0.121
Mof_H 	H 	0.1426	0.9405	0.2654	0.035
Mof_C 	C 	0.1555	0.8985	0.397	0.036
Mof_H 	H 	0.1822	0.8919	0.3702	0.002
Mof_C 	C 	0.1394	0.8791	0.5	-0.12
Mof_O 	O 	0.9587	0.2041	0.9286	-0.241
Mof_C 	C 	0.95	0.1858	0.029	0.175
Mof_C 	C 	0.9741	0.1528	0.082	-0.007
Mof_C 	C 	0.9641	0.1367	0.1957	-0.04
Mof_H 	H 	0.943	0.1487	0.2416	0.053
Mof_C 	C 	0.9856	0.1025	0.241	-0.116
Mof_H 	H 	0.9789	0.0917	0.317	0.048
Mof_C 	C 	0.0172	0.0845	0.1724	0.045
Mof_C 	C 	0.0272	0.1006	0.0587	-0.029
Mof_H 	H 	0.0483	0.0885	0.0128	0.009
Mof_C 	C 	0.0057	0.1347	0.0135	-0.209
Mof_H 	H 	0.0124	0.1455	0.9374	0.154
Mof_C 	C 	0.0684	0.9708	0.3142	0.008
Mof_C 	C 	0.0413	0.049	0.214	-0.176
Mof_C 	C 	0.0496	0.0382	0.334	0.449
Mof_C 	C 	0.0625	0.9712	0.187	0.082
Mof_C 	C 	0.0607	0.0024	0.4	-0.321
Mof_H 	H 	0.0626	0	0.4844	0.128
Mof_C 	C 	0.0428	0.0091	0.157	-0.099
Mof_H 	H 	0.0278	0.0078	0.0844	0.036
Mof_C 	C 	0.0736	0.9362	0.099	-0.507
Mof_H 	H 	0.1034	0.9358	0.0925	0.142
Mof_H 	H 	0.0618	0.9434	0.0214	0.146
Mof_H 	H 	0.0638	0.9092	0.1229	0.165
Mof_C 	C 	0.0531	0.0738	0.402	-1.114
Mof_H 	H 	0.0363	0.0682	0.4726	0.341
Mof_H 	H 	0.0812	0.0791	0.4272	0.344
Mof_H 	H 	0.0424	0.0977	0.3603	0.359
Mof_Zn	Zn	0.71616	0.21609	0.60755	1.179
Mof_N 	N 	0.72462	0.35586	0.8801	-0.246
Mof_O 	O 	0.5815	0.29995	0.0881	-0.423
Mof_N 	N 	0.74368	0.31067	0.7214	-0.308
Mof_N 	N 	0.65612	0.3437	0.0176	-0.309
Mof_H 	H 	0.6725	0.3647	0.0232	0.049
Mof_H 	H 	0.635	0.3417	0.0651	0.137
Mof_O 	O 	0.34318	0.6572	0.6791	-0.342
Mof_C 	C 	0.7548	0.3479	0.7826	0.008
Mof_H 	H 	0.7775	0.3646	0.7639	-0.031
Mof_O 	O 	0.3188	0.6816	0.5045	-0.497
Mof_C 	C 	0.3412	0.6556	0.5675	0.333
Mof_C 	C 	0.66471	0.30943	0.9221	0.13
Mof_C 	C 	0.70038	0.32003	0.8576	-0.014
Mof_C 	C 	0.71352	0.29541	0.7609	0.133
Mof_N 	N 	0.69099	0.26018	0.7287	-0.284
Mof_C 	C 	0.65532	0.24957	0.7932	0.063
Mof_H 	H 	0.6402	0.226	0.7716	-0.007
Mof_N 	N 	0.64218	0.2742	0.8898	-0.254
Mof_C 	C 	0.4004	0.6111	0.5401	0.028
Mof_H 	H 	0.4112	0.6241	0.6089	0.026
Mof_C 	C 	0.4241	0.582	0.4773	-0.114
Mof_H 	H 	0.4508	0.5755	0.5041	0.05
Mof_C 	C 	0.408	0.5627	0.3744	0.051
Mof_C 	C 	0.3682	0.5724	0.3343	-0.122
Mof_H 	H 	0.3574	0.5595	0.2654	0.035
Mof_C 	C 	0.3445	0.6015	0.397	0.036
Mof_H 	H 	0.3178	0.6081	0.3702	0.002
Mof_C 	C 	0.3606	0.6209	0.5	-0.12
Mof_O 	O 	0.5413	0.2959	0.9286	-0.241
Mof_C 	C 	0.55	0.3142	0.029	0.175
Mof_C 	C 	0.5259	0.3472	0.082	-0.007
Mof_C 	C 	0.5359	0.3633	0.1957	-0.039
Mof_H 	H 	0.557	0.3513	0.2416	0.053
Mof_C 	C 	0.5144	0.3975	0.241	-0.116
Mof_H 	H 	0.5211	0.4083	0.317	0.048
Mof_C 	C 	0.4828	0.4155	0.1724	0.046
Mof_C 	C 	0.4728	0.3994	0.0587	-0.029
Mof_H 	H 	0.4517	0.4115	0.0128	0.009
Mof_C 	C 	0.4943	0.3653	0.0135	-0.209
Mof_H 	H 	0.4876	0.3545	0.9374	0.154
Mof_C 	C 	0.4316	0.5292	0.3142	0.006
Mof_C 	C 	0.4587	0.451	0.214	-0.177
Mof_C 	C 	0.4504	0.4618	0.334	0.449
Mof_C 	C 	0.4375	0.5288	0.187	0.078
Mof_C 	C 	0.4393	0.4976	0.4	-0.317
Mof_H 	H 	0.4374	0.5	0.4844	0.128
Mof_C 	C 	0.4572	0.4909	0.157	-0.094
Mof_H 	H 	0.4722	0.4922	0.0844	0.036
Mof_C 	C 	0.4264	0.5638	0.099	-0.503
Mof_H 	H 	0.3966	0.5642	0.0925	0.14
Mof_H 	H 	0.4382	0.5566	0.0214	0.144
Mof_H 	H 	0.4362	0.5908	0.1229	0.163
Mof_C 	C 	0.4469	0.4262	0.402	-1.115
Mof_H 	H 	0.4637	0.4318	0.4726	0.341
Mof_H 	H 	0.4188	0.4209	0.4272	0.345
Mof_H 	H 	0.4576	0.4023	0.3603	0.359
Mof_Zn	Zn	0.25	0.89931	-0	1.072
Mof_Zn	Zn	0.25	0.60069	-0	1.072
Mof_Zn	Zn	0.75	0.10069	-0	1.072
Mof_Zn	Zn	0.75	0.39931	-0	1.072
Mof_Zn	Zn	0.3993	0.75	-0	1.196
Mof_Zn	Zn	0.1007	0.75	-0	1.196
Mof_Zn	Zn	0.6007	0.25	-0	1.196
Mof_Zn	Zn	0.8993	0.25	-0	1.196
Mof_O 	O 	0.25	0.75	0.5	-0.974
Mof_O 	O 	0.75	0.25	0.5	-0.974
_end
