data_functionalizedCrystal
_audit_creation_method	'EQeq! by Chris Wilmer'
_symmetry_space_group_name_H-M	'P1'
_symmetry_Int_Tables_number	1
_symmetry_cell_setting	triclinic
loop_
_symmetry_equiv_pos_as_xyz
  x,y,z
_cell_length_a	9.4272
_cell_length_b	9.4272
_cell_length_c	16.403
_cell_angle_alpha	88.5189
_cell_angle_beta	88.5189
_cell_angle_gamma	83.7955
loop_
_atom_site_label
_atom_site_type_symbol
_atom_site_fract_x
_atom_site_fract_y
_atom_site_fract_z
_atom_site_charge
Mof_Cu	Cu	0.86387	0.50759	0.49746	0.79
Mof_Cu	Cu	0.49241	0.13613	0.00254	0.733
Mof_Cu	Cu	0.13613	0.49241	0.50254	0.745
Mof_Cu	Cu	0.50759	0.86387	0.99746	0.802
Mof_Cu	Cu	-6.13232e-19	-2.45293e-18	0.5	0.64
Mof_Cu	Cu	-0	0	-0	0.63
Mof_Cu	Cu	0.60233	0.39767	0.75	0.751
Mof_Cu	Cu	0.39767	0.60233	0.25	0.748
Mof_Cu	Cu	0.63662	0.36338	0.25	0.746
Mof_Cu	Cu	0.36338	0.63662	0.75	0.748
Mof_C 	C 	0.6933	0.4633	0.6601	-0.367
Mof_C 	C 	0.9597	0.6835	0.4891	-0.321
Mof_C 	C 	0.7165	0.4279	0.3397	-0.378
Mof_C 	C 	0.5367	0.3067	0.8399	-0.39
Mof_C 	C 	0.3165	0.0403	0.0109	-0.463
Mof_C 	C 	0.5721	0.2835	0.1603	-0.403
Mof_C 	C 	0.3067	0.5367	0.3399	-0.398
Mof_C 	C 	0.0403	0.3165	0.5109	-0.448
Mof_C 	C 	0.2835	0.5721	0.6603	-0.397
Mof_C 	C 	0.4633	0.6933	0.1601	-0.374
Mof_C 	C 	0.6835	0.9597	0.9891	-0.307
Mof_C 	C 	0.4279	0.7165	0.8397	-0.37
Mof_N 	N 	0.7568	0.4842	0.6009	-0.209
Mof_N 	N 	0.9757	0.8009	0.4869	-0.197
Mof_N 	N 	0.7719	0.4585	0.3969	-0.209
Mof_N 	N 	0.5158	0.2432	0.8991	-0.224
Mof_N 	N 	0.1991	0.0243	0.0131	-0.284
Mof_N 	N 	0.5415	0.2281	0.1031	-0.236
Mof_N 	N 	0.2432	0.5158	0.3991	-0.234
Mof_N 	N 	0.0243	0.1991	0.5131	-0.281
Mof_N 	N 	0.2281	0.5415	0.6031	-0.232
Mof_N 	N 	0.4842	0.7568	0.1009	-0.217
Mof_N 	N 	0.8009	0.9757	0.9869	-0.19
Mof_N 	N 	0.4585	0.7719	0.8969	-0.204
_end
