# CIF file generated by openbabel 3.1.0, see https://openbabel.org
data_I
_chemical_name_common 'image0'
_cell_length_a 18.577
_cell_length_b 18.577
_cell_length_c 6.841
_cell_angle_alpha 90
_cell_angle_beta 90
_cell_angle_gamma 120
_space_group_name_H-M_alt 'P 1'
_space_group_name_Hall 'P 1'
loop_
    _symmetry_equiv_pos_as_xyz
    x,y,z
loop_
    _atom_site_label
    _atom_site_type_symbol
    _atom_site_fract_x
    _atom_site_fract_y
    _atom_site_fract_z
    _atom_site_occupancy
    O1       O        0.37110    0.48040    0.51970    1.000
    O2       O        0.58910    0.55840    0.74900    1.000
    C1       C        0.35980    0.44990    0.35250    1.000
    H1       H        0.47020    0.57780    0.95400    1.000
    C2       C        0.27570    0.42210    0.25990    1.000
    H2       H        0.34490    0.57160    0.79510    1.000
    C3       C        0.25410    0.37820    0.08800    1.000
    H3       H        0.32770    0.58880    0.12300    1.000
    H4       H        0.29240    0.36500    0.02400    1.000
    O3       O        0.08290    0.28580    0.74960    1.000
    C4       C        0.05090    0.23970    0.58200    1.000
    H5       H        0.99740    0.23270    0.55250    1.000
    H6       H        0.08690    0.26790    0.47220    1.000
    H7       H        0.04590    0.18640    0.59340    1.000
    O4       O        0.51960    0.89070    0.51970    1.000
    O5       O        0.44160    0.03070    0.74900    1.000
    C5       C        0.55010    0.90990    0.35250    1.000
    H8       H        0.42220    0.89240    0.95400    1.000
    C6       C        0.57790    0.85360    0.25990    1.000
    H9       H        0.42840    0.77330    0.79510    1.000
    C7       C        0.62180    0.87590    0.08800    1.000
    H10      H        0.41120    0.73890    0.12300    1.000
    H11      H        0.63500    0.92740    0.02400    1.000
    O6       O        0.71420    0.79710    0.74960    1.000
    C8       C        0.76030    0.81120    0.58200    1.000
    H12      H        0.76730    0.76470    0.55250    1.000
    H13      H        0.73210    0.81900    0.47220    1.000
    H14      H        0.81360    0.85950    0.59340    1.000
    O7       O        0.10930    0.62890    0.51970    1.000
    O8       O        0.96930    0.41090    0.74900    1.000
    C9       C        0.09010    0.64020    0.35250    1.000
    H15      H        0.10760    0.52980    0.95400    1.000
    C10      C        0.14640    0.72430    0.25990    1.000
    H16      H        0.22670    0.65510    0.79510    1.000
    C11      C        0.12410    0.74590    0.08800    1.000
    H17      H        0.26110    0.67230    0.12300    1.000
    H18      H        0.07260    0.70760    0.02400    1.000
    O9       O        0.20290    0.91710    0.74960    1.000
    C12      C        0.18880    0.94910    0.58200    1.000
    H19      H        0.23530    0.00260    0.55250    1.000
    H20      H        0.18100    0.91310    0.47220    1.000
    H21      H        0.14050    0.95410    0.59340    1.000
    O10      O        0.48040    0.37110    0.48030    1.000
    O11      O        0.55840    0.58910    0.25100    1.000
    C13      C        0.44990    0.35980    0.64750    1.000
    H22      H        0.57780    0.47020    0.04600    1.000
    C14      C        0.42210    0.27570    0.74010    1.000
    H23      H        0.57160    0.34490    0.20490    1.000
    C15      C        0.37820    0.25410    0.91200    1.000
    H24      H        0.58880    0.32770    0.87700    1.000
    H25      H        0.36500    0.29240    0.97600    1.000
    O12      O        0.28580    0.08290    0.25040    1.000
    C16      C        0.23970    0.05090    0.41800    1.000
    H26      H        0.23270    0.99740    0.44750    1.000
    H27      H        0.26790    0.08690    0.52780    1.000
    H28      H        0.18640    0.04590    0.40660    1.000
    O13      O        0.89070    0.51960    0.48030    1.000
    O14      O        0.03070    0.44160    0.25100    1.000
    C17      C        0.90990    0.55010    0.64750    1.000
    H29      H        0.89240    0.42220    0.04600    1.000
    C18      C        0.85360    0.57790    0.74010    1.000
    H30      H        0.77330    0.42840    0.20490    1.000
    C19      C        0.87590    0.62180    0.91200    1.000
    H31      H        0.73890    0.41120    0.87700    1.000
    H32      H        0.92740    0.63500    0.97600    1.000
    O15      O        0.79710    0.71420    0.25040    1.000
    C20      C        0.81120    0.76030    0.41800    1.000
    H33      H        0.76470    0.76730    0.44750    1.000
    H34      H        0.81900    0.73210    0.52780    1.000
    H35      H        0.85950    0.81360    0.40660    1.000
    O16      O        0.62890    0.10930    0.48030    1.000
    O17      O        0.41090    0.96930    0.25100    1.000
    C21      C        0.64020    0.09010    0.64750    1.000
    H36      H        0.52980    0.10760    0.04600    1.000
    C22      C        0.72430    0.14640    0.74010    1.000
    H37      H        0.65510    0.22670    0.20490    1.000
    C23      C        0.74590    0.12410    0.91200    1.000
    H38      H        0.67230    0.26110    0.87700    1.000
    H39      H        0.70760    0.07260    0.97600    1.000
    O18      O        0.91710    0.20290    0.25040    1.000
    C24      C        0.94910    0.18880    0.41800    1.000
    H40      H        0.00260    0.23530    0.44750    1.000
    H41      H        0.91310    0.18100    0.52780    1.000
    H42      H        0.95410    0.14050    0.40660    1.000
    O19      O        0.62890    0.51960    0.48030    1.000
    O20      O        0.41090    0.44160    0.25100    1.000
    C25      C        0.64020    0.55010    0.64750    1.000
    H43      H        0.52980    0.42220    0.04600    1.000
    C26      C        0.72430    0.57790    0.74010    1.000
    H44      H        0.65510    0.42840    0.20490    1.000
    C27      C        0.74590    0.62180    0.91200    1.000
    H45      H        0.67230    0.41120    0.87700    1.000
    H46      H        0.70760    0.63500    0.97600    1.000
    O21      O        0.91710    0.71420    0.25040    1.000
    C28      C        0.94910    0.76030    0.41800    1.000
    H47      H        0.00260    0.76730    0.44750    1.000
    H48      H        0.91310    0.73210    0.52780    1.000
    H49      H        0.95410    0.81360    0.40660    1.000
    O22      O        0.48040    0.10930    0.48030    1.000
    O23      O        0.55840    0.96930    0.25100    1.000
    C29      C        0.44990    0.09010    0.64750    1.000
    H50      H        0.57780    0.10760    0.04600    1.000
    C30      C        0.42210    0.14640    0.74010    1.000
    H51      H        0.57160    0.22670    0.20490    1.000
    C31      C        0.37820    0.12410    0.91200    1.000
    H52      H        0.58880    0.26110    0.87700    1.000
    H53      H        0.36500    0.07260    0.97600    1.000
    O24      O        0.28580    0.20290    0.25040    1.000
    C32      C        0.23970    0.18880    0.41800    1.000
    H54      H        0.23270    0.23530    0.44750    1.000
    H55      H        0.26790    0.18100    0.52780    1.000
    H56      H        0.18640    0.14050    0.40660    1.000
    O25      O        0.89070    0.37110    0.48030    1.000
    O26      O        0.03070    0.58910    0.25100    1.000
    C33      C        0.90990    0.35980    0.64750    1.000
    H57      H        0.89240    0.47020    0.04600    1.000
    C34      C        0.85360    0.27570    0.74010    1.000
    H58      H        0.77330    0.34490    0.20490    1.000
    C35      C        0.87590    0.25410    0.91200    1.000
    H59      H        0.73890    0.32770    0.87700    1.000
    H60      H        0.92740    0.29240    0.97600    1.000
    O27      O        0.79710    0.08290    0.25040    1.000
    C36      C        0.81120    0.05090    0.41800    1.000
    H61      H        0.76470    0.99740    0.44750    1.000
    H62      H        0.81900    0.08690    0.52780    1.000
    H63      H        0.85950    0.04590    0.40660    1.000
    O28      O        0.51960    0.62890    0.51970    1.000
    O29      O        0.44160    0.41090    0.74900    1.000
    C37      C        0.55010    0.64020    0.35250    1.000
    H64      H        0.42220    0.52980    0.95400    1.000
    C38      C        0.57790    0.72430    0.25990    1.000
    H65      H        0.42840    0.65510    0.79510    1.000
    C39      C        0.62180    0.74590    0.08800    1.000
    H66      H        0.41120    0.67230    0.12300    1.000
    H67      H        0.63500    0.70760    0.02400    1.000
    O30      O        0.71420    0.91710    0.74960    1.000
    C40      C        0.76030    0.94910    0.58200    1.000
    H68      H        0.76730    0.00260    0.55250    1.000
    H69      H        0.73210    0.91310    0.47220    1.000
    H70      H        0.81360    0.95410    0.59340    1.000
    O31      O        0.10930    0.48040    0.51970    1.000
    O32      O        0.96930    0.55840    0.74900    1.000
    C41      C        0.09010    0.44990    0.35250    1.000
    H71      H        0.10760    0.57780    0.95400    1.000
    C42      C        0.14640    0.42210    0.25990    1.000
    H72      H        0.22670    0.57160    0.79510    1.000
    C43      C        0.12410    0.37820    0.08800    1.000
    H73      H        0.26110    0.58880    0.12300    1.000
    H74      H        0.07260    0.36500    0.02400    1.000
    O33      O        0.20290    0.28580    0.74960    1.000
    C44      C        0.18880    0.23970    0.58200    1.000
    H75      H        0.23530    0.23270    0.55250    1.000
    H76      H        0.18100    0.26790    0.47220    1.000
    H77      H        0.14050    0.18640    0.59340    1.000
    O34      O        0.37110    0.89070    0.51970    1.000
    O35      O        0.58910    0.03070    0.74900    1.000
    C45      C        0.35980    0.90990    0.35250    1.000
    H78      H        0.47020    0.89240    0.95400    1.000
    C46      C        0.27570    0.85360    0.25990    1.000
    H79      H        0.34490    0.77330    0.79510    1.000
    C47      C        0.25410    0.87590    0.08800    1.000
    H80      H        0.32770    0.73890    0.12300    1.000
    H81      H        0.29240    0.92740    0.02400    1.000
    O36      O        0.08290    0.79710    0.74960    1.000
    C48      C        0.05090    0.81120    0.58200    1.000
    H82      H        0.99740    0.76470    0.55250    1.000
    H83      H        0.08690    0.81900    0.47220    1.000
    H84      H        0.04590    0.85950    0.59340    1.000
    Cu1      Cu       0.47665    0.52335    0.65643    1.000
    N1       N        0.43470    0.56530    0.90700    1.000
    O37      O        0.44010    0.55990    0.91350    1.000
    C49      C        0.39340    0.60660    0.87600    1.000
    C50      C        0.36550    0.63450    0.05000    1.000
    Cu2      Cu       0.47665    0.95330    0.65643    1.000
    N2       N        0.43470    0.86940    0.90700    1.000
    O38      O        0.44010    0.88020    0.91350    1.000
    C51      C        0.39340    0.78680    0.87600    1.000
    C52      C        0.36550    0.73100    0.05000    1.000
    Cu3      Cu       0.04670    0.52335    0.65643    1.000
    N3       N        0.13060    0.56530    0.90700    1.000
    O39      O        0.11980    0.55990    0.91350    1.000
    C53      C        0.21320    0.60660    0.87600    1.000
    C54      C        0.26900    0.63450    0.05000    1.000
    Cu4      Cu       0.52335    0.47665    0.34357    1.000
    N4       N        0.56530    0.43470    0.09300    1.000
    O40      O        0.55990    0.44010    0.08650    1.000
    C55      C        0.60660    0.39340    0.12400    1.000
    C56      C        0.63450    0.36550    0.95000    1.000
    Cu5      Cu       0.95330    0.47665    0.34357    1.000
    N5       N        0.86940    0.43470    0.09300    1.000
    O41      O        0.88020    0.44010    0.08650    1.000
    C57      C        0.78680    0.39340    0.12400    1.000
    C58      C        0.73100    0.36550    0.95000    1.000
    Cu6      Cu       0.52335    0.04670    0.34357    1.000
    N6       N        0.56530    0.13060    0.09300    1.000
    O42      O        0.55990    0.11980    0.08650    1.000
    C59      C        0.60660    0.21320    0.12400    1.000
    C60      C        0.63450    0.26900    0.95000    1.000
    C61      C        0.22205    0.44410    0.34990    1.000
    C62      C        0.17705    0.35410    0.00570    1.000
    H85      H        0.23685    0.47370    0.47240    1.000
    C63      C        0.15230    0.30460    0.81940    1.000
    C64      C        0.55590    0.77795    0.34990    1.000
    C65      C        0.64590    0.82295    0.00570    1.000
    H86      H        0.52630    0.76315    0.47240    1.000
    C66      C        0.69540    0.84770    0.81940    1.000
    C67      C        0.22205    0.77795    0.34990    1.000
    C68      C        0.17705    0.82295    0.00570    1.000
    H87      H        0.23685    0.76315    0.47240    1.000
    C69      C        0.15230    0.84770    0.81940    1.000
    C70      C        0.44410    0.22205    0.65010    1.000
    C71      C        0.35410    0.17705    0.99430    1.000
    H88      H        0.47370    0.23685    0.52760    1.000
    C72      C        0.30460    0.15230    0.18060    1.000
    C73      C        0.77795    0.55590    0.65010    1.000
    C74      C        0.82295    0.64590    0.99430    1.000
    H89      H        0.76315    0.52630    0.52760    1.000
    C75      C        0.84770    0.69540    0.18060    1.000
    C76      C        0.77795    0.22205    0.65010    1.000
    C77      C        0.82295    0.17705    0.99430    1.000
    H90      H        0.76315    0.23685    0.52760    1.000
    C78      C        0.84770    0.15230    0.18060    1.000
