data_functionalizedCrystal
_audit_creation_method	'EQeq! by Chris Wilmer'
_symmetry_space_group_name_H-M	'P1'
_symmetry_Int_Tables_number	1
_symmetry_cell_setting	triclinic
loop_
_symmetry_equiv_pos_as_xyz
  x,y,z
_cell_length_a	11.0389
_cell_length_b	22.784
_cell_length_c	31.28
_cell_angle_alpha	90
_cell_angle_beta	90
_cell_angle_gamma	90
loop_
_atom_site_label
_atom_site_type_symbol
_atom_site_fract_x
_atom_site_fract_y
_atom_site_fract_z
_atom_site_charge
Mof_H 	H 	0.8056	0.986	0.9786	0.246
Mof_O 	O 	0.1688	0.8334	0.87966	-0.204
Mof_O 	O 	0.0205	0.946	0.85781	-0.51
Mof_O 	O 	0.9824	0.93267	0.93962	-0.338
Mof_O 	O 	0.1442	0.8635	0.9933	-0.247
Mof_C 	C 	0.0769	0.8449	0.8491	0.009
Mof_H 	H 	0.1132	0.8619	0.8233	0.028
Mof_C 	C 	0.9888	0.8884	0.86853	0.246
Mof_H 	H 	0.905	0.8795	0.8605	-0.035
Mof_C 	C 	0.0092	0.8808	0.91614	-0.172
Mof_H 	H 	0.9609	0.8479	0.9269	0.122
Mof_C 	C 	0.1455	0.8655	0.9178	0.102
Mof_H 	H 	0.1935	0.9017	0.9179	0.003
Mof_C 	C 	0.1773	0.8292	0.956	-0.064
Mof_H 	H 	0.1331	0.7925	0.9556	0.055
Mof_H 	H 	0.2634	0.8206	0.9563	0.065
Mof_N 	N 	0.0181	0.7871	0.83833	-0.17
Mof_C 	C 	0.9337	0.7868	0.80645	0.286
Mof_O 	O 	0.9072	0.83429	0.78731	-0.303
Mof_N 	N 	0.8761	0.7371	0.79655	-0.27
Mof_C 	C 	0.9044	0.6865	0.8169	0.178
Mof_N 	N 	0.8432	0.639	0.8075	-0.322
Mof_H 	H 	0.7863	0.6404	0.7888	0.131
Mof_H 	H 	0.8599	0.6064	0.8201	0.13
Mof_C 	C 	0.9972	0.6852	0.8463	-0.046
Mof_H 	H 	0.0197	0.6501	0.8593	0.004
Mof_C 	C 	0.0564	0.737	0.8562	-0.008
Mof_H 	H 	0.1218	0.737	0.875	0.053
Mof_H 	H 	0.8056	0.486	0.4786	0.168
Mof_O 	O 	0.1688	0.3334	0.37966	-0.207
Mof_O 	O 	0.0205	0.446	0.35781	-0.556
Mof_O 	O 	0.9824	0.43267	0.43962	-0.366
Mof_O 	O 	0.1442	0.3635	0.4933	-0.261
Mof_C 	C 	0.0769	0.3449	0.3491	0.002
Mof_H 	H 	0.1132	0.3619	0.3233	0.022
Mof_C 	C 	0.9888	0.3884	0.36853	0.264
Mof_H 	H 	0.905	0.3795	0.3605	-0.047
Mof_C 	C 	0.0092	0.3808	0.41614	-0.186
Mof_H 	H 	0.9609	0.3479	0.4269	0.125
Mof_C 	C 	0.1455	0.3655	0.4178	0.106
Mof_H 	H 	0.1935	0.4017	0.4179	-0.011
Mof_C 	C 	0.1773	0.3292	0.456	-0.064
Mof_H 	H 	0.1331	0.2925	0.4556	0.052
Mof_H 	H 	0.2634	0.3206	0.4563	0.06
Mof_N 	N 	0.0181	0.2871	0.33833	-0.169
Mof_C 	C 	0.9337	0.2868	0.30645	0.288
Mof_O 	O 	0.9072	0.33429	0.28731	-0.309
Mof_N 	N 	0.8761	0.2371	0.29655	-0.269
Mof_C 	C 	0.9044	0.1865	0.3169	0.169
Mof_N 	N 	0.8432	0.139	0.3075	-0.317
Mof_H 	H 	0.7863	0.1404	0.2888	0.127
Mof_H 	H 	0.8599	0.1064	0.3201	0.12
Mof_C 	C 	0.9972	0.1852	0.3463	-0.032
Mof_H 	H 	0.0197	0.1501	0.3593	-0.009
Mof_C 	C 	0.0564	0.237	0.3562	-0.019
Mof_H 	H 	0.1218	0.237	0.375	0.055
Mof_H 	H 	0.3056	0.986	0.4786	0.235
Mof_O 	O 	0.6688	0.8334	0.37966	-0.202
Mof_O 	O 	0.5205	0.946	0.35781	-0.443
Mof_O 	O 	0.4824	0.93267	0.43962	-0.426
Mof_O 	O 	0.6442	0.8635	0.4933	-0.251
Mof_C 	C 	0.5769	0.8449	0.3491	0.099
Mof_H 	H 	0.6132	0.8619	0.3233	0.013
Mof_C 	C 	0.4888	0.8884	0.36853	0.051
Mof_H 	H 	0.405	0.8795	0.3605	0.012
Mof_C 	C 	0.5092	0.8808	0.41614	0.037
Mof_H 	H 	0.4609	0.8479	0.4269	0.026
Mof_C 	C 	0.6455	0.8655	0.4178	0.037
Mof_H 	H 	0.6935	0.9017	0.4179	0.027
Mof_C 	C 	0.6773	0.8292	0.456	-0.027
Mof_H 	H 	0.6331	0.7925	0.4556	0.053
Mof_H 	H 	0.7634	0.8206	0.4563	0.059
Mof_N 	N 	0.5181	0.7871	0.33833	-0.18
Mof_C 	C 	0.4337	0.7868	0.30645	0.262
Mof_O 	O 	0.4072	0.83429	0.28731	-0.312
Mof_N 	N 	0.3761	0.7371	0.29655	-0.282
Mof_C 	C 	0.4044	0.6865	0.3169	0.238
Mof_N 	N 	0.3432	0.639	0.3075	-0.339
Mof_H 	H 	0.2863	0.6404	0.2888	0.13
Mof_H 	H 	0.3599	0.6064	0.3201	0.123
Mof_C 	C 	0.4972	0.6852	0.3463	-0.259
Mof_H 	H 	0.5197	0.6501	0.3593	0.11
Mof_C 	C 	0.5564	0.737	0.3562	0.143
Mof_H 	H 	0.6218	0.737	0.375	0.006
Mof_H 	H 	0.3056	0.486	0.9786	0.175
Mof_O 	O 	0.6688	0.3334	0.87966	-0.206
Mof_O 	O 	0.5205	0.446	0.85781	-0.484
Mof_O 	O 	0.4824	0.43267	0.93962	-0.45
Mof_O 	O 	0.6442	0.3635	0.9933	-0.249
Mof_C 	C 	0.5769	0.3449	0.8491	0.097
Mof_H 	H 	0.6132	0.3619	0.8233	0.006
Mof_C 	C 	0.4888	0.3884	0.86853	0.058
Mof_H 	H 	0.405	0.3795	0.8605	0.004
Mof_C 	C 	0.5092	0.3808	0.91614	0.033
Mof_H 	H 	0.4609	0.3479	0.9269	0.029
Mof_C 	C 	0.6455	0.3655	0.9178	0.042
Mof_H 	H 	0.6935	0.4017	0.9179	0.014
Mof_C 	C 	0.6773	0.3292	0.956	-0.032
Mof_H 	H 	0.6331	0.2925	0.9556	0.055
Mof_H 	H 	0.7634	0.3206	0.9563	0.059
Mof_N 	N 	0.5181	0.2871	0.83833	-0.18
Mof_C 	C 	0.4337	0.2868	0.80645	0.262
Mof_O 	O 	0.4072	0.33429	0.78731	-0.318
Mof_N 	N 	0.3761	0.2371	0.79655	-0.281
Mof_C 	C 	0.4044	0.1865	0.8169	0.233
Mof_N 	N 	0.3432	0.139	0.8075	-0.335
Mof_H 	H 	0.2863	0.1404	0.7888	0.126
Mof_H 	H 	0.3599	0.1064	0.8201	0.112
Mof_C 	C 	0.4972	0.1852	0.8463	-0.256
Mof_H 	H 	0.5197	0.1501	0.8593	0.103
Mof_C 	C 	0.5564	0.237	0.8562	0.14
Mof_H 	H 	0.6218	0.237	0.875	0.006
Mof_H 	H 	0.1944	0.014	0.9786	0.18
Mof_O 	O 	0.8312	0.1666	0.87966	-0.215
Mof_O 	O 	0.9795	0.054	0.85781	-0.413
Mof_O 	O 	0.0176	0.06733	0.93962	-0.528
Mof_O 	O 	0.8558	0.1365	0.9933	-0.25
Mof_C 	C 	0.9231	0.1551	0.8491	0.197
Mof_H 	H 	0.8868	0.1381	0.8233	-0.02
Mof_C 	C 	0.0112	0.1116	0.86853	-0.15
Mof_H 	H 	0.095	0.1205	0.8605	0.057
Mof_C 	C 	0.9908	0.1192	0.91614	0.252
Mof_H 	H 	0.0391	0.1521	0.9269	-0.066
Mof_C 	C 	0.8545	0.1345	0.9178	-0.018
Mof_H 	H 	0.8065	0.0983	0.9179	0.024
Mof_C 	C 	0.8227	0.1708	0.956	0.004
Mof_H 	H 	0.8669	0.2075	0.9556	0.054
Mof_H 	H 	0.7366	0.1794	0.9563	0.04
Mof_N 	N 	0.9819	0.2129	0.83833	-0.192
Mof_C 	C 	0.0663	0.2132	0.80645	0.237
Mof_O 	O 	0.0928	0.16571	0.78731	-0.329
Mof_N 	N 	0.1239	0.2629	0.79655	-0.294
Mof_C 	C 	0.0956	0.3135	0.8169	0.304
Mof_N 	N 	0.1568	0.361	0.8075	-0.359
Mof_H 	H 	0.2137	0.3596	0.7888	0.135
Mof_H 	H 	0.1401	0.3936	0.8201	0.12
Mof_C 	C 	0.0028	0.3148	0.8463	-0.481
Mof_H 	H 	0.9803	0.3499	0.8593	0.219
Mof_C 	C 	0.9436	0.263	0.8562	0.299
Mof_H 	H 	0.8782	0.263	0.875	-0.045
Mof_H 	H 	0.1944	0.514	0.4786	0.171
Mof_O 	O 	0.8312	0.6666	0.37966	-0.212
Mof_O 	O 	0.9795	0.554	0.35781	-0.399
Mof_O 	O 	0.0176	0.56733	0.43962	-0.524
Mof_O 	O 	0.8558	0.6365	0.4933	-0.254
Mof_C 	C 	0.9231	0.6551	0.3491	0.195
Mof_H 	H 	0.8868	0.6381	0.3233	-0.015
Mof_C 	C 	0.0112	0.6116	0.36853	-0.15
Mof_H 	H 	0.095	0.6205	0.3605	0.06
Mof_C 	C 	0.9908	0.6192	0.41614	0.251
Mof_H 	H 	0.0391	0.6521	0.4269	-0.066
Mof_C 	C 	0.8545	0.6345	0.4178	-0.023
Mof_H 	H 	0.8065	0.5983	0.4179	0.033
Mof_C 	C 	0.8227	0.6708	0.456	0.008
Mof_H 	H 	0.8669	0.7075	0.4556	0.052
Mof_H 	H 	0.7366	0.6794	0.4563	0.041
Mof_N 	N 	0.9819	0.7129	0.33833	-0.192
Mof_C 	C 	0.0663	0.7132	0.30645	0.238
Mof_O 	O 	0.0928	0.66571	0.28731	-0.326
Mof_N 	N 	0.1239	0.7629	0.29655	-0.295
Mof_C 	C 	0.0956	0.8135	0.3169	0.308
Mof_N 	N 	0.1568	0.861	0.3075	-0.363
Mof_H 	H 	0.2137	0.8596	0.2888	0.142
Mof_H 	H 	0.1401	0.8936	0.3201	0.134
Mof_C 	C 	0.0028	0.8148	0.3463	-0.477
Mof_H 	H 	0.9803	0.8499	0.3593	0.223
Mof_C 	C 	0.9436	0.763	0.3562	0.298
Mof_H 	H 	0.8782	0.763	0.375	-0.044
Mof_H 	H 	0.6944	0.014	0.4786	0.173
Mof_O 	O 	0.3312	0.1666	0.37966	-0.217
Mof_O 	O 	0.4795	0.054	0.35781	-0.502
Mof_O 	O 	0.5176	0.06733	0.43962	-0.46
Mof_O 	O 	0.3558	0.1365	0.4933	-0.268
Mof_C 	C 	0.4231	0.1551	0.3491	0.1
Mof_H 	H 	0.3868	0.1381	0.3233	-0.005
Mof_C 	C 	0.5112	0.1116	0.36853	0.059
Mof_H 	H 	0.595	0.1205	0.3605	0.004
Mof_C 	C 	0.4908	0.1192	0.41614	0.032
Mof_H 	H 	0.5391	0.1521	0.4269	0.029
Mof_C 	C 	0.3545	0.1345	0.4178	0.043
Mof_H 	H 	0.3065	0.0983	0.4179	-0.003
Mof_C 	C 	0.3227	0.1708	0.456	-0.026
Mof_H 	H 	0.3669	0.2075	0.4556	0.05
Mof_H 	H 	0.2366	0.1794	0.4563	0.041
Mof_N 	N 	0.4819	0.2129	0.33833	-0.182
Mof_C 	C 	0.5663	0.2132	0.30645	0.263
Mof_O 	O 	0.5928	0.16571	0.28731	-0.321
Mof_N 	N 	0.6239	0.2629	0.29655	-0.282
Mof_C 	C 	0.5956	0.3135	0.3169	0.241
Mof_N 	N 	0.6568	0.361	0.3075	-0.341
Mof_H 	H 	0.7137	0.3596	0.2888	0.136
Mof_H 	H 	0.6401	0.3936	0.3201	0.128
Mof_C 	C 	0.5028	0.3148	0.3463	-0.261
Mof_H 	H 	0.4803	0.3499	0.3593	0.11
Mof_C 	C 	0.4436	0.263	0.3562	0.143
Mof_H 	H 	0.3782	0.263	0.375	0.003
Mof_H 	H 	0.6944	0.514	0.9786	0.185
Mof_O 	O 	0.3312	0.6666	0.87966	-0.214
Mof_O 	O 	0.4795	0.554	0.85781	-0.485
Mof_O 	O 	0.5176	0.56733	0.93962	-0.448
Mof_O 	O 	0.3558	0.6365	0.9933	-0.256
Mof_C 	C 	0.4231	0.6551	0.8491	0.101
Mof_H 	H 	0.3868	0.6381	0.8233	-0
Mof_C 	C 	0.5112	0.6116	0.86853	0.056
Mof_H 	H 	0.595	0.6205	0.8605	0.009
Mof_C 	C 	0.4908	0.6192	0.91614	0.033
Mof_H 	H 	0.5391	0.6521	0.9269	0.032
Mof_C 	C 	0.3545	0.6345	0.9178	0.043
Mof_H 	H 	0.3065	0.5983	0.9179	0.007
Mof_C 	C 	0.3227	0.6708	0.956	-0.028
Mof_H 	H 	0.3669	0.7075	0.9556	0.054
Mof_H 	H 	0.2366	0.6794	0.9563	0.046
Mof_N 	N 	0.4819	0.7129	0.83833	-0.182
Mof_C 	C 	0.5663	0.7132	0.80645	0.264
Mof_O 	O 	0.5928	0.66571	0.78731	-0.317
Mof_N 	N 	0.6239	0.7629	0.79655	-0.283
Mof_C 	C 	0.5956	0.8135	0.8169	0.248
Mof_N 	N 	0.6568	0.861	0.8075	-0.346
Mof_H 	H 	0.7137	0.8596	0.7888	0.143
Mof_H 	H 	0.6401	0.8936	0.8201	0.142
Mof_C 	C 	0.5028	0.8148	0.8463	-0.265
Mof_H 	H 	0.4803	0.8499	0.8593	0.119
Mof_C 	C 	0.4436	0.763	0.8562	0.148
Mof_H 	H 	0.3782	0.763	0.875	0.003
Mof_H 	H 	0.1944	0.986	0.0214	0.241
Mof_O 	O 	0.8312	0.8334	0.12034	-0.208
Mof_O 	O 	0.9795	0.946	0.14219	-0.361
Mof_O 	O 	0.0176	0.93267	0.06038	-0.495
Mof_O 	O 	0.8558	0.8635	0.0067	-0.255
Mof_C 	C 	0.9231	0.8449	0.1509	0.194
Mof_H 	H 	0.8868	0.8619	0.1767	-0.009
Mof_C 	C 	0.0112	0.8884	0.13147	-0.15
Mof_H 	H 	0.095	0.8795	0.1395	0.066
Mof_C 	C 	0.9908	0.8808	0.08386	0.249
Mof_H 	H 	0.0391	0.8479	0.0731	-0.066
Mof_C 	C 	0.8545	0.8655	0.0822	-0.026
Mof_H 	H 	0.8065	0.9017	0.0821	0.045
Mof_C 	C 	0.8227	0.8292	0.044	0.013
Mof_H 	H 	0.8669	0.7925	0.0444	0.048
Mof_H 	H 	0.7366	0.8206	0.0437	0.041
Mof_N 	N 	0.9819	0.7871	0.16167	-0.191
Mof_C 	C 	0.0663	0.7868	0.19355	0.236
Mof_O 	O 	0.0928	0.83429	0.21269	-0.319
Mof_N 	N 	0.1239	0.7371	0.20345	-0.294
Mof_C 	C 	0.0956	0.6865	0.1831	0.302
Mof_N 	N 	0.1568	0.639	0.1925	-0.358
Mof_H 	H 	0.2137	0.6404	0.2112	0.135
Mof_H 	H 	0.1401	0.6064	0.1799	0.12
Mof_C 	C 	0.0028	0.6852	0.1537	-0.477
Mof_H 	H 	0.9803	0.6501	0.1407	0.216
Mof_C 	C 	0.9436	0.737	0.1438	0.296
Mof_H 	H 	0.8782	0.737	0.125	-0.045
Mof_H 	H 	0.1944	0.486	0.5214	0.171
Mof_O 	O 	0.8312	0.3334	0.62034	-0.212
Mof_O 	O 	0.9795	0.446	0.64219	-0.398
Mof_O 	O 	0.0176	0.43267	0.56038	-0.525
Mof_O 	O 	0.8558	0.3635	0.5067	-0.254
Mof_C 	C 	0.9231	0.3449	0.6509	0.197
Mof_H 	H 	0.8868	0.3619	0.6767	-0.016
Mof_C 	C 	0.0112	0.3884	0.63147	-0.153
Mof_H 	H 	0.095	0.3795	0.6395	0.061
Mof_C 	C 	0.9908	0.3808	0.58386	0.255
Mof_H 	H 	0.0391	0.3479	0.5731	-0.069
Mof_C 	C 	0.8545	0.3655	0.5822	-0.025
Mof_H 	H 	0.8065	0.4017	0.5821	0.034
Mof_C 	C 	0.8227	0.3292	0.544	0.01
Mof_H 	H 	0.8669	0.2925	0.5444	0.05
Mof_H 	H 	0.7366	0.3206	0.5437	0.04
Mof_N 	N 	0.9819	0.2871	0.66167	-0.191
Mof_C 	C 	0.0663	0.2868	0.69355	0.236
Mof_O 	O 	0.0928	0.33429	0.71269	-0.326
Mof_N 	N 	0.1239	0.2371	0.70345	-0.294
Mof_C 	C 	0.0956	0.1865	0.6831	0.299
Mof_N 	N 	0.1568	0.139	0.6925	-0.355
Mof_H 	H 	0.2137	0.1404	0.7112	0.13
Mof_H 	H 	0.1401	0.1064	0.6799	0.109
Mof_C 	C 	0.0028	0.1852	0.6537	-0.481
Mof_H 	H 	0.9803	0.1501	0.6407	0.213
Mof_C 	C 	0.9436	0.237	0.6438	0.298
Mof_H 	H 	0.8782	0.237	0.625	-0.046
Mof_H 	H 	0.6944	0.986	0.5214	0.243
Mof_O 	O 	0.3312	0.8334	0.62034	-0.21
Mof_O 	O 	0.4795	0.946	0.64219	-0.444
Mof_O 	O 	0.5176	0.93267	0.56038	-0.424
Mof_O 	O 	0.3558	0.8635	0.5067	-0.258
Mof_C 	C 	0.4231	0.8449	0.6509	0.102
Mof_H 	H 	0.3868	0.8619	0.6767	0.006
Mof_C 	C 	0.5112	0.8884	0.63147	0.049
Mof_H 	H 	0.595	0.8795	0.6395	0.016
Mof_C 	C 	0.4908	0.8808	0.58386	0.037
Mof_H 	H 	0.5391	0.8479	0.5731	0.029
Mof_C 	C 	0.3545	0.8655	0.5822	0.037
Mof_H 	H 	0.3065	0.9017	0.5821	0.021
Mof_C 	C 	0.3227	0.8292	0.544	-0.022
Mof_H 	H 	0.3669	0.7925	0.5444	0.049
Mof_H 	H 	0.2366	0.8206	0.5437	0.046
Mof_N 	N 	0.4819	0.7871	0.66167	-0.181
Mof_C 	C 	0.5663	0.7868	0.69355	0.262
Mof_O 	O 	0.5928	0.83429	0.71269	-0.311
Mof_N 	N 	0.6239	0.7371	0.70345	-0.282
Mof_C 	C 	0.5956	0.6865	0.6831	0.241
Mof_N 	N 	0.6568	0.639	0.6925	-0.341
Mof_H 	H 	0.7137	0.6404	0.7112	0.136
Mof_H 	H 	0.6401	0.6064	0.6799	0.128
Mof_C 	C 	0.5028	0.6852	0.6537	-0.261
Mof_H 	H 	0.4803	0.6501	0.6407	0.11
Mof_C 	C 	0.4436	0.737	0.6438	0.144
Mof_H 	H 	0.3782	0.737	0.625	0.003
Mof_H 	H 	0.6944	0.486	0.0214	0.174
Mof_O 	O 	0.3312	0.3334	0.12034	-0.213
Mof_O 	O 	0.4795	0.446	0.14219	-0.486
Mof_O 	O 	0.5176	0.43267	0.06038	-0.454
Mof_O 	O 	0.3558	0.3635	0.0067	-0.271
Mof_C 	C 	0.4231	0.3449	0.1509	0.1
Mof_H 	H 	0.3868	0.3619	0.1767	-0.001
Mof_C 	C 	0.5112	0.3884	0.13147	0.055
Mof_H 	H 	0.595	0.3795	0.1395	0.008
Mof_C 	C 	0.4908	0.3808	0.08386	0.036
Mof_H 	H 	0.5391	0.3479	0.0731	0.027
Mof_C 	C 	0.3545	0.3655	0.0822	0.038
Mof_H 	H 	0.3065	0.4017	0.0821	0.007
Mof_C 	C 	0.3227	0.3292	0.044	-0.02
Mof_H 	H 	0.3669	0.2925	0.0444	0.046
Mof_H 	H 	0.2366	0.3206	0.0437	0.04
Mof_N 	N 	0.4819	0.2871	0.16167	-0.181
Mof_C 	C 	0.5663	0.2868	0.19355	0.262
Mof_O 	O 	0.5928	0.33429	0.21269	-0.317
Mof_N 	N 	0.6239	0.2371	0.20345	-0.281
Mof_C 	C 	0.5956	0.1865	0.1831	0.235
Mof_N 	N 	0.6568	0.139	0.1925	-0.337
Mof_H 	H 	0.7137	0.1404	0.2112	0.131
Mof_H 	H 	0.6401	0.1064	0.1799	0.117
Mof_C 	C 	0.5028	0.1852	0.1537	-0.258
Mof_H 	H 	0.4803	0.1501	0.1407	0.102
Mof_C 	C 	0.4436	0.237	0.1438	0.14
Mof_H 	H 	0.3782	0.237	0.125	0.003
Mof_H 	H 	0.8056	0.014	0.0214	0.167
Mof_O 	O 	0.1688	0.1666	0.12034	-0.21
Mof_O 	O 	0.0205	0.054	0.14219	-0.573
Mof_O 	O 	0.9824	0.06733	0.06038	-0.372
Mof_O 	O 	0.1442	0.1365	0.0067	-0.269
Mof_C 	C 	0.0769	0.1551	0.1509	-0
Mof_H 	H 	0.1132	0.1381	0.1767	0.019
Mof_C 	C 	0.9888	0.1116	0.13147	0.271
Mof_H 	H 	0.905	0.1205	0.1395	-0.052
Mof_C 	C 	0.0092	0.1192	0.08386	-0.193
Mof_H 	H 	0.9609	0.1521	0.0731	0.125
Mof_C 	C 	0.1455	0.1345	0.0822	0.11
Mof_H 	H 	0.1935	0.0983	0.0821	-0.022
Mof_C 	C 	0.1773	0.1708	0.044	-0.064
Mof_H 	H 	0.1331	0.2075	0.0444	0.051
Mof_H 	H 	0.2634	0.1794	0.0437	0.056
Mof_N 	N 	0.0181	0.2129	0.16167	-0.17
Mof_C 	C 	0.9337	0.2132	0.19355	0.289
Mof_O 	O 	0.9072	0.16571	0.21269	-0.312
Mof_N 	N 	0.8761	0.2629	0.20345	-0.27
Mof_C 	C 	0.9044	0.3135	0.1831	0.174
Mof_N 	N 	0.8432	0.361	0.1925	-0.321
Mof_H 	H 	0.7863	0.3596	0.2112	0.131
Mof_H 	H 	0.8599	0.3936	0.1799	0.129
Mof_C 	C 	0.9972	0.3148	0.1537	-0.037
Mof_H 	H 	0.0197	0.3499	0.1407	-0.002
Mof_C 	C 	0.0564	0.263	0.1438	-0.016
Mof_H 	H 	0.1218	0.263	0.125	0.055
Mof_H 	H 	0.8056	0.514	0.5214	0.168
Mof_O 	O 	0.1688	0.6666	0.62034	-0.207
Mof_O 	O 	0.0205	0.554	0.64219	-0.555
Mof_O 	O 	0.9824	0.56733	0.56038	-0.367
Mof_O 	O 	0.1442	0.6365	0.5067	-0.26
Mof_C 	C 	0.0769	0.6551	0.6509	0.004
Mof_H 	H 	0.1132	0.6381	0.6767	0.022
Mof_C 	C 	0.9888	0.6116	0.63147	0.26
Mof_H 	H 	0.905	0.6205	0.6395	-0.046
Mof_C 	C 	0.0092	0.6192	0.58386	-0.182
Mof_H 	H 	0.9609	0.6521	0.5731	0.123
Mof_C 	C 	0.1455	0.6345	0.5822	0.105
Mof_H 	H 	0.1935	0.5983	0.5821	-0.011
Mof_C 	C 	0.1773	0.6708	0.544	-0.065
Mof_H 	H 	0.1331	0.7075	0.5444	0.054
Mof_H 	H 	0.2634	0.6794	0.5437	0.061
Mof_N 	N 	0.0181	0.7129	0.66167	-0.171
Mof_C 	C 	0.9337	0.7132	0.69355	0.288
Mof_O 	O 	0.9072	0.66571	0.71269	-0.309
Mof_N 	N 	0.8761	0.7629	0.70345	-0.271
Mof_C 	C 	0.9044	0.8135	0.6831	0.184
Mof_N 	N 	0.8432	0.861	0.6925	-0.327
Mof_H 	H 	0.7863	0.8596	0.7112	0.138
Mof_H 	H 	0.8599	0.8936	0.6799	0.143
Mof_C 	C 	0.9972	0.8148	0.6537	-0.052
Mof_H 	H 	0.0197	0.8499	0.6407	0.013
Mof_C 	C 	0.0564	0.763	0.6438	-0.004
Mof_H 	H 	0.1218	0.763	0.625	0.052
Mof_H 	H 	0.3056	0.014	0.5214	0.163
Mof_O 	O 	0.6688	0.1666	0.62034	-0.208
Mof_O 	O 	0.5205	0.054	0.64219	-0.501
Mof_O 	O 	0.4824	0.06733	0.56038	-0.462
Mof_O 	O 	0.6442	0.1365	0.5067	-0.26
Mof_C 	C 	0.5769	0.1551	0.6509	0.097
Mof_H 	H 	0.6132	0.1381	0.6767	0.002
Mof_C 	C 	0.4888	0.1116	0.63147	0.06
Mof_H 	H 	0.405	0.1205	0.6395	-0.001
Mof_C 	C 	0.5092	0.1192	0.58386	0.032
Mof_H 	H 	0.4609	0.1521	0.5731	0.027
Mof_C 	C 	0.6455	0.1345	0.5822	0.044
Mof_H 	H 	0.6935	0.0983	0.5821	0.004
Mof_C 	C 	0.6773	0.1708	0.544	-0.031
Mof_H 	H 	0.6331	0.2075	0.5444	0.054
Mof_H 	H 	0.7634	0.1794	0.5437	0.055
Mof_N 	N 	0.5181	0.2129	0.66167	-0.181
Mof_C 	C 	0.4337	0.2132	0.69355	0.263
Mof_O 	O 	0.4072	0.16571	0.71269	-0.322
Mof_N 	N 	0.3761	0.2629	0.70345	-0.282
Mof_C 	C 	0.4044	0.3135	0.6831	0.238
Mof_N 	N 	0.3432	0.361	0.6925	-0.339
Mof_H 	H 	0.2863	0.3596	0.7112	0.13
Mof_H 	H 	0.3599	0.3936	0.6799	0.122
Mof_C 	C 	0.4972	0.3148	0.6537	-0.26
Mof_H 	H 	0.5197	0.3499	0.6407	0.11
Mof_C 	C 	0.5564	0.263	0.6438	0.142
Mof_H 	H 	0.6218	0.263	0.625	0.006
Mof_H 	H 	0.3056	0.514	0.0214	0.164
Mof_O 	O 	0.6688	0.6666	0.12034	-0.205
Mof_O 	O 	0.5205	0.554	0.14219	-0.485
Mof_O 	O 	0.4824	0.56733	0.06038	-0.455
Mof_O 	O 	0.6442	0.6365	0.0067	-0.262
Mof_C 	C 	0.5769	0.6551	0.1509	0.097
Mof_H 	H 	0.6132	0.6381	0.1767	0.006
Mof_C 	C 	0.4888	0.6116	0.13147	0.057
Mof_H 	H 	0.405	0.6205	0.1395	0.003
Mof_C 	C 	0.5092	0.6192	0.08386	0.035
Mof_H 	H 	0.4609	0.6521	0.0731	0.025
Mof_C 	C 	0.6455	0.6345	0.0822	0.039
Mof_H 	H 	0.6935	0.5983	0.0821	0.014
Mof_C 	C 	0.6773	0.6708	0.044	-0.027
Mof_H 	H 	0.6331	0.7075	0.0444	0.052
Mof_H 	H 	0.7634	0.6794	0.0437	0.054
Mof_N 	N 	0.5181	0.7129	0.16167	-0.181
Mof_C 	C 	0.4337	0.7132	0.19355	0.263
Mof_O 	O 	0.4072	0.66571	0.21269	-0.319
Mof_N 	N 	0.3761	0.7629	0.20345	-0.283
Mof_C 	C 	0.4044	0.8135	0.1831	0.245
Mof_N 	N 	0.3432	0.861	0.1925	-0.344
Mof_H 	H 	0.2863	0.8596	0.2112	0.137
Mof_H 	H 	0.3599	0.8936	0.1799	0.136
Mof_C 	C 	0.4972	0.8148	0.1537	-0.263
Mof_H 	H 	0.5197	0.8499	0.1407	0.117
Mof_C 	C 	0.5564	0.763	0.1438	0.146
Mof_H 	H 	0.6218	0.763	0.125	0.006
Mof_Cu	Cu	2.56695e-32	0.92766	-0	0.923
Mof_Cu	Cu	-2.03573e-32	0.42766	0.5	0.91
Mof_Cu	Cu	0.5	0.92766	0.5	0.947
Mof_Cu	Cu	0.5	0.42766	-0	0.926
Mof_Cu	Cu	1.60435e-33	0.07234	-0	0.906
Mof_Cu	Cu	5.31218e-33	0.57234	0.5	0.91
Mof_Cu	Cu	0.5	0.07234	0.5	0.93
Mof_Cu	Cu	0.5	0.57234	-0	0.926
Mof_Cu	Cu	3.52643e-32	0	0.90309	0.857
Mof_Cu	Cu	3.42771e-32	0	0.81017	0.755
Mof_Cu	Cu	1.71173e-32	0.5	0.40309	0.886
Mof_Cu	Cu	1.61301e-32	0.5	0.31017	0.783
Mof_Cu	Cu	0.5	0	0.40309	0.877
Mof_Cu	Cu	0.5	-6.41738e-33	0.31017	0.775
Mof_Cu	Cu	0.5	0.5	0.90309	0.907
Mof_Cu	Cu	0.5	0.5	0.81017	0.802
Mof_Cu	Cu	1.02961e-33	0	0.09691	0.857
Mof_Cu	Cu	2.01682e-33	0	0.18983	0.756
Mof_Cu	Cu	6.34178e-33	0.5	0.59691	0.886
Mof_Cu	Cu	-1.83405e-32	0.5	0.68983	0.783
Mof_Cu	Cu	0.5	-6.41738e-33	0.59691	0.877
Mof_Cu	Cu	0.5	-1.28348e-32	0.68983	0.774
Mof_Cu	Cu	0.5	0.5	0.09691	0.906
Mof_Cu	Cu	0.5	0.5	0.18983	0.802
Mof_Cu	Cu	0.75	0.75	0.75	0.879
Mof_Cu	Cu	0.75	0.25	0.25	0.879
Mof_Cu	Cu	0.25	0.75	0.25	0.878
Mof_Cu	Cu	0.25	0.25	0.75	0.878
Mof_O 	O 	0.862	0	-0	-0.646
Mof_O 	O 	0.862	0.5	0.5	-0.553
Mof_O 	O 	0.362	-6.41738e-33	0.5	-0.656
Mof_O 	O 	0.362	0.5	-0	-0.585
Mof_O 	O 	0.138	0	-0	-0.677
Mof_O 	O 	0.138	0.5	0.5	-0.581
Mof_O 	O 	0.638	-6.41738e-33	0.5	-0.658
Mof_O 	O 	0.638	0.5	-0	-0.588
_end
