data_functionalizedCrystal
_audit_creation_method	'EQeq! by Chris Wilmer'
_symmetry_space_group_name_H-M	'P1'
_symmetry_Int_Tables_number	1
_symmetry_cell_setting	triclinic
loop_
_symmetry_equiv_pos_as_xyz
  x,y,z
_cell_length_a	10.0946
_cell_length_b	11.7047
_cell_length_c	14.7098
_cell_angle_alpha	91.5064
_cell_angle_beta	90
_cell_angle_gamma	90
loop_
_atom_site_label
_atom_site_type_symbol
_atom_site_fract_x
_atom_site_fract_y
_atom_site_fract_z
_atom_site_charge
Mof_Mn	Mn	0.91471	0.75644	0.13052	1.06
Mof_Mn	Mn	0.09805	0.73927	0.31711	0.966
Mof_Mn	Mn	0.41471	0.74356	0.36948	1.018
Mof_Mn	Mn	0.59805	0.76073	0.18289	1.026
Mof_Mn	Mn	0.08529	0.24356	0.86948	0.97
Mof_Mn	Mn	0.90195	0.26073	0.68289	1.078
Mof_Mn	Mn	0.58529	0.25644	0.63052	1.001
Mof_Mn	Mn	0.40195	0.23927	0.81711	1.019
Mof_Mn	Mn	-0	0.5	-0	0.865
Mof_Mn	Mn	0.5	0	0.5	0.979
Mof_Mn	Mn	-0	0	-0	0.793
Mof_Mn	Mn	0.5	0.5	0.5	1.047
Mof_H 	H 	0.74	0.8516	0.3676	-0.099
Mof_H 	H 	0.026	0.4822	0.2692	-0.063
Mof_H 	H 	0.611	0.5596	0.0376	-0.069
Mof_H 	H 	0.201	0.9654	0.2344	-0.113
Mof_H 	H 	0.161	0.6968	0.9288	-0.117
Mof_H 	H 	0.706	0.0109	0.0219	-0.148
Mof_H 	H 	0.24	0.6484	0.1324	-0.122
Mof_H 	H 	0.526	0.0178	0.2308	-0.196
Mof_H 	H 	0.111	0.9404	0.4624	-0.084
Mof_H 	H 	0.701	0.5346	0.2656	-0.097
Mof_H 	H 	0.661	0.8032	0.5712	-0.094
Mof_H 	H 	0.206	0.4891	0.4781	-0.093
Mof_H 	H 	0.26	0.1484	0.6324	-0.125
Mof_H 	H 	0.974	0.5178	0.7308	-0.132
Mof_H 	H 	0.389	0.4404	0.9624	-0.095
Mof_H 	H 	0.799	0.0346	0.7656	-0.074
Mof_H 	H 	0.839	0.3032	0.0712	-0.073
Mof_H 	H 	0.294	0.9891	0.9781	0.011
Mof_H 	H 	0.76	0.3516	0.8676	-0.098
Mof_H 	H 	0.474	0.9822	0.7692	-0.004
Mof_H 	H 	0.889	0.0596	0.5376	-0.084
Mof_H 	H 	0.299	0.4654	0.7344	-0.101
Mof_H 	H 	0.339	0.1968	0.4288	-0.12
Mof_H 	H 	0.794	0.5109	0.5219	-0.074
Mof_C 	C 	0.8132	0.82122	0.33272	0.491
Mof_C 	C 	0.0051	0.51904	0.21304	0.309
Mof_C 	C 	0.7079	0.57818	0.04268	0.341
Mof_C 	C 	0.1351	0.94391	0.18581	0.542
Mof_C 	C 	0.1028	0.74158	0.96578	0.604
Mof_C 	C 	0.7197	0.94161	0.05771	0.54
Mof_C 	C 	0.3132	0.67878	0.16728	0.496
Mof_C 	C 	0.5051	0.98096	0.28696	0.676
Mof_C 	C 	0.2079	0.92182	0.45732	0.458
Mof_C 	C 	0.6351	0.55609	0.31419	0.472
Mof_C 	C 	0.6028	0.75842	0.53422	0.502
Mof_C 	C 	0.2197	0.55839	0.44229	0.475
Mof_C 	C 	0.1868	0.17878	0.66728	0.503
Mof_C 	C 	0.9949	0.48096	0.78696	0.657
Mof_C 	C 	0.2921	0.42182	0.95732	0.573
Mof_C 	C 	0.8649	0.05609	0.81419	0.367
Mof_C 	C 	0.8972	0.25842	0.03422	0.365
Mof_C 	C 	0.2803	0.05839	0.94229	0.365
Mof_C 	C 	0.6868	0.32122	0.83272	0.495
Mof_C 	C 	0.4949	0.01904	0.71304	0.31
Mof_C 	C 	0.7921	0.07818	0.54268	0.467
Mof_C 	C 	0.3649	0.44391	0.68581	0.475
Mof_C 	C 	0.3972	0.24158	0.46578	0.513
Mof_C 	C 	0.7803	0.44161	0.55771	0.47
Mof_O 	O 	0.79068	0.80491	0.24833	-0.479
Mof_O 	O 	0.91997	0.80551	0.37196	-0.375
Mof_O 	O 	0.99705	0.62704	0.21952	-0.393
Mof_O 	O 	0.99417	0.46041	0.14271	-0.303
Mof_O 	O 	0.73492	0.65714	0.10202	-0.464
Mof_O 	O 	0.78879	0.52492	0.99607	-0.268
Mof_O 	O 	0.0735	0.85083	0.19945	-0.526
Mof_O 	O 	0.11989	0.00647	0.12075	-0.474
Mof_O 	O 	0.02925	0.6857	0.02072	-0.573
Mof_O 	O 	0.10265	0.84544	0.95793	-0.382
Mof_O 	O 	0.83784	0.90467	0.0636	-0.47
Mof_O 	O 	0.61999	0.89984	0.09305	-0.419
Mof_O 	O 	0.29068	0.69509	0.25167	-0.486
Mof_O 	O 	0.41997	0.69449	0.12804	-0.429
Mof_O 	O 	0.49705	0.87296	0.28048	-0.532
Mof_O 	O 	0.49417	0.03959	0.35729	-0.487
Mof_O 	O 	0.23492	0.84286	0.39798	-0.481
Mof_O 	O 	0.28879	0.97508	0.50393	-0.37
Mof_O 	O 	0.5735	0.64917	0.30055	-0.49
Mof_O 	O 	0.61989	0.49353	0.37925	-0.406
Mof_O 	O 	0.52925	0.8143	0.47928	-0.478
Mof_O 	O 	0.60265	0.65456	0.54207	-0.412
Mof_O 	O 	0.33784	0.59533	0.4364	-0.493
Mof_O 	O 	0.11999	0.60016	0.40695	-0.415
Mof_O 	O 	0.20932	0.19509	0.75167	-0.495
Mof_O 	O 	0.08003	0.19449	0.62804	-0.457
Mof_O 	O 	0.00295	0.37296	0.78048	-0.577
Mof_O 	O 	0.00583	0.53959	0.85729	-0.45
Mof_O 	O 	0.26508	0.34286	0.89798	-0.502
Mof_O 	O 	0.21121	0.47508	0.00393	-0.48
Mof_O 	O 	0.9265	0.14917	0.80055	-0.434
Mof_O 	O 	0.88011	0.99353	0.87925	-0.256
Mof_O 	O 	0.97075	0.3143	0.97928	-0.356
Mof_O 	O 	0.89735	0.15456	0.04207	-0.364
Mof_O 	O 	0.16216	0.09533	0.9364	-0.433
Mof_O 	O 	0.38001	0.10016	0.90695	-0.373
Mof_O 	O 	0.70932	0.30491	0.74833	-0.486
Mof_O 	O 	0.58003	0.30551	0.87196	-0.403
Mof_O 	O 	0.50295	0.12704	0.71952	-0.45
Mof_O 	O 	0.50583	0.96041	0.64271	-0.307
Mof_O 	O 	0.76508	0.15714	0.60202	-0.492
Mof_O 	O 	0.71121	0.02492	0.49607	-0.412
Mof_O 	O 	0.4265	0.35083	0.69945	-0.489
Mof_O 	O 	0.38011	0.50647	0.62075	-0.408
Mof_O 	O 	0.47075	0.1857	0.52072	-0.494
Mof_O 	O 	0.39735	0.34544	0.45793	-0.426
Mof_O 	O 	0.66216	0.40467	0.5636	-0.487
Mof_O 	O 	0.88001	0.39984	0.59305	-0.388
_end
