# CIF file generated by openbabel 3.1.0, see https://openbabel.org
data_I
_chemical_name_common 'image0'
_cell_length_a 11.6025
_cell_length_b 16.398
_cell_length_c 16.796
_cell_angle_alpha 90
_cell_angle_beta 109.3
_cell_angle_gamma 90
_space_group_name_H-M_alt 'P 1'
_space_group_name_Hall 'P 1'
loop_
    _symmetry_equiv_pos_as_xyz
    x,y,z
loop_
    _atom_site_label
    _atom_site_type_symbol
    _atom_site_fract_x
    _atom_site_fract_y
    _atom_site_fract_z
    _atom_site_occupancy
    Zn1      Zn       0.33270    0.49086    0.22535    1.000
    N1       N        0.18670    0.44470    0.12930    1.000
    N2       N        0.72140    0.27900    0.85990    1.000
    H1       H        0.73270    0.30790    0.81970    1.000
    O1       O        0.78540    0.27180    0.00550    1.000
    C1       C        0.08080    0.41780    0.98390    1.000
    H2       H        0.07720    0.42400    0.92750    1.000
    O2       O        0.76730    0.77190    0.94408    1.000
    N3       N        0.89320    0.34540    0.93660    1.000
    H3       H        0.89260    0.35910    0.88650    1.000
    N4       N        0.82570    0.77220    0.08910    1.000
    H4       H        0.88100    0.79170    0.13360    1.000
    N5       N        0.93780    0.84270    0.02410    1.000
    H5       H        0.97220    0.86170    0.07480    1.000
    O3       O        0.17400    0.88602    0.73312    1.000
    C2       C        0.47810    0.56990    0.16870    1.000
    C3       C        0.73580    0.72290    0.10390    1.000
    O4       O        0.42620    0.51450    0.11780    1.000
    O5       O        0.45790    0.58070    0.23680    1.000
    C4       C        0.65600    0.67350    0.04300    1.000
    H6       H        0.65700    0.67350    0.98730    1.000
    C5       C        0.56960    0.62340    0.14710    1.000
    C6       C        0.17650    0.44980    0.04790    1.000
    H7       H        0.23840    0.47690    0.03380    1.000
    C7       C        0.57400    0.62360    0.06630    1.000
    H8       H        0.52060    0.58960    0.02550    1.000
    C8       C        0.99130    0.86570    0.96450    1.000
    C9       C        0.64900    0.67340    0.20690    1.000
    H9       H        0.64700    0.67410    0.26240    1.000
    C10      C        0.62830    0.22270    0.83500    1.000
    C11      C        0.79850    0.29570    0.93980    1.000
    C12      C        0.15210    0.94240    0.93670    1.000
    H10      H        0.21690    0.97990    0.95470    1.000
    C13      C        0.18960    0.92850    0.79730    1.000
    C14      C        0.99900    0.36960    0.08710    1.000
    H11      H        0.93950    0.34160    0.10310    1.000
    C15      C        0.95570    0.83530    0.88230    1.000
    H12      H        0.88720    0.80100    0.86280    1.000
    C16      C        0.12000    0.90890    0.85630    1.000
    C17      C        0.83690    0.79340    0.01280    1.000
    C18      C        0.08900    0.92060    0.99000    1.000
    H13      H        0.11210    0.94300    0.04460    1.000
    C19      C        0.98850    0.37590    0.00310    1.000
    C20      C        0.73100    0.72210    0.18550    1.000
    H14      H        0.78470    0.75550    0.22680    1.000
    C21      C        0.02060    0.85550    0.82990    1.000
    H15      H        0.99770    0.83290    0.77540    1.000
    C22      C        0.56160    0.21700    0.75140    1.000
    H16      H        0.57820    0.25270    0.71270    1.000
    C23      C        0.47050    0.15980    0.72300    1.000
    H17      H        0.42530    0.15840    0.66510    1.000
    C24      C        0.50160    0.11630    0.85940    1.000
    H18      H        0.47690    0.08310    0.89640    1.000
    C25      C        0.59440    0.17250    0.89340    1.000
    H19      H        0.63300    0.17740    0.95200    1.000
    C26      C        0.09710    0.40460    0.14720    1.000
    H20      H        0.10190    0.40040    0.20410    1.000
    O6       O        0.26220    0.98899    0.81660    1.000
    N6       N        0.44350    0.10670    0.77310    1.000
    Zn2      Zn       0.33270    0.00914    0.72535    1.000
    N7       N        0.18670    0.05530    0.62930    1.000
    N8       N        0.72140    0.22100    0.35990    1.000
    H21      H        0.73270    0.19210    0.31970    1.000
    O7       O        0.78540    0.22820    0.50550    1.000
    C27      C        0.08080    0.08220    0.48390    1.000
    H22      H        0.07720    0.07600    0.42750    1.000
    O8       O        0.76730    0.72810    0.44408    1.000
    N9       N        0.89320    0.15460    0.43660    1.000
    H23      H        0.89260    0.14090    0.38650    1.000
    N10      N        0.82570    0.72780    0.58910    1.000
    H24      H        0.88100    0.70830    0.63360    1.000
    N11      N        0.93780    0.65730    0.52410    1.000
    H25      H        0.97220    0.63830    0.57480    1.000
    O9       O        0.17400    0.61398    0.23312    1.000
    C28      C        0.47810    0.93010    0.66870    1.000
    C29      C        0.73580    0.77710    0.60390    1.000
    O10      O        0.42620    0.98550    0.61780    1.000
    O11      O        0.45790    0.91930    0.73680    1.000
    C30      C        0.65600    0.82650    0.54300    1.000
    H26      H        0.65700    0.82650    0.48730    1.000
    C31      C        0.56960    0.87660    0.64710    1.000
    C32      C        0.17650    0.05020    0.54790    1.000
    H27      H        0.23840    0.02310    0.53380    1.000
    C33      C        0.57400    0.87640    0.56630    1.000
    H28      H        0.52060    0.91040    0.52550    1.000
    C34      C        0.99130    0.63430    0.46450    1.000
    C35      C        0.64900    0.82660    0.70690    1.000
    H29      H        0.64700    0.82590    0.76240    1.000
    C36      C        0.62830    0.27730    0.33500    1.000
    C37      C        0.79850    0.20430    0.43980    1.000
    C38      C        0.15210    0.55760    0.43670    1.000
    H30      H        0.21690    0.52010    0.45470    1.000
    C39      C        0.18960    0.57150    0.29730    1.000
    C40      C        0.99900    0.13040    0.58710    1.000
    H31      H        0.93950    0.15840    0.60310    1.000
    C41      C        0.95570    0.66470    0.38230    1.000
    H32      H        0.88720    0.69900    0.36280    1.000
    C42      C        0.12000    0.59110    0.35630    1.000
    C43      C        0.83690    0.70660    0.51280    1.000
    C44      C        0.08900    0.57940    0.49000    1.000
    H33      H        0.11210    0.55700    0.54460    1.000
    C45      C        0.98850    0.12410    0.50310    1.000
    C46      C        0.73100    0.77790    0.68550    1.000
    H34      H        0.78470    0.74450    0.72680    1.000
    C47      C        0.02060    0.64450    0.32990    1.000
    H35      H        0.99770    0.66710    0.27540    1.000
    C48      C        0.56160    0.28300    0.25140    1.000
    H36      H        0.57820    0.24730    0.21270    1.000
    C49      C        0.47050    0.34020    0.22300    1.000
    H37      H        0.42530    0.34160    0.16510    1.000
    C50      C        0.50160    0.38370    0.35940    1.000
    H38      H        0.47690    0.41690    0.39640    1.000
    C51      C        0.59440    0.32750    0.39340    1.000
    H39      H        0.63300    0.32260    0.45200    1.000
    C52      C        0.09710    0.09540    0.64720    1.000
    H40      H        0.10190    0.09960    0.70410    1.000
    O12      O        0.26220    0.51101    0.31660    1.000
    N12      N        0.44350    0.39330    0.27310    1.000
    Zn3      Zn       0.66730    0.99086    0.27465    1.000
    N13      N        0.81330    0.94470    0.37070    1.000
    N14      N        0.27860    0.77900    0.64010    1.000
    H41      H        0.26730    0.80790    0.68030    1.000
    O13      O        0.21460    0.77180    0.49450    1.000
    C53      C        0.91920    0.91780    0.51610    1.000
    H42      H        0.92280    0.92400    0.57250    1.000
    O14      O        0.23270    0.27190    0.55592    1.000
    N15      N        0.10680    0.84540    0.56340    1.000
    H43      H        0.10740    0.85910    0.61350    1.000
    N16      N        0.17430    0.27220    0.41090    1.000
    H44      H        0.11900    0.29170    0.36640    1.000
    N17      N        0.06220    0.34270    0.47590    1.000
    H45      H        0.02780    0.36170    0.42520    1.000
    O15      O        0.82600    0.38602    0.76688    1.000
    C54      C        0.52190    0.06990    0.33130    1.000
    C55      C        0.26420    0.22290    0.39610    1.000
    O16      O        0.57380    0.01450    0.38220    1.000
    O17      O        0.54210    0.08070    0.26320    1.000
    C56      C        0.34400    0.17350    0.45700    1.000
    H46      H        0.34300    0.17350    0.51270    1.000
    C57      C        0.43040    0.12340    0.35290    1.000
    C58      C        0.82350    0.94980    0.45210    1.000
    H47      H        0.76160    0.97690    0.46620    1.000
    C59      C        0.42600    0.12360    0.43370    1.000
    H48      H        0.47940    0.08960    0.47450    1.000
    C60      C        0.00870    0.36570    0.53550    1.000
    C61      C        0.35100    0.17340    0.29310    1.000
    H49      H        0.35300    0.17410    0.23760    1.000
    C62      C        0.37170    0.72270    0.66500    1.000
    C63      C        0.20150    0.79570    0.56020    1.000
    C64      C        0.84790    0.44240    0.56330    1.000
    H50      H        0.78310    0.47990    0.54530    1.000
    C65      C        0.81040    0.42850    0.70270    1.000
    C66      C        0.00100    0.86960    0.41290    1.000
    H51      H        0.06050    0.84160    0.39690    1.000
    C67      C        0.04430    0.33530    0.61770    1.000
    H52      H        0.11280    0.30100    0.63720    1.000
    C68      C        0.88000    0.40890    0.64370    1.000
    C69      C        0.16310    0.29340    0.48720    1.000
    C70      C        0.91100    0.42060    0.51000    1.000
    H53      H        0.88790    0.44300    0.45540    1.000
    C71      C        0.01150    0.87590    0.49690    1.000
    C72      C        0.26900    0.22210    0.31450    1.000
    H54      H        0.21530    0.25550    0.27320    1.000
    C73      C        0.97940    0.35550    0.67010    1.000
    H55      H        0.00230    0.33290    0.72460    1.000
    C74      C        0.43840    0.71700    0.74860    1.000
    H56      H        0.42180    0.75270    0.78730    1.000
    C75      C        0.52950    0.65980    0.77700    1.000
    H57      H        0.57470    0.65840    0.83490    1.000
    C76      C        0.49840    0.61630    0.64060    1.000
    H58      H        0.52310    0.58310    0.60360    1.000
    C77      C        0.40560    0.67250    0.60660    1.000
    H59      H        0.36700    0.67740    0.54800    1.000
    C78      C        0.90290    0.90460    0.35280    1.000
    H60      H        0.89810    0.90040    0.29590    1.000
    O18      O        0.73780    0.48899    0.68340    1.000
    N18      N        0.55650    0.60670    0.72690    1.000
    Zn4      Zn       0.66730    0.50914    0.77465    1.000
    N19      N        0.81330    0.55530    0.87070    1.000
    N20      N        0.27860    0.72100    0.14010    1.000
    H61      H        0.26730    0.69210    0.18030    1.000
    O19      O        0.21460    0.72820    0.99450    1.000
    C79      C        0.91920    0.58220    0.01610    1.000
    H62      H        0.92280    0.57600    0.07250    1.000
    O20      O        0.23270    0.22810    0.05592    1.000
    N21      N        0.10680    0.65460    0.06340    1.000
    H63      H        0.10740    0.64090    0.11350    1.000
    N22      N        0.17430    0.22780    0.91090    1.000
    H64      H        0.11900    0.20830    0.86640    1.000
    N23      N        0.06220    0.15730    0.97590    1.000
    H65      H        0.02780    0.13830    0.92520    1.000
    O21      O        0.82600    0.11398    0.26688    1.000
    C80      C        0.52190    0.43010    0.83130    1.000
    C81      C        0.26420    0.27710    0.89610    1.000
    O22      O        0.57380    0.48550    0.88220    1.000
    O23      O        0.54210    0.41930    0.76320    1.000
    C82      C        0.34400    0.32650    0.95700    1.000
    H66      H        0.34300    0.32650    0.01270    1.000
    C83      C        0.43040    0.37660    0.85290    1.000
    C84      C        0.82350    0.55020    0.95210    1.000
    H67      H        0.76160    0.52310    0.96620    1.000
    C85      C        0.42600    0.37640    0.93370    1.000
    H68      H        0.47940    0.41040    0.97450    1.000
    C86      C        0.00870    0.13430    0.03550    1.000
    C87      C        0.35100    0.32660    0.79310    1.000
    H69      H        0.35300    0.32590    0.73760    1.000
    C88      C        0.37170    0.77730    0.16500    1.000
    C89      C        0.20150    0.70430    0.06020    1.000
    C90      C        0.84790    0.05760    0.06330    1.000
    H70      H        0.78310    0.02010    0.04530    1.000
    C91      C        0.81040    0.07150    0.20270    1.000
    C92      C        0.00100    0.63040    0.91290    1.000
    H71      H        0.06050    0.65840    0.89690    1.000
    C93      C        0.04430    0.16470    0.11770    1.000
    H72      H        0.11280    0.19900    0.13720    1.000
    C94      C        0.88000    0.09110    0.14370    1.000
    C95      C        0.16310    0.20660    0.98720    1.000
    C96      C        0.91100    0.07940    0.01000    1.000
    H73      H        0.88790    0.05700    0.95540    1.000
    C97      C        0.01150    0.62410    0.99690    1.000
    C98      C        0.26900    0.27790    0.81450    1.000
    H74      H        0.21530    0.24450    0.77320    1.000
    C99      C        0.97940    0.14450    0.17010    1.000
    H75      H        0.00230    0.16710    0.22460    1.000
    C100     C        0.43840    0.78300    0.24860    1.000
    H76      H        0.42180    0.74730    0.28730    1.000
    C101     C        0.52950    0.84020    0.27700    1.000
    H77      H        0.57470    0.84160    0.33490    1.000
    C102     C        0.49840    0.88370    0.14060    1.000
    H78      H        0.52310    0.91690    0.10360    1.000
    C103     C        0.40560    0.82750    0.10660    1.000
    H79      H        0.36700    0.82260    0.04800    1.000
    C104     C        0.90290    0.59540    0.85280    1.000
    H80      H        0.89810    0.59960    0.79590    1.000
    O24      O        0.73780    0.01101    0.18340    1.000
    N24      N        0.55650    0.89330    0.22690    1.000
