# CIF file generated by openbabel 3.1.0, see https://openbabel.org
data_I
_chemical_name_common 'image0'
_cell_length_a 18.0908
_cell_length_b 18.0908
_cell_length_c 24.753
_cell_angle_alpha 90
_cell_angle_beta 90
_cell_angle_gamma 120
_space_group_name_H-M_alt 'P 1'
_space_group_name_Hall 'P 1'
loop_
    _symmetry_equiv_pos_as_xyz
    x,y,z
loop_
    _atom_site_label
    _atom_site_type_symbol
    _atom_site_fract_x
    _atom_site_fract_y
    _atom_site_fract_z
    _atom_site_occupancy
    C1       C        0.15610    0.20480    0.11080    1.000
    C2       C        0.17500    0.49460    0.88530    1.000
    C3       C        0.16720    0.58930    0.93230    1.000
    H1       H        0.18090    0.64170    0.94760    1.000
    N1       N        0.09750    0.51890    0.94300    1.000
    N2       N        0.21860    0.57940    0.89630    1.000
    N3       N        0.10040    0.45580    0.91240    1.000
    N4       N        0.20470    0.45550    0.85370    1.000
    H2       H        0.17550    0.40090    0.84940    1.000
    H3       H        0.25320    0.48490    0.83760    1.000
    O1       O        0.07900    0.16240    0.12440    1.000
    O2       O        0.08600    0.28050    0.20510    1.000
    O3       O        0.19490    0.28170    0.09880    1.000
    C4       C        0.79520    0.95130    0.11080    1.000
    C5       C        0.50540    0.68040    0.88530    1.000
    C6       C        0.41070    0.57790    0.93230    1.000
    H4       H        0.35830    0.53920    0.94760    1.000
    N5       N        0.48110    0.57860    0.94300    1.000
    N6       N        0.42060    0.63920    0.89630    1.000
    N7       N        0.54420    0.64460    0.91240    1.000
    N8       N        0.54450    0.74920    0.85370    1.000
    H5       H        0.59910    0.77460    0.84940    1.000
    H6       H        0.51510    0.76830    0.83760    1.000
    O4       O        0.83760    0.91660    0.12440    1.000
    O5       O        0.71950    0.80550    0.20510    1.000
    O6       O        0.71830    0.91320    0.09880    1.000
    C7       C        0.04870    0.84390    0.11080    1.000
    C8       C        0.31960    0.82500    0.88530    1.000
    C9       C        0.42210    0.83280    0.93230    1.000
    H7       H        0.46080    0.81910    0.94760    1.000
    N9       N        0.42140    0.90250    0.94300    1.000
    N10      N        0.36080    0.78140    0.89630    1.000
    N11      N        0.35540    0.89960    0.91240    1.000
    N12      N        0.25080    0.79530    0.85370    1.000
    H8       H        0.22540    0.82450    0.84940    1.000
    H9       H        0.23170    0.74680    0.83760    1.000
    O7       O        0.08340    0.92100    0.12440    1.000
    O8       O        0.19450    0.91400    0.20510    1.000
    O9       O        0.08680    0.80510    0.09880    1.000
    C10      C        0.84390    0.79520    0.61080    1.000
    C11      C        0.82500    0.50540    0.38530    1.000
    C12      C        0.83280    0.41070    0.43230    1.000
    H10      H        0.81910    0.35830    0.44760    1.000
    N13      N        0.90250    0.48110    0.44300    1.000
    N14      N        0.78140    0.42060    0.39630    1.000
    N15      N        0.89960    0.54420    0.41240    1.000
    N16      N        0.79530    0.54450    0.35370    1.000
    H11      H        0.82450    0.59910    0.34940    1.000
    H12      H        0.74680    0.51510    0.33760    1.000
    O10      O        0.92100    0.83760    0.62440    1.000
    O11      O        0.91400    0.71950    0.70510    1.000
    O12      O        0.80510    0.71830    0.59880    1.000
    C13      C        0.20480    0.04870    0.61080    1.000
    C14      C        0.49460    0.31960    0.38530    1.000
    C15      C        0.58930    0.42210    0.43230    1.000
    H13      H        0.64170    0.46080    0.44760    1.000
    N17      N        0.51890    0.42140    0.44300    1.000
    N18      N        0.57940    0.36080    0.39630    1.000
    N19      N        0.45580    0.35540    0.41240    1.000
    N20      N        0.45550    0.25080    0.35370    1.000
    H14      H        0.40090    0.22540    0.34940    1.000
    H15      H        0.48490    0.23170    0.33760    1.000
    O13      O        0.16240    0.08340    0.62440    1.000
    O14      O        0.28050    0.19450    0.70510    1.000
    O15      O        0.28170    0.08680    0.59880    1.000
    C16      C        0.95130    0.15610    0.61080    1.000
    C17      C        0.68040    0.17500    0.38530    1.000
    C18      C        0.57790    0.16720    0.43230    1.000
    H16      H        0.53920    0.18090    0.44760    1.000
    N21      N        0.57860    0.09750    0.44300    1.000
    N22      N        0.63920    0.21860    0.39630    1.000
    N23      N        0.64460    0.10040    0.41240    1.000
    N24      N        0.74920    0.20470    0.35370    1.000
    H17      H        0.77460    0.17550    0.34940    1.000
    H18      H        0.76830    0.25320    0.33760    1.000
    O16      O        0.91660    0.07900    0.62440    1.000
    O17      O        0.80550    0.08600    0.70510    1.000
    O18      O        0.91320    0.19490    0.59880    1.000
    C19      C        0.20480    0.15610    0.38920    1.000
    C20      C        0.49460    0.17500    0.61470    1.000
    C21      C        0.58930    0.16720    0.56770    1.000
    H19      H        0.64170    0.18090    0.55240    1.000
    N25      N        0.51890    0.09750    0.55700    1.000
    N26      N        0.57940    0.21860    0.60370    1.000
    N27      N        0.45580    0.10040    0.58760    1.000
    N28      N        0.45550    0.20470    0.64630    1.000
    H20      H        0.40090    0.17550    0.65060    1.000
    H21      H        0.48490    0.25320    0.66240    1.000
    O19      O        0.16240    0.07900    0.37560    1.000
    O20      O        0.28050    0.08600    0.29490    1.000
    O21      O        0.28170    0.19490    0.40120    1.000
    C22      C        0.95130    0.79520    0.38920    1.000
    C23      C        0.68040    0.50540    0.61470    1.000
    C24      C        0.57790    0.41070    0.56770    1.000
    H22      H        0.53920    0.35830    0.55240    1.000
    N29      N        0.57860    0.48110    0.55700    1.000
    N30      N        0.63920    0.42060    0.60370    1.000
    N31      N        0.64460    0.54420    0.58760    1.000
    N32      N        0.74920    0.54450    0.64630    1.000
    H23      H        0.77460    0.59910    0.65060    1.000
    H24      H        0.76830    0.51510    0.66240    1.000
    O22      O        0.91660    0.83760    0.37560    1.000
    O23      O        0.80550    0.71950    0.29490    1.000
    O24      O        0.91320    0.71830    0.40120    1.000
    C25      C        0.84390    0.04870    0.38920    1.000
    C26      C        0.82500    0.31960    0.61470    1.000
    C27      C        0.83280    0.42210    0.56770    1.000
    H25      H        0.81910    0.46080    0.55240    1.000
    N33      N        0.90250    0.42140    0.55700    1.000
    N34      N        0.78140    0.36080    0.60370    1.000
    N35      N        0.89960    0.35540    0.58760    1.000
    N36      N        0.79530    0.25080    0.64630    1.000
    H26      H        0.82450    0.22540    0.65060    1.000
    H27      H        0.74680    0.23170    0.66240    1.000
    O25      O        0.92100    0.08340    0.37560    1.000
    O26      O        0.91400    0.19450    0.29490    1.000
    O27      O        0.80510    0.08680    0.40120    1.000
    C28      C        0.79520    0.84390    0.88920    1.000
    C29      C        0.50540    0.82500    0.11470    1.000
    C30      C        0.41070    0.83280    0.06770    1.000
    H28      H        0.35830    0.81910    0.05240    1.000
    N37      N        0.48110    0.90250    0.05700    1.000
    N38      N        0.42060    0.78140    0.10370    1.000
    N39      N        0.54420    0.89960    0.08760    1.000
    N40      N        0.54450    0.79530    0.14630    1.000
    H29      H        0.59910    0.82450    0.15060    1.000
    H30      H        0.51510    0.74680    0.16240    1.000
    O28      O        0.83760    0.92100    0.87560    1.000
    O29      O        0.71950    0.91400    0.79490    1.000
    O30      O        0.71830    0.80510    0.90120    1.000
    C31      C        0.04870    0.20480    0.88920    1.000
    C32      C        0.31960    0.49460    0.11470    1.000
    C33      C        0.42210    0.58930    0.06770    1.000
    H31      H        0.46080    0.64170    0.05240    1.000
    N41      N        0.42140    0.51890    0.05700    1.000
    N42      N        0.36080    0.57940    0.10370    1.000
    N43      N        0.35540    0.45580    0.08760    1.000
    N44      N        0.25080    0.45550    0.14630    1.000
    H32      H        0.22540    0.40090    0.15060    1.000
    H33      H        0.23170    0.48490    0.16240    1.000
    O31      O        0.08340    0.16240    0.87560    1.000
    O32      O        0.19450    0.28050    0.79490    1.000
    O33      O        0.08680    0.28170    0.90120    1.000
    C34      C        0.15610    0.95130    0.88920    1.000
    C35      C        0.17500    0.68040    0.11470    1.000
    C36      C        0.16720    0.57790    0.06770    1.000
    H34      H        0.18090    0.53920    0.05240    1.000
    N45      N        0.09750    0.57860    0.05700    1.000
    N46      N        0.21860    0.63920    0.10370    1.000
    N47      N        0.10040    0.64460    0.08760    1.000
    N48      N        0.20470    0.74920    0.14630    1.000
    H35      H        0.17550    0.77460    0.15060    1.000
    H36      H        0.25320    0.76830    0.16240    1.000
    O34      O        0.07900    0.91660    0.87560    1.000
    O35      O        0.08600    0.80550    0.79490    1.000
    O36      O        0.19490    0.91320    0.90120    1.000
    C37      C        0.84390    0.79520    0.88920    1.000
    C38      C        0.82500    0.50540    0.11470    1.000
    C39      C        0.83280    0.41070    0.06770    1.000
    H37      H        0.81910    0.35830    0.05240    1.000
    N49      N        0.90250    0.48110    0.05700    1.000
    N50      N        0.78140    0.42060    0.10370    1.000
    N51      N        0.89960    0.54420    0.08760    1.000
    N52      N        0.79530    0.54450    0.14630    1.000
    H38      H        0.82450    0.59910    0.15060    1.000
    H39      H        0.74680    0.51510    0.16240    1.000
    O37      O        0.92100    0.83760    0.87560    1.000
    O38      O        0.91400    0.71950    0.79490    1.000
    O39      O        0.80510    0.71830    0.90120    1.000
    C40      C        0.20480    0.04870    0.88920    1.000
    C41      C        0.49460    0.31960    0.11470    1.000
    C42      C        0.58930    0.42210    0.06770    1.000
    H40      H        0.64170    0.46080    0.05240    1.000
    N53      N        0.51890    0.42140    0.05700    1.000
    N54      N        0.57940    0.36080    0.10370    1.000
    N55      N        0.45580    0.35540    0.08760    1.000
    N56      N        0.45550    0.25080    0.14630    1.000
    H41      H        0.40090    0.22540    0.15060    1.000
    H42      H        0.48490    0.23170    0.16240    1.000
    O40      O        0.16240    0.08340    0.87560    1.000
    O41      O        0.28050    0.19450    0.79490    1.000
    O42      O        0.28170    0.08680    0.90120    1.000
    C43      C        0.95130    0.15610    0.88920    1.000
    C44      C        0.68040    0.17500    0.11470    1.000
    C45      C        0.57790    0.16720    0.06770    1.000
    H43      H        0.53920    0.18090    0.05240    1.000
    N57      N        0.57860    0.09750    0.05700    1.000
    N58      N        0.63920    0.21860    0.10370    1.000
    N59      N        0.64460    0.10040    0.08760    1.000
    N60      N        0.74920    0.20470    0.14630    1.000
    H44      H        0.77460    0.17550    0.15060    1.000
    H45      H        0.76830    0.25320    0.16240    1.000
    O43      O        0.91660    0.07900    0.87560    1.000
    O44      O        0.80550    0.08600    0.79490    1.000
    O45      O        0.91320    0.19490    0.90120    1.000
    C46      C        0.15610    0.20480    0.38920    1.000
    C47      C        0.17500    0.49460    0.61470    1.000
    C48      C        0.16720    0.58930    0.56770    1.000
    H46      H        0.18090    0.64170    0.55240    1.000
    N61      N        0.09750    0.51890    0.55700    1.000
    N62      N        0.21860    0.57940    0.60370    1.000
    N63      N        0.10040    0.45580    0.58760    1.000
    N64      N        0.20470    0.45550    0.64630    1.000
    H47      H        0.17550    0.40090    0.65060    1.000
    H48      H        0.25320    0.48490    0.66240    1.000
    O46      O        0.07900    0.16240    0.37560    1.000
    O47      O        0.08600    0.28050    0.29490    1.000
    O48      O        0.19490    0.28170    0.40120    1.000
    C49      C        0.79520    0.95130    0.38920    1.000
    C50      C        0.50540    0.68040    0.61470    1.000
    C51      C        0.41070    0.57790    0.56770    1.000
    H49      H        0.35830    0.53920    0.55240    1.000
    N65      N        0.48110    0.57860    0.55700    1.000
    N66      N        0.42060    0.63920    0.60370    1.000
    N67      N        0.54420    0.64460    0.58760    1.000
    N68      N        0.54450    0.74920    0.64630    1.000
    H50      H        0.59910    0.77460    0.65060    1.000
    H51      H        0.51510    0.76830    0.66240    1.000
    O49      O        0.83760    0.91660    0.37560    1.000
    O50      O        0.71950    0.80550    0.29490    1.000
    O51      O        0.71830    0.91320    0.40120    1.000
    C52      C        0.04870    0.84390    0.38920    1.000
    C53      C        0.31960    0.82500    0.61470    1.000
    C54      C        0.42210    0.83280    0.56770    1.000
    H52      H        0.46080    0.81910    0.55240    1.000
    N69      N        0.42140    0.90250    0.55700    1.000
    N70      N        0.36080    0.78140    0.60370    1.000
    N71      N        0.35540    0.89960    0.58760    1.000
    N72      N        0.25080    0.79530    0.64630    1.000
    H53      H        0.22540    0.82450    0.65060    1.000
    H54      H        0.23170    0.74680    0.66240    1.000
    O52      O        0.08340    0.92100    0.37560    1.000
    O53      O        0.19450    0.91400    0.29490    1.000
    O54      O        0.08680    0.80510    0.40120    1.000
    C55      C        0.79520    0.84390    0.61080    1.000
    C56      C        0.50540    0.82500    0.38530    1.000
    C57      C        0.41070    0.83280    0.43230    1.000
    H55      H        0.35830    0.81910    0.44760    1.000
    N73      N        0.48110    0.90250    0.44300    1.000
    N74      N        0.42060    0.78140    0.39630    1.000
    N75      N        0.54420    0.89960    0.41240    1.000
    N76      N        0.54450    0.79530    0.35370    1.000
    H56      H        0.59910    0.82450    0.34940    1.000
    H57      H        0.51510    0.74680    0.33760    1.000
    O55      O        0.83760    0.92100    0.62440    1.000
    O56      O        0.71950    0.91400    0.70510    1.000
    O57      O        0.71830    0.80510    0.59880    1.000
    C58      C        0.04870    0.20480    0.61080    1.000
    C59      C        0.31960    0.49460    0.38530    1.000
    C60      C        0.42210    0.58930    0.43230    1.000
    H58      H        0.46080    0.64170    0.44760    1.000
    N77      N        0.42140    0.51890    0.44300    1.000
    N78      N        0.36080    0.57940    0.39630    1.000
    N79      N        0.35540    0.45580    0.41240    1.000
    N80      N        0.25080    0.45550    0.35370    1.000
    H59      H        0.22540    0.40090    0.34940    1.000
    H60      H        0.23170    0.48490    0.33760    1.000
    O58      O        0.08340    0.16240    0.62440    1.000
    O59      O        0.19450    0.28050    0.70510    1.000
    O60      O        0.08680    0.28170    0.59880    1.000
    C61      C        0.15610    0.95130    0.61080    1.000
    C62      C        0.17500    0.68040    0.38530    1.000
    C63      C        0.16720    0.57790    0.43230    1.000
    H61      H        0.18090    0.53920    0.44760    1.000
    N81      N        0.09750    0.57860    0.44300    1.000
    N82      N        0.21860    0.63920    0.39630    1.000
    N83      N        0.10040    0.64460    0.41240    1.000
    N84      N        0.20470    0.74920    0.35370    1.000
    H62      H        0.17550    0.77460    0.34940    1.000
    H63      H        0.25320    0.76830    0.33760    1.000
    O61      O        0.07900    0.91660    0.62440    1.000
    O62      O        0.08600    0.80550    0.70510    1.000
    O63      O        0.19490    0.91320    0.59880    1.000
    C64      C        0.20480    0.15610    0.11080    1.000
    C65      C        0.49460    0.17500    0.88530    1.000
    C66      C        0.58930    0.16720    0.93230    1.000
    H64      H        0.64170    0.18090    0.94760    1.000
    N85      N        0.51890    0.09750    0.94300    1.000
    N86      N        0.57940    0.21860    0.89630    1.000
    N87      N        0.45580    0.10040    0.91240    1.000
    N88      N        0.45550    0.20470    0.85370    1.000
    H65      H        0.40090    0.17550    0.84940    1.000
    H66      H        0.48490    0.25320    0.83760    1.000
    O64      O        0.16240    0.07900    0.12440    1.000
    O65      O        0.28050    0.08600    0.20510    1.000
    O66      O        0.28170    0.19490    0.09880    1.000
    C67      C        0.95130    0.79520    0.11080    1.000
    C68      C        0.68040    0.50540    0.88530    1.000
    C69      C        0.57790    0.41070    0.93230    1.000
    H67      H        0.53920    0.35830    0.94760    1.000
    N89      N        0.57860    0.48110    0.94300    1.000
    N90      N        0.63920    0.42060    0.89630    1.000
    N91      N        0.64460    0.54420    0.91240    1.000
    N92      N        0.74920    0.54450    0.85370    1.000
    H68      H        0.77460    0.59910    0.84940    1.000
    H69      H        0.76830    0.51510    0.83760    1.000
    O67      O        0.91660    0.83760    0.12440    1.000
    O68      O        0.80550    0.71950    0.20510    1.000
    O69      O        0.91320    0.71830    0.09880    1.000
    C70      C        0.84390    0.04870    0.11080    1.000
    C71      C        0.82500    0.31960    0.88530    1.000
    C72      C        0.83280    0.42210    0.93230    1.000
    H70      H        0.81910    0.46080    0.94760    1.000
    N93      N        0.90250    0.42140    0.94300    1.000
    N94      N        0.78140    0.36080    0.89630    1.000
    N95      N        0.89960    0.35540    0.91240    1.000
    N96      N        0.79530    0.25080    0.85370    1.000
    H71      H        0.82450    0.22540    0.84940    1.000
    H72      H        0.74680    0.23170    0.83760    1.000
    O70      O        0.92100    0.08340    0.12440    1.000
    O71      O        0.91400    0.19450    0.20510    1.000
    O72      O        0.80510    0.08680    0.09880    1.000
    C73      C        0.04910    0.26250    0.25000    1.000
    C74      C        0.73750    0.78660    0.25000    1.000
    C75      C        0.21340    0.95090    0.25000    1.000
    C76      C        0.95090    0.73750    0.75000    1.000
    C77      C        0.26250    0.21340    0.75000    1.000
    C78      C        0.78660    0.04910    0.75000    1.000
    C79      C        0.26250    0.04910    0.25000    1.000
    C80      C        0.78660    0.73750    0.25000    1.000
    C81      C        0.95090    0.21340    0.25000    1.000
    C82      C        0.73750    0.95090    0.75000    1.000
    C83      C        0.21340    0.26250    0.75000    1.000
    C84      C        0.04910    0.78660    0.75000    1.000
    C85      C        0.00000    0.26280    0.03050    1.000
    H73      H        0.00000    0.21410    0.01810    1.000
    C86      C        0.00000    0.35810    0.08220    1.000
    N97      N        0.00000    0.28200    0.08300    1.000
    N98      N        0.00000    0.32240    0.99810    1.000
    N99      N        0.00000    0.38380    0.03260    1.000
    N100     N        0.00000    0.39900    0.12850    1.000
    H74      H        0.00000    0.44660    0.12680    1.000
    H75      H        0.00000    0.37710    0.15940    1.000
    Cl1      Cl       0.00000    0.33670    0.82110    1.000
    Zn1      Zn       0.00000    0.21069    0.14329    1.000
    Zn2      Zn       0.00000    0.33285    0.91356    1.000
    C87      C        0.73720    0.73720    0.03050    1.000
    H76      H        0.78590    0.78590    0.01810    1.000
    C88      C        0.64190    0.64190    0.08220    1.000
    N101     N        0.71800    0.71800    0.08300    1.000
    N102     N        0.67760    0.67760    0.99810    1.000
    N103     N        0.61620    0.61620    0.03260    1.000
    N104     N        0.60100    0.60100    0.12850    1.000
    H77      H        0.55340    0.55340    0.12680    1.000
    H78      H        0.62290    0.62290    0.15940    1.000
    Cl2      Cl       0.66330    0.66330    0.82110    1.000
    Zn3      Zn       0.78931    0.78931    0.14329    1.000
    Zn4      Zn       0.66715    0.66715    0.91356    1.000
    C89      C        0.26280    0.00000    0.03050    1.000
    H79      H        0.21410    0.00000    0.01810    1.000
    C90      C        0.35810    0.00000    0.08220    1.000
    N105     N        0.28200    0.00000    0.08300    1.000
    N106     N        0.32240    0.00000    0.99810    1.000
    N107     N        0.38380    0.00000    0.03260    1.000
    N108     N        0.39900    0.00000    0.12850    1.000
    H80      H        0.44660    0.00000    0.12680    1.000
    H81      H        0.37710    0.00000    0.15940    1.000
    Cl3      Cl       0.33670    0.00000    0.82110    1.000
    Zn5      Zn       0.21069    0.00000    0.14329    1.000
    Zn6      Zn       0.33285    0.00000    0.91356    1.000
    C91      C        0.00000    0.73720    0.53050    1.000
    H82      H        0.00000    0.78590    0.51810    1.000
    C92      C        0.00000    0.64190    0.58220    1.000
    N109     N        0.00000    0.71800    0.58300    1.000
    N110     N        0.00000    0.67760    0.49810    1.000
    N111     N        0.00000    0.61620    0.53260    1.000
    N112     N        0.00000    0.60100    0.62850    1.000
    H83      H        0.00000    0.55340    0.62680    1.000
    H84      H        0.00000    0.62290    0.65940    1.000
    Cl4      Cl       0.00000    0.66330    0.32110    1.000
    Zn7      Zn       0.00000    0.78931    0.64329    1.000
    Zn8      Zn       0.00000    0.66715    0.41356    1.000
    C93      C        0.26280    0.26280    0.53050    1.000
    H85      H        0.21410    0.21410    0.51810    1.000
    C94      C        0.35810    0.35810    0.58220    1.000
    N113     N        0.28200    0.28200    0.58300    1.000
    N114     N        0.32240    0.32240    0.49810    1.000
    N115     N        0.38380    0.38380    0.53260    1.000
    N116     N        0.39900    0.39900    0.62850    1.000
    H86      H        0.44660    0.44660    0.62680    1.000
    H87      H        0.37710    0.37710    0.65940    1.000
    Cl5      Cl       0.33670    0.33670    0.32110    1.000
    Zn9      Zn       0.21069    0.21069    0.64329    1.000
    Zn10     Zn       0.33285    0.33285    0.41356    1.000
    C95      C        0.73720    0.00000    0.53050    1.000
    H88      H        0.78590    0.00000    0.51810    1.000
    C96      C        0.64190    0.00000    0.58220    1.000
    N117     N        0.71800    0.00000    0.58300    1.000
    N118     N        0.67760    0.00000    0.49810    1.000
    N119     N        0.61620    0.00000    0.53260    1.000
    N120     N        0.60100    0.00000    0.62850    1.000
    H89      H        0.55340    0.00000    0.62680    1.000
    H90      H        0.62290    0.00000    0.65940    1.000
    Cl6      Cl       0.66330    0.00000    0.32110    1.000
    Zn11     Zn       0.78931    0.00000    0.64329    1.000
    Zn12     Zn       0.66715    0.00000    0.41356    1.000
    C97      C        0.26280    0.00000    0.46950    1.000
    H91      H        0.21410    0.00000    0.48190    1.000
    C98      C        0.35810    0.00000    0.41780    1.000
    N121     N        0.28200    0.00000    0.41700    1.000
    N122     N        0.32240    0.00000    0.50190    1.000
    N123     N        0.38380    0.00000    0.46740    1.000
    N124     N        0.39900    0.00000    0.37150    1.000
    H92      H        0.44660    0.00000    0.37320    1.000
    H93      H        0.37710    0.00000    0.34060    1.000
    Cl7      Cl       0.33670    0.00000    0.67890    1.000
    Zn13     Zn       0.21069    0.00000    0.35671    1.000
    Zn14     Zn       0.33285    0.00000    0.58644    1.000
    C99      C        0.73720    0.73720    0.46950    1.000
    H94      H        0.78590    0.78590    0.48190    1.000
    C100     C        0.64190    0.64190    0.41780    1.000
    N125     N        0.71800    0.71800    0.41700    1.000
    N126     N        0.67760    0.67760    0.50190    1.000
    N127     N        0.61620    0.61620    0.46740    1.000
    N128     N        0.60100    0.60100    0.37150    1.000
    H95      H        0.55340    0.55340    0.37320    1.000
    H96      H        0.62290    0.62290    0.34060    1.000
    Cl8      Cl       0.66330    0.66330    0.67890    1.000
    Zn15     Zn       0.78931    0.78931    0.35671    1.000
    Zn16     Zn       0.66715    0.66715    0.58644    1.000
    C101     C        0.00000    0.26280    0.46950    1.000
    H97      H        0.00000    0.21410    0.48190    1.000
    C102     C        0.00000    0.35810    0.41780    1.000
    N129     N        0.00000    0.28200    0.41700    1.000
    N130     N        0.00000    0.32240    0.50190    1.000
    N131     N        0.00000    0.38380    0.46740    1.000
    N132     N        0.00000    0.39900    0.37150    1.000
    H98      H        0.00000    0.44660    0.37320    1.000
    H99      H        0.00000    0.37710    0.34060    1.000
    Cl9      Cl       0.00000    0.33670    0.67890    1.000
    Zn17     Zn       0.00000    0.21069    0.35671    1.000
    Zn18     Zn       0.00000    0.33285    0.58644    1.000
    C103     C        0.73720    0.00000    0.96950    1.000
    H100     H        0.78590    0.00000    0.98190    1.000
    C104     C        0.64190    0.00000    0.91780    1.000
    N133     N        0.71800    0.00000    0.91700    1.000
    N134     N        0.67760    0.00000    0.00190    1.000
    N135     N        0.61620    0.00000    0.96740    1.000
    N136     N        0.60100    0.00000    0.87150    1.000
    H101     H        0.55340    0.00000    0.87320    1.000
    H102     H        0.62290    0.00000    0.84060    1.000
    Cl10     Cl       0.66330    0.00000    0.17890    1.000
    Zn19     Zn       0.78931    0.00000    0.85671    1.000
    Zn20     Zn       0.66715    0.00000    0.08644    1.000
    C105     C        0.26280    0.26280    0.96950    1.000
    H103     H        0.21410    0.21410    0.98190    1.000
    C106     C        0.35810    0.35810    0.91780    1.000
    N137     N        0.28200    0.28200    0.91700    1.000
    N138     N        0.32240    0.32240    0.00190    1.000
    N139     N        0.38380    0.38380    0.96740    1.000
    N140     N        0.39900    0.39900    0.87150    1.000
    H104     H        0.44660    0.44660    0.87320    1.000
    H105     H        0.37710    0.37710    0.84060    1.000
    Cl11     Cl       0.33670    0.33670    0.17890    1.000
    Zn21     Zn       0.21069    0.21069    0.85671    1.000
    Zn22     Zn       0.33285    0.33285    0.08644    1.000
    C107     C        0.00000    0.73720    0.96950    1.000
    H106     H        0.00000    0.78590    0.98190    1.000
    C108     C        0.00000    0.64190    0.91780    1.000
    N141     N        0.00000    0.71800    0.91700    1.000
    N142     N        0.00000    0.67760    0.00190    1.000
    N143     N        0.00000    0.61620    0.96740    1.000
    N144     N        0.00000    0.60100    0.87150    1.000
    H107     H        0.00000    0.55340    0.87320    1.000
    H108     H        0.00000    0.62290    0.84060    1.000
    Cl12     Cl       0.00000    0.66330    0.17890    1.000
    Zn23     Zn       0.00000    0.78931    0.85671    1.000
    Zn24     Zn       0.00000    0.66715    0.08644    1.000
    Cl13     Cl       0.00000    0.00000    0.25000    1.000
    Cl14     Cl       0.00000    0.00000    0.75000    1.000
    Cl15     Cl       0.00000    0.00000    0.00000    1.000
    Cl16     Cl       0.00000    0.00000    0.50000    1.000
    Tb1      Tb       0.00000    0.00000    0.12452    1.000
    Tb2      Tb       0.00000    0.00000    0.62452    1.000
    Tb3      Tb       0.00000    0.00000    0.37548    1.000
    Tb4      Tb       0.00000    0.00000    0.87548    1.000
    Zn25     Zn       0.00000    0.50000    0.00000    1.000
    Zn26     Zn       0.50000    0.50000    0.00000    1.000
    Zn27     Zn       0.50000    0.00000    0.00000    1.000
    Zn28     Zn       0.00000    0.50000    0.50000    1.000
    Zn29     Zn       0.50000    0.50000    0.50000    1.000
    Zn30     Zn       0.50000    0.00000    0.50000    1.000
    Zn31     Zn       0.33333    0.66667    0.87266    1.000
    Zn32     Zn       0.66667    0.33333    0.37266    1.000
    Zn33     Zn       0.66667    0.33333    0.62734    1.000
    Zn34     Zn       0.33333    0.66667    0.12734    1.000
    Zn35     Zn       0.66667    0.33333    0.12734    1.000
    Zn36     Zn       0.33333    0.66667    0.62734    1.000
    Zn37     Zn       0.33333    0.66667    0.37266    1.000
    Zn38     Zn       0.66667    0.33333    0.87266    1.000
