# CIF file generated by openbabel 3.1.0, see https://openbabel.org
data_I
_chemical_name_common 'image0'
_cell_length_a 16.1749
_cell_length_b 8.3247
_cell_length_c 17.0673
_cell_angle_alpha 90
_cell_angle_beta 114.781
_cell_angle_gamma 90
_space_group_name_H-M_alt 'P 1'
_space_group_name_Hall 'P 1'
loop_
    _symmetry_equiv_pos_as_xyz
    x,y,z
loop_
    _atom_site_label
    _atom_site_type_symbol
    _atom_site_fract_x
    _atom_site_fract_y
    _atom_site_fract_z
    _atom_site_occupancy
    Zn1      Zn       0.86468    0.61889    0.97818    1.000
    P1       P        0.00752    0.39687    0.12375    1.000
    H1       H        0.89500    0.01800    0.12800    1.000
    P2       P        0.85336    0.89415    0.10616    1.000
    H2       H        0.99000    0.28100    0.16800    1.000
    O1       O        0.86120    0.83320    0.02540    1.000
    O2       O        0.89450    0.78420    0.18070    1.000
    O3       O        0.91650    0.43780    0.05160    1.000
    O4       O        0.04890    0.53420    0.18480    1.000
    O5       O        0.07340    0.32110    0.09330    1.000
    O6       O        0.75990    0.94270    0.09180    1.000
    Zn2      Zn       0.36468    0.11889    0.97818    1.000
    P3       P        0.50752    0.89687    0.12375    1.000
    H3       H        0.39500    0.51800    0.12800    1.000
    P4       P        0.35336    0.39415    0.10616    1.000
    H4       H        0.49000    0.78100    0.16800    1.000
    O7       O        0.36120    0.33320    0.02540    1.000
    O8       O        0.39450    0.28420    0.18070    1.000
    O9       O        0.41650    0.93780    0.05160    1.000
    O10      O        0.54890    0.03420    0.18480    1.000
    O11      O        0.57340    0.82110    0.09330    1.000
    O12      O        0.25990    0.44270    0.09180    1.000
    Zn3      Zn       0.13532    0.61889    0.52182    1.000
    P5       P        0.99248    0.39687    0.37625    1.000
    H5       H        0.10500    0.01800    0.37200    1.000
    P6       P        0.14664    0.89415    0.39384    1.000
    H6       H        0.01000    0.28100    0.33200    1.000
    O13      O        0.13880    0.83320    0.47460    1.000
    O14      O        0.10550    0.78420    0.31930    1.000
    O15      O        0.08350    0.43780    0.44840    1.000
    O16      O        0.95110    0.53420    0.31520    1.000
    O17      O        0.92660    0.32110    0.40670    1.000
    O18      O        0.24010    0.94270    0.40820    1.000
    Zn4      Zn       0.63532    0.11889    0.52182    1.000
    P7       P        0.49248    0.89687    0.37625    1.000
    H7       H        0.60500    0.51800    0.37200    1.000
    P8       P        0.64664    0.39415    0.39384    1.000
    H8       H        0.51000    0.78100    0.33200    1.000
    O19      O        0.63880    0.33320    0.47460    1.000
    O20      O        0.60550    0.28420    0.31930    1.000
    O21      O        0.58350    0.93780    0.44840    1.000
    O22      O        0.45110    0.03420    0.31520    1.000
    O23      O        0.42660    0.82110    0.40670    1.000
    O24      O        0.74010    0.44270    0.40820    1.000
    Zn5      Zn       0.13532    0.38111    0.02182    1.000
    P9       P        0.99248    0.60313    0.87625    1.000
    H9       H        0.10500    0.98200    0.87200    1.000
    P10      P        0.14664    0.10585    0.89384    1.000
    H10      H        0.01000    0.71900    0.83200    1.000
    O25      O        0.13880    0.16680    0.97460    1.000
    O26      O        0.10550    0.21580    0.81930    1.000
    O27      O        0.08350    0.56220    0.94840    1.000
    O28      O        0.95110    0.46580    0.81520    1.000
    O29      O        0.92660    0.67890    0.90670    1.000
    O30      O        0.24010    0.05730    0.90820    1.000
    Zn6      Zn       0.63532    0.88111    0.02182    1.000
    P11      P        0.49248    0.10313    0.87625    1.000
    H11      H        0.60500    0.48200    0.87200    1.000
    P12      P        0.64664    0.60585    0.89384    1.000
    H12      H        0.51000    0.21900    0.83200    1.000
    O31      O        0.63880    0.66680    0.97460    1.000
    O32      O        0.60550    0.71580    0.81930    1.000
    O33      O        0.58350    0.06220    0.94840    1.000
    O34      O        0.45110    0.96580    0.81520    1.000
    O35      O        0.42660    0.17890    0.90670    1.000
    O36      O        0.74010    0.55730    0.90820    1.000
    Zn7      Zn       0.86468    0.38111    0.47818    1.000
    P13      P        0.00752    0.60313    0.62375    1.000
    H13      H        0.89500    0.98200    0.62800    1.000
    P14      P        0.85336    0.10585    0.60616    1.000
    H14      H        0.99000    0.71900    0.66800    1.000
    O37      O        0.86120    0.16680    0.52540    1.000
    O38      O        0.89450    0.21580    0.68070    1.000
    O39      O        0.91650    0.56220    0.55160    1.000
    O40      O        0.04890    0.46580    0.68480    1.000
    O41      O        0.07340    0.67890    0.59330    1.000
    O42      O        0.75990    0.05730    0.59180    1.000
    Zn8      Zn       0.36468    0.88111    0.47818    1.000
    P15      P        0.50752    0.10313    0.62375    1.000
    H15      H        0.39500    0.48200    0.62800    1.000
    P16      P        0.35336    0.60585    0.60616    1.000
    H16      H        0.49000    0.21900    0.66800    1.000
    O43      O        0.36120    0.66680    0.52540    1.000
    O44      O        0.39450    0.71580    0.68070    1.000
    O45      O        0.41650    0.06220    0.55160    1.000
    O46      O        0.54890    0.96580    0.68480    1.000
    O47      O        0.57340    0.17890    0.59330    1.000
    O48      O        0.25990    0.55730    0.59180    1.000
    Zn9      Zn       0.00000    0.66137    0.25000    1.000
    Zn10     Zn       0.50000    0.16137    0.25000    1.000
    Zn11     Zn       0.00000    0.33863    0.75000    1.000
    Zn12     Zn       0.50000    0.83863    0.75000    1.000
