# CIF file generated by openbabel 3.1.0, see https://openbabel.org
data_I
_chemical_name_common 'cg401858s_si_002_clean'
_cell_length_a 10.284
_cell_length_b 16.5149
_cell_length_c 20.904
_cell_angle_alpha 85.9263
_cell_angle_beta 76.8111
_cell_angle_gamma 71.8591
_space_group_name_H-M_alt 'P 1'
_space_group_name_Hall 'P 1'
loop_
    _symmetry_equiv_pos_as_xyz
    x,y,z
loop_
    _atom_site_label
    _atom_site_type_symbol
    _atom_site_fract_x
    _atom_site_fract_y
    _atom_site_fract_z
    _atom_site_occupancy
    Ag1      Ag       0.76826    0.61326    0.04063    1.000
    Ag2      Ag       0.38152    0.38674    0.54063    1.000
    H1       H        0.25840    0.18400    0.73860    1.000
    H2       H        0.14150    0.10240    0.24230    1.000
    H3       H        0.10480    0.79440    0.97440    1.000
    H4       H        0.43970    0.46060    0.17020    1.000
    H5       H        0.97980    0.64060    0.49100    1.000
    H6       H        0.63730    0.80940    0.02070    1.000
    H7       H        0.24390    0.89760    0.74230    1.000
    H8       H        0.44670    0.19060    0.52070    1.000
    H9       H        0.44840    0.05820    0.57430    1.000
    H10      H        0.63130    0.83700    0.62900    1.000
    H11      H        0.75780    0.34840    0.32880    1.000
    H12      H        0.19960    0.54680    0.47580    1.000
    H13      H        0.94800    0.73660    0.03950    1.000
    H14      H        0.46830    0.16300    0.12900    1.000
    H15      H        0.95010    0.59640    0.89970    1.000
    H16      H        0.57150    0.55020    0.14950    1.000
    H17      H        0.68460    0.26340    0.53950    1.000
    H18      H        0.50660    0.94180    0.07430    1.000
    H19      H        0.12170    0.44980    0.64950    1.000
    H20      H        0.49510    0.65440    0.73350    1.000
    H21      H        0.89920    0.20560    0.47440    1.000
    H22      H        0.90030    0.53940    0.67020    1.000
    H23      H        0.59600    0.69380    0.18370    1.000
    H24      H        0.10620    0.65160    0.82880    1.000
    H25      H        0.44240    0.81600    0.23860    1.000
    H26      H        0.28980    0.30620    0.68370    1.000
    H27      H        0.74640    0.45320    0.97580    1.000
    H28      H        0.62040    0.35940    0.99100    1.000
    H29      H        0.54650    0.40360    0.39970    1.000
    H30      H        0.14950    0.34560    0.23350    1.000
    C1       C        0.77230    0.66320    0.59130    1.000
    C2       C        0.74500    0.33080    0.37240    1.000
    C3       C        0.47917    0.71126    0.72080    1.000
    C4       C        0.91380    0.60040    0.58380    1.000
    C5       C        0.09230    0.48860    0.61730    1.000
    C6       C        0.00643    0.60234    0.52390    1.000
    C7       C        0.12460    0.72720    0.89440    1.000
    C8       C        0.43550    0.33680    0.09130    1.000
    C9       C        0.30570    0.18220    0.69490    1.000
    C10      C        0.60877    0.39766    0.02390    1.000
    C11      C        0.31260    0.12280    0.18370    1.000
    C12      C        0.56115    0.82030    0.65790    1.000
    C13      C        0.57954    0.73692    0.67660    1.000
    C14      C        0.82930    0.24620    0.45790    1.000
    C15      C        0.43540    0.87720    0.68370    1.000
    C16      C        0.31646    0.26308    0.17660    1.000
    C17      C        0.38145    0.17970    0.15790    1.000
    C18      C        0.22990    0.76440    0.85300    1.000
    C19      C        0.48790    0.81780    0.19490    1.000
    C20      C        0.13772    0.54556    0.51570    1.000
    C21      C        0.07580    0.66920    0.87240    1.000
    C22      C        0.12640    0.22800    0.24580    1.000
    C23      C        0.68328    0.45444    0.01570    1.000
    C24      C        0.36490    0.11100    0.66180    1.000
    C25      C        0.51420    0.39960    0.08380    1.000
    C26      C        0.31830    0.25580    0.65990    1.000
    C27      C        0.50235    0.45790    0.12990    1.000
    C28      C        0.41260    0.18980    0.56590    1.000
    C29      C        0.41430    0.10900    0.59770    1.000
    C30      C        0.58090    0.51140    0.11730    1.000
    C31      C        0.96025    0.54210    0.62990    1.000
    C32      C        0.36640    0.02560    0.69740    1.000
    C33      C        0.57410    0.74420    0.15990    1.000
    C34      C        0.52330    0.89100    0.09770    1.000
    C35      C        0.98190    0.63680    0.91490    1.000
    C36      C        0.60240    0.81020    0.06590    1.000
    C37      C        0.47590    0.88900    0.16180    1.000
    C38      C        0.85180    0.27280    0.39440    1.000
    C39      C        0.19043    0.28874    0.22080    1.000
    C40      C        0.98170    0.71860    0.99600    1.000
    C41      C        0.18590    0.14340    0.22660    1.000
    C42      C        0.07550    0.75380    0.95790    1.000
    C43      C        0.39200    0.97440    0.19740    1.000
    C44      C        0.35440    0.77200    0.74580    1.000
    C45      C        0.99430    0.23560    0.35300    1.000
    C46      C        0.32930    0.85660    0.72660    1.000
    C47      C        0.61870    0.36320    0.41490    1.000
    C48      C        0.70030    0.28140    0.49600    1.000
    N1       N        0.93496    0.66168    0.97720    1.000
    N2       N        0.18373    0.48954    0.55940    1.000
    N3       N        0.59664    0.33832    0.47720    1.000
    N4       N        0.36605    0.25990    0.59750    1.000
    N5       N        0.67327    0.51046    0.05940    1.000
    N6       N        0.62595    0.74010    0.09750    1.000
    O1       O        0.41476    0.96088    0.65950    1.000
    O2       O        0.37564    0.03912    0.15950    1.000
    O3       O        0.38484    0.32512    0.15650    1.000
    O4       O        0.09425    0.19730    0.37270    1.000
    O5       O        0.25011    0.74478    0.79000    1.000
    O6       O        0.70996    0.67488    0.65650    1.000
    O7       O        0.35585    0.97850    0.25900    1.000
    O8       O        0.33435    0.02150    0.75900    1.000
    O9       O        0.41347    0.30086    0.05030    1.000
    O10      O        0.99489    0.25522    0.29000    1.000
    O11      O        0.71433    0.69914    0.55030    1.000
    O12      O        0.29155    0.80270    0.87270    1.000
    Ag3      Ag       0.23174    0.38674    0.95937    1.000
    Ag4      Ag       0.61848    0.61326    0.45937    1.000
    H31      H        0.74160    0.81600    0.26140    1.000
    H32      H        0.56030    0.53940    0.82980    1.000
    H33      H        0.36870    0.16300    0.37100    1.000
    H34      H        0.10080    0.79440    0.52560    1.000
    H35      H        0.89520    0.20560    0.02560    1.000
    H36      H        0.80040    0.45320    0.52420    1.000
    H37      H        0.42850    0.44980    0.85050    1.000
    H38      H        0.55160    0.94180    0.42570    1.000
    H39      H        0.36270    0.19060    0.97930    1.000
    H40      H        0.05200    0.26340    0.96050    1.000
    H41      H        0.25360    0.54680    0.02420    1.000
    H42      H        0.71020    0.69380    0.31630    1.000
    H43      H        0.02020    0.35940    0.50900    1.000
    H44      H        0.85050    0.65440    0.76650    1.000
    H45      H        0.55330    0.80940    0.47930    1.000
    H46      H        0.55760    0.18400    0.76140    1.000
    H47      H        0.49340    0.05820    0.92570    1.000
    H48      H        0.40400    0.30620    0.81630    1.000
    H49      H        0.45350    0.59640    0.60030    1.000
    H50      H        0.09970    0.46060    0.32980    1.000
    H51      H        0.04990    0.40360    0.10030    1.000
    H52      H        0.89380    0.34840    0.17120    1.000
    H53      H        0.50490    0.34560    0.26650    1.000
    H54      H        0.24220    0.65160    0.67120    1.000
    H55      H        0.85850    0.89760    0.75770    1.000
    H56      H        0.75610    0.10240    0.25770    1.000
    H57      H        0.53170    0.83700    0.87100    1.000
    H58      H        0.31540    0.73660    0.46050    1.000
    H59      H        0.87830    0.55020    0.35050    1.000
    H60      H        0.37960    0.64060    0.00900    1.000
    C49      C        0.58570    0.89100    0.40230    1.000
    C50      C        0.42046    0.26308    0.32340    1.000
    C51      C        0.43885    0.17970    0.34210    1.000
    C52      C        0.87540    0.27280    0.10560    1.000
    C53      C        0.68740    0.87720    0.81630    1.000
    C54      C        0.69430    0.81780    0.30510    1.000
    C55      C        0.86228    0.45444    0.48430    1.000
    C56      C        0.63360    0.97440    0.30260    1.000
    C57      C        0.01830    0.28140    0.00400    1.000
    C58      C        0.08620    0.39960    0.41620    1.000
    C59      C        0.92450    0.24620    0.04210    1.000
    C60      C        0.63510    0.88900    0.33820    1.000
    C61      C        0.39123    0.60234    0.97610    1.000
    C62      C        0.14820    0.72720    0.60560    1.000
    C63      C        0.90770    0.51140    0.38270    1.000
    C64      C        0.99357    0.39766    0.47610    1.000
    C65      C        0.68170    0.74420    0.34010    1.000
    C66      C        0.51210    0.18220    0.80510    1.000
    C67      C        0.58740    0.81020    0.43410    1.000
    C68      C        0.60800    0.02560    0.80260    1.000
    C69      C        0.42590    0.25580    0.84010    1.000
    C70      C        0.47670    0.10900    0.90230    1.000
    C71      C        0.87360    0.77200    0.75420    1.000
    C72      C        0.41910    0.48860    0.88270    1.000
    C73      C        0.56460    0.12280    0.31630    1.000
    C74      C        0.77010    0.23560    0.14700    1.000
    C75      C        0.61855    0.82030    0.84210    1.000
    C76      C        0.29970    0.71860    0.50400    1.000
    C77      C        0.67070    0.14340    0.27340    1.000
    C78      C        0.49765    0.54210    0.87010    1.000
    C79      C        0.38130    0.63680    0.58510    1.000
    C80      C        0.25500    0.66920    0.62760    1.000
    C81      C        0.52410    0.11100    0.83820    1.000
    C82      C        0.39760    0.18980    0.93410    1.000
    C83      C        0.80957    0.71126    0.77920    1.000
    C84      C        0.31672    0.54556    0.98430    1.000
    C85      C        0.00570    0.76440    0.64700    1.000
    C86      C        0.52083    0.28874    0.27920    1.000
    C87      C        0.56450    0.66320    0.90870    1.000
    C88      C        0.68354    0.73692    0.82340    1.000
    C89      C        0.81410    0.85660    0.77340    1.000
    C90      C        0.92420    0.33080    0.12760    1.000
    C91      C        0.03975    0.45790    0.37010    1.000
    C92      C        0.17070    0.75380    0.54210    1.000
    C93      C        0.64560    0.22800    0.25420    1.000
    C94      C        0.22770    0.33680    0.40870    1.000
    C95      C        0.48580    0.60040    0.91620    1.000
    C96      C        0.01810    0.36320    0.08510    1.000
    N7       N        0.40336    0.66168    0.52280    1.000
    N8       N        0.06504    0.33832    0.02280    1.000
    N9       N        0.32673    0.48954    0.94060    1.000
    N10      N        0.63395    0.74010    0.40250    1.000
    N11      N        0.37405    0.25990    0.90250    1.000
    N12      N        0.81627    0.51046    0.44060    1.000
    O13      O        0.74989    0.25522    0.21000    1.000
    O14      O        0.70845    0.19730    0.12730    1.000
    O15      O        0.61516    0.67488    0.84350    1.000
    O16      O        0.64415    0.02150    0.74100    1.000
    O17      O        0.62436    0.96088    0.84050    1.000
    O18      O        0.58524    0.03912    0.34050    1.000
    O19      O        0.66565    0.97850    0.24100    1.000
    O20      O        0.90575    0.80270    0.62730    1.000
    O21      O        0.28567    0.30086    0.44970    1.000
    O22      O        0.58653    0.69914    0.94970    1.000
    O23      O        0.29004    0.32512    0.34350    1.000
    O24      O        0.00511    0.74478    0.71000    1.000
