data_functionalizedCrystal
_audit_creation_method	'EQeq! by Chris Wilmer'
_symmetry_space_group_name_H-M	'P1'
_symmetry_Int_Tables_number	1
_symmetry_cell_setting	triclinic
loop_
_symmetry_equiv_pos_as_xyz
  x,y,z
_cell_length_a	16.6165
_cell_length_b	16.6165
_cell_length_c	15.3366
_cell_angle_alpha	90
_cell_angle_beta	90
_cell_angle_gamma	120
loop_
_atom_site_label
_atom_site_type_symbol
_atom_site_fract_x
_atom_site_fract_y
_atom_site_fract_z
_atom_site_charge
Mof_C 	C 	0.4455	0.0351	0.0315	0.189
Mof_O 	O 	0.52	0.1749	0.15646	-0.517
Mof_O 	O 	0.3857	0.0653	0.0541	-0.368
Mof_H 	H 	0.4102	0.1064	0.0909	0.269
Mof_C 	C 	0.9649	0.4104	0.0315	0.189
Mof_O 	O 	0.8251	0.3451	0.15646	-0.517
Mof_O 	O 	0.9347	0.3204	0.0541	-0.368
Mof_H 	H 	0.8936	0.3038	0.0909	0.269
Mof_C 	C 	0.5896	0.5545	0.0315	0.189
Mof_O 	O 	0.6549	0.48	0.15646	-0.517
Mof_O 	O 	0.6796	0.6143	0.0541	-0.368
Mof_H 	H 	0.6962	0.5898	0.0909	0.269
Mof_C 	C 	0.5545	0.9649	0.5315	0.189
Mof_O 	O 	0.48	0.8251	0.65646	-0.517
Mof_O 	O 	0.6143	0.9347	0.5541	-0.368
Mof_H 	H 	0.5898	0.8936	0.5909	0.269
Mof_C 	C 	0.0351	0.5896	0.5315	0.189
Mof_O 	O 	0.1749	0.6549	0.65646	-0.517
Mof_O 	O 	0.0653	0.6796	0.5541	-0.368
Mof_H 	H 	0.1064	0.6962	0.5909	0.269
Mof_C 	C 	0.4104	0.4455	0.5315	0.19
Mof_O 	O 	0.3451	0.52	0.65646	-0.516
Mof_O 	O 	0.3204	0.3857	0.5541	-0.367
Mof_H 	H 	0.3038	0.4102	0.5909	0.27
Mof_C 	C 	0.0351	0.4455	0.9685	0.19
Mof_O 	O 	0.1749	0.52	0.84354	-0.516
Mof_O 	O 	0.0653	0.3857	0.9459	-0.367
Mof_H 	H 	0.1064	0.4102	0.9091	0.27
Mof_C 	C 	0.4104	0.9649	0.9685	0.19
Mof_O 	O 	0.3451	0.8251	0.84354	-0.516
Mof_O 	O 	0.3204	0.9347	0.9459	-0.367
Mof_H 	H 	0.3038	0.8936	0.9091	0.27
Mof_C 	C 	0.5545	0.5896	0.9685	0.19
Mof_O 	O 	0.48	0.6549	0.84354	-0.516
Mof_O 	O 	0.6143	0.6796	0.9459	-0.367
Mof_H 	H 	0.5898	0.6962	0.9091	0.27
Mof_C 	C 	0.9649	0.5545	0.4685	0.19
Mof_O 	O 	0.8251	0.48	0.34354	-0.516
Mof_O 	O 	0.9347	0.6143	0.4459	-0.367
Mof_H 	H 	0.8936	0.5898	0.4091	0.27
Mof_C 	C 	0.5896	0.0351	0.4685	0.19
Mof_O 	O 	0.6549	0.1749	0.34354	-0.516
Mof_O 	O 	0.6796	0.0653	0.4459	-0.367
Mof_H 	H 	0.6962	0.1064	0.4091	0.27
Mof_C 	C 	0.4455	0.4104	0.4685	0.19
Mof_O 	O 	0.52	0.3451	0.34354	-0.516
Mof_O 	O 	0.3857	0.3204	0.4459	-0.367
Mof_H 	H 	0.4102	0.3038	0.4091	0.27
Mof_C 	C 	0.5545	0.9649	0.9685	0.19
Mof_O 	O 	0.48	0.8251	0.84354	-0.516
Mof_O 	O 	0.6143	0.9347	0.9459	-0.367
Mof_H 	H 	0.5898	0.8936	0.9091	0.27
Mof_C 	C 	0.0351	0.5896	0.9685	0.19
Mof_O 	O 	0.1749	0.6549	0.84354	-0.516
Mof_O 	O 	0.0653	0.6796	0.9459	-0.367
Mof_H 	H 	0.1064	0.6962	0.9091	0.27
Mof_C 	C 	0.4104	0.4455	0.9685	0.19
Mof_O 	O 	0.3451	0.52	0.84354	-0.516
Mof_O 	O 	0.3204	0.3857	0.9459	-0.367
Mof_H 	H 	0.3038	0.4102	0.9091	0.27
Mof_C 	C 	0.4455	0.0351	0.4685	0.19
Mof_O 	O 	0.52	0.1749	0.34354	-0.516
Mof_O 	O 	0.3857	0.0653	0.4459	-0.367
Mof_H 	H 	0.4102	0.1064	0.4091	0.27
Mof_C 	C 	0.9649	0.4104	0.4685	0.19
Mof_O 	O 	0.8251	0.3451	0.34354	-0.516
Mof_O 	O 	0.9347	0.3204	0.4459	-0.367
Mof_H 	H 	0.8936	0.3038	0.4091	0.27
Mof_C 	C 	0.5896	0.5545	0.4685	0.19
Mof_O 	O 	0.6549	0.48	0.34354	-0.516
Mof_O 	O 	0.6796	0.6143	0.4459	-0.367
Mof_H 	H 	0.6962	0.5898	0.4091	0.27
Mof_C 	C 	0.9649	0.5545	0.0315	0.19
Mof_O 	O 	0.8251	0.48	0.15646	-0.516
Mof_O 	O 	0.9347	0.6143	0.0541	-0.367
Mof_H 	H 	0.8936	0.5898	0.0909	0.27
Mof_C 	C 	0.5896	0.0351	0.0315	0.19
Mof_O 	O 	0.6549	0.1749	0.15646	-0.516
Mof_O 	O 	0.6796	0.0653	0.0541	-0.367
Mof_H 	H 	0.6962	0.1064	0.0909	0.27
Mof_C 	C 	0.4455	0.4104	0.0315	0.19
Mof_O 	O 	0.52	0.3451	0.15646	-0.516
Mof_O 	O 	0.3857	0.3204	0.0541	-0.367
Mof_H 	H 	0.4102	0.3038	0.0909	0.27
Mof_C 	C 	0.0351	0.4455	0.5315	0.19
Mof_O 	O 	0.1749	0.52	0.65646	-0.516
Mof_O 	O 	0.0653	0.3857	0.5541	-0.367
Mof_H 	H 	0.1064	0.4102	0.5909	0.27
Mof_C 	C 	0.4104	0.9649	0.5315	0.19
Mof_O 	O 	0.3451	0.8251	0.65646	-0.516
Mof_O 	O 	0.3204	0.9347	0.5541	-0.367
Mof_H 	H 	0.3038	0.8936	0.5909	0.27
Mof_C 	C 	0.5545	0.5896	0.5315	0.19
Mof_O 	O 	0.48	0.6549	0.65646	-0.516
Mof_O 	O 	0.6143	0.6796	0.5541	-0.367
Mof_H 	H 	0.5898	0.6962	0.5909	0.27
Mof_Mg	Mg	0.53007	0.26503	0.25	1.481
Mof_N 	N 	0.3813	0.19065	0.25	-0.244
Mof_C 	C 	0.1991	0.09955	0.25	0.101
Mof_C 	C 	0.0938	0.0469	0.25	0.104
Mof_Mg	Mg	0.73497	0.26503	0.25	1.481
Mof_N 	N 	0.80935	0.19065	0.25	-0.244
Mof_C 	C 	0.90045	0.09955	0.25	0.1
Mof_C 	C 	0.9531	0.0469	0.25	0.104
Mof_Mg	Mg	0.73497	0.46993	0.25	1.481
Mof_N 	N 	0.80935	0.6187	0.25	-0.244
Mof_C 	C 	0.90045	0.8009	0.25	0.101
Mof_C 	C 	0.9531	0.9062	0.25	0.104
Mof_Mg	Mg	0.46993	0.73497	0.75	1.481
Mof_N 	N 	0.6187	0.80935	0.75	-0.244
Mof_C 	C 	0.8009	0.90045	0.75	0.101
Mof_C 	C 	0.9062	0.9531	0.75	0.104
Mof_Mg	Mg	0.26503	0.73497	0.75	1.481
Mof_N 	N 	0.19065	0.80935	0.75	-0.244
Mof_C 	C 	0.09955	0.90045	0.75	0.1
Mof_C 	C 	0.0469	0.9531	0.75	0.104
Mof_Mg	Mg	0.26503	0.53007	0.75	1.481
Mof_N 	N 	0.19065	0.3813	0.75	-0.244
Mof_C 	C 	0.09955	0.1991	0.75	0.101
Mof_C 	C 	0.0469	0.0938	0.75	0.104
Mof_C 	C 	0.5726	0.1452	0.1308	0.481
Mof_C 	C 	0.53505	0.0701	0.0627	-0.241
Mof_C 	C 	0.8548	0.4274	0.1308	0.481
Mof_C 	C 	0.9299	0.46495	0.0627	-0.241
Mof_C 	C 	0.5726	0.4274	0.1308	0.481
Mof_C 	C 	0.53505	0.46495	0.0627	-0.241
Mof_C 	C 	0.4274	0.8548	0.6308	0.481
Mof_C 	C 	0.46495	0.9299	0.5627	-0.241
Mof_C 	C 	0.1452	0.5726	0.6308	0.481
Mof_C 	C 	0.0701	0.53505	0.5627	-0.241
Mof_C 	C 	0.4274	0.5726	0.6308	0.481
Mof_C 	C 	0.46495	0.53505	0.5627	-0.241
Mof_C 	C 	0.1452	0.5726	0.8692	0.481
Mof_C 	C 	0.0701	0.53505	0.9373	-0.241
Mof_C 	C 	0.4274	0.8548	0.8692	0.481
Mof_C 	C 	0.46495	0.9299	0.9373	-0.241
Mof_C 	C 	0.4274	0.5726	0.8692	0.481
Mof_C 	C 	0.46495	0.53505	0.9373	-0.241
Mof_C 	C 	0.8548	0.4274	0.3692	0.481
Mof_C 	C 	0.9299	0.46495	0.4373	-0.241
Mof_C 	C 	0.5726	0.1452	0.3692	0.481
Mof_C 	C 	0.53505	0.0701	0.4373	-0.241
Mof_C 	C 	0.5726	0.4274	0.3692	0.481
Mof_C 	C 	0.53505	0.46495	0.4373	-0.241
Mof_C 	C 	0.3372	0.2397	0.25	0.102
Mof_H 	H 	0.3706	0.3043	0.25	0.007
Mof_C 	C 	0.2427	0.1933	0.25	-0.143
Mof_H 	H 	0.2096	0.2247	0.25	0.111
Mof_C 	C 	0.7603	0.0975	0.25	0.102
Mof_H 	H 	0.6957	0.0663	0.25	0.007
Mof_C 	C 	0.8067	0.0494	0.25	-0.142
Mof_H 	H 	0.7753	0.9849	0.25	0.111
Mof_C 	C 	0.9025	0.6628	0.25	0.102
Mof_H 	H 	0.9337	0.6294	0.25	0.007
Mof_C 	C 	0.9506	0.7573	0.25	-0.143
Mof_H 	H 	0.0151	0.7904	0.25	0.111
Mof_C 	C 	0.6628	0.7603	0.75	0.102
Mof_H 	H 	0.6294	0.6957	0.75	0.007
Mof_C 	C 	0.7573	0.8067	0.75	-0.143
Mof_H 	H 	0.7904	0.7753	0.75	0.111
Mof_C 	C 	0.2397	0.9025	0.75	0.102
Mof_H 	H 	0.3043	0.9337	0.75	0.007
Mof_C 	C 	0.1933	0.9506	0.75	-0.142
Mof_H 	H 	0.2247	0.0151	0.75	0.111
Mof_C 	C 	0.0975	0.3372	0.75	0.102
Mof_H 	H 	0.0663	0.3706	0.75	0.007
Mof_C 	C 	0.0494	0.2427	0.75	-0.143
Mof_H 	H 	0.9849	0.2096	0.75	0.111
Mof_C 	C 	0.2397	0.3372	0.75	0.102
Mof_H 	H 	0.3043	0.3706	0.75	0.007
Mof_C 	C 	0.1933	0.2427	0.75	-0.143
Mof_H 	H 	0.2247	0.2096	0.75	0.111
Mof_C 	C 	0.0975	0.7603	0.75	0.102
Mof_H 	H 	0.0663	0.6957	0.75	0.007
Mof_C 	C 	0.0494	0.8067	0.75	-0.142
Mof_H 	H 	0.9849	0.7753	0.75	0.111
Mof_C 	C 	0.6628	0.9025	0.75	0.102
Mof_H 	H 	0.6294	0.9337	0.75	0.007
Mof_C 	C 	0.7573	0.9506	0.75	-0.143
Mof_H 	H 	0.7904	0.0151	0.75	0.111
Mof_C 	C 	0.7603	0.6628	0.25	0.102
Mof_H 	H 	0.6957	0.6294	0.25	0.007
Mof_C 	C 	0.8067	0.7573	0.25	-0.143
Mof_H 	H 	0.7753	0.7904	0.25	0.111
Mof_C 	C 	0.9025	0.2397	0.25	0.102
Mof_H 	H 	0.9337	0.3043	0.25	0.007
Mof_C 	C 	0.9506	0.1933	0.25	-0.142
Mof_H 	H 	0.0151	0.2247	0.25	0.111
Mof_C 	C 	0.3372	0.0975	0.25	0.102
Mof_H 	H 	0.3706	0.0663	0.25	0.007
Mof_C 	C 	0.2427	0.0494	0.25	-0.143
Mof_H 	H 	0.2096	0.9849	0.25	0.111
Mof_O 	O 	0.66667	0.33333	0.25	-0.768
Mof_O 	O 	0.33333	0.66667	0.75	-0.768
Mof_N 	N 	0.0472	0.0944	0.25	-0.125
Mof_N 	N 	0.9056	0.9528	0.25	-0.125
Mof_N 	N 	0.0472	0.9528	0.25	-0.125
Mof_N 	N 	0.9528	0.9056	0.75	-0.125
Mof_N 	N 	0.0944	0.0472	0.75	-0.125
Mof_N 	N 	0.9528	0.0472	0.75	-0.125
_end
