# CIF file generated by openbabel 3.1.0, see https://openbabel.org
data_I
_chemical_name_common 'image0'
_cell_length_a 11.2547
_cell_length_b 17.5664
_cell_length_c 16.8496
_cell_angle_alpha 90
_cell_angle_beta 93.473
_cell_angle_gamma 90
_space_group_name_H-M_alt 'P 1'
_space_group_name_Hall 'P 1'
loop_
    _symmetry_equiv_pos_as_xyz
    x,y,z
loop_
    _atom_site_label
    _atom_site_type_symbol
    _atom_site_fract_x
    _atom_site_fract_y
    _atom_site_fract_z
    _atom_site_occupancy
    C1       C        0.62960    0.86200    0.35910    1.000
    C2       C        0.57370    0.93340    0.33020    1.000
    C3       C        0.58190    0.96720    0.25790    1.000
    H1       H        0.61900    0.94520    0.21580    1.000
    C4       C        0.52690    0.04010    0.25460    1.000
    H2       H        0.52530    0.07120    0.20990    1.000
    C5       C        0.47730    0.05950    0.32260    1.000
    C6       C        0.42040    0.13300    0.34300    1.000
    C7       C        0.88690    0.86940    0.47550    1.000
    C8       C        0.94930    0.94220    0.46960    1.000
    C9       C        0.00530    0.96980    0.40770    1.000
    H3       H        0.00920    0.94390    0.35970    1.000
    C10      C        0.05800    0.04210    0.42240    1.000
    H4       H        0.10170    0.06830    0.38610    1.000
    C11      C        0.03670    0.06820    0.49600    1.000
    C12      C        0.07720    0.14180    0.53090    1.000
    C13      C        0.57570    0.87580    0.67700    1.000
    C14      C        0.53010    0.95260    0.65180    1.000
    C15      C        0.55460    0.99050    0.58560    1.000
    H5       H        0.60860    0.97330    0.54990    1.000
    C16      C        0.48970    0.05910    0.57560    1.000
    H6       H        0.49380    0.09100    0.53180    1.000
    C17      C        0.42090    0.07290    0.63730    1.000
    C18      C        0.33890    0.13800    0.64880    1.000
    C19      C        0.81900    0.63370    0.85330    1.000
    C20      C        0.89880    0.56700    0.86210    1.000
    C21      C        0.97690    0.54980    0.92510    1.000
    H7       H        0.99020    0.58090    0.96950    1.000
    C22      C        0.03350    0.48100    0.91510    1.000
    H8       H        0.08930    0.46140    0.95270    1.000
    C23      C        0.00130    0.44440    0.84620    1.000
    C24      C        0.04630    0.36710    0.82310    1.000
    C25      C        0.58470    0.63390    0.98150    1.000
    C26      C        0.54110    0.56000    0.01090    1.000
    C27      C        0.56740    0.52700    0.08200    1.000
    H9       H        0.61680    0.54920    0.12180    1.000
    C28      C        0.51240    0.45480    0.09010    1.000
    H10      H        0.52350    0.42350    0.13450    1.000
    C29      C        0.44150    0.43760    0.02480    1.000
    C30      C        0.36890    0.36720    0.01140    1.000
    C31      C        0.94210    0.62750    0.16960    1.000
    C32      C        0.00140    0.55370    0.18350    1.000
    C33      C        0.06960    0.53350    0.25090    1.000
    H11      H        0.07900    0.56410    0.29590    1.000
    C34      C        0.12300    0.46220    0.24430    1.000
    H12      H        0.17160    0.43970    0.28430    1.000
    C35      C        0.09500    0.42940    0.17140    1.000
    C36      C        0.14000    0.35670    0.13970    1.000
    O1       O        0.68070    0.82510    0.30720    1.000
    O2       O        0.62550    0.84620    0.43100    1.000
    O3       O        0.44400    0.18770    0.29650    1.000
    O4       O        0.36280    0.13810    0.40210    1.000
    O5       O        0.89260    0.82410    0.41660    1.000
    O6       O        0.83560    0.85580    0.53730    1.000
    O7       O        0.13420    0.18410    0.48480    1.000
    O8       O        0.05570    0.15740    0.60090    1.000
    O9       O        0.62650    0.83940    0.62660    1.000
    O10      O        0.56150    0.85550    0.74590    1.000
    O11      O        0.32040    0.18510    0.59350    1.000
    O12      O        0.29000    0.14210    0.71330    1.000
    O13      O        0.76120    0.64420    0.78830    1.000
    O14      O        0.81170    0.67790    0.91190    1.000
    O15      O        0.05210    0.35100    0.75080    1.000
    O16      O        0.07450    0.32590    0.87930    1.000
    O17      O        0.64390    0.67450    0.03110    1.000
    O18      O        0.56080    0.65020    0.90990    1.000
    O19      O        0.37110    0.31780    0.06540    1.000
    O20      O        0.30900    0.36010    0.94720    1.000
    O21      O        0.88430    0.63790    0.10320    1.000
    O22      O        0.95300    0.67620    0.22360    1.000
    O23      O        0.11970    0.34260    0.06770    1.000
    O24      O        0.20130    0.31500    0.18970    1.000
    O25      O        0.27660    0.24920    0.83000    1.000
    S1       S        0.49430    0.98911    0.39200    1.000
    S2       S        0.95720    0.00510    0.54777    1.000
    S3       S        0.43310    0.00234    0.70720    1.000
    S4       S        0.89890    0.49765    0.78948    1.000
    S5       S        0.44320    0.50615    0.95282    1.000
    S6       S        0.00410    0.48578    0.11203    1.000
    Eu1      Eu       0.30455    0.25448    0.46661    1.000
    Eu2      Eu       0.15232    0.24679    0.68949    1.000
    Eu3      Eu       0.17831    0.24910    0.96952    1.000
    Eu4      Eu       0.37964    0.24515    0.17997    1.000
    C37      C        0.37040    0.36200    0.64090    1.000
    C38      C        0.42630    0.43340    0.66980    1.000
    C39      C        0.41810    0.46720    0.74210    1.000
    H13      H        0.38100    0.44520    0.78420    1.000
    C40      C        0.47310    0.54010    0.74540    1.000
    H14      H        0.47470    0.57120    0.79010    1.000
    C41      C        0.52270    0.55950    0.67740    1.000
    C42      C        0.57960    0.63300    0.65700    1.000
    C43      C        0.11310    0.36940    0.52450    1.000
    C44      C        0.05070    0.44220    0.53040    1.000
    C45      C        0.99470    0.46980    0.59230    1.000
    H15      H        0.99080    0.44390    0.64030    1.000
    C46      C        0.94200    0.54210    0.57760    1.000
    H16      H        0.89830    0.56830    0.61390    1.000
    C47      C        0.96330    0.56820    0.50400    1.000
    C48      C        0.92280    0.64180    0.46910    1.000
    C49      C        0.42430    0.37580    0.32300    1.000
    C50      C        0.46990    0.45260    0.34820    1.000
    C51      C        0.44540    0.49050    0.41440    1.000
    H17      H        0.39140    0.47330    0.45010    1.000
    C52      C        0.51030    0.55910    0.42440    1.000
    H18      H        0.50620    0.59100    0.46820    1.000
    C53      C        0.57910    0.57290    0.36270    1.000
    C54      C        0.66110    0.63800    0.35120    1.000
    C55      C        0.18100    0.13370    0.14670    1.000
    C56      C        0.10120    0.06700    0.13790    1.000
    C57      C        0.02310    0.04980    0.07490    1.000
    H19      H        0.00980    0.08090    0.03050    1.000
    C58      C        0.96650    0.98100    0.08490    1.000
    H20      H        0.91070    0.96140    0.04730    1.000
    C59      C        0.99870    0.94440    0.15380    1.000
    C60      C        0.95370    0.86710    0.17690    1.000
    C61      C        0.41530    0.13390    0.01850    1.000
    C62      C        0.45890    0.06000    0.98910    1.000
    C63      C        0.43260    0.02700    0.91800    1.000
    H21      H        0.38320    0.04920    0.87820    1.000
    C64      C        0.48760    0.95480    0.90990    1.000
    H22      H        0.47650    0.92350    0.86550    1.000
    C65      C        0.55850    0.93760    0.97520    1.000
    C66      C        0.63110    0.86720    0.98860    1.000
    C67      C        0.05790    0.12750    0.83040    1.000
    C68      C        0.99860    0.05370    0.81650    1.000
    C69      C        0.93040    0.03350    0.74910    1.000
    H23      H        0.92100    0.06410    0.70410    1.000
    C70      C        0.87700    0.96220    0.75570    1.000
    H24      H        0.82840    0.93970    0.71570    1.000
    C71      C        0.90500    0.92940    0.82860    1.000
    C72      C        0.86000    0.85670    0.86030    1.000
    O26      O        0.31930    0.32510    0.69280    1.000
    O27      O        0.37450    0.34620    0.56900    1.000
    O28      O        0.55600    0.68770    0.70350    1.000
    O29      O        0.63720    0.63810    0.59790    1.000
    O30      O        0.10740    0.32410    0.58340    1.000
    O31      O        0.16440    0.35580    0.46270    1.000
    O32      O        0.86580    0.68410    0.51520    1.000
    O33      O        0.94430    0.65740    0.39910    1.000
    O34      O        0.37350    0.33940    0.37340    1.000
    O35      O        0.43850    0.35550    0.25410    1.000
    O36      O        0.67960    0.68510    0.40650    1.000
    O37      O        0.71000    0.64210    0.28670    1.000
    O38      O        0.23880    0.14420    0.21170    1.000
    O39      O        0.18830    0.17790    0.08810    1.000
    O40      O        0.94790    0.85100    0.24920    1.000
    O41      O        0.92550    0.82590    0.12070    1.000
    O42      O        0.35610    0.17450    0.96890    1.000
    O43      O        0.43920    0.15020    0.09010    1.000
    O44      O        0.62890    0.81780    0.93460    1.000
    O45      O        0.69100    0.86010    0.05280    1.000
    O46      O        0.11570    0.13790    0.89680    1.000
    O47      O        0.04700    0.17620    0.77640    1.000
    O48      O        0.88030    0.84260    0.93230    1.000
    O49      O        0.79870    0.81500    0.81030    1.000
    O50      O        0.72340    0.74920    0.17000    1.000
    S7       S        0.50570    0.48911    0.60800    1.000
    S8       S        0.04280    0.50510    0.45223    1.000
    S9       S        0.56690    0.50234    0.29280    1.000
    S10      S        0.10110    0.99765    0.21052    1.000
    S11      S        0.55680    0.00615    0.04718    1.000
    S12      S        0.99590    0.98578    0.88797    1.000
    Eu5      Eu       0.69545    0.75448    0.53339    1.000
    Eu6      Eu       0.84768    0.74679    0.31051    1.000
    Eu7      Eu       0.82169    0.74910    0.03048    1.000
    Eu8      Eu       0.62036    0.74515    0.82003    1.000
