data_functionalizedCrystal
_audit_creation_method	'EQeq! by Chris Wilmer'
_symmetry_space_group_name_H-M	'P1'
_symmetry_Int_Tables_number	1
_symmetry_cell_setting	triclinic
loop_
_symmetry_equiv_pos_as_xyz
  x,y,z
_cell_length_a	10.1838
_cell_length_b	13.8721
_cell_length_c	33.049
_cell_angle_alpha	90
_cell_angle_beta	93.73
_cell_angle_gamma	90
loop_
_atom_site_label
_atom_site_type_symbol
_atom_site_fract_x
_atom_site_fract_y
_atom_site_fract_z
_atom_site_charge
Mof_Mn	Mn	0.38906	0.98069	0.70956	0.888
Mof_O 	O 	0.2108	0.9704	0.67119	-0.369
Mof_O 	O 	0.6081	0.9935	0.71156	-0.322
Mof_O 	O 	0.509	0.9684	0.652	-0.3
Mof_N 	N 	0.3847	0.8178	0.71302	-0.189
Mof_C 	C 	0.8585	0.9649	0.6816	-0.1
Mof_H 	H 	0.8553	0.9849	0.7091	0.012
Mof_N 	N 	0.3655	0.1424	0.7061	-0.204
Mof_C 	C 	0.1073	0.9759	0.68921	0.364
Mof_C 	C 	0.6118	0.9769	0.6749	0.283
Mof_C 	C 	0.98	0.9505	0.6642	0.178
Mof_C 	C 	0.4235	0.7691	0.7462	0.099
Mof_H 	H 	0.4523	0.8044	0.7697	-0.001
Mof_C 	C 	0.7442	0.949	0.6575	-0.696
Mof_C 	C 	0.3457	0.7646	0.68	0.082
Mof_H 	H 	0.3168	0.7974	0.6559	0.019
Mof_C 	C 	0.3456	0.6645	0.6797	-0.128
Mof_H 	H 	0.3186	0.6304	0.6557	0.081
Mof_C 	C 	0.3854	0.6147	0.7148	0.066
Mof_C 	C 	0.3518	0.3389	0.6969	0.15
Mof_C 	C 	0.4243	0.6699	0.7482	-0.139
Mof_H 	H 	0.452	0.639	0.773	0.081
Mof_C 	C 	0.3014	0.1847	0.6748	0.13
Mof_H 	H 	0.2587	0.1445	0.6547	0.004
Mof_C 	C 	0.3859	0.5102	0.72	0.05
Mof_H 	H 	0.4163	0.4861	0.7458	0.018
Mof_C 	C 	0.3473	0.4446	0.6914	-0.068
Mof_H 	H 	0.3146	0.4683	0.6657	0.038
Mof_C 	C 	0.2925	0.2812	0.6695	-0.211
Mof_H 	H 	0.2444	0.3072	0.6465	0.11
Mof_C 	C 	0.416	0.3003	0.7317	-0.178
Mof_H 	H 	0.4539	0.3402	0.7527	0.097
Mof_C 	C 	0.4217	0.1993	0.7341	0.11
Mof_H 	H 	0.468	0.1707	0.7569	-0
Mof_C 	C 	0.9849	0.9181	0.6259	0.635
Mof_H 	H 	0.0678	0.9076	0.615	-0.19
Mof_O 	O 	0.1038	0.9894	0.72635	-0.404
Mof_C 	C 	0.7469	0.9194	0.6188	-0.895
Mof_H 	H 	0.6674	0.9113	0.6025	0.383
Mof_C 	C 	0.8714	0.9002	0.6024	0.219
Mof_N 	N 	0.973	0.813	0.5554	-0.055
Mof_N 	N 	0.8658	0.8464	0.5652	-0.083
Mof_N 	N 	0.059	0.783	0.5392	-0.033
Mof_C 	C 	0.983	0.973	0.6212	-0.716
Mof_H 	H 	0.0648	0.9706	0.609	0.299
Mof_C 	C 	0.866	0.9657	0.5977	-0.103
Mof_C 	C 	0.7467	0.9744	0.6149	0.894
Mof_H 	H 	0.6671	0.9717	0.5982	-0.3
Mof_C 	C 	0.7428	0.987	0.6564	0.626
Mof_C 	C 	0.86	0.9896	0.6807	0.109
Mof_H 	H 	0.8575	0.9951	0.7093	0.038
Mof_C 	C 	0.9796	0.9843	0.6641	-0.23
Mof_C 	C 	0.358	0.508	0.6952	-0.028
Mof_H 	H 	0.3223	0.4908	0.6689	0.02
Mof_C 	C 	0.394	0.46	0.7226	-0.085
Mof_H 	H 	0.4316	0.4758	0.7488	0.024
Mof_N 	N 	0.857	0.942	0.5548	-0.034
Mof_N 	N 	0.959	0.9948	0.5368	-0.009
Mof_N 	N 	0.053	0.927	0.5183	-0.016
Mof_N 	N 	0.968	0.851	0.5474	0.043
Mof_N 	N 	0.862	0.994	0.5541	-0.021
Mof_N 	N 	0.029	-1.08365e-32	0.5174	-0.009
Mof_N 	N 	0.865	0.895	0.559	0.014
Mof_N 	N 	0.961	0.923	0.5392	-0.019
Mof_N 	N 	0.051	0.856	0.5303	-0.023
Mof_Mn	Mn	0.11094	0.98069	0.79044	0.882
Mof_O 	O 	0.2892	0.9704	0.82881	-0.371
Mof_O 	O 	0.8919	0.9935	0.78844	-0.32
Mof_O 	O 	0.991	0.9684	0.848	-0.298
Mof_N 	N 	0.1153	0.8178	0.78698	-0.189
Mof_C 	C 	0.6415	0.9649	0.8184	-0.097
Mof_H 	H 	0.6447	0.9849	0.7909	0.012
Mof_N 	N 	0.1345	0.1424	0.7939	-0.203
Mof_C 	C 	0.3927	0.9759	0.81079	0.368
Mof_C 	C 	0.8882	0.9769	0.8251	0.283
Mof_C 	C 	0.52	0.9505	0.8358	0.161
Mof_C 	C 	0.0765	0.7691	0.7538	0.098
Mof_H 	H 	0.0477	0.8044	0.7303	-0.002
Mof_C 	C 	0.7558	0.949	0.8425	-0.663
Mof_C 	C 	0.1543	0.7646	0.82	0.082
Mof_H 	H 	0.1832	0.7974	0.8441	0.019
Mof_C 	C 	0.1544	0.6645	0.8203	-0.128
Mof_H 	H 	0.1814	0.6304	0.8443	0.081
Mof_C 	C 	0.1146	0.6147	0.7852	0.066
Mof_C 	C 	0.1482	0.3389	0.8031	0.15
Mof_C 	C 	0.0757	0.6699	0.7518	-0.139
Mof_H 	H 	0.048	0.639	0.727	0.08
Mof_C 	C 	0.1986	0.1847	0.8252	0.13
Mof_H 	H 	0.2413	0.1445	0.8453	0.004
Mof_C 	C 	0.1141	0.5102	0.78	0.049
Mof_H 	H 	0.0837	0.4861	0.7542	0.018
Mof_C 	C 	0.1527	0.4446	0.8086	-0.068
Mof_H 	H 	0.1854	0.4683	0.8343	0.038
Mof_C 	C 	0.2075	0.2812	0.8305	-0.211
Mof_H 	H 	0.2556	0.3072	0.8535	0.11
Mof_C 	C 	0.084	0.3003	0.7683	-0.178
Mof_H 	H 	0.0461	0.3402	0.7473	0.096
Mof_C 	C 	0.0783	0.1993	0.7659	0.109
Mof_H 	H 	0.032	0.1707	0.7431	-0
Mof_C 	C 	0.5151	0.9181	0.8741	0.594
Mof_H 	H 	0.4322	0.9076	0.885	-0.173
Mof_O 	O 	0.3962	0.9894	0.77365	-0.404
Mof_C 	C 	0.7531	0.9194	0.8812	-0.849
Mof_H 	H 	0.8326	0.9113	0.8975	0.366
Mof_C 	C 	0.6286	0.9002	0.8976	0.214
Mof_N 	N 	0.527	0.813	0.9446	-0.056
Mof_N 	N 	0.6342	0.8464	0.9348	-0.084
Mof_N 	N 	0.441	0.783	0.9608	-0.032
Mof_C 	C 	0.517	0.973	0.8788	-0.681
Mof_H 	H 	0.4352	0.9706	0.891	0.288
Mof_C 	C 	0.634	0.9657	0.9023	-0.096
Mof_C 	C 	0.7533	0.9744	0.8851	0.845
Mof_H 	H 	0.8329	0.9717	0.9018	-0.281
Mof_C 	C 	0.7572	0.987	0.8436	0.595
Mof_C 	C 	0.64	0.9896	0.8193	0.104
Mof_H 	H 	0.6425	0.9951	0.7907	0.037
Mof_C 	C 	0.5204	0.9843	0.8359	-0.217
Mof_C 	C 	0.142	0.508	0.8048	-0.028
Mof_H 	H 	0.1777	0.4908	0.8311	0.02
Mof_C 	C 	0.106	0.46	0.7774	-0.084
Mof_H 	H 	0.0684	0.4758	0.7512	0.024
Mof_N 	N 	0.643	0.942	0.9452	-0.036
Mof_N 	N 	0.541	0.9948	0.9632	-0.01
Mof_N 	N 	0.447	0.927	0.9817	-0.014
Mof_N 	N 	0.532	0.851	0.9526	0.042
Mof_N 	N 	0.638	0.994	0.9459	-0.021
Mof_N 	N 	0.471	-2.16731e-32	0.9826	-0.011
Mof_N 	N 	0.635	0.895	0.941	0.016
Mof_N 	N 	0.539	0.923	0.9608	-0.02
Mof_N 	N 	0.449	0.856	0.9697	-0.023
Mof_Mn	Mn	0.61094	0.01931	0.29044	0.889
Mof_O 	O 	0.7892	0.0296	0.32881	-0.37
Mof_O 	O 	0.3919	0.0065	0.28844	-0.323
Mof_O 	O 	0.491	0.0316	0.348	-0.301
Mof_N 	N 	0.6153	0.1822	0.28698	-0.189
Mof_C 	C 	0.1415	0.0351	0.3184	-0.095
Mof_H 	H 	0.1447	0.0151	0.2909	0.013
Mof_N 	N 	0.6345	0.8576	0.2939	-0.205
Mof_C 	C 	0.8927	0.0241	0.31079	0.364
Mof_C 	C 	0.3882	0.0231	0.3251	0.283
Mof_C 	C 	0.02	0.0495	0.3358	0.167
Mof_C 	C 	0.5765	0.2309	0.2538	0.098
Mof_H 	H 	0.5477	0.1956	0.2303	-0
Mof_C 	C 	0.2558	0.051	0.3425	-0.659
Mof_C 	C 	0.6543	0.2354	0.32	0.082
Mof_H 	H 	0.6832	0.2026	0.3441	0.019
Mof_C 	C 	0.6544	0.3355	0.3203	-0.128
Mof_H 	H 	0.6814	0.3696	0.3443	0.081
Mof_C 	C 	0.6146	0.3853	0.2852	0.066
Mof_C 	C 	0.6482	0.6611	0.3031	0.15
Mof_C 	C 	0.5757	0.3301	0.2518	-0.139
Mof_H 	H 	0.548	0.361	0.227	0.081
Mof_C 	C 	0.6986	0.8153	0.3252	0.13
Mof_H 	H 	0.7413	0.8555	0.3453	0.003
Mof_C 	C 	0.6141	0.4898	0.28	0.05
Mof_H 	H 	0.5837	0.5139	0.2542	0.018
Mof_C 	C 	0.6527	0.5554	0.3086	-0.068
Mof_H 	H 	0.6854	0.5317	0.3343	0.038
Mof_C 	C 	0.7075	0.7188	0.3305	-0.212
Mof_H 	H 	0.7556	0.6928	0.3535	0.11
Mof_C 	C 	0.584	0.6997	0.2683	-0.178
Mof_H 	H 	0.5461	0.6598	0.2473	0.097
Mof_C 	C 	0.5783	0.8007	0.2659	0.11
Mof_H 	H 	0.532	0.8293	0.2431	-0.001
Mof_C 	C 	0.0151	0.0819	0.3741	0.599
Mof_H 	H 	0.9322	0.0924	0.385	-0.176
Mof_O 	O 	0.8962	0.0106	0.27365	-0.404
Mof_C 	C 	0.2531	0.0806	0.3812	-0.848
Mof_H 	H 	0.3326	0.0887	0.3975	0.365
Mof_C 	C 	0.1286	0.0998	0.3976	0.209
Mof_N 	N 	0.027	0.187	0.4446	-0.056
Mof_N 	N 	0.1342	0.1536	0.4348	-0.082
Mof_N 	N 	0.941	0.217	0.4608	-0.032
Mof_C 	C 	0.017	0.027	0.3788	-0.68
Mof_H 	H 	0.9352	0.0294	0.391	0.287
Mof_C 	C 	0.134	0.0343	0.4023	-0.093
Mof_C 	C 	0.2533	0.0256	0.3851	0.844
Mof_H 	H 	0.3329	0.0283	0.4018	-0.28
Mof_C 	C 	0.2572	0.013	0.3436	0.591
Mof_C 	C 	0.14	0.0104	0.3193	0.102
Mof_H 	H 	0.1425	0.0049	0.2907	0.037
Mof_C 	C 	0.0204	0.0157	0.3359	-0.219
Mof_C 	C 	0.642	0.492	0.3048	-0.028
Mof_H 	H 	0.6777	0.5092	0.3311	0.02
Mof_C 	C 	0.606	0.54	0.2774	-0.085
Mof_H 	H 	0.5684	0.5242	0.2512	0.024
Mof_N 	N 	0.143	0.058	0.4452	-0.035
Mof_N 	N 	0.041	0.0052	0.4632	-0.005
Mof_N 	N 	0.947	0.073	0.4817	-0.012
Mof_N 	N 	0.032	0.149	0.4526	0.044
Mof_N 	N 	0.138	0.006	0.4459	-0.021
Mof_N 	N 	0.971	-1.08365e-32	0.4826	-0.015
Mof_N 	N 	0.135	0.105	0.441	0.015
Mof_N 	N 	0.039	0.077	0.4608	-0.02
Mof_N 	N 	0.949	0.144	0.4697	-0.024
Mof_Mn	Mn	0.88906	0.01931	0.20956	0.884
Mof_O 	O 	0.7108	0.0296	0.17119	-0.371
Mof_O 	O 	0.1081	0.0065	0.21156	-0.32
Mof_O 	O 	0.009	0.0316	0.152	-0.298
Mof_N 	N 	0.8847	0.1822	0.21302	-0.189
Mof_C 	C 	0.3585	0.0351	0.1816	-0.091
Mof_H 	H 	0.3553	0.0151	0.2091	0.013
Mof_N 	N 	0.8655	0.8576	0.2061	-0.204
Mof_C 	C 	0.6073	0.0241	0.18921	0.369
Mof_C 	C 	0.1118	0.0231	0.1749	0.284
Mof_C 	C 	0.48	0.0495	0.1642	0.15
Mof_C 	C 	0.9235	0.2309	0.2462	0.098
Mof_H 	H 	0.9523	0.1956	0.2697	-0.002
Mof_C 	C 	0.2442	0.051	0.1575	-0.625
Mof_C 	C 	0.8457	0.2354	0.18	0.081
Mof_H 	H 	0.8168	0.2026	0.1559	0.019
Mof_C 	C 	0.8456	0.3355	0.1797	-0.128
Mof_H 	H 	0.8186	0.3696	0.1557	0.081
Mof_C 	C 	0.8854	0.3853	0.2148	0.065
Mof_C 	C 	0.8518	0.6611	0.1969	0.15
Mof_C 	C 	0.9243	0.3301	0.2482	-0.139
Mof_H 	H 	0.952	0.361	0.273	0.08
Mof_C 	C 	0.8014	0.8153	0.1748	0.13
Mof_H 	H 	0.7587	0.8555	0.1547	0.002
Mof_C 	C 	0.8859	0.4898	0.22	0.05
Mof_H 	H 	0.9163	0.5139	0.2458	0.018
Mof_C 	C 	0.8473	0.5554	0.1914	-0.068
Mof_H 	H 	0.8146	0.5317	0.1657	0.038
Mof_C 	C 	0.7925	0.7188	0.1695	-0.212
Mof_H 	H 	0.7444	0.6928	0.1465	0.109
Mof_C 	C 	0.916	0.6997	0.2317	-0.178
Mof_H 	H 	0.9539	0.6598	0.2527	0.096
Mof_C 	C 	0.9217	0.8007	0.2341	0.109
Mof_H 	H 	0.968	0.8293	0.2569	-0.001
Mof_C 	C 	0.4849	0.0819	0.1259	0.558
Mof_H 	H 	0.5678	0.0924	0.115	-0.16
Mof_O 	O 	0.6038	0.0106	0.22635	-0.404
Mof_C 	C 	0.2469	0.0806	0.1188	-0.802
Mof_H 	H 	0.1674	0.0887	0.1025	0.348
Mof_C 	C 	0.3714	0.0998	0.1024	0.203
Mof_N 	N 	0.473	0.187	0.0554	-0.056
Mof_N 	N 	0.3658	0.1536	0.0652	-0.082
Mof_N 	N 	0.559	0.217	0.0392	-0.031
Mof_C 	C 	0.483	0.027	0.1212	-0.644
Mof_H 	H 	0.5648	0.0294	0.109	0.276
Mof_C 	C 	0.366	0.0343	0.0977	-0.086
Mof_C 	C 	0.2467	0.0256	0.1149	0.794
Mof_H 	H 	0.1671	0.0283	0.0982	-0.261
Mof_C 	C 	0.2428	0.013	0.1564	0.559
Mof_C 	C 	0.36	0.0104	0.1807	0.098
Mof_H 	H 	0.3575	0.0049	0.2093	0.037
Mof_C 	C 	0.4796	0.0157	0.1641	-0.206
Mof_C 	C 	0.858	0.492	0.1952	-0.028
Mof_H 	H 	0.8223	0.5092	0.1689	0.02
Mof_C 	C 	0.894	0.54	0.2226	-0.084
Mof_H 	H 	0.9316	0.5242	0.2488	0.024
Mof_N 	N 	0.357	0.058	0.0548	-0.036
Mof_N 	N 	0.459	0.0052	0.0368	-0.008
Mof_N 	N 	0.553	0.073	0.0183	-0.012
Mof_N 	N 	0.468	0.149	0.0474	0.043
Mof_N 	N 	0.362	0.006	0.0541	-0.022
Mof_N 	N 	0.529	-3.38642e-34	0.0174	-0.013
Mof_N 	N 	0.365	0.105	0.059	0.016
Mof_N 	N 	0.461	0.077	0.0392	-0.021
Mof_N 	N 	0.551	0.144	0.0303	-0.023
_end
