data_functionalizedCrystal
_audit_creation_method	'EQeq! by Chris Wilmer'
_symmetry_space_group_name_H-M	'P1'
_symmetry_Int_Tables_number	1
_symmetry_cell_setting	triclinic
loop_
_symmetry_equiv_pos_as_xyz
  x,y,z
_cell_length_a	13.075
_cell_length_b	13.86
_cell_length_c	14.256
_cell_angle_alpha	90
_cell_angle_beta	108.001
_cell_angle_gamma	90
loop_
_atom_site_label
_atom_site_type_symbol
_atom_site_fract_x
_atom_site_fract_y
_atom_site_fract_z
_atom_site_charge
Mof_Cs	Cs	0.24495	0.86458	0.23917	3.992
Mof_Cd	Cd	0.00238	0.69142	0.25687	0.401
Mof_Cd	Cd	0.51167	0.0339	0.23727	0.481
Mof_C 	C 	0.8988	0.4024	0.4276	0.058
Mof_H 	H 	0.9735	0.4043	0.4507	0.023
Mof_C 	C 	0.8434	0.34	0.4715	-0.199
Mof_C 	C 	0.732	0.3339	0.4324	0.067
Mof_H 	H 	0.694	0.2917	0.46	-0.039
Mof_C 	C 	0.6781	0.3901	0.3533	-0.149
Mof_H 	H 	0.6038	0.3845	0.3265	0.07
Mof_C 	C 	0.7336	0.455	0.313	0.048
Mof_H 	H 	0.6958	0.4941	0.2608	0.024
Mof_C 	C 	0.8437	0.4622	0.3494	-0.122
Mof_C 	C 	0.9039	0.2858	0.5626	0.358
Mof_C 	C 	0.9038	0.5375	0.3124	0.299
Mof_C 	C 	0.9067	0.9809	0.9994	0.064
Mof_H 	H 	0.9764	0.9668	0.9998	-0.056
Mof_C 	C 	0.8623	0.9313	0.0617	-0.192
Mof_C 	C 	0.7589	0.9533	0.0629	0.012
Mof_H 	H 	0.7287	0.9199	0.1044	0.042
Mof_C 	C 	0.7014	0.0254	0.0019	-0.104
Mof_H 	H 	0.6334	0.0424	0.0042	0.084
Mof_C 	C 	0.745	0.0721	0.9375	0.097
Mof_H 	H 	0.7044	0.118	0.8943	-0.093
Mof_C 	C 	0.8481	0.0516	0.9364	-0.173
Mof_C 	C 	0.926	0.8531	0.1273	0.401
Mof_C 	C 	0.8947	0.1013	0.865	0.381
Mof_C 	C 	0.6165	0.3221	0.0646	0.074
Mof_H 	H 	0.5417	0.3221	0.0444	0.015
Mof_C 	C 	0.6709	0.3855	0.0214	-0.225
Mof_C 	C 	0.7799	0.3877	0.0531	0.055
Mof_H 	H 	0.8163	0.43	0.024	-0.083
Mof_C 	C 	0.8384	0.3268	0.1293	-0.151
Mof_H 	H 	0.9131	0.3299	0.152	0.062
Mof_C 	C 	0.7842	0.2624	0.1704	0.049
Mof_H 	H 	0.8227	0.2211	0.2203	0.02
Mof_C 	C 	0.6732	0.2586	0.1379	-0.133
Mof_C 	C 	0.6134	0.1847	0.1767	0.308
Mof_C 	C 	0.6066	0.4467	0.9359	0.318
Mof_C 	C 	0.5627	0.7382	0.4666	0.256
Mof_H 	H 	0.4945	0.7618	0.4613	-0.135
Mof_C 	C 	0.6203	0.7775	0.4093	-0.35
Mof_C 	C 	0.7193	0.738	0.4144	0.24
Mof_H 	H 	0.7576	0.7627	0.3746	-0.028
Mof_C 	C 	0.762	0.6625	0.4777	-0.346
Mof_H 	H 	0.8278	0.6357	0.4796	0.14
Mof_C 	C 	0.706	0.6273	0.5381	0.278
Mof_H 	H 	0.7361	0.5786	0.5831	-0.201
Mof_C 	C 	0.606	0.6635	0.5325	-0.329
Mof_C 	C 	0.5424	0.6259	0.5996	0.411
Mof_C 	C 	0.5751	0.8632	0.3445	0.549
Mof_O 	O 	0.005	0.2771	0.5828	-0.289
Mof_O 	O 	0.8537	0.2524	0.6173	-0.593
Mof_O 	O 	0.851	0.6024	0.2562	-0.255
Mof_O 	O 	0.0056	0.5379	0.34176	-0.255
Mof_O 	O 	0.0169	0.8302	0.1233	-0.688
Mof_O 	O 	0.8843	0.8103	0.1855	-0.325
Mof_O 	O 	0.8328	0.1446	0.79234	-0.564
Mof_O 	O 	0.9955	0.098	0.8815	-0.307
Mof_O 	O 	0.6654	0.127	0.2428	-0.247
Mof_O 	O 	0.5137	0.1787	0.1429	-0.263
Mof_O 	O 	0.5062	0.4468	0.9104	-0.302
Mof_O 	O 	0.6584	0.4941	0.8882	-0.584
Mof_O 	O 	0.5997	0.5921	0.6826	-0.462
Mof_O 	O 	0.4452	0.6294	0.5716	-0.327
Mof_O 	O 	0.4782	0.879	0.3202	-0.771
Mof_O 	O 	0.6386	0.9167	0.3182	-0.358
Mof_Cs	Cs	0.75505	0.36458	0.76083	4.09
Mof_Cd	Cd	0.99762	0.19142	0.74313	0.4
Mof_Cd	Cd	0.48833	0.5339	0.76273	0.434
Mof_C 	C 	0.1012	0.9024	0.5724	0.098
Mof_H 	H 	0.0265	0.9043	0.5493	-0
Mof_C 	C 	0.1566	0.84	0.5285	-0.229
Mof_C 	C 	0.268	0.8339	0.5676	0.096
Mof_H 	H 	0.306	0.7917	0.54	-0.051
Mof_C 	C 	0.3219	0.8901	0.6467	-0.192
Mof_H 	H 	0.3962	0.8845	0.6735	0.078
Mof_C 	C 	0.2664	0.955	0.687	0.095
Mof_H 	H 	0.3042	0.9941	0.7392	-0.006
Mof_C 	C 	0.1563	0.9622	0.6506	-0.2
Mof_C 	C 	0.0961	0.7858	0.4374	0.369
Mof_C 	C 	0.0962	0.0375	0.6876	0.364
Mof_C 	C 	0.0933	0.4809	0.0006	0.185
Mof_H 	H 	0.0236	0.4668	0.0002	-0.089
Mof_C 	C 	0.1377	0.4313	0.9383	-0.267
Mof_C 	C 	0.2411	0.4533	0.9371	0.166
Mof_H 	H 	0.2713	0.4199	0.8956	-0.001
Mof_C 	C 	0.2986	0.5254	0.9981	-0.259
Mof_H 	H 	0.3666	0.5424	0.9958	0.127
Mof_C 	C 	0.255	0.5721	0.0625	0.197
Mof_H 	H 	0.2956	0.618	0.1057	-0.132
Mof_C 	C 	0.1519	0.5516	0.0636	-0.287
Mof_C 	C 	0.074	0.3531	0.8727	0.44
Mof_C 	C 	0.1053	0.6013	0.135	0.413
Mof_C 	C 	0.3835	0.8221	0.9354	0.07
Mof_H 	H 	0.4583	0.8221	0.9556	0.015
Mof_C 	C 	0.3291	0.8855	0.9786	-0.215
Mof_C 	C 	0.2201	0.8877	0.9469	0.049
Mof_H 	H 	0.1837	0.93	0.976	-0.083
Mof_C 	C 	0.1616	0.8268	0.8707	-0.15
Mof_H 	H 	0.0869	0.8299	0.848	0.056
Mof_C 	C 	0.2158	0.7624	0.8296	0.048
Mof_H 	H 	0.1773	0.7211	0.7797	0.016
Mof_C 	C 	0.3268	0.7586	0.8621	-0.135
Mof_C 	C 	0.3866	0.6847	0.8233	0.309
Mof_C 	C 	0.3934	0.9467	0.0641	0.308
Mof_C 	C 	0.4373	0.2382	0.5334	0.254
Mof_H 	H 	0.5055	0.2618	0.5387	-0.132
Mof_C 	C 	0.3797	0.2775	0.5907	-0.341
Mof_C 	C 	0.2807	0.238	0.5856	0.238
Mof_H 	H 	0.2424	0.2627	0.6254	-0.023
Mof_C 	C 	0.238	0.1625	0.5223	-0.332
Mof_H 	H 	0.1722	0.1357	0.5204	0.146
Mof_C 	C 	0.294	0.1273	0.4619	0.273
Mof_H 	H 	0.2639	0.0786	0.4169	-0.183
Mof_C 	C 	0.394	0.1635	0.4675	-0.316
Mof_C 	C 	0.4576	0.1259	0.4004	0.409
Mof_C 	C 	0.4249	0.3632	0.6555	0.55
Mof_O 	O 	0.995	0.7771	0.4172	-0.3
Mof_O 	O 	0.1463	0.7524	0.3827	-0.593
Mof_O 	O 	0.149	0.1024	0.7438	-0.255
Mof_O 	O 	0.9944	0.0379	0.65824	-0.258
Mof_O 	O 	0.9831	0.3302	0.8767	-0.701
Mof_O 	O 	0.1157	0.3103	0.8145	-0.327
Mof_O 	O 	0.1672	0.6446	0.20766	-0.572
Mof_O 	O 	0.0045	0.598	0.1185	-0.328
Mof_O 	O 	0.3346	0.627	0.7572	-0.257
Mof_O 	O 	0.4863	0.6787	0.8571	-0.272
Mof_O 	O 	0.4938	0.9468	0.0896	-0.322
Mof_O 	O 	0.3416	0.9941	0.1118	-0.601
Mof_O 	O 	0.4003	0.0921	0.3174	-0.444
Mof_O 	O 	0.5548	0.1294	0.4284	-0.318
Mof_O 	O 	0.5218	0.379	0.6798	-0.765
Mof_O 	O 	0.3614	0.4167	0.6818	-0.336
_end
