data_functionalizedCrystal
_audit_creation_method	'EQeq! by Chris Wilmer'
_symmetry_space_group_name_H-M	'P1'
_symmetry_Int_Tables_number	1
_symmetry_cell_setting	triclinic
loop_
_symmetry_equiv_pos_as_xyz
  x,y,z
_cell_length_a	13.302
_cell_length_b	13.352
_cell_length_c	19.894
_cell_angle_alpha	95.63
_cell_angle_beta	104.8
_cell_angle_gamma	117.75
loop_
_atom_site_label
_atom_site_type_symbol
_atom_site_fract_x
_atom_site_fract_y
_atom_site_fract_z
_atom_site_charge
Mof_Gd	Gd	0.66186	0.94605	0.5954	1.962
Mof_Gd	Gd	0.81987	0.03774	0.9047	1.918
Mof_Cu	Cu	0.7726	0.00226	0.24741	0.891
Mof_Cu	Cu	0.74359	0.48346	0.75072	0.889
Mof_Cl	Cl	0.93926	0.59707	0.74292	-0.478
Mof_P 	P 	0.8694	0.0733	0.49879	0.467
Mof_P 	P 	0.63815	0.19729	0.54283	0.521
Mof_Cl	Cl	0.6451	0.80416	0.24565	-0.488
Mof_P 	P 	0.87873	0.80311	0.94609	0.505
Mof_P 	P 	0.46318	0.08922	0.25632	0.515
Mof_P 	P 	0.05787	0.88314	0.24193	0.524
Mof_P 	P 	0.6177	0.8705	0.99508	0.473
Mof_P 	P 	0.6104	0.65315	0.57958	0.463
Mof_P 	P 	0.8942	0.34176	0.9339	0.454
Mof_O 	O 	0.0083	0.8669	0.9958	-0.46
Mof_O 	O 	0.5142	0.1707	0.5005	-0.466
Mof_O 	O 	0.159	0.9514	0.3128	-0.479
Mof_O 	O 	0.6613	0.7791	0.6133	-0.459
Mof_O 	O 	0.4316	0.0607	0.32156	-0.474
Mof_O 	O 	0.8383	0.8751	0.9057	-0.463
Mof_O 	O 	0.0836	0.9196	0.1764	-0.48
Mof_O 	O 	0.8234	0.2103	0.9084	-0.451
Mof_O 	O 	0.7108	0.9748	0.9789	-0.447
Mof_O 	O 	0.54326	0.2242	0.2694	-0.228
Mof_O 	O 	0.6013	0.7539	0.9637	-0.222
Mof_O 	O 	0.6448	0.101	0.5742	-0.485
Mof_O 	O 	0.7785	0.9814	0.524	-0.449
Mof_O 	O 	0.0127	0.749	0.2301	-0.234
Mof_O 	O 	0.3615	0.04349	0.1866	-0.468
Mof_O 	O 	0.7194	0.2343	0.4949	-0.223
Mof_O 	O 	0.6498	0.6443	0.5125	-0.218
Mof_O 	O 	0.9937	0.0841	0.525	-0.215
Mof_O 	O 	0.7922	0.7406	0.988	-0.221
Mof_O 	O 	0.4754	0.5746	0.5588	-0.222
Mof_O 	O 	0.8637	0.3913	0.9926	-0.223
Mof_O 	O 	0.4978	0.8678	0.972	-0.23
Mof_N 	N 	0.6424	0.545	0.6941	-0.138
Mof_O 	O 	0.8868	0.194	0.5185	-0.22
Mof_N 	N 	0.6392	0.3344	0.6614	-0.132
Mof_N 	N 	0.7447	0.5781	0.8441	-0.124
Mof_N 	N 	0.7554	0.3723	0.8116	-0.143
Mof_O 	O 	0.0321	0.3858	0.9586	-0.21
Mof_C 	C 	0.6748	0.3718	0.8513	-0.109
Mof_H 	H 	0.5935	0.3393	0.8177	0.068
Mof_H 	H 	0.672	0.3229	0.8846	0.088
Mof_N 	N 	0.6808	0.0951	0.2486	-0.157
Mof_C 	C 	0.8778	0.4089	0.8586	-0.225
Mof_H 	H 	0.9202	0.4929	0.8782	0.111
Mof_H 	H 	0.9193	0.394	0.8288	0.125
Mof_C 	C 	0.5569	0.0241	0.2467	-0.195
Mof_H 	H 	0.5129	0.9649	0.2013	0.082
Mof_H 	H 	0.5596	0.9833	0.2842	0.08
Mof_C 	C 	0.5235	0.4337	0.6648	-0.137
Mof_H 	H 	0.4628	0.4476	0.6358	0.115
Mof_H 	H 	0.4985	0.4049	0.7041	0.076
Mof_N 	N 	0.929	0.0021	0.2454	-0.146
Mof_C 	C 	0.9269	0.8909	0.2462	-0.251
Mof_H 	H 	0.9132	0.8702	0.2897	0.124
Mof_H 	H 	0.8574	0.831	0.206	0.124
Mof_C 	C 	0.808	0.0153	0.4012	-0.225
Mof_H 	H 	0.8093	0.9434	0.3911	0.118
Mof_H 	H 	0.7237	0.9939	0.3855	0.097
Mof_C 	C 	0.8631	0.6886	0.8784	-0.236
Mof_H 	H 	0.9221	0.6676	0.9004	0.109
Mof_H 	H 	0.8861	0.7232	0.8402	0.098
Mof_C 	C 	0.5339	0.3428	0.6191	-0.081
Mof_H 	H 	0.5453	0.3652	0.5756	0.08
Mof_H 	H 	0.4602	0.2673	0.6056	0.072
Mof_C 	C 	0.7111	0.3283	0.6169	-0.248
Mof_H 	H 	0.7355	0.3959	0.597	0.118
Mof_H 	H 	0.7842	0.3351	0.6484	0.117
Mof_C 	C 	0.5994	0.2359	0.6958	-0.121
Mof_H 	H 	0.5327	0.2282	0.7106	0.076
Mof_H 	H 	0.5711	0.1637	0.6614	0.073
Mof_C 	C 	0.7015	0.2554	0.7604	-0.081
Mof_H 	H 	0.7634	0.2518	0.7448	0.056
Mof_H 	H 	0.6715	0.1939	0.7848	0.059
Mof_N 	N 	0.7441	0.005	0.142	-0.138
Mof_C 	C 	0.6411	0.5947	0.8161	-0.124
Mof_H 	H 	0.6465	0.6545	0.8511	0.101
Mof_H 	H 	0.5664	0.5224	0.808	0.078
Mof_N 	N 	0.8648	0.0881	0.3547	-0.113
Mof_C 	C 	0.7208	0.496	0.8927	-0.125
Mof_H 	H 	0.6612	0.4963	0.9122	0.099
Mof_H 	H 	0.7948	0.5228	0.9326	0.107
Mof_C 	C 	0.6399	0.6312	0.7455	-0.086
Mof_H 	H 	0.5677	0.6352	0.7253	0.082
Mof_H 	H 	0.7098	0.7082	0.7544	0.058
Mof_C 	C 	0.6894	0.5969	0.6381	-0.228
Mof_H 	H 	0.6926	0.5378	0.6077	0.109
Mof_H 	H 	0.7721	0.6605	0.6623	0.104
Mof_C 	C 	0.6628	0.8876	0.092	-0.242
Mof_H 	H 	0.5893	0.852	0.1037	0.111
Mof_H 	H 	0.7008	0.8416	0.1029	0.116
Mof_C 	C 	0.0208	0.1005	0.2984	-0.017
Mof_H 	H 	0.029	0.1701	0.2835	0.028
Mof_H 	H 	0.0967	0.1022	0.3063	0.042
Mof_C 	C 	0.691	0.145	0.1877	-0.095
Mof_H 	H 	0.7668	0.219	0.2037	0.078
Mof_H 	H 	0.6265	0.162	0.1729	0.092
Mof_C 	C 	0.9945	0.0991	0.3621	-0.186
Mof_H 	H 	0.0578	0.1704	0.3982	0.109
Mof_H 	H 	0.9956	0.0339	0.3792	0.108
Mof_C 	C 	0.9282	0.022	0.1648	-0.09
Mof_H 	H 	0.8959	0.947	0.1319	0.062
Mof_H 	H 	0.0109	0.0718	0.167	0.056
Mof_C 	C 	0.8621	0.0712	0.1381	-0.083
Mof_H 	H 	0.8565	0.0717	0.0886	0.069
Mof_H 	H 	0.9011	0.1514	0.1659	0.053
Mof_C 	C 	0.7589	0.1865	0.3246	0.094
Mof_C 	C 	0.687	0.0794	0.1285	-0.113
Mof_H 	H 	0.7259	0.132	0.1011	0.088
Mof_H 	H 	0.6026	0.0281	0.0985	0.092
Mof_C 	C 	0.8627	0.1935	0.3576	-0.248
Mof_H 	H 	0.8899	0.2331	0.4078	0.148
Mof_H 	H 	0.9215	0.2431	0.3375	0.119
Mof_Gd	Gd	0.33814	0.05395	0.4046	1.961
Mof_Gd	Gd	0.18013	0.96226	0.0953	1.917
Mof_Cu	Cu	0.2274	0.99774	0.75259	0.891
Mof_Cu	Cu	0.25641	0.51654	0.24928	0.889
Mof_Cl	Cl	0.06074	0.40293	0.25708	-0.478
Mof_P 	P 	0.1306	0.9267	0.50121	0.467
Mof_P 	P 	0.36185	0.80271	0.45717	0.521
Mof_Cl	Cl	0.3549	0.19584	0.75435	-0.488
Mof_P 	P 	0.12127	0.19689	0.05391	0.505
Mof_P 	P 	0.53682	0.91078	0.74368	0.515
Mof_P 	P 	0.94213	0.11686	0.75807	0.524
Mof_P 	P 	0.3823	0.1295	0.00492	0.473
Mof_P 	P 	0.3896	0.34685	0.42042	0.463
Mof_P 	P 	0.1058	0.65824	0.0661	0.454
Mof_O 	O 	0.9917	0.1331	0.0042	-0.46
Mof_O 	O 	0.4858	0.8293	0.4995	-0.466
Mof_O 	O 	0.841	0.0486	0.6872	-0.479
Mof_O 	O 	0.3387	0.2209	0.3867	-0.459
Mof_O 	O 	0.5684	0.9393	0.67844	-0.474
Mof_O 	O 	0.1617	0.1249	0.0943	-0.463
Mof_O 	O 	0.9164	0.0804	0.8236	-0.48
Mof_O 	O 	0.1766	0.7897	0.0916	-0.451
Mof_O 	O 	0.2892	0.0252	0.0211	-0.447
Mof_O 	O 	0.45674	0.7758	0.7306	-0.228
Mof_O 	O 	0.3987	0.2461	0.0363	-0.222
Mof_O 	O 	0.3552	0.899	0.4258	-0.485
Mof_O 	O 	0.2215	0.0186	0.476	-0.449
Mof_O 	O 	0.9873	0.251	0.7699	-0.234
Mof_O 	O 	0.6385	0.95651	0.8134	-0.468
Mof_O 	O 	0.2806	0.7657	0.5051	-0.223
Mof_O 	O 	0.3502	0.3557	0.4875	-0.218
Mof_O 	O 	0.0063	0.9159	0.475	-0.215
Mof_O 	O 	0.2078	0.2594	0.012	-0.221
Mof_O 	O 	0.5246	0.4254	0.4412	-0.222
Mof_O 	O 	0.1363	0.6087	0.0074	-0.223
Mof_O 	O 	0.5022	0.1322	0.028	-0.23
Mof_N 	N 	0.3576	0.455	0.3059	-0.138
Mof_O 	O 	0.1132	0.806	0.4815	-0.22
Mof_N 	N 	0.3608	0.6656	0.3386	-0.132
Mof_N 	N 	0.2553	0.4219	0.1559	-0.124
Mof_N 	N 	0.2446	0.6277	0.1884	-0.143
Mof_O 	O 	0.9679	0.6142	0.0414	-0.21
Mof_C 	C 	0.3252	0.6282	0.1487	-0.109
Mof_H 	H 	0.4065	0.6607	0.1823	0.068
Mof_H 	H 	0.328	0.6771	0.1154	0.088
Mof_N 	N 	0.3192	0.9049	0.7514	-0.157
Mof_C 	C 	0.1222	0.5911	0.1414	-0.225
Mof_H 	H 	0.0798	0.5071	0.1218	0.111
Mof_H 	H 	0.0807	0.606	0.1712	0.125
Mof_C 	C 	0.4431	0.9759	0.7533	-0.195
Mof_H 	H 	0.4871	0.0351	0.7987	0.082
Mof_H 	H 	0.4404	0.0167	0.7158	0.08
Mof_C 	C 	0.4765	0.5663	0.3352	-0.137
Mof_H 	H 	0.5372	0.5524	0.3642	0.115
Mof_H 	H 	0.5015	0.5951	0.2959	0.076
Mof_N 	N 	0.071	0.9979	0.7546	-0.146
Mof_C 	C 	0.0731	0.1091	0.7538	-0.251
Mof_H 	H 	0.0868	0.1298	0.7103	0.124
Mof_H 	H 	0.1426	0.169	0.794	0.124
Mof_C 	C 	0.192	0.9847	0.5988	-0.225
Mof_H 	H 	0.1907	0.0566	0.6089	0.118
Mof_H 	H 	0.2763	0.0061	0.6145	0.097
Mof_C 	C 	0.1369	0.3114	0.1216	-0.236
Mof_H 	H 	0.0779	0.3324	0.0996	0.109
Mof_H 	H 	0.1139	0.2768	0.1598	0.098
Mof_C 	C 	0.4661	0.6572	0.3809	-0.081
Mof_H 	H 	0.4547	0.6348	0.4244	0.08
Mof_H 	H 	0.5398	0.7327	0.3944	0.072
Mof_C 	C 	0.2889	0.6717	0.3831	-0.248
Mof_H 	H 	0.2645	0.6041	0.403	0.118
Mof_H 	H 	0.2158	0.6649	0.3516	0.117
Mof_C 	C 	0.4006	0.7641	0.3042	-0.121
Mof_H 	H 	0.4673	0.7718	0.2894	0.076
Mof_H 	H 	0.4289	0.8363	0.3386	0.073
Mof_C 	C 	0.2985	0.7446	0.2396	-0.081
Mof_H 	H 	0.2366	0.7482	0.2552	0.056
Mof_H 	H 	0.3285	0.8061	0.2152	0.059
Mof_N 	N 	0.2559	0.995	0.858	-0.138
Mof_C 	C 	0.3589	0.4053	0.1839	-0.124
Mof_H 	H 	0.3535	0.3455	0.1489	0.101
Mof_H 	H 	0.4336	0.4776	0.192	0.078
Mof_N 	N 	0.1352	0.9119	0.6453	-0.113
Mof_C 	C 	0.2792	0.504	0.1073	-0.125
Mof_H 	H 	0.3388	0.5037	0.0878	0.099
Mof_H 	H 	0.2052	0.4772	0.0674	0.107
Mof_C 	C 	0.3601	0.3688	0.2545	-0.086
Mof_H 	H 	0.4323	0.3648	0.2747	0.082
Mof_H 	H 	0.2902	0.2918	0.2456	0.058
Mof_C 	C 	0.3106	0.4031	0.3619	-0.228
Mof_H 	H 	0.3074	0.4622	0.3923	0.109
Mof_H 	H 	0.2279	0.3395	0.3377	0.104
Mof_C 	C 	0.3372	0.1124	0.908	-0.242
Mof_H 	H 	0.4107	0.148	0.8963	0.111
Mof_H 	H 	0.2992	0.1584	0.8971	0.116
Mof_C 	C 	0.9792	0.8995	0.7016	-0.017
Mof_H 	H 	0.971	0.8299	0.7165	0.028
Mof_H 	H 	0.9033	0.8978	0.6937	0.042
Mof_C 	C 	0.309	0.855	0.8123	-0.095
Mof_H 	H 	0.2332	0.781	0.7963	0.078
Mof_H 	H 	0.3735	0.838	0.8271	0.092
Mof_C 	C 	0.0055	0.9009	0.6379	-0.186
Mof_H 	H 	0.9422	0.8296	0.6018	0.109
Mof_H 	H 	0.0044	0.9661	0.6208	0.108
Mof_C 	C 	0.0718	0.978	0.8352	-0.09
Mof_H 	H 	0.1041	0.053	0.8681	0.062
Mof_H 	H 	0.9891	0.9282	0.833	0.056
Mof_C 	C 	0.1379	0.9288	0.8619	-0.083
Mof_H 	H 	0.1435	0.9283	0.9114	0.069
Mof_H 	H 	0.0989	0.8486	0.8341	0.053
Mof_C 	C 	0.2411	0.8135	0.6754	0.094
Mof_C 	C 	0.313	0.9206	0.8715	-0.113
Mof_H 	H 	0.2741	0.868	0.8989	0.088
Mof_H 	H 	0.3974	0.9719	0.9015	0.092
Mof_C 	C 	0.1373	0.8065	0.6424	-0.248
Mof_H 	H 	0.1101	0.7669	0.5922	0.148
Mof_H 	H 	0.0785	0.7569	0.6625	0.119
_end
