data_functionalizedCrystal
_audit_creation_method	'EQeq! by Chris Wilmer'
_symmetry_space_group_name_H-M	'P1'
_symmetry_Int_Tables_number	1
_symmetry_cell_setting	triclinic
loop_
_symmetry_equiv_pos_as_xyz
  x,y,z
_cell_length_a	10.498
_cell_length_b	16.5
_cell_length_c	15.763
_cell_angle_alpha	90
_cell_angle_beta	128.04
_cell_angle_gamma	90
loop_
_atom_site_label
_atom_site_type_symbol
_atom_site_fract_x
_atom_site_fract_y
_atom_site_fract_z
_atom_site_charge
Mof_C 	C 	0.5248	0.6464	0.6763	0.164
Mof_Cd	Cd	0.56481	0.82341	0.80771	0.417
Mof_N 	N 	0.4052	0.44502	0.6107	-0.156
Mof_N 	N 	0.526	0.7051	0.7168	-0.163
Mof_N 	N 	0.506	0.5792	0.6165	-0.164
Mof_C 	C 	0.4513	0.51316	0.6148	0.181
Mof_N 	N 	0.8469	0.8006	0.9201	-0.173
Mof_C 	C 	0.9493	0.761	0.9606	0.183
Mof_N 	N 	0.519	0.7493	0.9151	-0.169
Mof_N 	N 	0.4375	0.6487	0.9846	-0.158
Mof_C 	C 	0.4918	0.7067	0.9565	0.185
Mof_N 	N 	0.2818	0.653	0.1794	-0.158
Mof_N 	N 	0.0736	0.7138	0.9846	-0.141
Mof_C 	C 	0.1885	0.6814	0.1012	0.147
Mof_N 	N 	0.579	0.6109	0.1776	-0.154
Mof_C 	C 	0.513	0.6307	0.089	0.162
Mof_C 	C 	0.4752	0.1464	0.8237	0.162
Mof_Cd	Cd	0.43519	0.32341	0.69229	0.416
Mof_N 	N 	0.5948	0.94502	0.8893	-0.156
Mof_N 	N 	0.474	0.2051	0.7832	-0.164
Mof_N 	N 	0.494	0.0792	0.8835	-0.164
Mof_C 	C 	0.5487	0.01316	0.8852	0.18
Mof_N 	N 	0.1531	0.3006	0.5799	-0.174
Mof_C 	C 	0.0507	0.261	0.5394	0.184
Mof_N 	N 	0.481	0.2493	0.5849	-0.169
Mof_N 	N 	0.5625	0.1487	0.5154	-0.158
Mof_C 	C 	0.5082	0.2067	0.5435	0.185
Mof_N 	N 	0.7182	0.153	0.3206	-0.158
Mof_N 	N 	0.9264	0.2138	0.5154	-0.142
Mof_C 	C 	0.8115	0.1814	0.3988	0.149
Mof_N 	N 	0.421	0.1109	0.3224	-0.154
Mof_C 	C 	0.487	0.1307	0.411	0.162
Mof_C 	C 	0.4752	0.3536	0.3237	0.163
Mof_Cd	Cd	0.43519	0.17659	0.19229	0.416
Mof_N 	N 	0.5948	0.55498	0.3893	-0.157
Mof_N 	N 	0.474	0.2949	0.2832	-0.164
Mof_N 	N 	0.494	0.4208	0.3835	-0.164
Mof_C 	C 	0.5487	0.48684	0.3852	0.181
Mof_N 	N 	0.1531	0.1994	0.0799	-0.173
Mof_C 	C 	0.0507	0.239	0.0394	0.183
Mof_N 	N 	0.481	0.2507	0.0849	-0.169
Mof_N 	N 	0.5625	0.3513	0.0154	-0.158
Mof_C 	C 	0.5082	0.2933	0.0435	0.185
Mof_N 	N 	0.7182	0.347	0.8206	-0.158
Mof_N 	N 	0.9264	0.2862	0.0154	-0.141
Mof_C 	C 	0.8115	0.3186	0.8988	0.147
Mof_N 	N 	0.421	0.3891	0.8224	-0.154
Mof_C 	C 	0.487	0.3693	0.911	0.162
Mof_C 	C 	0.5248	0.8536	0.1763	0.162
Mof_Cd	Cd	0.56481	0.67659	0.30771	0.416
Mof_N 	N 	0.4052	0.05498	0.1107	-0.156
Mof_N 	N 	0.526	0.7949	0.2168	-0.164
Mof_N 	N 	0.506	0.9208	0.1165	-0.164
Mof_C 	C 	0.4513	0.98684	0.1148	0.18
Mof_N 	N 	0.8469	0.6994	0.4201	-0.174
Mof_C 	C 	0.9493	0.739	0.4606	0.184
Mof_N 	N 	0.519	0.7507	0.4151	-0.169
Mof_N 	N 	0.4375	0.8513	0.4846	-0.158
Mof_C 	C 	0.4918	0.7933	0.4565	0.185
Mof_N 	N 	0.2818	0.847	0.6794	-0.158
Mof_N 	N 	0.0736	0.7862	0.4846	-0.142
Mof_C 	C 	0.1885	0.8186	0.6012	0.149
Mof_N 	N 	0.579	0.8891	0.6776	-0.154
Mof_C 	C 	0.513	0.8693	0.589	0.162
_end
