data_functionalizedCrystal
_audit_creation_method	'EQeq! by Chris Wilmer'
_symmetry_space_group_name_H-M	'P1'
_symmetry_Int_Tables_number	1
_symmetry_cell_setting	triclinic
loop_
_symmetry_equiv_pos_as_xyz
  x,y,z
_cell_length_a	5.494
_cell_length_b	7.9316
_cell_length_c	7.9316
_cell_angle_alpha	108.473
_cell_angle_beta	90.4003
_cell_angle_gamma	90.4003
loop_
_atom_site_label
_atom_site_type_symbol
_atom_site_fract_x
_atom_site_fract_y
_atom_site_fract_z
_atom_site_charge
Mof_Co	Co	0.5	0	-0	1.11
Mof_Co	Co	-2.28618e-18	0.88011	0.11989	1.052
Mof_Co	Co	-1.35477e-18	0.11989	0.88011	1.051
Mof_H 	H 	0.144	0.808	0.808	0.244
Mof_H 	H 	0.856	0.192	0.192	0.365
Mof_C 	C 	0.4246	0.0085	0.3839	0.028
Mof_C 	C 	0.6584	0.9478	0.4326	0.117
Mof_C 	C 	0.5754	0.6161	0.9915	0.184
Mof_C 	C 	0.3416	0.5674	0.0522	-0.023
Mof_C 	C 	0.5754	0.9915	0.6161	0.184
Mof_C 	C 	0.3416	0.0522	0.5674	-0.023
Mof_C 	C 	0.4246	0.3839	0.0085	0.028
Mof_C 	C 	0.6584	0.4326	0.9478	0.117
Mof_O 	O 	0.329	0.02001	0.24299	-0.519
Mof_O 	O 	0.8501	0.88186	0.35614	-0.173
Mof_O 	O 	0.671	0.75701	0.97999	-0.325
Mof_O 	O 	0.1499	0.64386	0.11814	-0.431
Mof_O 	O 	0.671	0.97999	0.75701	-0.325
Mof_O 	O 	0.1499	0.11814	0.64386	-0.431
Mof_O 	O 	0.329	0.24299	0.02001	-0.519
Mof_O 	O 	0.8501	0.35614	0.88186	-0.173
Mof_O 	O 	0.1744	0.897	0.897	-0.751
Mof_O 	O 	0.8256	0.103	0.103	-0.787
_end
