data_functionalizedCrystal
_audit_creation_method	'EQeq! by Chris Wilmer'
_symmetry_space_group_name_H-M	'P1'
_symmetry_Int_Tables_number	1
_symmetry_cell_setting	triclinic
loop_
_symmetry_equiv_pos_as_xyz
  x,y,z
_cell_length_a	13.4608
_cell_length_b	13.4707
_cell_length_c	13.5076
_cell_angle_alpha	90
_cell_angle_beta	90
_cell_angle_gamma	90
loop_
_atom_site_label
_atom_site_type_symbol
_atom_site_fract_x
_atom_site_fract_y
_atom_site_fract_z
_atom_site_charge
Mof_C 	C 	0.0696	0.9487	0.9825	-0.065
Mof_H 	H 	0.1256	0.9085	0.9674	-0.004
Mof_C 	C 	0.0038	0.9344	0.0614	-0.066
Mof_H 	H 	0.0072	0.8827	0.1092	-0.006
Mof_C 	C 	0.0681	0.9906	0.9425	-0.066
Mof_H 	H 	0.1219	0.9823	0.8978	-0.005
Mof_C 	C 	0.0466	0.9298	0.0238	-0.066
Mof_H 	H 	0.0833	0.8731	0.044	-0.003
Mof_C 	C 	0.0386	0.0326	0.9299	-0.069
Mof_H 	H 	0.0697	0.0594	0.8727	-0.001
Mof_C 	C 	0.0696	0.4487	0.4825	-0.067
Mof_H 	H 	0.1256	0.4085	0.4674	-0.004
Mof_C 	C 	0.0038	0.4344	0.5614	-0.064
Mof_H 	H 	0.0072	0.3827	0.6092	-0.007
Mof_C 	C 	0.0681	0.4906	0.4425	-0.066
Mof_H 	H 	0.1219	0.4823	0.3978	-0.007
Mof_C 	C 	0.0466	0.4298	0.5238	-0.069
Mof_H 	H 	0.0833	0.3731	0.544	-0.004
Mof_C 	C 	0.0386	0.5326	0.4299	-0.071
Mof_H 	H 	0.0697	0.5594	0.3727	-0.002
Mof_C 	C 	0.5696	0.9487	0.4825	-0.068
Mof_H 	H 	0.6256	0.9085	0.4674	-0.005
Mof_C 	C 	0.5038	0.9344	0.5614	-0.065
Mof_H 	H 	0.5072	0.8827	0.6092	-0.008
Mof_C 	C 	0.5681	0.9906	0.4425	-0.066
Mof_H 	H 	0.6219	0.9823	0.3978	-0.007
Mof_C 	C 	0.5466	0.9298	0.5238	-0.069
Mof_H 	H 	0.5833	0.8731	0.544	-0.004
Mof_C 	C 	0.5386	0.0326	0.4299	-0.071
Mof_H 	H 	0.5697	0.0594	0.3727	-0.002
Mof_C 	C 	0.5696	0.4487	0.9825	-0.068
Mof_H 	H 	0.6256	0.4085	0.9674	-0.005
Mof_C 	C 	0.5038	0.4344	0.0614	-0.065
Mof_H 	H 	0.5072	0.3827	0.1092	-0.008
Mof_C 	C 	0.5681	0.4906	0.9425	-0.066
Mof_H 	H 	0.6219	0.4823	0.8978	-0.007
Mof_C 	C 	0.5466	0.4298	0.0238	-0.069
Mof_H 	H 	0.5833	0.3731	0.044	-0.004
Mof_C 	C 	0.5386	0.5326	0.9299	-0.071
Mof_H 	H 	0.5697	0.5594	0.8727	-0.002
Mof_C 	C 	0.6804	0.8013	0.9825	-0.062
Mof_H 	H 	0.6244	0.8415	0.9674	-0.007
Mof_C 	C 	0.7462	0.8156	0.0614	-0.065
Mof_H 	H 	0.7428	0.8673	0.1092	-0.007
Mof_C 	C 	0.6819	0.7594	0.9425	-0.066
Mof_H 	H 	0.6281	0.7677	0.8978	-0.007
Mof_C 	C 	0.7034	0.8202	0.0238	-0.075
Mof_H 	H 	0.6667	0.8769	0.044	-0.001
Mof_C 	C 	0.7114	0.7174	0.9299	-0.076
Mof_H 	H 	0.6803	0.6906	0.8727	-0
Mof_C 	C 	0.6804	0.3013	0.4825	-0.068
Mof_H 	H 	0.6244	0.3415	0.4674	-0.005
Mof_C 	C 	0.7462	0.3156	0.5614	-0.065
Mof_H 	H 	0.7428	0.3673	0.6092	-0.008
Mof_C 	C 	0.6819	0.2594	0.4425	-0.066
Mof_H 	H 	0.6281	0.2677	0.3978	-0.007
Mof_C 	C 	0.7034	0.3202	0.5238	-0.069
Mof_H 	H 	0.6667	0.3769	0.544	-0.003
Mof_C 	C 	0.7114	0.2174	0.4299	-0.071
Mof_H 	H 	0.6803	0.1906	0.3727	-0.002
Mof_C 	C 	0.1804	0.8013	0.4825	-0.068
Mof_H 	H 	0.1244	0.8415	0.4674	-0.005
Mof_C 	C 	0.2462	0.8156	0.5614	-0.065
Mof_H 	H 	0.2428	0.8673	0.6092	-0.008
Mof_C 	C 	0.1819	0.7594	0.4425	-0.066
Mof_H 	H 	0.1281	0.7677	0.3978	-0.007
Mof_C 	C 	0.2034	0.8202	0.5238	-0.069
Mof_H 	H 	0.1667	0.8769	0.544	-0.003
Mof_C 	C 	0.2114	0.7174	0.4299	-0.071
Mof_H 	H 	0.1803	0.6906	0.3727	-0.002
Mof_C 	C 	0.1804	0.3013	0.9825	-0.074
Mof_H 	H 	0.1244	0.3415	0.9674	-0.002
Mof_C 	C 	0.2462	0.3156	0.0614	-0.065
Mof_H 	H 	0.2428	0.3673	0.1092	-0.008
Mof_C 	C 	0.1819	0.2594	0.9425	-0.065
Mof_H 	H 	0.1281	0.2677	0.8978	-0.007
Mof_C 	C 	0.2034	0.3202	0.0238	-0.063
Mof_H 	H 	0.1667	0.3769	0.044	-0.006
Mof_C 	C 	0.2114	0.2174	0.9299	-0.066
Mof_H 	H 	0.1803	0.1906	0.8727	-0.003
Mof_C 	C 	0.6804	0.9487	0.7675	-0.069
Mof_H 	H 	0.6244	0.9085	0.7826	-0.005
Mof_C 	C 	0.7462	0.9344	0.6886	-0.065
Mof_H 	H 	0.7428	0.8827	0.6408	-0.008
Mof_C 	C 	0.6819	0.9906	0.8075	-0.058
Mof_H 	H 	0.6281	0.9823	0.8522	-0.01
Mof_C 	C 	0.7034	0.9298	0.7262	-0.075
Mof_H 	H 	0.6667	0.8731	0.706	-0.001
Mof_C 	C 	0.7114	0.0326	0.8201	-0.077
Mof_H 	H 	0.6803	0.0594	0.8773	0.001
Mof_C 	C 	0.6804	0.4487	0.2675	-0.068
Mof_H 	H 	0.6244	0.4085	0.2826	-0.005
Mof_C 	C 	0.7462	0.4344	0.1886	-0.065
Mof_H 	H 	0.7428	0.3827	0.1408	-0.008
Mof_C 	C 	0.6819	0.4906	0.3075	-0.066
Mof_H 	H 	0.6281	0.4823	0.3522	-0.007
Mof_C 	C 	0.7034	0.4298	0.2262	-0.069
Mof_H 	H 	0.6667	0.3731	0.206	-0.004
Mof_C 	C 	0.7114	0.5326	0.3201	-0.071
Mof_H 	H 	0.6803	0.5594	0.3773	-0.002
Mof_C 	C 	0.1804	0.9487	0.2675	-0.067
Mof_H 	H 	0.1244	0.9085	0.2826	-0.005
Mof_C 	C 	0.2462	0.9344	0.1886	-0.066
Mof_H 	H 	0.2428	0.8827	0.1408	-0.007
Mof_C 	C 	0.1819	0.9906	0.3075	-0.073
Mof_H 	H 	0.1281	0.9823	0.3522	-0.004
Mof_C 	C 	0.2034	0.9298	0.2262	-0.062
Mof_H 	H 	0.1667	0.8731	0.206	-0.006
Mof_C 	C 	0.2114	0.0326	0.3201	-0.065
Mof_H 	H 	0.1803	0.0594	0.3773	-0.004
Mof_C 	C 	0.1804	0.4487	0.7675	-0.068
Mof_H 	H 	0.1244	0.4085	0.7826	-0.005
Mof_C 	C 	0.2462	0.4344	0.6886	-0.065
Mof_H 	H 	0.2428	0.3827	0.6408	-0.008
Mof_C 	C 	0.1819	0.4906	0.8075	-0.066
Mof_H 	H 	0.1281	0.4823	0.8522	-0.007
Mof_C 	C 	0.2034	0.4298	0.7262	-0.069
Mof_H 	H 	0.1667	0.3731	0.706	-0.004
Mof_C 	C 	0.2114	0.5326	0.8201	-0.071
Mof_H 	H 	0.1803	0.5594	0.8773	-0.001
Mof_C 	C 	0.0696	0.8013	0.7675	-0.061
Mof_H 	H 	0.1256	0.8415	0.7826	-0.007
Mof_C 	C 	0.0038	0.8156	0.6886	-0.073
Mof_H 	H 	0.0072	0.8673	0.6408	-0.004
Mof_C 	C 	0.0681	0.7594	0.8075	-0.067
Mof_H 	H 	0.1219	0.7677	0.8522	-0.006
Mof_C 	C 	0.0466	0.8202	0.7262	-0.068
Mof_H 	H 	0.0833	0.8769	0.706	-0.003
Mof_C 	C 	0.0386	0.7174	0.8201	-0.078
Mof_H 	H 	0.0697	0.6906	0.8773	0.001
Mof_C 	C 	0.0696	0.3013	0.2675	-0.074
Mof_H 	H 	0.1256	0.3415	0.2826	-0.003
Mof_C 	C 	0.0038	0.3156	0.1886	-0.058
Mof_H 	H 	0.0072	0.3673	0.1408	-0.011
Mof_C 	C 	0.0681	0.2594	0.3075	-0.065
Mof_H 	H 	0.1219	0.2677	0.3522	-0.008
Mof_C 	C 	0.0466	0.3202	0.2262	-0.07
Mof_H 	H 	0.0833	0.3769	0.206	-0.003
Mof_C 	C 	0.0386	0.2174	0.3201	-0.065
Mof_H 	H 	0.0697	0.1906	0.3773	-0.004
Mof_C 	C 	0.5696	0.8013	0.2675	-0.068
Mof_H 	H 	0.6256	0.8415	0.2826	-0.005
Mof_C 	C 	0.5038	0.8156	0.1886	-0.065
Mof_H 	H 	0.5072	0.8673	0.1408	-0.007
Mof_C 	C 	0.5681	0.7594	0.3075	-0.066
Mof_H 	H 	0.6219	0.7677	0.3522	-0.007
Mof_C 	C 	0.5466	0.8202	0.2262	-0.069
Mof_H 	H 	0.5833	0.8769	0.206	-0.003
Mof_C 	C 	0.5386	0.7174	0.3201	-0.071
Mof_H 	H 	0.5697	0.6906	0.3773	-0.002
Mof_C 	C 	0.5696	0.3013	0.7675	-0.068
Mof_H 	H 	0.6256	0.3415	0.7826	-0.005
Mof_C 	C 	0.5038	0.3156	0.6886	-0.066
Mof_H 	H 	0.5072	0.3673	0.6408	-0.008
Mof_C 	C 	0.5681	0.2594	0.8075	-0.066
Mof_H 	H 	0.6219	0.2677	0.8522	-0.007
Mof_C 	C 	0.5466	0.3202	0.7262	-0.069
Mof_H 	H 	0.5833	0.3769	0.706	-0.003
Mof_C 	C 	0.5386	0.2174	0.8201	-0.071
Mof_H 	H 	0.5697	0.1906	0.8773	-0.001
Mof_C 	C 	0.9304	0.0513	0.0175	-0.066
Mof_H 	H 	0.8744	0.0915	0.0326	-0.005
Mof_C 	C 	0.9962	0.0656	0.9386	-0.067
Mof_H 	H 	0.9928	0.1173	0.8908	-0.007
Mof_C 	C 	0.9319	0.0094	0.0575	-0.067
Mof_H 	H 	0.8781	0.0177	0.1022	-0.006
Mof_C 	C 	0.9534	0.0702	0.9762	-0.067
Mof_H 	H 	0.9167	0.1269	0.956	-0.004
Mof_C 	C 	0.9614	0.9674	0.0701	-0.07
Mof_H 	H 	0.9303	0.9406	0.1273	-0.002
Mof_C 	C 	0.9304	0.5513	0.5175	-0.068
Mof_H 	H 	0.8744	0.5915	0.5326	-0.005
Mof_C 	C 	0.9962	0.5656	0.4386	-0.065
Mof_H 	H 	0.9928	0.6173	0.3908	-0.008
Mof_C 	C 	0.9319	0.5094	0.5575	-0.066
Mof_H 	H 	0.8781	0.5177	0.6022	-0.007
Mof_C 	C 	0.9534	0.5702	0.4762	-0.069
Mof_H 	H 	0.9167	0.6269	0.456	-0.004
Mof_C 	C 	0.9614	0.4674	0.5701	-0.071
Mof_H 	H 	0.9303	0.4406	0.6273	-0.002
Mof_C 	C 	0.4304	0.0513	0.5175	-0.068
Mof_H 	H 	0.3744	0.0915	0.5326	-0.005
Mof_C 	C 	0.4962	0.0656	0.4386	-0.065
Mof_H 	H 	0.4928	0.1173	0.3908	-0.008
Mof_C 	C 	0.4319	0.0094	0.5575	-0.066
Mof_H 	H 	0.3781	0.0177	0.6022	-0.007
Mof_C 	C 	0.4534	0.0702	0.4762	-0.069
Mof_H 	H 	0.4167	0.1269	0.456	-0.004
Mof_C 	C 	0.4614	0.9674	0.5701	-0.071
Mof_H 	H 	0.4303	0.9406	0.6273	-0.002
Mof_C 	C 	0.4304	0.5513	0.0175	-0.068
Mof_H 	H 	0.3744	0.5915	0.0326	-0.005
Mof_C 	C 	0.4962	0.5656	0.9386	-0.065
Mof_H 	H 	0.4928	0.6173	0.8908	-0.008
Mof_C 	C 	0.4319	0.5094	0.0575	-0.066
Mof_H 	H 	0.3781	0.5177	0.1022	-0.007
Mof_C 	C 	0.4534	0.5702	0.9762	-0.069
Mof_H 	H 	0.4167	0.6269	0.956	-0.004
Mof_C 	C 	0.4614	0.4674	0.0701	-0.071
Mof_H 	H 	0.4303	0.4406	0.1273	-0.002
Mof_C 	C 	0.3196	0.1987	0.0175	-0.062
Mof_H 	H 	0.3756	0.1585	0.0326	-0.007
Mof_C 	C 	0.2538	0.1844	0.9386	-0.065
Mof_H 	H 	0.2572	0.1327	0.8908	-0.007
Mof_C 	C 	0.3181	0.2406	0.0575	-0.066
Mof_H 	H 	0.3719	0.2323	0.1022	-0.007
Mof_C 	C 	0.2966	0.1798	0.9762	-0.075
Mof_H 	H 	0.3333	0.1231	0.956	-0.001
Mof_C 	C 	0.2886	0.2826	0.0701	-0.076
Mof_H 	H 	0.3197	0.3094	0.1273	-0
Mof_C 	C 	0.3196	0.6987	0.5175	-0.068
Mof_H 	H 	0.3756	0.6585	0.5326	-0.005
Mof_C 	C 	0.2538	0.6844	0.4386	-0.065
Mof_H 	H 	0.2572	0.6327	0.3908	-0.008
Mof_C 	C 	0.3181	0.7406	0.5575	-0.066
Mof_H 	H 	0.3719	0.7323	0.6022	-0.007
Mof_C 	C 	0.2966	0.6798	0.4762	-0.069
Mof_H 	H 	0.3333	0.6231	0.456	-0.003
Mof_C 	C 	0.2886	0.7826	0.5701	-0.071
Mof_H 	H 	0.3197	0.8094	0.6273	-0.002
Mof_C 	C 	0.8196	0.1987	0.5175	-0.068
Mof_H 	H 	0.8756	0.1585	0.5326	-0.005
Mof_C 	C 	0.7538	0.1844	0.4386	-0.065
Mof_H 	H 	0.7572	0.1327	0.3908	-0.008
Mof_C 	C 	0.8181	0.2406	0.5575	-0.066
Mof_H 	H 	0.8719	0.2323	0.6022	-0.007
Mof_C 	C 	0.7966	0.1798	0.4762	-0.069
Mof_H 	H 	0.8333	0.1231	0.456	-0.003
Mof_C 	C 	0.7886	0.2826	0.5701	-0.071
Mof_H 	H 	0.8197	0.3094	0.6273	-0.002
Mof_C 	C 	0.8196	0.6987	0.0175	-0.074
Mof_H 	H 	0.8756	0.6585	0.0326	-0.002
Mof_C 	C 	0.7538	0.6844	0.9386	-0.065
Mof_H 	H 	0.7572	0.6327	0.8908	-0.008
Mof_C 	C 	0.8181	0.7406	0.0575	-0.065
Mof_H 	H 	0.8719	0.7323	0.1022	-0.007
Mof_C 	C 	0.7966	0.6798	0.9762	-0.063
Mof_H 	H 	0.8333	0.6231	0.956	-0.006
Mof_C 	C 	0.7886	0.7826	0.0701	-0.066
Mof_H 	H 	0.8197	0.8094	0.1273	-0.003
Mof_C 	C 	0.3196	0.0513	0.2325	-0.069
Mof_H 	H 	0.3756	0.0915	0.2174	-0.005
Mof_C 	C 	0.2538	0.0656	0.3114	-0.065
Mof_H 	H 	0.2572	0.1173	0.3592	-0.008
Mof_C 	C 	0.3181	0.0094	0.1925	-0.058
Mof_H 	H 	0.3719	0.0177	0.1478	-0.01
Mof_C 	C 	0.2966	0.0702	0.2738	-0.075
Mof_H 	H 	0.3333	0.1269	0.294	-0.001
Mof_C 	C 	0.2886	0.9674	0.1799	-0.077
Mof_H 	H 	0.3197	0.9406	0.1227	0.001
Mof_C 	C 	0.3196	0.5513	0.7325	-0.068
Mof_H 	H 	0.3756	0.5915	0.7174	-0.005
Mof_C 	C 	0.2538	0.5656	0.8114	-0.065
Mof_H 	H 	0.2572	0.6173	0.8592	-0.008
Mof_C 	C 	0.3181	0.5094	0.6925	-0.066
Mof_H 	H 	0.3719	0.5177	0.6478	-0.007
Mof_C 	C 	0.2966	0.5702	0.7738	-0.069
Mof_H 	H 	0.3333	0.6269	0.794	-0.004
Mof_C 	C 	0.2886	0.4674	0.6799	-0.071
Mof_H 	H 	0.3197	0.4406	0.6227	-0.002
Mof_C 	C 	0.8196	0.0513	0.7325	-0.067
Mof_H 	H 	0.8756	0.0915	0.7174	-0.005
Mof_C 	C 	0.7538	0.0656	0.8114	-0.066
Mof_H 	H 	0.7572	0.1173	0.8592	-0.007
Mof_C 	C 	0.8181	0.0094	0.6925	-0.073
Mof_H 	H 	0.8719	0.0177	0.6478	-0.004
Mof_C 	C 	0.7966	0.0702	0.7738	-0.062
Mof_H 	H 	0.8333	0.1269	0.794	-0.006
Mof_C 	C 	0.7886	0.9674	0.6799	-0.065
Mof_H 	H 	0.8197	0.9406	0.6227	-0.004
Mof_C 	C 	0.8196	0.5513	0.2325	-0.068
Mof_H 	H 	0.8756	0.5915	0.2174	-0.005
Mof_C 	C 	0.7538	0.5656	0.3114	-0.065
Mof_H 	H 	0.7572	0.6173	0.3592	-0.008
Mof_C 	C 	0.8181	0.5094	0.1925	-0.066
Mof_H 	H 	0.8719	0.5177	0.1478	-0.007
Mof_C 	C 	0.7966	0.5702	0.2738	-0.069
Mof_H 	H 	0.8333	0.6269	0.294	-0.004
Mof_C 	C 	0.7886	0.4674	0.1799	-0.071
Mof_H 	H 	0.8197	0.4406	0.1227	-0.001
Mof_C 	C 	0.9304	0.1987	0.2325	-0.061
Mof_H 	H 	0.8744	0.1585	0.2174	-0.007
Mof_C 	C 	0.9962	0.1844	0.3114	-0.073
Mof_H 	H 	0.9928	0.1327	0.3592	-0.004
Mof_C 	C 	0.9319	0.2406	0.1925	-0.067
Mof_H 	H 	0.8781	0.2323	0.1478	-0.006
Mof_C 	C 	0.9534	0.1798	0.2738	-0.068
Mof_H 	H 	0.9167	0.1231	0.294	-0.003
Mof_C 	C 	0.9614	0.2826	0.1799	-0.078
Mof_H 	H 	0.9303	0.3094	0.1227	0.001
Mof_C 	C 	0.9304	0.6987	0.7325	-0.074
Mof_H 	H 	0.8744	0.6585	0.7174	-0.003
Mof_C 	C 	0.9962	0.6844	0.8114	-0.058
Mof_H 	H 	0.9928	0.6327	0.8592	-0.011
Mof_C 	C 	0.9319	0.7406	0.6925	-0.065
Mof_H 	H 	0.8781	0.7323	0.6478	-0.008
Mof_C 	C 	0.9534	0.6798	0.7738	-0.07
Mof_H 	H 	0.9167	0.6231	0.794	-0.003
Mof_C 	C 	0.9614	0.7826	0.6799	-0.065
Mof_H 	H 	0.9303	0.8094	0.6227	-0.004
Mof_C 	C 	0.4304	0.1987	0.7325	-0.068
Mof_H 	H 	0.3744	0.1585	0.7174	-0.005
Mof_C 	C 	0.4962	0.1844	0.8114	-0.065
Mof_H 	H 	0.4928	0.1327	0.8592	-0.007
Mof_C 	C 	0.4319	0.2406	0.6925	-0.066
Mof_H 	H 	0.3781	0.2323	0.6478	-0.007
Mof_C 	C 	0.4534	0.1798	0.7738	-0.069
Mof_H 	H 	0.4167	0.1231	0.794	-0.003
Mof_C 	C 	0.4614	0.2826	0.6799	-0.071
Mof_H 	H 	0.4303	0.3094	0.6227	-0.002
Mof_C 	C 	0.4304	0.6987	0.2325	-0.068
Mof_H 	H 	0.3744	0.6585	0.2174	-0.005
Mof_C 	C 	0.4962	0.6844	0.3114	-0.066
Mof_H 	H 	0.4928	0.6327	0.3592	-0.008
Mof_C 	C 	0.4319	0.7406	0.1925	-0.066
Mof_H 	H 	0.3781	0.7323	0.1478	-0.007
Mof_C 	C 	0.4534	0.6798	0.2738	-0.069
Mof_H 	H 	0.4167	0.6231	0.294	-0.003
Mof_C 	C 	0.4614	0.7826	0.1799	-0.071
Mof_H 	H 	0.4303	0.8094	0.1227	-0.001
Mof_Ba	Ba	0.125	0.125	0.125	1.443
Mof_Ba	Ba	0.125	0.625	0.625	1.456
Mof_Ba	Ba	0.625	0.125	0.625	1.456
Mof_Ba	Ba	0.625	0.625	0.125	1.456
Mof_Ba	Ba	0.875	0.875	0.875	1.443
Mof_Ba	Ba	0.875	0.375	0.375	1.456
Mof_Ba	Ba	0.375	0.875	0.375	1.456
Mof_Ba	Ba	0.375	0.375	0.875	1.456
_end
