# CIF file generated by openbabel 3.1.0, see https://openbabel.org
data_I
_chemical_name_common 'image0'
_cell_length_a 15.5239
_cell_length_b 16.0613
_cell_length_c 17.2322
_cell_angle_alpha 90
_cell_angle_beta 90
_cell_angle_gamma 90
_space_group_name_H-M_alt 'P 1'
_space_group_name_Hall 'P 1'
loop_
    _symmetry_equiv_pos_as_xyz
    x,y,z
loop_
    _atom_site_label
    _atom_site_type_symbol
    _atom_site_fract_x
    _atom_site_fract_y
    _atom_site_fract_z
    _atom_site_occupancy
    Ag1      Ag       0.74151    0.54672    0.59753    1.000
    Ag2      Ag       0.28100    0.79719    0.48171    1.000
    Ag3      Ag       0.31157    0.68434    0.81665    1.000
    Ag4      Ag       0.69010    0.82417    0.64168    1.000
    N1       N        0.38570    0.74720    0.57120    1.000
    N2       N        0.38940    0.70330    0.70330    1.000
    C1       C        0.68680    0.67040    0.62050    1.000
    C2       C        0.61050    0.68860    0.62260    1.000
    C3       C        0.51870    0.70260    0.62830    1.000
    C4       C        0.47010    0.73250    0.56560    1.000
    H1       H        0.49760    0.74240    0.51850    1.000
    C5       C        0.34920    0.73200    0.64010    1.000
    H2       H        0.29040    0.74230    0.64450    1.000
    C6       C        0.47390    0.68820    0.69700    1.000
    H3       H        0.50350    0.66750    0.73980    1.000
    O1       O        0.93420    0.58290    0.64350    1.000
    O2       O        0.86165    0.46480    0.62890    1.000
    C7       C        0.92720    0.50770    0.63500    1.000
    C8       C        0.01150    0.45970    0.63310    1.000
    F1       F        0.02060    0.42650    0.56040    1.000
    F2       F        0.07810    0.50240    0.62580    1.000
    F3       F        0.01310    0.39320    0.67600    1.000
    Ag5      Ag       0.75849    0.45328    0.09753    1.000
    Ag6      Ag       0.21900    0.20281    0.98171    1.000
    Ag7      Ag       0.18843    0.31566    0.31665    1.000
    Ag8      Ag       0.80990    0.17583    0.14168    1.000
    N3       N        0.11430    0.25280    0.07120    1.000
    N4       N        0.11060    0.29670    0.20330    1.000
    C9       C        0.81320    0.32960    0.12050    1.000
    C10      C        0.88950    0.31140    0.12260    1.000
    C11      C        0.98130    0.29740    0.12830    1.000
    C12      C        0.02990    0.26750    0.06560    1.000
    H4       H        0.00240    0.25760    0.01850    1.000
    C13      C        0.15080    0.26800    0.14010    1.000
    H5       H        0.20960    0.25770    0.14450    1.000
    C14      C        0.02610    0.31180    0.19700    1.000
    H6       H        0.99650    0.33250    0.23980    1.000
    O3       O        0.56580    0.41710    0.14350    1.000
    O4       O        0.63835    0.53520    0.12890    1.000
    C15      C        0.57280    0.49230    0.13500    1.000
    C16      C        0.48850    0.54030    0.13310    1.000
    F4       F        0.47940    0.57350    0.06040    1.000
    F5       F        0.42190    0.49760    0.12580    1.000
    F6       F        0.48690    0.60680    0.17600    1.000
    Ag9      Ag       0.25849    0.04672    0.90247    1.000
    Ag10     Ag       0.71900    0.29719    0.01829    1.000
    Ag11     Ag       0.68843    0.18434    0.68335    1.000
    Ag12     Ag       0.30990    0.32417    0.85832    1.000
    N5       N        0.61430    0.24720    0.92880    1.000
    N6       N        0.61060    0.20330    0.79670    1.000
    C17      C        0.31320    0.17040    0.87950    1.000
    C18      C        0.38950    0.18860    0.87740    1.000
    C19      C        0.48130    0.20260    0.87170    1.000
    C20      C        0.52990    0.23250    0.93440    1.000
    H7       H        0.50240    0.24240    0.98150    1.000
    C21      C        0.65080    0.23200    0.85990    1.000
    H8       H        0.70960    0.24230    0.85550    1.000
    C22      C        0.52610    0.18820    0.80300    1.000
    H9       H        0.49650    0.16750    0.76020    1.000
    O5       O        0.06580    0.08290    0.85650    1.000
    O6       O        0.13835    0.96480    0.87110    1.000
    C23      C        0.07280    0.00770    0.86500    1.000
    C24      C        0.98850    0.95970    0.86690    1.000
    F7       F        0.97940    0.92650    0.93960    1.000
    F8       F        0.92190    0.00240    0.87420    1.000
    F9       F        0.98690    0.89320    0.82400    1.000
    Ag13     Ag       0.24151    0.95328    0.40247    1.000
    Ag14     Ag       0.78100    0.70281    0.51829    1.000
    Ag15     Ag       0.81157    0.81566    0.18335    1.000
    Ag16     Ag       0.19010    0.67583    0.35832    1.000
    N7       N        0.88570    0.75280    0.42880    1.000
    N8       N        0.88940    0.79670    0.29670    1.000
    C25      C        0.18680    0.82960    0.37950    1.000
    C26      C        0.11050    0.81140    0.37740    1.000
    C27      C        0.01870    0.79740    0.37170    1.000
    C28      C        0.97010    0.76750    0.43440    1.000
    H10      H        0.99760    0.75760    0.48150    1.000
    C29      C        0.84920    0.76800    0.35990    1.000
    H11      H        0.79040    0.75770    0.35550    1.000
    C30      C        0.97390    0.81180    0.30300    1.000
    H12      H        0.00350    0.83250    0.26020    1.000
    O7       O        0.43420    0.91710    0.35650    1.000
    O8       O        0.36165    0.03520    0.37110    1.000
    C31      C        0.42720    0.99230    0.36500    1.000
    C32      C        0.51150    0.04030    0.36690    1.000
    F10      F        0.52060    0.07350    0.43960    1.000
    F11      F        0.57810    0.99760    0.37420    1.000
    F12      F        0.51310    0.10680    0.32400    1.000
    Ag17     Ag       0.25849    0.45328    0.40247    1.000
    Ag18     Ag       0.71900    0.20281    0.51829    1.000
    Ag19     Ag       0.68843    0.31566    0.18335    1.000
    Ag20     Ag       0.30990    0.17583    0.35832    1.000
    N9       N        0.61430    0.25280    0.42880    1.000
    N10      N        0.61060    0.29670    0.29670    1.000
    C33      C        0.31320    0.32960    0.37950    1.000
    C34      C        0.38950    0.31140    0.37740    1.000
    C35      C        0.48130    0.29740    0.37170    1.000
    C36      C        0.52990    0.26750    0.43440    1.000
    H13      H        0.50240    0.25760    0.48150    1.000
    C37      C        0.65080    0.26800    0.35990    1.000
    H14      H        0.70960    0.25770    0.35550    1.000
    C38      C        0.52610    0.31180    0.30300    1.000
    H15      H        0.49650    0.33250    0.26020    1.000
    O9       O        0.06580    0.41710    0.35650    1.000
    O10      O        0.13835    0.53520    0.37110    1.000
    C39      C        0.07280    0.49230    0.36500    1.000
    C40      C        0.98850    0.54030    0.36690    1.000
    F13      F        0.97940    0.57350    0.43960    1.000
    F14      F        0.92190    0.49760    0.37420    1.000
    F15      F        0.98690    0.60680    0.32400    1.000
    Ag21     Ag       0.24151    0.54672    0.90247    1.000
    Ag22     Ag       0.78100    0.79719    0.01829    1.000
    Ag23     Ag       0.81157    0.68434    0.68335    1.000
    Ag24     Ag       0.19010    0.82417    0.85832    1.000
    N11      N        0.88570    0.74720    0.92880    1.000
    N12      N        0.88940    0.70330    0.79670    1.000
    C41      C        0.18680    0.67040    0.87950    1.000
    C42      C        0.11050    0.68860    0.87740    1.000
    C43      C        0.01870    0.70260    0.87170    1.000
    C44      C        0.97010    0.73250    0.93440    1.000
    H16      H        0.99760    0.74240    0.98150    1.000
    C45      C        0.84920    0.73200    0.85990    1.000
    H17      H        0.79040    0.74230    0.85550    1.000
    C46      C        0.97390    0.68820    0.80300    1.000
    H18      H        0.00350    0.66750    0.76020    1.000
    O11      O        0.43420    0.58290    0.85650    1.000
    O12      O        0.36165    0.46480    0.87110    1.000
    C47      C        0.42720    0.50770    0.86500    1.000
    C48      C        0.51150    0.45970    0.86690    1.000
    F16      F        0.52060    0.42650    0.93960    1.000
    F17      F        0.57810    0.50240    0.87420    1.000
    F18      F        0.51310    0.39320    0.82400    1.000
    Ag25     Ag       0.74151    0.95328    0.09753    1.000
    Ag26     Ag       0.28100    0.70281    0.98171    1.000
    Ag27     Ag       0.31157    0.81566    0.31665    1.000
    Ag28     Ag       0.69010    0.67583    0.14168    1.000
    N13      N        0.38570    0.75280    0.07120    1.000
    N14      N        0.38940    0.79670    0.20330    1.000
    C49      C        0.68680    0.82960    0.12050    1.000
    C50      C        0.61050    0.81140    0.12260    1.000
    C51      C        0.51870    0.79740    0.12830    1.000
    C52      C        0.47010    0.76750    0.06560    1.000
    H19      H        0.49760    0.75760    0.01850    1.000
    C53      C        0.34920    0.76800    0.14010    1.000
    H20      H        0.29040    0.75770    0.14450    1.000
    C54      C        0.47390    0.81180    0.19700    1.000
    H21      H        0.50350    0.83250    0.23980    1.000
    O13      O        0.93420    0.91710    0.14350    1.000
    O14      O        0.86165    0.03520    0.12890    1.000
    C55      C        0.92720    0.99230    0.13500    1.000
    C56      C        0.01150    0.04030    0.13310    1.000
    F19      F        0.02060    0.07350    0.06040    1.000
    F20      F        0.07810    0.99760    0.12580    1.000
    F21      F        0.01310    0.10680    0.17600    1.000
    Ag29     Ag       0.75849    0.04672    0.59753    1.000
    Ag30     Ag       0.21900    0.29719    0.48171    1.000
    Ag31     Ag       0.18843    0.18434    0.81665    1.000
    Ag32     Ag       0.80990    0.32417    0.64168    1.000
    N15      N        0.11430    0.24720    0.57120    1.000
    N16      N        0.11060    0.20330    0.70330    1.000
    C57      C        0.81320    0.17040    0.62050    1.000
    C58      C        0.88950    0.18860    0.62260    1.000
    C59      C        0.98130    0.20260    0.62830    1.000
    C60      C        0.02990    0.23250    0.56560    1.000
    H22      H        0.00240    0.24240    0.51850    1.000
    C61      C        0.15080    0.23200    0.64010    1.000
    H23      H        0.20960    0.24230    0.64450    1.000
    C62      C        0.02610    0.18820    0.69700    1.000
    H24      H        0.99650    0.16750    0.73980    1.000
    O15      O        0.56580    0.08290    0.64350    1.000
    O16      O        0.63835    0.96480    0.62890    1.000
    C63      C        0.57280    0.00770    0.63500    1.000
    C64      C        0.48850    0.95970    0.63310    1.000
    F22      F        0.47940    0.92650    0.56040    1.000
    F23      F        0.42190    0.00240    0.62580    1.000
    F24      F        0.48690    0.89320    0.67600    1.000
