data_functionalizedCrystal
_audit_creation_method	'EQeq! by Chris Wilmer'
_symmetry_space_group_name_H-M	'P1'
_symmetry_Int_Tables_number	1
_symmetry_cell_setting	triclinic
loop_
_symmetry_equiv_pos_as_xyz
  x,y,z
_cell_length_a	17.3391
_cell_length_b	17.3391
_cell_length_c	26.562
_cell_angle_alpha	93.8464
_cell_angle_beta	93.8464
_cell_angle_gamma	110.679
loop_
_atom_site_label
_atom_site_type_symbol
_atom_site_fract_x
_atom_site_fract_y
_atom_site_fract_z
_atom_site_charge
Mof_In	In	0.37054	0.85778	0.88482	2.517
Mof_In	In	0.85778	0.37054	0.38482	2.517
Mof_H 	H 	0.2122	0.7642	0.0236	0.03
Mof_H 	H 	0.0956	0.6848	0.06	0.056
Mof_H 	H 	0.969	0.623	0.9218	0.058
Mof_H 	H 	0.0846	0.7052	0.8862	0.041
Mof_H 	H 	0.8023	0.3445	0.2112	0.039
Mof_H 	H 	0.7975	0.3761	0.1283	0.074
Mof_H 	H 	0.9867	0.5931	0.167	0.061
Mof_H 	H 	0.9909	0.5621	0.2497	0.028
Mof_H 	H 	0.3892	0.1398	0.8694	0.039
Mof_H 	H 	0.4609	0.2819	0.8832	0.059
Mof_H 	H 	0.6005	0.2451	0.0003	0.057
Mof_H 	H 	0.5324	0.1042	0.9851	0.036
Mof_H 	H 	0.6003	0.7637	0.9034	0.03
Mof_H 	H 	0.6648	0.6678	0.9208	0.061
Mof_H 	H 	0.4406	0.4956	0.9356	0.067
Mof_H 	H 	0.3787	0.5877	0.9126	0.029
Mof_H 	H 	0.7601	0.4479	0.0715	0.071
Mof_H 	H 	0.8601	0.5853	0.9588	0.064
Mof_H 	H 	0.0061	0.5793	0.0826	0.062
Mof_H 	H 	0.7103	0.5967	0.9717	0.065
Mof_H 	H 	0.691	0.3604	0.9863	0.069
Mof_H 	H 	0.4975	0.4079	0.9214	0.064
Mof_H 	H 	0.7642	0.2122	0.5236	0.031
Mof_H 	H 	0.6848	0.0956	0.56	0.057
Mof_H 	H 	0.623	0.969	0.4218	0.059
Mof_H 	H 	0.7052	0.0846	0.3862	0.041
Mof_H 	H 	0.3445	0.8023	0.7112	0.04
Mof_H 	H 	0.3761	0.7975	0.6283	0.075
Mof_H 	H 	0.5931	0.9867	0.667	0.061
Mof_H 	H 	0.5621	0.9909	0.7497	0.028
Mof_H 	H 	0.1398	0.3892	0.3694	0.039
Mof_H 	H 	0.2819	0.4609	0.3832	0.058
Mof_H 	H 	0.2451	0.6005	0.5003	0.056
Mof_H 	H 	0.1042	0.5324	0.4851	0.037
Mof_H 	H 	0.7637	0.6003	0.4034	0.03
Mof_H 	H 	0.6678	0.6648	0.4208	0.061
Mof_H 	H 	0.4956	0.4406	0.4356	0.067
Mof_H 	H 	0.5877	0.3787	0.4126	0.029
Mof_H 	H 	0.4479	0.7601	0.5715	0.071
Mof_H 	H 	0.5853	0.8601	0.4588	0.064
Mof_H 	H 	0.5793	0.0061	0.5826	0.062
Mof_H 	H 	0.5967	0.7103	0.4717	0.065
Mof_H 	H 	0.3604	0.691	0.4863	0.069
Mof_H 	H 	0.4079	0.4975	0.4214	0.064
Mof_C 	C 	0.16039	0.74349	0.95197	-0.087
Mof_C 	C 	0.16211	0.73591	0.00258	0.02
Mof_C 	C 	0.0929	0.68802	0.0244	-0.094
Mof_C 	C 	0.01948	0.6447	0.9942	0.034
Mof_C 	C 	0.01854	0.65222	0.94311	-0.089
Mof_C 	C 	0.08727	0.70089	0.92165	0.019
Mof_C 	C 	0.89652	0.4506	0.2392	-0.104
Mof_C 	C 	0.83967	0.39553	0.20231	0.042
Mof_C 	C 	0.83705	0.41445	0.15304	-0.097
Mof_C 	C 	0.89101	0.48841	0.13844	0.037
Mof_C 	C 	0.94854	0.5425	0.17581	-0.1
Mof_C 	C 	0.95111	0.52403	0.22492	0.031
Mof_C 	C 	0.45584	0.10764	0.92448	-0.086
Mof_C 	C 	0.43375	0.16123	0.89542	0.016
Mof_C 	C 	0.47599	0.24595	0.90399	-0.088
Mof_C 	C 	0.53976	0.27888	0.94238	0.025
Mof_C 	C 	0.5585	0.22374	0.97283	-0.084
Mof_C 	C 	0.51797	0.14019	0.96405	0.021
Mof_C 	C 	0.48087	0.68511	0.90849	-0.102
Mof_C 	C 	0.55684	0.57204	0.93149	0.041
Mof_C 	C 	0.5678	0.709	0.9099	0.028
Mof_C 	C 	0.6065	0.6525	0.9207	-0.098
Mof_C 	C 	0.474	0.5498	0.9288	-0.105
Mof_C 	C 	0.4375	0.6059	0.9161	0.039
Mof_C 	C 	0.88432	0.5111	0.08593	0.042
Mof_C 	C 	0.80707	0.48465	0.05792	-0.105
Mof_C 	C 	0.79801	0.51115	0.01065	0.041
Mof_C 	C 	0.86681	0.56527	0.99058	-0.106
Mof_C 	C 	0.94521	0.59009	0.01691	0.042
Mof_C 	C 	0.95283	0.56261	0.06436	-0.101
Mof_C 	C 	0.59721	0.51227	0.94522	0.039
Mof_C 	C 	0.67824	0.5391	0.96729	-0.106
Mof_C 	C 	0.71306	0.48284	0.983	0.04
Mof_C 	C 	0.6672	0.39872	0.97529	-0.109
Mof_C 	C 	0.58701	0.36957	0.95172	0.046
Mof_C 	C 	0.55259	0.42699	0.93717	-0.104
Mof_C 	C 	0.23609	0.79171	0.92867	0.326
Mof_C 	C 	0.89689	0.43371	0.29389	0.359
Mof_C 	C 	0.41641	0.01641	0.91249	0.321
Mof_C 	C 	0.43907	0.74525	0.89827	0.345
Mof_C 	C 	0.74349	0.16039	0.45197	-0.089
Mof_C 	C 	0.73591	0.16211	0.50258	0.022
Mof_C 	C 	0.68802	0.0929	0.5244	-0.093
Mof_C 	C 	0.6447	0.01948	0.4942	0.033
Mof_C 	C 	0.65222	0.01854	0.44311	-0.09
Mof_C 	C 	0.70089	0.08727	0.42165	0.02
Mof_C 	C 	0.4506	0.89652	0.7392	-0.104
Mof_C 	C 	0.39553	0.83967	0.70231	0.042
Mof_C 	C 	0.41445	0.83705	0.65304	-0.097
Mof_C 	C 	0.48841	0.89101	0.63844	0.037
Mof_C 	C 	0.5425	0.94854	0.67581	-0.1
Mof_C 	C 	0.52403	0.95111	0.72492	0.031
Mof_C 	C 	0.10764	0.45584	0.42448	-0.086
Mof_C 	C 	0.16123	0.43375	0.39542	0.015
Mof_C 	C 	0.24595	0.47599	0.40399	-0.087
Mof_C 	C 	0.27888	0.53976	0.44238	0.024
Mof_C 	C 	0.22374	0.5585	0.47283	-0.081
Mof_C 	C 	0.14019	0.51797	0.46405	0.02
Mof_C 	C 	0.68511	0.48087	0.40849	-0.102
Mof_C 	C 	0.57204	0.55684	0.43149	0.04
Mof_C 	C 	0.709	0.5678	0.4099	0.028
Mof_C 	C 	0.6525	0.6065	0.4207	-0.098
Mof_C 	C 	0.5498	0.474	0.4288	-0.105
Mof_C 	C 	0.6059	0.4375	0.4161	0.039
Mof_C 	C 	0.5111	0.88432	0.58593	0.042
Mof_C 	C 	0.48465	0.80707	0.55792	-0.105
Mof_C 	C 	0.51115	0.79801	0.51065	0.04
Mof_C 	C 	0.56527	0.86681	0.49058	-0.104
Mof_C 	C 	0.59009	0.94521	0.51691	0.042
Mof_C 	C 	0.56261	0.95283	0.56436	-0.102
Mof_C 	C 	0.51227	0.59721	0.44522	0.04
Mof_C 	C 	0.5391	0.67824	0.46729	-0.106
Mof_C 	C 	0.48284	0.71306	0.483	0.041
Mof_C 	C 	0.39872	0.6672	0.47529	-0.11
Mof_C 	C 	0.36957	0.58701	0.45172	0.047
Mof_C 	C 	0.42699	0.55259	0.43717	-0.105
Mof_C 	C 	0.79171	0.23609	0.42867	0.326
Mof_C 	C 	0.43371	0.89689	0.79389	0.359
Mof_C 	C 	0.01641	0.41641	0.41249	0.323
Mof_C 	C 	0.74525	0.43907	0.39827	0.345
Mof_O 	O 	0.23302	0.79766	0.88132	-0.524
Mof_O 	O 	0.30398	0.82548	0.95559	-0.521
Mof_O 	O 	0.84419	0.36673	0.30492	-0.602
Mof_O 	O 	0.94714	0.48536	0.32675	-0.386
Mof_O 	O 	0.35261	0.98397	0.88208	-0.488
Mof_O 	O 	0.45188	0.97124	0.93216	-0.533
Mof_O 	O 	0.48029	0.82183	0.90397	-0.537
Mof_O 	O 	0.36331	0.72037	0.88494	-0.493
Mof_O 	O 	0.79766	0.23302	0.38132	-0.524
Mof_O 	O 	0.82548	0.30398	0.45559	-0.522
Mof_O 	O 	0.36673	0.84419	0.80492	-0.602
Mof_O 	O 	0.48536	0.94714	0.82675	-0.386
Mof_O 	O 	0.98397	0.35261	0.38208	-0.49
Mof_O 	O 	0.97124	0.45188	0.43216	-0.534
Mof_O 	O 	0.82183	0.48029	0.40397	-0.538
Mof_O 	O 	0.72037	0.36331	0.38494	-0.493
Mof_In	In	0.14222	0.62946	0.61518	2.518
Mof_In	In	0.62946	0.14222	0.11518	2.518
Mof_H 	H 	0.2358	0.7878	0.4764	0.031
Mof_H 	H 	0.3152	0.9044	0.44	0.057
Mof_H 	H 	0.377	0.031	0.5782	0.059
Mof_H 	H 	0.2948	0.9154	0.6138	0.041
Mof_H 	H 	0.6555	0.1977	0.2888	0.04
Mof_H 	H 	0.6239	0.2025	0.3717	0.075
Mof_H 	H 	0.4069	0.0133	0.333	0.061
Mof_H 	H 	0.4379	0.0091	0.2503	0.028
Mof_H 	H 	0.8602	0.6108	0.6306	0.039
Mof_H 	H 	0.7181	0.5391	0.6168	0.058
Mof_H 	H 	0.7549	0.3995	0.4997	0.056
Mof_H 	H 	0.8958	0.4676	0.5149	0.037
Mof_H 	H 	0.2363	0.3997	0.5966	0.03
Mof_H 	H 	0.3322	0.3352	0.5792	0.061
Mof_H 	H 	0.5044	0.5594	0.5644	0.067
Mof_H 	H 	0.4123	0.6213	0.5874	0.029
Mof_H 	H 	0.5521	0.2399	0.4285	0.071
Mof_H 	H 	0.4147	0.1399	0.5412	0.064
Mof_H 	H 	0.4207	0.9939	0.4174	0.062
Mof_H 	H 	0.4033	0.2897	0.5283	0.065
Mof_H 	H 	0.6396	0.309	0.5137	0.069
Mof_H 	H 	0.5921	0.5025	0.5786	0.064
Mof_H 	H 	0.7878	0.2358	0.9764	0.031
Mof_H 	H 	0.9044	0.3152	0.94	0.057
Mof_H 	H 	0.031	0.377	0.0782	0.059
Mof_H 	H 	0.9154	0.2948	0.1138	0.042
Mof_H 	H 	0.1977	0.6555	0.7888	0.04
Mof_H 	H 	0.2025	0.6239	0.8717	0.075
Mof_H 	H 	0.0133	0.4069	0.833	0.061
Mof_H 	H 	0.0091	0.4379	0.7503	0.028
Mof_H 	H 	0.6108	0.8602	0.1306	0.039
Mof_H 	H 	0.5391	0.7181	0.1168	0.059
Mof_H 	H 	0.3995	0.7549	0.9997	0.057
Mof_H 	H 	0.4676	0.8958	0.0149	0.036
Mof_H 	H 	0.3997	0.2363	0.0966	0.03
Mof_H 	H 	0.3352	0.3322	0.0792	0.061
Mof_H 	H 	0.5594	0.5044	0.0644	0.067
Mof_H 	H 	0.6213	0.4123	0.0874	0.029
Mof_H 	H 	0.2399	0.5521	0.9285	0.071
Mof_H 	H 	0.1399	0.4147	0.0412	0.064
Mof_H 	H 	0.9939	0.4207	0.9174	0.062
Mof_H 	H 	0.2897	0.4033	0.0283	0.065
Mof_H 	H 	0.309	0.6396	0.0137	0.069
Mof_H 	H 	0.5025	0.5921	0.0786	0.064
Mof_C 	C 	0.25651	0.83961	0.54803	-0.089
Mof_C 	C 	0.26409	0.83789	0.49742	0.022
Mof_C 	C 	0.31198	0.9071	0.4756	-0.093
Mof_C 	C 	0.3553	0.98052	0.5058	0.033
Mof_C 	C 	0.34778	0.98146	0.55689	-0.09
Mof_C 	C 	0.29911	0.91273	0.57835	0.02
Mof_C 	C 	0.5494	0.10348	0.2608	-0.104
Mof_C 	C 	0.60447	0.16033	0.29769	0.042
Mof_C 	C 	0.58555	0.16295	0.34696	-0.097
Mof_C 	C 	0.51159	0.10899	0.36156	0.037
Mof_C 	C 	0.4575	0.05146	0.32419	-0.1
Mof_C 	C 	0.47597	0.04889	0.27508	0.031
Mof_C 	C 	0.89236	0.54416	0.57552	-0.086
Mof_C 	C 	0.83877	0.56625	0.60458	0.015
Mof_C 	C 	0.75405	0.52401	0.59601	-0.087
Mof_C 	C 	0.72112	0.46024	0.55762	0.024
Mof_C 	C 	0.77626	0.4415	0.52717	-0.081
Mof_C 	C 	0.85981	0.48203	0.53595	0.02
Mof_C 	C 	0.31489	0.51913	0.59151	-0.102
Mof_C 	C 	0.42796	0.44316	0.56851	0.04
Mof_C 	C 	0.291	0.4322	0.5901	0.028
Mof_C 	C 	0.3475	0.3935	0.5793	-0.098
Mof_C 	C 	0.4502	0.526	0.5712	-0.105
Mof_C 	C 	0.3941	0.5625	0.5839	0.039
Mof_C 	C 	0.4889	0.11568	0.41407	0.042
Mof_C 	C 	0.51535	0.19293	0.44208	-0.105
Mof_C 	C 	0.48885	0.20199	0.48935	0.04
Mof_C 	C 	0.43473	0.13319	0.50942	-0.104
Mof_C 	C 	0.40991	0.05479	0.48309	0.042
Mof_C 	C 	0.43739	0.04717	0.43564	-0.102
Mof_C 	C 	0.48773	0.40279	0.55478	0.04
Mof_C 	C 	0.4609	0.32176	0.53271	-0.106
Mof_C 	C 	0.51716	0.28694	0.517	0.041
Mof_C 	C 	0.60128	0.3328	0.52471	-0.11
Mof_C 	C 	0.63043	0.41299	0.54828	0.047
Mof_C 	C 	0.57301	0.44741	0.56283	-0.105
Mof_C 	C 	0.20829	0.76391	0.57133	0.326
Mof_C 	C 	0.56629	0.10311	0.20611	0.359
Mof_C 	C 	0.98359	0.58359	0.58751	0.323
Mof_C 	C 	0.25475	0.56093	0.60173	0.345
Mof_C 	C 	0.83961	0.25651	0.04803	-0.087
Mof_C 	C 	0.83789	0.26409	0.99742	0.02
Mof_C 	C 	0.9071	0.31198	0.9756	-0.094
Mof_C 	C 	0.98052	0.3553	0.0058	0.034
Mof_C 	C 	0.98146	0.34778	0.05689	-0.089
Mof_C 	C 	0.91273	0.29911	0.07835	0.019
Mof_C 	C 	0.10348	0.5494	0.7608	-0.104
Mof_C 	C 	0.16033	0.60447	0.79769	0.042
Mof_C 	C 	0.16295	0.58555	0.84696	-0.097
Mof_C 	C 	0.10899	0.51159	0.86156	0.037
Mof_C 	C 	0.05146	0.4575	0.82419	-0.1
Mof_C 	C 	0.04889	0.47597	0.77508	0.031
Mof_C 	C 	0.54416	0.89236	0.07552	-0.086
Mof_C 	C 	0.56625	0.83877	0.10458	0.016
Mof_C 	C 	0.52401	0.75405	0.09601	-0.088
Mof_C 	C 	0.46024	0.72112	0.05762	0.025
Mof_C 	C 	0.4415	0.77626	0.02717	-0.084
Mof_C 	C 	0.48203	0.85981	0.03595	0.021
Mof_C 	C 	0.51913	0.31489	0.09151	-0.102
Mof_C 	C 	0.44316	0.42796	0.06851	0.041
Mof_C 	C 	0.4322	0.291	0.0901	0.028
Mof_C 	C 	0.3935	0.3475	0.0793	-0.098
Mof_C 	C 	0.526	0.4502	0.0712	-0.105
Mof_C 	C 	0.5625	0.3941	0.0839	0.039
Mof_C 	C 	0.11568	0.4889	0.91407	0.042
Mof_C 	C 	0.19293	0.51535	0.94208	-0.105
Mof_C 	C 	0.20199	0.48885	0.98935	0.041
Mof_C 	C 	0.13319	0.43473	0.00942	-0.106
Mof_C 	C 	0.05479	0.40991	0.98309	0.042
Mof_C 	C 	0.04717	0.43739	0.93564	-0.101
Mof_C 	C 	0.40279	0.48773	0.05478	0.039
Mof_C 	C 	0.32176	0.4609	0.03271	-0.106
Mof_C 	C 	0.28694	0.51716	0.017	0.04
Mof_C 	C 	0.3328	0.60128	0.02471	-0.109
Mof_C 	C 	0.41299	0.63043	0.04828	0.046
Mof_C 	C 	0.44741	0.57301	0.06283	-0.104
Mof_C 	C 	0.76391	0.20829	0.07133	0.326
Mof_C 	C 	0.10311	0.56629	0.70611	0.359
Mof_C 	C 	0.58359	0.98359	0.08751	0.321
Mof_C 	C 	0.56093	0.25475	0.10173	0.345
Mof_O 	O 	0.20234	0.76698	0.61868	-0.524
Mof_O 	O 	0.17452	0.69602	0.54441	-0.522
Mof_O 	O 	0.63327	0.15581	0.19508	-0.602
Mof_O 	O 	0.51464	0.05286	0.17325	-0.386
Mof_O 	O 	0.01603	0.64739	0.61792	-0.49
Mof_O 	O 	0.02876	0.54812	0.56784	-0.534
Mof_O 	O 	0.17817	0.51971	0.59603	-0.538
Mof_O 	O 	0.27963	0.63669	0.61506	-0.493
Mof_O 	O 	0.76698	0.20234	0.11868	-0.524
Mof_O 	O 	0.69602	0.17452	0.04441	-0.521
Mof_O 	O 	0.15581	0.63327	0.69508	-0.602
Mof_O 	O 	0.05286	0.51464	0.67325	-0.386
Mof_O 	O 	0.64739	0.01603	0.11792	-0.488
Mof_O 	O 	0.54812	0.02876	0.06784	-0.533
Mof_O 	O 	0.51971	0.17817	0.09603	-0.537
Mof_O 	O 	0.63669	0.27963	0.11506	-0.493
Mof_H 	H 	0.6351	0.9517	0.8858	0.106
Mof_H 	H 	0.5649	0.9721	0.9043	0.124
Mof_H 	H 	0.6273	0.9283	0.9684	0.103
Mof_H 	H 	0.7122	0.0018	0.9619	0.094
Mof_H 	H 	0.636	0.0226	0.9818	0.107
Mof_H 	H 	0.6339	0.0731	0.8556	0.11
Mof_H 	H 	0.6448	0.1124	0.9131	0.111
Mof_H 	H 	0.7179	0.0889	0.8906	0.101
Mof_C 	C 	0.65181	0.98499	0.95901	-0.224
Mof_C 	C 	0.6577	0.0729	0.8901	-0.253
Mof_N 	N 	0.62171	0.98835	0.9069	-0.165
Mof_H 	H 	0.0483	0.3649	0.6142	0.105
Mof_H 	H 	0.0279	0.4351	0.5957	0.123
Mof_H 	H 	0.0717	0.3727	0.5316	0.106
Mof_H 	H 	0.9982	0.2878	0.5381	0.098
Mof_H 	H 	0.9774	0.364	0.5182	0.111
Mof_H 	H 	0.9269	0.3661	0.6444	0.11
Mof_H 	H 	0.8876	0.3552	0.5869	0.112
Mof_H 	H 	0.9111	0.2821	0.6094	0.101
Mof_C 	C 	0.01501	0.34819	0.54099	-0.234
Mof_C 	C 	0.9271	0.3423	0.6099	-0.253
Mof_N 	N 	0.01165	0.37829	0.5931	-0.163
Mof_H 	H 	0.3649	0.0483	0.1142	0.106
Mof_H 	H 	0.4351	0.0279	0.0957	0.124
Mof_H 	H 	0.3727	0.0717	0.0316	0.103
Mof_H 	H 	0.2878	0.9982	0.0381	0.094
Mof_H 	H 	0.364	0.9774	0.0182	0.107
Mof_H 	H 	0.3661	0.9269	0.1444	0.11
Mof_H 	H 	0.3552	0.8876	0.0869	0.111
Mof_H 	H 	0.2821	0.9111	0.1094	0.101
Mof_C 	C 	0.34819	0.01501	0.04099	-0.224
Mof_C 	C 	0.3423	0.9271	0.1099	-0.253
Mof_N 	N 	0.37829	0.01165	0.0931	-0.165
Mof_H 	H 	0.9517	0.6351	0.3858	0.105
Mof_H 	H 	0.9721	0.5649	0.4043	0.123
Mof_H 	H 	0.9283	0.6273	0.4684	0.106
Mof_H 	H 	0.0018	0.7122	0.4619	0.098
Mof_H 	H 	0.0226	0.636	0.4818	0.111
Mof_H 	H 	0.0731	0.6339	0.3556	0.11
Mof_H 	H 	0.1124	0.6448	0.4131	0.112
Mof_H 	H 	0.0889	0.7179	0.3906	0.101
Mof_C 	C 	0.98499	0.65181	0.45901	-0.234
Mof_C 	C 	0.0729	0.6577	0.3901	-0.253
Mof_N 	N 	0.98835	0.62171	0.4069	-0.163
_end
