# CIF file generated by openbabel 3.1.0, see https://openbabel.org
data_I
_chemical_name_common 'image0'
_cell_length_a 5.2195
_cell_length_b 10.5691
_cell_length_c 15.3604
_cell_angle_alpha 82.533
_cell_angle_beta 86.657
_cell_angle_gamma 83
_space_group_name_H-M_alt 'P 1'
_space_group_name_Hall 'P 1'
loop_
    _symmetry_equiv_pos_as_xyz
    x,y,z
loop_
    _atom_site_label
    _atom_site_type_symbol
    _atom_site_fract_x
    _atom_site_fract_y
    _atom_site_fract_z
    _atom_site_occupancy
    C1       C        0.98120    0.63200    0.48794    1.000
    H1       H        0.96750    0.72320    0.47960    1.000
    C2       C        0.07840    0.56600    0.56645    1.000
    C3       C        0.09600    0.43160    0.57842    1.000
    C4       C        0.18330    0.35410    0.66229    1.000
    C5       C        0.40710    0.26700    0.66344    1.000
    H2       H        0.49820    0.25140    0.60980    1.000
    C6       C        0.49750    0.20310    0.74248    1.000
    H3       H        0.65350    0.14640    0.74290    1.000
    C7       C        0.36010    0.22200    0.82110    1.000
    C8       C        0.12940    0.30340    0.81990    1.000
    H4       H        0.03030    0.31320    0.87300    1.000
    C9       C        0.04420    0.37040    0.74133    1.000
    H5       H        0.88950    0.42800    0.74120    1.000
    C10      C        0.46330    0.15790    0.90725    1.000
    C11      C        0.16170    0.64090    0.63402    1.000
    C12      C        0.39230    0.60150    0.67668    1.000
    H6       H        0.50580    0.53130    0.65900    1.000
    C13      C        0.45640    0.66420    0.74442    1.000
    H7       H        0.61300    0.63640    0.77340    1.000
    C14      C        0.29270    0.76790    0.77045    1.000
    C15      C        0.06750    0.81180    0.72538    1.000
    H8       H        0.95830    0.88460    0.74130    1.000
    C16      C        0.00440    0.74890    0.65753    1.000
    H9       H        0.85230    0.77940    0.62650    1.000
    C17      C        0.34780    0.82980    0.84798    1.000
    O1       O        0.30320    0.14919    0.97339    1.000
    O2       O        0.69850    0.12014    0.91005    1.000
    O3       O        0.18790    0.90735    0.87983    1.000
    O4       O        0.57640    0.79169    0.87877    1.000
    H10      H        0.59630    0.83040    0.92190    1.000
    C18      C        0.01880    0.36800    0.51206    1.000
    H11      H        0.03250    0.27680    0.52040    1.000
    C19      C        0.92160    0.43400    0.43355    1.000
    C20      C        0.90400    0.56840    0.42158    1.000
    C21      C        0.81670    0.64590    0.33771    1.000
    C22      C        0.59290    0.73300    0.33656    1.000
    H12      H        0.50180    0.74860    0.39020    1.000
    C23      C        0.50250    0.79690    0.25752    1.000
    H13      H        0.34650    0.85360    0.25710    1.000
    C24      C        0.63990    0.77800    0.17890    1.000
    C25      C        0.87060    0.69660    0.18010    1.000
    H14      H        0.96970    0.68680    0.12700    1.000
    C26      C        0.95580    0.62960    0.25867    1.000
    H15      H        0.11050    0.57200    0.25880    1.000
    C27      C        0.53670    0.84210    0.09275    1.000
    C28      C        0.83830    0.35910    0.36598    1.000
    C29      C        0.60770    0.39850    0.32332    1.000
    H16      H        0.49420    0.46870    0.34100    1.000
    C30      C        0.54360    0.33580    0.25558    1.000
    H17      H        0.38700    0.36360    0.22660    1.000
    C31      C        0.70730    0.23210    0.22955    1.000
    C32      C        0.93250    0.18820    0.27462    1.000
    H18      H        0.04170    0.11540    0.25870    1.000
    C33      C        0.99560    0.25110    0.34247    1.000
    H19      H        0.14770    0.22060    0.37350    1.000
    C34      C        0.65220    0.17020    0.15202    1.000
    O5       O        0.69680    0.85081    0.02661    1.000
    O6       O        0.30150    0.87986    0.08995    1.000
    O7       O        0.81210    0.09265    0.12017    1.000
    O8       O        0.42360    0.20831    0.12123    1.000
    H20      H        0.40370    0.16960    0.07810    1.000
    Ca1      Ca       0.00000    0.00000    0.00000    1.000
