data_functionalizedCrystal
_audit_creation_method	'EQeq! by Chris Wilmer'
_symmetry_space_group_name_H-M	'P1'
_symmetry_Int_Tables_number	1
_symmetry_cell_setting	triclinic
loop_
_symmetry_equiv_pos_as_xyz
  x,y,z
_cell_length_a	18.657
_cell_length_b	18.657
_cell_length_c	38.0533
_cell_angle_alpha	90
_cell_angle_beta	90
_cell_angle_gamma	120
loop_
_atom_site_label
_atom_site_type_symbol
_atom_site_fract_x
_atom_site_fract_y
_atom_site_fract_z
_atom_site_charge
Mof_O 	O 	0.81561	0.03828	0.16283	-0.407
Mof_O 	O 	0.77533	0.0777	0.21103	-0.411
Mof_C 	C 	0.78684	0.02722	0.19355	0.357
Mof_C 	C 	0.76538	0.947	0.21086	-0.086
Mof_C 	C 	0.73576	0.93197	0.24542	-0.018
Mof_H 	H 	0.7258	0.9702	0.2569	0.048
Mof_C 	C 	0.648	0.7677	0.31192	-0.406
Mof_C 	C 	0.7099	0.9119	0.32099	0.298
Mof_H 	H 	0.7375	0.967	0.3115	-0.072
Mof_H 	H 	0.6312	0.721	0.2962	0.159
Mof_N 	N 	0.68533	0.78637	0.35475	-0.294
Mof_O 	O 	0.48228	0.37161	0.49616	-0.407
Mof_O 	O 	0.442	0.41103	0.54436	-0.411
Mof_C 	C 	0.45351	0.36055	0.52688	0.358
Mof_C 	C 	0.43205	0.28033	0.54419	-0.087
Mof_C 	C 	0.40243	0.2653	0.57875	-0.017
Mof_H 	H 	0.39247	0.30353	0.59023	0.047
Mof_C 	C 	0.31467	0.10103	0.64525	-0.416
Mof_C 	C 	0.37657	0.24523	0.65432	0.289
Mof_H 	H 	0.40417	0.30033	0.64483	-0.069
Mof_H 	H 	0.29787	0.05433	0.62953	0.162
Mof_N 	N 	0.352	0.1197	0.68808	-0.297
Mof_O 	O 	0.14894	0.70495	0.8295	-0.407
Mof_O 	O 	0.10866	0.74437	0.8777	-0.411
Mof_C 	C 	0.12017	0.69389	0.86022	0.359
Mof_C 	C 	0.09871	0.61367	0.87753	-0.086
Mof_C 	C 	0.06909	0.59864	0.91209	-0.016
Mof_H 	H 	0.05913	0.63687	0.92357	0.048
Mof_C 	C 	0.98133	0.43437	0.97859	-0.406
Mof_C 	C 	0.04323	0.57857	0.98766	0.292
Mof_H 	H 	0.07083	0.63367	0.97817	-0.069
Mof_H 	H 	0.96453	0.38767	0.96287	0.16
Mof_N 	N 	0.01867	0.45303	0.02141	-0.293
Mof_O 	O 	0.96172	0.77733	0.16283	-0.406
Mof_O 	O 	0.9223	0.69763	0.21103	-0.41
Mof_C 	C 	0.97278	0.75962	0.19355	0.358
Mof_C 	C 	0.053	0.81838	0.21086	-0.085
Mof_C 	C 	0.06803	0.80379	0.24542	-0.018
Mof_H 	H 	0.0298	0.7556	0.2569	0.049
Mof_C 	C 	0.2323	0.8803	0.31192	-0.404
Mof_C 	C 	0.0881	0.798	0.32099	0.3
Mof_H 	H 	0.033	0.7705	0.3115	-0.071
Mof_H 	H 	0.279	0.9102	0.2962	0.159
Mof_N 	N 	0.21363	0.89897	0.35475	-0.293
Mof_O 	O 	0.62839	0.11066	0.49616	-0.406
Mof_O 	O 	0.58897	0.03096	0.54436	-0.41
Mof_C 	C 	0.63945	0.09295	0.52688	0.359
Mof_C 	C 	0.71967	0.15171	0.54419	-0.086
Mof_C 	C 	0.7347	0.13712	0.57875	-0.016
Mof_H 	H 	0.69647	0.08893	0.59023	0.048
Mof_C 	C 	0.89897	0.21363	0.64525	-0.416
Mof_C 	C 	0.75477	0.13133	0.65432	0.29
Mof_H 	H 	0.69967	0.10383	0.64483	-0.068
Mof_H 	H 	0.94567	0.24353	0.62953	0.163
Mof_N 	N 	0.8803	0.2323	0.68808	-0.296
Mof_O 	O 	0.29505	0.444	0.8295	-0.406
Mof_O 	O 	0.25563	0.3643	0.8777	-0.41
Mof_C 	C 	0.30611	0.42629	0.86022	0.358
Mof_C 	C 	0.38633	0.48505	0.87753	-0.086
Mof_C 	C 	0.40136	0.47046	0.91209	-0.017
Mof_H 	H 	0.36313	0.42227	0.92357	0.049
Mof_C 	C 	0.56563	0.54697	0.97859	-0.411
Mof_C 	C 	0.42143	0.46467	0.98766	0.295
Mof_H 	H 	0.36633	0.43717	0.97817	-0.07
Mof_H 	H 	0.61233	0.57687	0.96287	0.161
Mof_N 	N 	0.54697	0.56563	0.02141	-0.294
Mof_O 	O 	0.22267	0.18439	0.16283	-0.406
Mof_O 	O 	0.30237	0.22467	0.21103	-0.41
Mof_C 	C 	0.24038	0.21316	0.19355	0.358
Mof_C 	C 	0.18162	0.23462	0.21086	-0.085
Mof_C 	C 	0.19621	0.26424	0.24542	-0.017
Mof_H 	H 	0.2444	0.2742	0.2569	0.049
Mof_C 	C 	0.1197	0.352	0.31192	-0.405
Mof_C 	C 	0.202	0.2901	0.32099	0.299
Mof_H 	H 	0.2295	0.2625	0.3115	-0.071
Mof_H 	H 	0.0898	0.3688	0.2962	0.16
Mof_N 	N 	0.10103	0.31467	0.35475	-0.293
Mof_O 	O 	0.88934	0.51772	0.49616	-0.406
Mof_O 	O 	0.96904	0.558	0.54436	-0.41
Mof_C 	C 	0.90705	0.54649	0.52688	0.359
Mof_C 	C 	0.84829	0.56795	0.54419	-0.086
Mof_C 	C 	0.86288	0.59757	0.57875	-0.016
Mof_H 	H 	0.91107	0.60753	0.59023	0.048
Mof_C 	C 	0.78637	0.68533	0.64525	-0.415
Mof_C 	C 	0.86867	0.62343	0.65432	0.291
Mof_H 	H 	0.89617	0.59583	0.64483	-0.068
Mof_H 	H 	0.75647	0.70213	0.62953	0.163
Mof_N 	N 	0.7677	0.648	0.68808	-0.296
Mof_O 	O 	0.556	0.85106	0.8295	-0.406
Mof_O 	O 	0.6357	0.89134	0.8777	-0.41
Mof_C 	C 	0.57371	0.87983	0.86022	0.358
Mof_C 	C 	0.51495	0.90129	0.87753	-0.086
Mof_C 	C 	0.52954	0.93091	0.91209	-0.016
Mof_H 	H 	0.57773	0.94087	0.92357	0.049
Mof_C 	C 	0.45303	0.01867	0.97859	-0.406
Mof_C 	C 	0.53533	0.95677	0.98766	0.292
Mof_H 	H 	0.56283	0.92917	0.97817	-0.069
Mof_H 	H 	0.42313	0.03547	0.96287	0.16
Mof_N 	N 	0.43437	0.98133	0.02141	-0.293
Mof_O 	O 	0.03828	0.81561	0.83717	-0.406
Mof_O 	O 	0.0777	0.77533	0.78897	-0.41
Mof_C 	C 	0.02722	0.78684	0.80645	0.358
Mof_C 	C 	0.947	0.76538	0.78914	-0.085
Mof_C 	C 	0.93197	0.73576	0.75458	-0.019
Mof_H 	H 	0.9702	0.7258	0.7431	0.049
Mof_C 	C 	0.9119	0.7099	0.67901	0.29
Mof_H 	H 	0.967	0.7375	0.6885	-0.061
Mof_H 	H 	0.721	0.6312	0.7038	0.118
Mof_O 	O 	0.70495	0.14894	0.1705	-0.406
Mof_O 	O 	0.74437	0.10866	0.1223	-0.41
Mof_C 	C 	0.69389	0.12017	0.13978	0.358
Mof_C 	C 	0.61367	0.09871	0.12247	-0.085
Mof_C 	C 	0.59864	0.06909	0.08791	-0.018
Mof_H 	H 	0.63687	0.05913	0.07643	0.048
Mof_C 	C 	0.57857	0.04323	0.01234	0.289
Mof_H 	H 	0.63367	0.07083	0.02183	-0.061
Mof_H 	H 	0.38767	0.96453	0.03713	0.118
Mof_O 	O 	0.37161	0.48228	0.50384	-0.406
Mof_O 	O 	0.41103	0.442	0.45564	-0.41
Mof_C 	C 	0.36055	0.45351	0.47312	0.358
Mof_C 	C 	0.28033	0.43205	0.45581	-0.086
Mof_C 	C 	0.2653	0.40243	0.42125	-0.017
Mof_H 	H 	0.30353	0.39247	0.40977	0.048
Mof_C 	C 	0.24523	0.37657	0.34568	0.295
Mof_H 	H 	0.30033	0.40417	0.35517	-0.063
Mof_H 	H 	0.05433	0.29787	0.37047	0.118
Mof_O 	O 	0.77733	0.96172	0.83717	-0.406
Mof_O 	O 	0.69763	0.9223	0.78897	-0.41
Mof_C 	C 	0.75962	0.97278	0.80645	0.358
Mof_C 	C 	0.81838	0.053	0.78914	-0.084
Mof_C 	C 	0.80379	0.06803	0.75458	-0.019
Mof_H 	H 	0.7556	0.0298	0.7431	0.049
Mof_C 	C 	0.798	0.0881	0.67901	0.289
Mof_H 	H 	0.7705	0.033	0.6885	-0.061
Mof_H 	H 	0.9102	0.279	0.7038	0.118
Mof_O 	O 	0.444	0.29505	0.1705	-0.406
Mof_O 	O 	0.3643	0.25563	0.1223	-0.41
Mof_C 	C 	0.42629	0.30611	0.13978	0.358
Mof_C 	C 	0.48505	0.38633	0.12247	-0.085
Mof_C 	C 	0.47046	0.40136	0.08791	-0.018
Mof_H 	H 	0.42227	0.36313	0.07643	0.048
Mof_C 	C 	0.46467	0.42143	0.01234	0.293
Mof_H 	H 	0.43717	0.36633	0.02183	-0.062
Mof_H 	H 	0.57687	0.61233	0.03713	0.118
Mof_O 	O 	0.11066	0.62839	0.50384	-0.406
Mof_O 	O 	0.03096	0.58897	0.45564	-0.41
Mof_C 	C 	0.09295	0.63945	0.47312	0.358
Mof_C 	C 	0.15171	0.71967	0.45581	-0.086
Mof_C 	C 	0.13712	0.7347	0.42125	-0.017
Mof_H 	H 	0.08893	0.69647	0.40977	0.048
Mof_C 	C 	0.13133	0.75477	0.34568	0.296
Mof_H 	H 	0.10383	0.69967	0.35517	-0.063
Mof_H 	H 	0.24353	0.94567	0.37047	0.118
Mof_O 	O 	0.18439	0.22267	0.83717	-0.406
Mof_O 	O 	0.22467	0.30237	0.78897	-0.41
Mof_C 	C 	0.21316	0.24038	0.80645	0.358
Mof_C 	C 	0.23462	0.18162	0.78914	-0.085
Mof_C 	C 	0.26424	0.19621	0.75458	-0.019
Mof_H 	H 	0.2742	0.2444	0.7431	0.049
Mof_C 	C 	0.2901	0.202	0.67901	0.29
Mof_H 	H 	0.2625	0.2295	0.6885	-0.061
Mof_H 	H 	0.3688	0.0898	0.7038	0.118
Mof_O 	O 	0.85106	0.556	0.1705	-0.406
Mof_O 	O 	0.89134	0.6357	0.1223	-0.41
Mof_C 	C 	0.87983	0.57371	0.13978	0.358
Mof_C 	C 	0.90129	0.51495	0.12247	-0.085
Mof_C 	C 	0.93091	0.52954	0.08791	-0.018
Mof_H 	H 	0.94087	0.57773	0.07643	0.048
Mof_C 	C 	0.95677	0.53533	0.01234	0.289
Mof_H 	H 	0.92917	0.56283	0.02183	-0.061
Mof_H 	H 	0.03547	0.42313	0.03713	0.118
Mof_O 	O 	0.51772	0.88934	0.50384	-0.406
Mof_O 	O 	0.558	0.96904	0.45564	-0.41
Mof_C 	C 	0.54649	0.90705	0.47312	0.358
Mof_C 	C 	0.56795	0.84829	0.45581	-0.086
Mof_C 	C 	0.59757	0.86288	0.42125	-0.017
Mof_H 	H 	0.60753	0.91107	0.40977	0.048
Mof_C 	C 	0.62343	0.86867	0.34568	0.295
Mof_H 	H 	0.59583	0.89617	0.35517	-0.063
Mof_H 	H 	0.70213	0.75647	0.37047	0.118
Mof_O 	O 	0.18439	0.96172	0.83717	-0.406
Mof_O 	O 	0.22467	0.9223	0.78897	-0.41
Mof_C 	C 	0.21316	0.97278	0.80645	0.358
Mof_C 	C 	0.23462	0.053	0.78914	-0.085
Mof_C 	C 	0.26424	0.06803	0.75458	-0.017
Mof_H 	H 	0.2742	0.0298	0.7431	0.049
Mof_C 	C 	0.352	0.2323	0.68808	-0.405
Mof_C 	C 	0.2901	0.0881	0.67901	0.299
Mof_H 	H 	0.2625	0.033	0.6885	-0.071
Mof_H 	H 	0.3688	0.279	0.7038	0.16
Mof_N 	N 	0.31467	0.21363	0.64525	-0.293
Mof_O 	O 	0.85106	0.29505	0.1705	-0.406
Mof_O 	O 	0.89134	0.25563	0.1223	-0.41
Mof_C 	C 	0.87983	0.30611	0.13978	0.359
Mof_C 	C 	0.90129	0.38633	0.12247	-0.086
Mof_C 	C 	0.93091	0.40136	0.08791	-0.016
Mof_H 	H 	0.94087	0.36313	0.07643	0.048
Mof_C 	C 	0.01867	0.56563	0.02141	-0.406
Mof_C 	C 	0.95677	0.42143	0.01234	0.292
Mof_H 	H 	0.92917	0.36633	0.02183	-0.069
Mof_H 	H 	0.03547	0.61233	0.03713	0.16
Mof_N 	N 	0.98133	0.54697	0.97859	-0.293
Mof_O 	O 	0.51772	0.62839	0.50384	-0.406
Mof_O 	O 	0.558	0.58897	0.45564	-0.41
Mof_C 	C 	0.54649	0.63945	0.47312	0.359
Mof_C 	C 	0.56795	0.71967	0.45581	-0.086
Mof_C 	C 	0.59757	0.7347	0.42125	-0.016
Mof_H 	H 	0.60753	0.69647	0.40977	0.048
Mof_C 	C 	0.68533	0.89897	0.35475	-0.415
Mof_C 	C 	0.62343	0.75477	0.34568	0.29
Mof_H 	H 	0.59583	0.69967	0.35517	-0.068
Mof_H 	H 	0.70213	0.94567	0.37047	0.163
Mof_N 	N 	0.648	0.8803	0.31192	-0.296
Mof_O 	O 	0.03828	0.22267	0.83717	-0.406
Mof_O 	O 	0.0777	0.30237	0.78897	-0.41
Mof_C 	C 	0.02722	0.24038	0.80645	0.358
Mof_C 	C 	0.947	0.18162	0.78914	-0.085
Mof_C 	C 	0.93197	0.19621	0.75458	-0.018
Mof_H 	H 	0.9702	0.2444	0.7431	0.049
Mof_C 	C 	0.7677	0.1197	0.68808	-0.404
Mof_C 	C 	0.9119	0.202	0.67901	0.3
Mof_H 	H 	0.967	0.2295	0.6885	-0.071
Mof_H 	H 	0.721	0.0898	0.7038	0.159
Mof_N 	N 	0.78637	0.10103	0.64525	-0.293
Mof_O 	O 	0.70495	0.556	0.1705	-0.406
Mof_O 	O 	0.74437	0.6357	0.1223	-0.41
Mof_C 	C 	0.69389	0.57371	0.13978	0.358
Mof_C 	C 	0.61367	0.51495	0.12247	-0.086
Mof_C 	C 	0.59864	0.52954	0.08791	-0.017
Mof_H 	H 	0.63687	0.57773	0.07643	0.049
Mof_C 	C 	0.43437	0.45303	0.02141	-0.411
Mof_C 	C 	0.57857	0.53533	0.01234	0.295
Mof_H 	H 	0.63367	0.56283	0.02183	-0.07
Mof_H 	H 	0.38767	0.42313	0.03713	0.161
Mof_N 	N 	0.45303	0.43437	0.97859	-0.294
Mof_O 	O 	0.37161	0.88934	0.50384	-0.406
Mof_O 	O 	0.41103	0.96904	0.45564	-0.41
Mof_C 	C 	0.36055	0.90705	0.47312	0.359
Mof_C 	C 	0.28033	0.84829	0.45581	-0.086
Mof_C 	C 	0.2653	0.86288	0.42125	-0.016
Mof_H 	H 	0.30353	0.91107	0.40977	0.048
Mof_C 	C 	0.10103	0.78637	0.35475	-0.416
Mof_C 	C 	0.24523	0.86867	0.34568	0.29
Mof_H 	H 	0.30033	0.89617	0.35517	-0.068
Mof_H 	H 	0.05433	0.75647	0.37047	0.163
Mof_N 	N 	0.1197	0.7677	0.31192	-0.296
Mof_O 	O 	0.77733	0.81561	0.83717	-0.406
Mof_O 	O 	0.69763	0.77533	0.78897	-0.41
Mof_C 	C 	0.75962	0.78684	0.80645	0.358
Mof_C 	C 	0.81838	0.76538	0.78914	-0.085
Mof_C 	C 	0.80379	0.73576	0.75458	-0.017
Mof_H 	H 	0.7556	0.7258	0.7431	0.049
Mof_C 	C 	0.8803	0.648	0.68808	-0.405
Mof_C 	C 	0.798	0.7099	0.67901	0.299
Mof_H 	H 	0.7705	0.7375	0.6885	-0.071
Mof_H 	H 	0.9102	0.6312	0.7038	0.16
Mof_N 	N 	0.89897	0.68533	0.64525	-0.293
Mof_O 	O 	0.444	0.14894	0.1705	-0.406
Mof_O 	O 	0.3643	0.10866	0.1223	-0.41
Mof_C 	C 	0.42629	0.12017	0.13978	0.358
Mof_C 	C 	0.48505	0.09871	0.12247	-0.086
Mof_C 	C 	0.47046	0.06909	0.08791	-0.016
Mof_H 	H 	0.42227	0.05913	0.07643	0.049
Mof_C 	C 	0.54697	0.98133	0.02141	-0.406
Mof_C 	C 	0.46467	0.04323	0.01234	0.292
Mof_H 	H 	0.43717	0.07083	0.02183	-0.069
Mof_H 	H 	0.57687	0.96453	0.03713	0.16
Mof_N 	N 	0.56563	0.01867	0.97859	-0.293
Mof_O 	O 	0.11066	0.48228	0.50384	-0.406
Mof_O 	O 	0.03096	0.442	0.45564	-0.41
Mof_C 	C 	0.09295	0.45351	0.47312	0.359
Mof_C 	C 	0.15171	0.43205	0.45581	-0.086
Mof_C 	C 	0.13712	0.40243	0.42125	-0.016
Mof_H 	H 	0.08893	0.39247	0.40977	0.048
Mof_C 	C 	0.21363	0.31467	0.35475	-0.415
Mof_C 	C 	0.13133	0.37657	0.34568	0.291
Mof_H 	H 	0.10383	0.40417	0.35517	-0.068
Mof_H 	H 	0.24353	0.29787	0.37047	0.163
Mof_N 	N 	0.2323	0.352	0.31192	-0.296
Mof_O 	O 	0.96172	0.18439	0.16283	-0.406
Mof_O 	O 	0.9223	0.22467	0.21103	-0.41
Mof_C 	C 	0.97278	0.21316	0.19355	0.358
Mof_C 	C 	0.053	0.23462	0.21086	-0.085
Mof_C 	C 	0.06803	0.26424	0.24542	-0.019
Mof_H 	H 	0.0298	0.2742	0.2569	0.049
Mof_C 	C 	0.0881	0.2901	0.32099	0.29
Mof_H 	H 	0.033	0.2625	0.3115	-0.061
Mof_H 	H 	0.279	0.3688	0.2962	0.118
Mof_O 	O 	0.62839	0.51772	0.49616	-0.406
Mof_O 	O 	0.58897	0.558	0.54436	-0.41
Mof_C 	C 	0.63945	0.54649	0.52688	0.358
Mof_C 	C 	0.71967	0.56795	0.54419	-0.086
Mof_C 	C 	0.7347	0.59757	0.57875	-0.017
Mof_H 	H 	0.69647	0.60753	0.59023	0.048
Mof_C 	C 	0.75477	0.62343	0.65432	0.295
Mof_H 	H 	0.69967	0.59583	0.64483	-0.063
Mof_H 	H 	0.94567	0.70213	0.62953	0.118
Mof_O 	O 	0.29505	0.85106	0.8295	-0.406
Mof_O 	O 	0.25563	0.89134	0.8777	-0.41
Mof_C 	C 	0.30611	0.87983	0.86022	0.358
Mof_C 	C 	0.38633	0.90129	0.87753	-0.085
Mof_C 	C 	0.40136	0.93091	0.91209	-0.018
Mof_H 	H 	0.36313	0.94087	0.92357	0.048
Mof_C 	C 	0.42143	0.95677	0.98766	0.289
Mof_H 	H 	0.36633	0.92917	0.97817	-0.061
Mof_H 	H 	0.61233	0.03547	0.96287	0.118
Mof_O 	O 	0.22267	0.03828	0.16283	-0.406
Mof_O 	O 	0.30237	0.0777	0.21103	-0.41
Mof_C 	C 	0.24038	0.02722	0.19355	0.358
Mof_C 	C 	0.18162	0.947	0.21086	-0.084
Mof_C 	C 	0.19621	0.93197	0.24542	-0.019
Mof_H 	H 	0.2444	0.9702	0.2569	0.049
Mof_C 	C 	0.202	0.9119	0.32099	0.289
Mof_H 	H 	0.2295	0.967	0.3115	-0.061
Mof_H 	H 	0.0898	0.721	0.2962	0.118
Mof_O 	O 	0.88934	0.37161	0.49616	-0.406
Mof_O 	O 	0.96904	0.41103	0.54436	-0.41
Mof_C 	C 	0.90705	0.36055	0.52688	0.358
Mof_C 	C 	0.84829	0.28033	0.54419	-0.086
Mof_C 	C 	0.86288	0.2653	0.57875	-0.017
Mof_H 	H 	0.91107	0.30353	0.59023	0.048
Mof_C 	C 	0.86867	0.24523	0.65432	0.296
Mof_H 	H 	0.89617	0.30033	0.64483	-0.063
Mof_H 	H 	0.75647	0.05433	0.62953	0.118
Mof_O 	O 	0.556	0.70495	0.8295	-0.406
Mof_O 	O 	0.6357	0.74437	0.8777	-0.41
Mof_C 	C 	0.57371	0.69389	0.86022	0.358
Mof_C 	C 	0.51495	0.61367	0.87753	-0.085
Mof_C 	C 	0.52954	0.59864	0.91209	-0.018
Mof_H 	H 	0.57773	0.63687	0.92357	0.048
Mof_C 	C 	0.53533	0.57857	0.98766	0.293
Mof_H 	H 	0.56283	0.63367	0.97817	-0.062
Mof_H 	H 	0.42313	0.38767	0.96287	0.118
Mof_O 	O 	0.81561	0.77733	0.16283	-0.406
Mof_O 	O 	0.77533	0.69763	0.21103	-0.41
Mof_C 	C 	0.78684	0.75962	0.19355	0.358
Mof_C 	C 	0.76538	0.81838	0.21086	-0.085
Mof_C 	C 	0.73576	0.80379	0.24542	-0.019
Mof_H 	H 	0.7258	0.7556	0.2569	0.049
Mof_C 	C 	0.7099	0.798	0.32099	0.29
Mof_H 	H 	0.7375	0.7705	0.3115	-0.061
Mof_H 	H 	0.6312	0.9102	0.2962	0.118
Mof_O 	O 	0.48228	0.11066	0.49616	-0.406
Mof_O 	O 	0.442	0.03096	0.54436	-0.41
Mof_C 	C 	0.45351	0.09295	0.52688	0.358
Mof_C 	C 	0.43205	0.15171	0.54419	-0.086
Mof_C 	C 	0.40243	0.13712	0.57875	-0.017
Mof_H 	H 	0.39247	0.08893	0.59023	0.048
Mof_C 	C 	0.37657	0.13133	0.65432	0.295
Mof_H 	H 	0.40417	0.10383	0.64483	-0.063
Mof_H 	H 	0.29787	0.24353	0.62953	0.118
Mof_O 	O 	0.14894	0.444	0.8295	-0.406
Mof_O 	O 	0.10866	0.3643	0.8777	-0.41
Mof_C 	C 	0.12017	0.42629	0.86022	0.358
Mof_C 	C 	0.09871	0.48505	0.87753	-0.085
Mof_C 	C 	0.06909	0.47046	0.91209	-0.018
Mof_H 	H 	0.05913	0.42227	0.92357	0.048
Mof_C 	C 	0.04323	0.46467	0.98766	0.289
Mof_H 	H 	0.07083	0.43717	0.97817	-0.061
Mof_H 	H 	0.96453	0.57687	0.96287	0.118
Mof_Cu	Cu	0.85682	0.14318	0.13801	0.906
Mof_Cu	Cu	0.52349	0.47651	0.47134	0.906
Mof_Cu	Cu	0.19016	0.80984	0.80468	0.906
Mof_Cu	Cu	0.85682	0.71365	0.13801	0.906
Mof_Cu	Cu	0.52349	0.04698	0.47134	0.906
Mof_Cu	Cu	0.19016	0.38032	0.80468	0.906
Mof_Cu	Cu	0.28635	0.14318	0.13801	0.906
Mof_Cu	Cu	0.95302	0.47651	0.47134	0.906
Mof_Cu	Cu	0.61968	0.80984	0.80468	0.906
Mof_Cu	Cu	0.14318	0.85682	0.86199	0.906
Mof_Cu	Cu	0.80984	0.19016	0.19532	0.906
Mof_Cu	Cu	0.47651	0.52349	0.52866	0.906
Mof_Cu	Cu	0.71365	0.85682	0.86199	0.906
Mof_Cu	Cu	0.38032	0.19016	0.19532	0.906
Mof_Cu	Cu	0.04698	0.52349	0.52866	0.906
Mof_Cu	Cu	0.14318	0.28635	0.86199	0.906
Mof_Cu	Cu	0.80984	0.61968	0.19532	0.906
Mof_Cu	Cu	0.47651	0.95302	0.52866	0.906
Mof_C 	C 	0.77964	0.88982	0.19391	0.027
Mof_H 	H 	0.799	0.8995	0.1709	0.052
Mof_C 	C 	0.72122	0.86061	0.2627	-0.007
Mof_C 	C 	0.6921	0.84605	0.2997	0.016
Mof_C 	C 	0.44631	0.22315	0.52724	0.028
Mof_H 	H 	0.46567	0.23283	0.50423	0.051
Mof_C 	C 	0.38789	0.19394	0.59603	-0.009
Mof_C 	C 	0.35877	0.17938	0.63303	0.02
Mof_C 	C 	0.11297	0.55649	0.86058	0.028
Mof_H 	H 	0.13233	0.56617	0.83757	0.051
Mof_C 	C 	0.05455	0.52728	0.92937	-0.008
Mof_C 	C 	0.02543	0.51272	0.96637	0.018
Mof_C 	C 	0.11018	0.88982	0.19391	0.027
Mof_H 	H 	0.1005	0.8995	0.1709	0.052
Mof_C 	C 	0.13939	0.86061	0.2627	-0.006
Mof_C 	C 	0.15395	0.84605	0.2997	0.015
Mof_C 	C 	0.77685	0.22315	0.52724	0.028
Mof_H 	H 	0.76717	0.23283	0.50423	0.051
Mof_C 	C 	0.80606	0.19394	0.59603	-0.009
Mof_C 	C 	0.82062	0.17938	0.63303	0.02
Mof_C 	C 	0.44351	0.55649	0.86058	0.028
Mof_H 	H 	0.43383	0.56617	0.83757	0.051
Mof_C 	C 	0.47272	0.52728	0.92937	-0.008
Mof_C 	C 	0.48728	0.51272	0.96637	0.018
Mof_C 	C 	0.11018	0.22036	0.19391	0.027
Mof_H 	H 	0.1005	0.201	0.1709	0.052
Mof_C 	C 	0.13939	0.27878	0.2627	-0.007
Mof_C 	C 	0.15395	0.3079	0.2997	0.016
Mof_C 	C 	0.77685	0.55369	0.52724	0.028
Mof_H 	H 	0.76717	0.53433	0.50423	0.051
Mof_C 	C 	0.80606	0.61211	0.59603	-0.009
Mof_C 	C 	0.82062	0.64123	0.63303	0.02
Mof_C 	C 	0.44351	0.88703	0.86058	0.028
Mof_H 	H 	0.43383	0.86767	0.83757	0.051
Mof_C 	C 	0.47272	0.94545	0.92937	-0.008
Mof_C 	C 	0.48728	0.97457	0.96637	0.018
Mof_C 	C 	0.88982	0.77964	0.80609	0.027
Mof_H 	H 	0.8995	0.799	0.8291	0.052
Mof_C 	C 	0.86061	0.72122	0.7373	-0.007
Mof_C 	C 	0.84605	0.6921	0.7003	0.016
Mof_C 	C 	0.55649	0.11297	0.13942	0.028
Mof_H 	H 	0.56617	0.13233	0.16243	0.051
Mof_C 	C 	0.52728	0.05455	0.07063	-0.008
Mof_C 	C 	0.51272	0.02543	0.03363	0.018
Mof_C 	C 	0.22315	0.44631	0.47276	0.028
Mof_H 	H 	0.23283	0.46567	0.49577	0.051
Mof_C 	C 	0.19394	0.38789	0.40397	-0.009
Mof_C 	C 	0.17938	0.35877	0.36697	0.02
Mof_C 	C 	0.88982	0.11018	0.80609	0.027
Mof_H 	H 	0.8995	0.1005	0.8291	0.052
Mof_C 	C 	0.86061	0.13939	0.7373	-0.006
Mof_C 	C 	0.84605	0.15395	0.7003	0.015
Mof_C 	C 	0.55649	0.44351	0.13942	0.028
Mof_H 	H 	0.56617	0.43383	0.16243	0.051
Mof_C 	C 	0.52728	0.47272	0.07063	-0.008
Mof_C 	C 	0.51272	0.48728	0.03363	0.018
Mof_C 	C 	0.22315	0.77685	0.47276	0.028
Mof_H 	H 	0.23283	0.76717	0.49577	0.051
Mof_C 	C 	0.19394	0.80606	0.40397	-0.009
Mof_C 	C 	0.17938	0.82062	0.36697	0.02
Mof_C 	C 	0.22036	0.11018	0.80609	0.027
Mof_H 	H 	0.201	0.1005	0.8291	0.052
Mof_C 	C 	0.27878	0.13939	0.7373	-0.007
Mof_C 	C 	0.3079	0.15395	0.7003	0.016
Mof_C 	C 	0.88703	0.44351	0.13942	0.028
Mof_H 	H 	0.86767	0.43383	0.16243	0.051
Mof_C 	C 	0.94545	0.47272	0.07063	-0.008
Mof_C 	C 	0.97457	0.48728	0.03363	0.018
Mof_C 	C 	0.55369	0.77685	0.47276	0.028
Mof_H 	H 	0.53433	0.76717	0.49577	0.051
Mof_C 	C 	0.61211	0.80606	0.40397	-0.009
Mof_C 	C 	0.64123	0.82062	0.36697	0.02
_end
