data_functionalizedCrystal
_audit_creation_method	'EQeq! by Chris Wilmer'
_symmetry_space_group_name_H-M	'P1'
_symmetry_Int_Tables_number	1
_symmetry_cell_setting	triclinic
loop_
_symmetry_equiv_pos_as_xyz
  x,y,z
_cell_length_a	14.3286
_cell_length_b	14.3286
_cell_length_c	14.3286
_cell_angle_alpha	90
_cell_angle_beta	90
_cell_angle_gamma	90
loop_
_atom_site_label
_atom_site_type_symbol
_atom_site_fract_x
_atom_site_fract_y
_atom_site_fract_z
_atom_site_charge
Mof_O 	O 	0.9297	0.5762	0.2844	-0.667
Mof_O 	O 	0.8094	0.6187	0.196	-0.552
Mof_C 	C 	0.8977	0.4868	0.1487	-0.198
Mof_C 	C 	0.9695	0.433	0.1656	0.066
Mof_C 	C 	0.8828	0.567	0.2201	0.478
Mof_O 	O 	0.5703	0.4238	0.7844	-0.668
Mof_O 	O 	0.6906	0.3813	0.696	-0.553
Mof_C 	C 	0.6023	0.5132	0.6487	-0.2
Mof_C 	C 	0.5305	0.567	0.6656	0.065
Mof_C 	C 	0.6172	0.433	0.7201	0.478
Mof_O 	O 	0.0703	0.0762	0.2156	-0.668
Mof_O 	O 	0.1906	0.1187	0.304	-0.553
Mof_C 	C 	0.1023	0.9868	0.3513	-0.198
Mof_C 	C 	0.0305	0.933	0.3344	0.065
Mof_C 	C 	0.1172	0.067	0.2799	0.478
Mof_O 	O 	0.4297	0.9238	0.7156	-0.668
Mof_O 	O 	0.3094	0.8813	0.804	-0.553
Mof_C 	C 	0.3977	0.0132	0.8513	-0.198
Mof_C 	C 	0.4695	0.067	0.8344	0.065
Mof_C 	C 	0.3828	0.933	0.7799	0.477
Mof_O 	O 	0.2844	0.9297	0.5762	-0.668
Mof_O 	O 	0.196	0.8094	0.6187	-0.553
Mof_C 	C 	0.1487	0.8977	0.4868	-0.199
Mof_C 	C 	0.1656	0.9695	0.433	0.065
Mof_C 	C 	0.2201	0.8828	0.567	0.478
Mof_O 	O 	0.7844	0.5703	0.4238	-0.668
Mof_O 	O 	0.696	0.6906	0.3813	-0.553
Mof_C 	C 	0.6487	0.6023	0.5132	-0.2
Mof_C 	C 	0.6656	0.5305	0.567	0.065
Mof_C 	C 	0.7201	0.6172	0.433	0.478
Mof_O 	O 	0.2156	0.0703	0.0762	-0.668
Mof_O 	O 	0.304	0.1906	0.1187	-0.553
Mof_C 	C 	0.3513	0.1023	0.9868	-0.198
Mof_C 	C 	0.3344	0.0305	0.933	0.065
Mof_C 	C 	0.2799	0.1172	0.067	0.478
Mof_O 	O 	0.7156	0.4297	0.9238	-0.668
Mof_O 	O 	0.804	0.3094	0.8813	-0.553
Mof_C 	C 	0.8513	0.3977	0.0132	-0.198
Mof_C 	C 	0.8344	0.4695	0.067	0.065
Mof_C 	C 	0.7799	0.3828	0.933	0.477
Mof_O 	O 	0.5762	0.2844	0.9297	-0.668
Mof_O 	O 	0.6187	0.196	0.8094	-0.553
Mof_C 	C 	0.4868	0.1487	0.8977	-0.199
Mof_C 	C 	0.433	0.1656	0.9695	0.065
Mof_C 	C 	0.567	0.2201	0.8828	0.478
Mof_O 	O 	0.4238	0.7844	0.5703	-0.668
Mof_O 	O 	0.3813	0.696	0.6906	-0.553
Mof_C 	C 	0.5132	0.6487	0.6023	-0.2
Mof_C 	C 	0.567	0.6656	0.5305	0.065
Mof_C 	C 	0.433	0.7201	0.6172	0.478
Mof_O 	O 	0.0762	0.2156	0.0703	-0.668
Mof_O 	O 	0.1187	0.304	0.1906	-0.553
Mof_C 	C 	0.9868	0.3513	0.1023	-0.198
Mof_C 	C 	0.933	0.3344	0.0305	0.065
Mof_C 	C 	0.067	0.2799	0.1172	0.478
Mof_O 	O 	0.9238	0.7156	0.4297	-0.668
Mof_O 	O 	0.8813	0.804	0.3094	-0.553
Mof_C 	C 	0.0132	0.8513	0.3977	-0.198
Mof_C 	C 	0.067	0.8344	0.4695	0.065
Mof_C 	C 	0.933	0.7799	0.3828	0.477
Mof_Zn	Zn	0.77761	0.72239	0.27761	1.182
Mof_Mg	Mg	0.9247	0.5753	0.4247	1.448
Mof_Zn	Zn	0.72239	0.27761	0.77761	1.182
Mof_Mg	Mg	0.5753	0.4247	0.9247	1.448
Mof_Zn	Zn	0.22239	0.22239	0.22239	1.182
Mof_Mg	Mg	0.0753	0.0753	0.0753	1.448
Mof_Zn	Zn	0.27761	0.77761	0.72239	1.182
Mof_Mg	Mg	0.4247	0.9247	0.5753	1.448
_end
