data_functionalizedCrystal
_audit_creation_method	'EQeq! by Chris Wilmer'
_symmetry_space_group_name_H-M	'P1'
_symmetry_Int_Tables_number	1
_symmetry_cell_setting	triclinic
loop_
_symmetry_equiv_pos_as_xyz
  x,y,z
_cell_length_a	18.4369
_cell_length_b	11.4119
_cell_length_c	18.9643
_cell_angle_alpha	90
_cell_angle_beta	108.265
_cell_angle_gamma	90
loop_
_atom_site_label
_atom_site_type_symbol
_atom_site_fract_x
_atom_site_fract_y
_atom_site_fract_z
_atom_site_charge
Mof_C 	C 	0.89749	0.8284	0.92741	0.573
Mof_C 	C 	0.83017	0.7535	0.8898	-0.242
Mof_C 	C 	0.79267	0.698	0.93355	0.061
Mof_H 	H 	0.8136	0.7018	0.9849	-0.002
Mof_C 	C 	0.72581	0.638	0.90322	-0.045
Mof_H 	H 	0.7012	0.6029	0.9338	0.015
Mof_C 	C 	0.69487	0.6297	0.82627	-0.126
Mof_C 	C 	0.7329	0.6797	0.78174	-0.104
Mof_H 	H 	0.7133	0.6709	0.7305	0.064
Mof_C 	C 	0.8002	0.7431	0.8121	0.183
Mof_C 	C 	0.6195	0.5698	0.792	0.521
Mof_C 	C 	0.88328	0.1552	0.97056	0.494
Mof_C 	C 	0.81481	0.2062	0.98583	-0.167
Mof_C 	C 	0.79081	0.1599	0.04206	-0.159
Mof_H 	H 	0.818	0.099	0.068	0.086
Mof_C 	C 	0.7692	0.299	0.9463	0.22
Mof_N 	N 	0.7942	0.3566	0.8879	0.594
Mof_H 	H 	0.83	0.335	0.872	-0.035
Mof_H 	H 	0.782	0.427	0.876	-0.133
Mof_N 	N 	0.8334	0.7904	0.763	-0.314
Mof_H 	H 	0.81	0.803	0.7158	0.133
Mof_H 	H 	0.868	0.844	0.777	0.158
Mof_O 	O 	0.92405	0.8938	0.88821	-0.628
Mof_O 	O 	0.92353	0.8236	0.99705	-0.643
Mof_O 	O 	0.58899	0.5215	0.83579	-0.658
Mof_O 	O 	0.59146	0.5692	0.72353	-0.636
Mof_O 	O 	0.92004	0.0729	0.00972	-0.664
Mof_O 	O 	0.90151	0.1946	0.91676	-0.568
Mof_Pr	Pr	0.00061	0.06544	0.89836	2.57
Mof_C 	C 	0.7784	0.301	0.9403	0.055
Mof_H 	H 	0.7957	0.334	0.9038	-0.6
Mof_C 	C 	0.39749	0.3284	0.92741	0.576
Mof_C 	C 	0.33017	0.2535	0.8898	-0.247
Mof_C 	C 	0.29267	0.198	0.93355	0.062
Mof_H 	H 	0.3136	0.2018	0.9849	-0.007
Mof_C 	C 	0.22581	0.138	0.90322	-0.048
Mof_H 	H 	0.2012	0.1029	0.9338	0.012
Mof_C 	C 	0.19487	0.1297	0.82627	-0.126
Mof_C 	C 	0.2329	0.1797	0.78174	-0.106
Mof_H 	H 	0.2133	0.1709	0.7305	0.064
Mof_C 	C 	0.3002	0.2431	0.8121	0.183
Mof_C 	C 	0.1195	0.0698	0.792	0.52
Mof_C 	C 	0.38328	0.6552	0.97056	0.497
Mof_C 	C 	0.31481	0.7062	0.98583	-0.169
Mof_C 	C 	0.29081	0.6599	0.04206	-0.157
Mof_H 	H 	0.318	0.599	0.068	0.084
Mof_C 	C 	0.2692	0.799	0.9463	0.22
Mof_N 	N 	0.2942	0.8566	0.8879	0.593
Mof_H 	H 	0.33	0.835	0.872	-0.035
Mof_H 	H 	0.282	0.927	0.876	-0.132
Mof_N 	N 	0.3334	0.2904	0.763	-0.314
Mof_H 	H 	0.31	0.303	0.7158	0.132
Mof_H 	H 	0.368	0.344	0.777	0.157
Mof_O 	O 	0.42405	0.3938	0.88821	-0.638
Mof_O 	O 	0.42353	0.3236	0.99705	-0.656
Mof_O 	O 	0.08899	0.0215	0.83579	-0.658
Mof_O 	O 	0.09146	0.0692	0.72353	-0.638
Mof_O 	O 	0.42004	0.5729	0.00972	-0.669
Mof_O 	O 	0.40151	0.6946	0.91676	-0.572
Mof_Pr	Pr	0.50061	0.56544	0.89836	2.601
Mof_C 	C 	0.2784	0.801	0.9403	0.056
Mof_H 	H 	0.2957	0.834	0.9038	-0.6
Mof_C 	C 	0.10251	0.8284	0.57259	0.576
Mof_C 	C 	0.16983	0.7535	0.6102	-0.246
Mof_C 	C 	0.20733	0.698	0.56645	0.063
Mof_H 	H 	0.1864	0.7018	0.5151	-0.004
Mof_C 	C 	0.27419	0.638	0.59678	-0.047
Mof_H 	H 	0.2988	0.6029	0.5662	0.015
Mof_C 	C 	0.30513	0.6297	0.67373	-0.125
Mof_C 	C 	0.2671	0.6797	0.71826	-0.106
Mof_H 	H 	0.2867	0.6709	0.7695	0.064
Mof_C 	C 	0.1998	0.7431	0.6879	0.184
Mof_C 	C 	0.3805	0.5698	0.708	0.52
Mof_C 	C 	0.11672	0.1552	0.52944	0.498
Mof_C 	C 	0.18519	0.2062	0.51417	-0.168
Mof_C 	C 	0.20919	0.1599	0.45794	-0.157
Mof_H 	H 	0.182	0.099	0.432	0.084
Mof_C 	C 	0.2308	0.299	0.5537	0.22
Mof_N 	N 	0.2058	0.3566	0.6121	0.593
Mof_H 	H 	0.17	0.335	0.628	-0.035
Mof_H 	H 	0.218	0.427	0.624	-0.133
Mof_N 	N 	0.1666	0.7904	0.737	-0.314
Mof_H 	H 	0.19	0.803	0.7842	0.133
Mof_H 	H 	0.132	0.844	0.723	0.158
Mof_O 	O 	0.07595	0.8938	0.61179	-0.638
Mof_O 	O 	0.07647	0.8236	0.50295	-0.654
Mof_O 	O 	0.41101	0.5215	0.66421	-0.658
Mof_O 	O 	0.40854	0.5692	0.77647	-0.636
Mof_O 	O 	0.07996	0.0729	0.49028	-0.67
Mof_O 	O 	0.09849	0.1946	0.58324	-0.574
Mof_Pr	Pr	0.99939	0.06544	0.60164	2.612
Mof_C 	C 	0.2216	0.301	0.5597	0.056
Mof_H 	H 	0.2043	0.334	0.5962	-0.599
Mof_C 	C 	0.60251	0.3284	0.57259	0.575
Mof_C 	C 	0.66983	0.2535	0.6102	-0.246
Mof_C 	C 	0.70733	0.198	0.56645	0.063
Mof_H 	H 	0.6864	0.2018	0.5151	-0.005
Mof_C 	C 	0.77419	0.138	0.59678	-0.047
Mof_H 	H 	0.7988	0.1029	0.5662	0.014
Mof_C 	C 	0.80513	0.1297	0.67373	-0.125
Mof_C 	C 	0.7671	0.1797	0.71826	-0.106
Mof_H 	H 	0.7867	0.1709	0.7695	0.064
Mof_C 	C 	0.6998	0.2431	0.6879	0.183
Mof_C 	C 	0.8805	0.0698	0.708	0.519
Mof_C 	C 	0.61672	0.6552	0.52944	0.497
Mof_C 	C 	0.68519	0.7062	0.51417	-0.167
Mof_C 	C 	0.70919	0.6599	0.45794	-0.157
Mof_H 	H 	0.682	0.599	0.432	0.084
Mof_C 	C 	0.7308	0.799	0.5537	0.22
Mof_N 	N 	0.7058	0.8566	0.6121	0.593
Mof_H 	H 	0.67	0.835	0.628	-0.035
Mof_H 	H 	0.718	0.927	0.624	-0.133
Mof_N 	N 	0.6666	0.2904	0.737	-0.314
Mof_H 	H 	0.69	0.303	0.7842	0.132
Mof_H 	H 	0.632	0.344	0.723	0.157
Mof_O 	O 	0.57595	0.3938	0.61179	-0.637
Mof_O 	O 	0.57647	0.3236	0.50295	-0.653
Mof_O 	O 	0.91101	0.0215	0.66421	-0.658
Mof_O 	O 	0.90854	0.0692	0.77647	-0.632
Mof_O 	O 	0.57996	0.5729	0.49028	-0.668
Mof_O 	O 	0.59849	0.6946	0.58324	-0.572
Mof_Pr	Pr	0.49939	0.56544	0.60164	2.598
Mof_C 	C 	0.7216	0.801	0.5597	0.056
Mof_H 	H 	0.7043	0.834	0.5962	-0.599
Mof_C 	C 	0.10251	0.1716	0.07259	0.572
Mof_C 	C 	0.16983	0.2465	0.1102	-0.243
Mof_C 	C 	0.20733	0.302	0.06645	0.061
Mof_H 	H 	0.1864	0.2982	0.0151	-0.002
Mof_C 	C 	0.27419	0.362	0.09678	-0.045
Mof_H 	H 	0.2988	0.3971	0.0662	0.015
Mof_C 	C 	0.30513	0.3703	0.17373	-0.126
Mof_C 	C 	0.2671	0.3203	0.21826	-0.104
Mof_H 	H 	0.2867	0.3291	0.2695	0.064
Mof_C 	C 	0.1998	0.2569	0.1879	0.183
Mof_C 	C 	0.3805	0.4302	0.208	0.521
Mof_C 	C 	0.11672	0.8448	0.02944	0.494
Mof_C 	C 	0.18519	0.7938	0.01417	-0.167
Mof_C 	C 	0.20919	0.8401	0.95794	-0.159
Mof_H 	H 	0.182	0.901	0.932	0.086
Mof_C 	C 	0.2308	0.701	0.0537	0.22
Mof_N 	N 	0.2058	0.6434	0.1121	0.594
Mof_H 	H 	0.17	0.665	0.128	-0.035
Mof_H 	H 	0.218	0.573	0.124	-0.133
Mof_N 	N 	0.1666	0.2096	0.237	-0.314
Mof_H 	H 	0.19	0.197	0.2842	0.133
Mof_H 	H 	0.132	0.156	0.223	0.158
Mof_O 	O 	0.07595	0.1062	0.11179	-0.628
Mof_O 	O 	0.07647	0.1764	0.00295	-0.643
Mof_O 	O 	0.41101	0.4785	0.16421	-0.658
Mof_O 	O 	0.40854	0.4308	0.27647	-0.636
Mof_O 	O 	0.07996	0.9271	0.99028	-0.664
Mof_O 	O 	0.09849	0.8054	0.08324	-0.568
Mof_Pr	Pr	0.99939	0.93456	0.10164	2.57
Mof_C 	C 	0.2216	0.699	0.0597	0.055
Mof_H 	H 	0.2043	0.666	0.0962	-0.6
Mof_C 	C 	0.60251	0.6716	0.07259	0.576
Mof_C 	C 	0.66983	0.7465	0.1102	-0.247
Mof_C 	C 	0.70733	0.802	0.06645	0.062
Mof_H 	H 	0.6864	0.7982	0.0151	-0.007
Mof_C 	C 	0.77419	0.862	0.09678	-0.048
Mof_H 	H 	0.7988	0.8971	0.0662	0.012
Mof_C 	C 	0.80513	0.8703	0.17373	-0.126
Mof_C 	C 	0.7671	0.8203	0.21826	-0.106
Mof_H 	H 	0.7867	0.8291	0.2695	0.064
Mof_C 	C 	0.6998	0.7569	0.1879	0.183
Mof_C 	C 	0.8805	0.9302	0.208	0.52
Mof_C 	C 	0.61672	0.3448	0.02944	0.497
Mof_C 	C 	0.68519	0.2938	0.01417	-0.169
Mof_C 	C 	0.70919	0.3401	0.95794	-0.157
Mof_H 	H 	0.682	0.401	0.932	0.084
Mof_C 	C 	0.7308	0.201	0.0537	0.22
Mof_N 	N 	0.7058	0.1434	0.1121	0.593
Mof_H 	H 	0.67	0.165	0.128	-0.035
Mof_H 	H 	0.718	0.073	0.124	-0.132
Mof_N 	N 	0.6666	0.7096	0.237	-0.314
Mof_H 	H 	0.69	0.697	0.2842	0.132
Mof_H 	H 	0.632	0.656	0.223	0.157
Mof_O 	O 	0.57595	0.6062	0.11179	-0.638
Mof_O 	O 	0.57647	0.6764	0.00295	-0.656
Mof_O 	O 	0.91101	0.9785	0.16421	-0.658
Mof_O 	O 	0.90854	0.9308	0.27647	-0.638
Mof_O 	O 	0.57996	0.4271	0.99028	-0.669
Mof_O 	O 	0.59849	0.3054	0.08324	-0.572
Mof_Pr	Pr	0.49939	0.43456	0.10164	2.601
Mof_C 	C 	0.7216	0.199	0.0597	0.056
Mof_H 	H 	0.7043	0.166	0.0962	-0.6
Mof_C 	C 	0.89749	0.1716	0.42741	0.576
Mof_C 	C 	0.83017	0.2465	0.3898	-0.246
Mof_C 	C 	0.79267	0.302	0.43355	0.063
Mof_H 	H 	0.8136	0.2982	0.4849	-0.004
Mof_C 	C 	0.72581	0.362	0.40322	-0.047
Mof_H 	H 	0.7012	0.3971	0.4338	0.015
Mof_C 	C 	0.69487	0.3703	0.32627	-0.125
Mof_C 	C 	0.7329	0.3203	0.28174	-0.106
Mof_H 	H 	0.7133	0.3291	0.2305	0.064
Mof_C 	C 	0.8002	0.2569	0.3121	0.184
Mof_C 	C 	0.6195	0.4302	0.292	0.52
Mof_C 	C 	0.88328	0.8448	0.47056	0.498
Mof_C 	C 	0.81481	0.7938	0.48583	-0.168
Mof_C 	C 	0.79081	0.8401	0.54206	-0.157
Mof_H 	H 	0.818	0.901	0.568	0.084
Mof_C 	C 	0.7692	0.701	0.4463	0.22
Mof_N 	N 	0.7942	0.6434	0.3879	0.593
Mof_H 	H 	0.83	0.665	0.372	-0.035
Mof_H 	H 	0.782	0.573	0.376	-0.133
Mof_N 	N 	0.8334	0.2096	0.263	-0.314
Mof_H 	H 	0.81	0.197	0.2158	0.133
Mof_H 	H 	0.868	0.156	0.277	0.158
Mof_O 	O 	0.92405	0.1062	0.38821	-0.638
Mof_O 	O 	0.92353	0.1764	0.49705	-0.654
Mof_O 	O 	0.58899	0.4785	0.33579	-0.658
Mof_O 	O 	0.59146	0.4308	0.22353	-0.636
Mof_O 	O 	0.92004	0.9271	0.50972	-0.67
Mof_O 	O 	0.90151	0.8054	0.41676	-0.574
Mof_Pr	Pr	0.00061	0.93456	0.39836	2.612
Mof_C 	C 	0.7784	0.699	0.4403	0.056
Mof_H 	H 	0.7957	0.666	0.4038	-0.599
Mof_C 	C 	0.39749	0.6716	0.42741	0.575
Mof_C 	C 	0.33017	0.7465	0.3898	-0.246
Mof_C 	C 	0.29267	0.802	0.43355	0.063
Mof_H 	H 	0.3136	0.7982	0.4849	-0.005
Mof_C 	C 	0.22581	0.862	0.40322	-0.047
Mof_H 	H 	0.2012	0.8971	0.4338	0.014
Mof_C 	C 	0.19487	0.8703	0.32627	-0.125
Mof_C 	C 	0.2329	0.8203	0.28174	-0.106
Mof_H 	H 	0.2133	0.8291	0.2305	0.064
Mof_C 	C 	0.3002	0.7569	0.3121	0.183
Mof_C 	C 	0.1195	0.9302	0.292	0.519
Mof_C 	C 	0.38328	0.3448	0.47056	0.497
Mof_C 	C 	0.31481	0.2938	0.48583	-0.167
Mof_C 	C 	0.29081	0.3401	0.54206	-0.157
Mof_H 	H 	0.318	0.401	0.568	0.084
Mof_C 	C 	0.2692	0.201	0.4463	0.22
Mof_N 	N 	0.2942	0.1434	0.3879	0.593
Mof_H 	H 	0.33	0.165	0.372	-0.035
Mof_H 	H 	0.282	0.073	0.376	-0.133
Mof_N 	N 	0.3334	0.7096	0.263	-0.314
Mof_H 	H 	0.31	0.697	0.2158	0.132
Mof_H 	H 	0.368	0.656	0.277	0.157
Mof_O 	O 	0.42405	0.6062	0.38821	-0.637
Mof_O 	O 	0.42353	0.6764	0.49705	-0.653
Mof_O 	O 	0.08899	0.9785	0.33579	-0.658
Mof_O 	O 	0.09146	0.9308	0.22353	-0.632
Mof_O 	O 	0.42004	0.4271	0.50972	-0.668
Mof_O 	O 	0.40151	0.3054	0.41676	-0.572
Mof_Pr	Pr	0.50061	0.43456	0.39836	2.598
Mof_C 	C 	0.2784	0.199	0.4403	0.056
Mof_H 	H 	0.2957	0.166	0.4038	-0.599
_end
