# CIF file generated by openbabel 3.1.0, see https://openbabel.org
data_I
_chemical_name_common 'image0'
_cell_length_a 7.2891
_cell_length_b 7.2891
_cell_length_c 8.047
_cell_angle_alpha 90
_cell_angle_beta 90
_cell_angle_gamma 120
_space_group_name_H-M_alt 'P 1'
_space_group_name_Hall 'P 1'
loop_
    _symmetry_equiv_pos_as_xyz
    x,y,z
loop_
    _atom_site_label
    _atom_site_type_symbol
    _atom_site_fract_x
    _atom_site_fract_y
    _atom_site_fract_z
    _atom_site_occupancy
    O1       O        0.69030    0.11070    0.10610    1.000
    O2       O        0.88930    0.57960    0.10610    1.000
    O3       O        0.42040    0.30970    0.10610    1.000
    O4       O        0.30970    0.88930    0.60610    1.000
    O5       O        0.11070    0.42040    0.60610    1.000
    O6       O        0.57960    0.69030    0.60610    1.000
    O7       O        0.11070    0.69030    0.89390    1.000
    O8       O        0.57960    0.88930    0.89390    1.000
    O9       O        0.30970    0.42040    0.89390    1.000
    O10      O        0.88930    0.30970    0.39390    1.000
    O11      O        0.42040    0.11070    0.39390    1.000
    O12      O        0.69030    0.57960    0.39390    1.000
    Ni1      Ni       0.66667    0.33333    0.25000    1.000
    Ni2      Ni       0.33333    0.66667    0.75000    1.000
    C1       C        0.55860    0.00000    0.00000    1.000
    H1       H        0.43100    0.00000    0.00000    1.000
    C2       C        0.00000    0.55860    0.00000    1.000
    H2       H        0.00000    0.43100    0.00000    1.000
    C3       C        0.44140    0.44140    0.00000    1.000
    H3       H        0.56900    0.56900    0.00000    1.000
    C4       C        0.44140    0.00000    0.50000    1.000
    H4       H        0.56900    0.00000    0.50000    1.000
    C5       C        0.00000    0.44140    0.50000    1.000
    H5       H        0.00000    0.56900    0.50000    1.000
    C6       C        0.55860    0.55860    0.50000    1.000
    H6       H        0.43100    0.43100    0.50000    1.000
