data_functionalizedCrystal
_audit_creation_method	'EQeq! by Chris Wilmer'
_symmetry_space_group_name_H-M	'P1'
_symmetry_Int_Tables_number	1
_symmetry_cell_setting	triclinic
loop_
_symmetry_equiv_pos_as_xyz
  x,y,z
_cell_length_a	20.6
_cell_length_b	27.809
_cell_length_c	27.809
_cell_angle_alpha	90
_cell_angle_beta	90
_cell_angle_gamma	90
loop_
_atom_site_label
_atom_site_type_symbol
_atom_site_fract_x
_atom_site_fract_y
_atom_site_fract_z
_atom_site_charge
Mof_Cd	Cd	0.5	0.01684	0.09887	0.393
Mof_Cd	Cd	0.62378	0.5311	0.31253	0.33
Mof_Cd	Cd	0.5	0.59887	0.51684	0.393
Mof_Cd	Cd	0.62378	0.31253	0.4689	0.33
Mof_Cd	Cd	0.62378	0.18747	0.9689	0.33
Mof_Cd	Cd	0.37622	0.81253	0.0311	0.331
Mof_Cd	Cd	0.37622	0.9689	0.81253	0.331
Mof_Cd	Cd	0.37622	0.4689	0.68747	0.331
Mof_Cd	Cd	0.37622	0.68747	0.5311	0.331
Mof_Cd	Cd	0.5	0.90113	0.01684	0.393
Mof_Cd	Cd	0.62378	0.68747	0.5311	0.33
Mof_Cd	Cd	0.37622	0.31253	0.4689	0.331
Mof_Cd	Cd	0.62378	0.0311	0.18747	0.33
Mof_Cd	Cd	0.5	0.09887	0.98316	0.393
Mof_Cd	Cd	0.62378	0.9689	0.81253	0.33
Mof_Cd	Cd	0.62378	0.81253	0.0311	0.33
Mof_Cd	Cd	0.5	0.98316	0.90113	0.393
Mof_Cd	Cd	0.37622	0.0311	0.18747	0.331
Mof_Cd	Cd	0.5	0.40113	0.48316	0.393
Mof_Cd	Cd	0.37622	0.18747	0.9689	0.331
Mof_Cd	Cd	0.5	0.51684	0.40113	0.393
Mof_Cd	Cd	0.62378	0.4689	0.68747	0.33
Mof_Cd	Cd	0.37622	0.5311	0.31253	0.331
Mof_Cd	Cd	0.5	0.48316	0.59887	0.393
Mof_H 	H 	0.1901	0.7381	0.4185	0.074
Mof_H 	H 	0.2827	0.1997	0.0516	0.011
Mof_H 	H 	0.8099	0.2619	0.5815	0.072
Mof_H 	H 	0.7173	0.3003	0.5516	0.01
Mof_H 	H 	0.9401	0.347	0.5934	0.065
Mof_H 	H 	0.8099	0.9185	0.2381	0.072
Mof_H 	H 	0.2827	0.0516	0.8003	0.011
Mof_H 	H 	0.0599	0.5934	0.653	0.054
Mof_H 	H 	0.2827	0.6997	0.4484	0.01
Mof_H 	H 	0.8316	0.3675	0.6806	0.072
Mof_H 	H 	0.1684	0.6806	0.6325	0.074
Mof_H 	H 	0.2413	0.8113	0.25	0.061
Mof_H 	H 	0.8316	0.6325	0.3194	0.072
Mof_H 	H 	0.7173	0.5516	0.6997	0.01
Mof_H 	H 	0.1684	0.8675	0.8194	0.074
Mof_H 	H 	0.7173	0.1997	0.0516	0.01
Mof_H 	H 	0.2827	0.8003	0.9484	0.011
Mof_H 	H 	0.7389	0.094	0.1508	0.013
Mof_H 	H 	0.2413	0.25	0.1887	0.061
Mof_H 	H 	0.8316	0.6806	0.6325	0.072
Mof_H 	H 	0.7587	0.75	0.8113	0.06
Mof_H 	H 	0.0599	0.847	0.9066	0.054
Mof_H 	H 	0.9401	0.5934	0.653	0.065
Mof_H 	H 	0.1684	0.8194	0.1325	0.074
Mof_H 	H 	0.9456	0.2216	0.7216	0.134
Mof_H 	H 	0.7173	0.8003	0.9484	0.01
Mof_H 	H 	0.7587	0.8113	0.25	0.06
Mof_H 	H 	0.7173	0.6997	0.4484	0.01
Mof_H 	H 	0.0544	0.2784	0.2216	0.142
Mof_H 	H 	0.1901	0.5815	0.7381	0.074
Mof_H 	H 	0.7389	0.8492	0.094	0.013
Mof_H 	H 	0.0599	0.9066	0.153	0.054
Mof_H 	H 	0.7389	0.594	0.3492	0.013
Mof_H 	H 	0.0544	0.7216	0.7784	0.142
Mof_H 	H 	0.1901	0.0815	0.7619	0.074
Mof_H 	H 	0.0544	0.7784	0.2784	0.142
Mof_H 	H 	0.1901	0.7619	0.9185	0.074
Mof_H 	H 	0.7389	0.906	0.8492	0.013
Mof_H 	H 	0.9456	0.7784	0.2784	0.134
Mof_H 	H 	0.2611	0.3492	0.406	0.014
Mof_H 	H 	0.8099	0.5815	0.7381	0.072
Mof_H 	H 	0.7389	0.6508	0.594	0.013
Mof_H 	H 	0.2827	0.4484	0.3003	0.01
Mof_H 	H 	0.7587	0.25	0.1887	0.06
Mof_H 	H 	0.9401	0.653	0.4066	0.065
Mof_H 	H 	0.7173	0.0516	0.8003	0.01
Mof_H 	H 	0.2827	0.5516	0.6997	0.01
Mof_H 	H 	0.2611	0.6508	0.594	0.014
Mof_H 	H 	0.7587	0.75	0.3113	0.06
Mof_H 	H 	0.7587	0.1887	0.75	0.06
Mof_H 	H 	0.9401	0.9066	0.153	0.065
Mof_H 	H 	0.2413	0.75	0.3113	0.061
Mof_H 	H 	0.7389	0.1508	0.906	0.013
Mof_H 	H 	0.2611	0.906	0.8492	0.014
Mof_H 	H 	0.7173	0.9484	0.1997	0.01
Mof_H 	H 	0.1684	0.1806	0.8675	0.074
Mof_H 	H 	0.8099	0.2381	0.0815	0.072
Mof_H 	H 	0.2611	0.1508	0.906	0.014
Mof_H 	H 	0.1901	0.2381	0.0815	0.074
Mof_H 	H 	0.2413	0.75	0.8113	0.061
Mof_H 	H 	0.9401	0.4066	0.347	0.065
Mof_H 	H 	0.1684	0.1325	0.1806	0.074
Mof_H 	H 	0.9401	0.847	0.9066	0.065
Mof_H 	H 	0.2413	0.25	0.6887	0.061
Mof_H 	H 	0.2827	0.9484	0.1997	0.011
Mof_H 	H 	0.7587	0.3113	0.25	0.06
Mof_H 	H 	0.8316	0.8194	0.1325	0.072
Mof_H 	H 	0.9456	0.7216	0.7784	0.134
Mof_H 	H 	0.8099	0.7619	0.9185	0.072
Mof_H 	H 	0.2611	0.594	0.3492	0.014
Mof_H 	H 	0.2611	0.8492	0.094	0.014
Mof_H 	H 	0.0599	0.153	0.0934	0.054
Mof_H 	H 	0.8316	0.1325	0.1806	0.072
Mof_H 	H 	0.7389	0.3492	0.406	0.013
Mof_H 	H 	0.2827	0.3003	0.5516	0.01
Mof_H 	H 	0.8316	0.1806	0.8675	0.072
Mof_H 	H 	0.9401	0.153	0.0934	0.065
Mof_H 	H 	0.9456	0.2784	0.2216	0.134
Mof_H 	H 	0.1684	0.3194	0.3675	0.074
Mof_H 	H 	0.8099	0.7381	0.4185	0.072
Mof_H 	H 	0.7587	0.25	0.6887	0.06
Mof_H 	H 	0.2611	0.094	0.1508	0.014
Mof_H 	H 	0.7173	0.4484	0.3003	0.01
Mof_H 	H 	0.8099	0.0815	0.7619	0.072
Mof_H 	H 	0.8316	0.8675	0.8194	0.072
Mof_H 	H 	0.1684	0.6325	0.3194	0.074
Mof_H 	H 	0.2413	0.1887	0.75	0.061
Mof_H 	H 	0.1901	0.9185	0.2381	0.074
Mof_H 	H 	0.7587	0.6887	0.75	0.06
Mof_H 	H 	0.1901	0.2619	0.5815	0.074
Mof_H 	H 	0.0599	0.347	0.5934	0.054
Mof_H 	H 	0.1901	0.4185	0.2619	0.074
Mof_H 	H 	0.1684	0.3675	0.6806	0.074
Mof_H 	H 	0.2611	0.406	0.6508	0.014
Mof_H 	H 	0.0599	0.4066	0.347	0.054
Mof_H 	H 	0.2413	0.3113	0.25	0.061
Mof_H 	H 	0.8316	0.3194	0.3675	0.072
Mof_H 	H 	0.0544	0.2216	0.7216	0.142
Mof_H 	H 	0.0599	0.0934	0.847	0.054
Mof_H 	H 	0.9401	0.0934	0.847	0.065
Mof_H 	H 	0.2413	0.6887	0.75	0.061
Mof_H 	H 	0.8099	0.4185	0.2619	0.072
Mof_H 	H 	0.0599	0.653	0.4066	0.054
Mof_H 	H 	0.7389	0.406	0.6508	0.013
Mof_C 	C 	0.1916	0.3539	0.6544	-0.128
Mof_C 	C 	0.0538	0.2056	0.1472	0.103
Mof_C 	C 	0.2467	0.1367	0.8767	0.023
Mof_C 	C 	0.2595	0.5778	0.686	0.025
Mof_C 	C 	0.2806	0.1432	0.0984	-0.069
Mof_C 	C 	0.8084	0.6544	0.6461	-0.129
Mof_C 	C 	0.882	0.7165	0.3413	-0.117
Mof_C 	C 	0.882	0.2165	0.1587	-0.117
Mof_C 	C 	0.118	0.3413	0.2835	-0.113
Mof_C 	C 	0.1705	0.8661	0.1889	0.096
Mof_C 	C 	0.0328	0.6724	0.3869	-0.056
Mof_C 	C 	0.8626	0.2473	0.6907	0.116
Mof_C 	C 	0.9672	0.8869	0.1724	-0.106
Mof_C 	C 	0.3384	0.4176	0.3821	0.142
Mof_C 	C 	0.3384	0.8821	0.9176	0.142
Mof_C 	C 	0.0538	0.7944	0.8528	0.103
Mof_C 	C 	0.1705	0.8111	0.8661	0.096
Mof_C 	C 	0.0538	0.1472	0.7944	0.103
Mof_C 	C 	0.2595	0.686	0.4222	0.025
Mof_C 	C 	0.6616	0.9176	0.1179	0.141
Mof_C 	C 	0.9672	0.6724	0.3869	-0.106
Mof_C 	C 	0.2039	0.2973	0.2358	-0.079
Mof_C 	C 	0.0328	0.8869	0.1724	-0.056
Mof_C 	C 	0.8084	0.3456	0.3539	-0.129
Mof_C 	C 	0.2467	0.6367	0.6233	0.023
Mof_C 	C 	0.6616	0.1179	0.0824	0.141
Mof_C 	C 	0.8084	0.3539	0.6544	-0.129
Mof_C 	C 	0.2045	0.2912	0.5955	-0.13
Mof_C 	C 	0.118	0.6587	0.7165	-0.113
Mof_C 	C 	0.7405	0.9222	0.186	0.024
Mof_C 	C 	0.7961	0.2358	0.7027	-0.08
Mof_C 	C 	0.7194	0.0984	0.8568	-0.07
Mof_C 	C 	0.3384	0.0824	0.8821	0.142
Mof_C 	C 	0.6616	0.3821	0.5824	0.141
Mof_C 	C 	0.1374	0.2473	0.6907	0.119
Mof_C 	C 	0.1374	0.8093	0.2527	0.119
Mof_C 	C 	0.7955	0.9045	0.2088	-0.131
Mof_C 	C 	0.8084	0.1461	0.1544	-0.129
Mof_C 	C 	0.8295	0.3111	0.6339	0.096
Mof_C 	C 	0.0328	0.8276	0.8869	-0.056
Mof_C 	C 	0.2806	0.3568	0.5984	-0.069
Mof_C 	C 	0.2039	0.2027	0.7358	-0.079
Mof_C 	C 	0.9462	0.1472	0.7944	0.105
Mof_C 	C 	0.1705	0.6339	0.6889	0.096
Mof_C 	C 	0.1916	0.3456	0.3539	-0.128
Mof_C 	C 	0.3384	0.5824	0.6179	0.142
Mof_C 	C 	0.882	0.6587	0.7165	-0.117
Mof_C 	C 	0.7405	0.5778	0.686	0.024
Mof_C 	C 	0.2039	0.7358	0.7973	-0.079
Mof_C 	C 	0.8084	0.6461	0.3456	-0.129
Mof_C 	C 	0.7533	0.6233	0.3633	0.022
Mof_C 	C 	0.2595	0.9222	0.186	0.025
Mof_C 	C 	0.1374	0.7473	0.8093	0.119
Mof_C 	C 	0.8626	0.8093	0.2527	0.116
Mof_C 	C 	0.118	0.2835	0.6587	-0.113
Mof_C 	C 	0.8295	0.3661	0.3111	0.096
Mof_C 	C 	0.2045	0.5955	0.7088	-0.13
Mof_C 	C 	0.0328	0.1724	0.1131	-0.056
Mof_C 	C 	0.0328	0.6131	0.6724	-0.056
Mof_C 	C 	0.9672	0.8276	0.8869	-0.106
Mof_C 	C 	0.7955	0.2088	0.0955	-0.131
Mof_C 	C 	0.7533	0.3767	0.6367	0.022
Mof_C 	C 	0.2806	0.0984	0.8568	-0.069
Mof_C 	C 	0.2467	0.1233	0.1367	0.023
Mof_C 	C 	0.7405	0.686	0.4222	0.024
Mof_C 	C 	0.0328	0.1131	0.8276	-0.056
Mof_C 	C 	0.9462	0.8528	0.2056	0.105
Mof_C 	C 	0.7955	0.5955	0.7088	-0.131
Mof_C 	C 	0.3384	0.9176	0.1179	0.142
Mof_C 	C 	0.7955	0.7912	0.9045	-0.131
Mof_C 	C 	0.9462	0.6472	0.7056	0.105
Mof_C 	C 	0.0328	0.3276	0.6131	-0.056
Mof_C 	C 	0.9672	0.1131	0.8276	-0.106
Mof_C 	C 	0.9672	0.6131	0.6724	-0.106
Mof_C 	C 	0.2045	0.2088	0.0955	-0.13
Mof_C 	C 	0.7955	0.0955	0.7912	-0.131
Mof_C 	C 	0.7533	0.8767	0.8633	0.022
Mof_C 	C 	0.6616	0.5824	0.6179	0.141
Mof_C 	C 	0.7194	0.8568	0.9016	-0.07
Mof_C 	C 	0.7955	0.2912	0.5955	-0.131
Mof_C 	C 	0.1916	0.8539	0.8456	-0.128
Mof_C 	C 	0.1374	0.3093	0.2473	0.119
Mof_C 	C 	0.1374	0.6907	0.7527	0.119
Mof_C 	C 	0.6616	0.6179	0.4176	0.141
Mof_C 	C 	0.7961	0.7027	0.7642	-0.08
Mof_C 	C 	0.7405	0.186	0.0778	0.024
Mof_C 	C 	0.8295	0.8661	0.1889	0.096
Mof_C 	C 	0.8295	0.6339	0.6889	0.096
Mof_C 	C 	0.8626	0.6907	0.7527	0.116
Mof_C 	C 	0.7405	0.814	0.9222	0.024
Mof_C 	C 	0.9672	0.1724	0.1131	-0.106
Mof_C 	C 	0.882	0.7835	0.8413	-0.117
Mof_C 	C 	0.8295	0.1889	0.1339	0.096
Mof_C 	C 	0.7194	0.1432	0.0984	-0.07
Mof_C 	C 	0.8626	0.3093	0.2473	0.116
Mof_C 	C 	0.1705	0.6889	0.3661	0.096
Mof_C 	C 	0.2806	0.6432	0.4016	-0.069
Mof_C 	C 	0.2467	0.8767	0.8633	0.023
Mof_C 	C 	0.882	0.1587	0.7835	-0.117
Mof_C 	C 	0.1705	0.3111	0.6339	0.096
Mof_C 	C 	0.1374	0.7527	0.3093	0.119
Mof_C 	C 	0.7194	0.3568	0.5984	-0.07
Mof_C 	C 	0.3384	0.3821	0.5824	0.142
Mof_C 	C 	0.9462	0.7944	0.8528	0.105
Mof_C 	C 	0.7961	0.2973	0.2358	-0.08
Mof_C 	C 	0.1705	0.1889	0.1339	0.096
Mof_C 	C 	0.8084	0.8456	0.1461	-0.129
Mof_C 	C 	0.0538	0.6472	0.7056	0.103
Mof_C 	C 	0.8295	0.1339	0.8111	0.096
Mof_C 	C 	0.118	0.7165	0.3413	-0.113
Mof_C 	C 	0.7405	0.4222	0.314	0.024
Mof_C 	C 	0.7194	0.4016	0.3568	-0.07
Mof_C 	C 	0.9672	0.3276	0.6131	-0.106
Mof_C 	C 	0.2039	0.7973	0.2642	-0.079
Mof_C 	C 	0.7405	0.0778	0.814	0.024
Mof_C 	C 	0.0538	0.7056	0.3528	0.103
Mof_C 	C 	0.2039	0.7642	0.2973	-0.079
Mof_C 	C 	0.2045	0.9045	0.2088	-0.13
Mof_C 	C 	0.7961	0.7642	0.2973	-0.08
Mof_C 	C 	0.2039	0.2358	0.7027	-0.079
Mof_C 	C 	0.2595	0.314	0.5778	0.025
Mof_C 	C 	0.2467	0.8633	0.1233	0.023
Mof_C 	C 	0.2467	0.3767	0.6367	0.023
Mof_C 	C 	0.9462	0.2056	0.1472	0.105
Mof_C 	C 	0.7405	0.314	0.5778	0.024
Mof_C 	C 	0.7955	0.7088	0.4045	-0.131
Mof_C 	C 	0.8626	0.1907	0.7473	0.116
Mof_C 	C 	0.882	0.3413	0.2835	-0.117
Mof_C 	C 	0.3384	0.1179	0.0824	0.142
Mof_C 	C 	0.118	0.2165	0.1587	-0.113
Mof_C 	C 	0.9462	0.3528	0.2944	0.105
Mof_C 	C 	0.7194	0.6432	0.4016	-0.07
Mof_C 	C 	0.7194	0.9016	0.1432	-0.07
Mof_C 	C 	0.2467	0.6233	0.3633	0.023
Mof_C 	C 	0.2595	0.0778	0.814	0.025
Mof_C 	C 	0.2467	0.3633	0.3767	0.023
Mof_C 	C 	0.6616	0.8821	0.9176	0.141
Mof_C 	C 	0.7961	0.2027	0.7358	-0.08
Mof_C 	C 	0.9672	0.3869	0.3276	-0.106
Mof_C 	C 	0.7533	0.1367	0.8767	0.022
Mof_C 	C 	0.2045	0.4045	0.2912	-0.13
Mof_C 	C 	0.2806	0.4016	0.3568	-0.069
Mof_C 	C 	0.0538	0.8528	0.2056	0.103
Mof_C 	C 	0.118	0.1587	0.7835	-0.113
Mof_C 	C 	0.8626	0.2527	0.1907	0.116
Mof_C 	C 	0.1374	0.2527	0.1907	0.119
Mof_C 	C 	0.7961	0.7358	0.7973	-0.08
Mof_C 	C 	0.7961	0.7973	0.2642	-0.08
Mof_C 	C 	0.0328	0.3869	0.3276	-0.056
Mof_C 	C 	0.2806	0.9016	0.1432	-0.069
Mof_C 	C 	0.2595	0.814	0.9222	0.025
Mof_C 	C 	0.7955	0.4045	0.2912	-0.131
Mof_C 	C 	0.2039	0.2642	0.2027	-0.079
Mof_C 	C 	0.8295	0.6889	0.3661	0.096
Mof_C 	C 	0.9462	0.2944	0.6472	0.105
Mof_C 	C 	0.2806	0.5984	0.6432	-0.069
Mof_C 	C 	0.118	0.8413	0.2165	-0.113
Mof_C 	C 	0.8626	0.7527	0.3093	0.116
Mof_C 	C 	0.7961	0.2642	0.2027	-0.08
Mof_C 	C 	0.2045	0.7088	0.4045	-0.13
Mof_C 	C 	0.2045	0.7912	0.9045	-0.13
Mof_C 	C 	0.1916	0.8456	0.1461	-0.128
Mof_C 	C 	0.0538	0.3528	0.2944	0.103
Mof_C 	C 	0.2045	0.0955	0.7912	-0.13
Mof_C 	C 	0.8084	0.1544	0.8539	-0.129
Mof_C 	C 	0.7533	0.8633	0.1233	0.022
Mof_C 	C 	0.8295	0.8111	0.8661	0.096
Mof_C 	C 	0.7533	0.6367	0.6233	0.022
Mof_C 	C 	0.2039	0.7027	0.7642	-0.079
Mof_C 	C 	0.1374	0.1907	0.7473	0.119
Mof_C 	C 	0.7533	0.1233	0.1367	0.022
Mof_C 	C 	0.1916	0.6461	0.3456	-0.128
Mof_C 	C 	0.8626	0.7473	0.8093	0.116
Mof_C 	C 	0.6616	0.0824	0.8821	0.141
Mof_C 	C 	0.8084	0.8539	0.8456	-0.129
Mof_C 	C 	0.0538	0.2944	0.6472	0.103
Mof_C 	C 	0.7533	0.3633	0.3767	0.022
Mof_C 	C 	0.882	0.8413	0.2165	-0.117
Mof_C 	C 	0.1705	0.1339	0.8111	0.096
Mof_C 	C 	0.1705	0.3661	0.3111	0.096
Mof_C 	C 	0.6616	0.4176	0.3821	0.141
Mof_C 	C 	0.2806	0.8568	0.9016	-0.069
Mof_C 	C 	0.7194	0.5984	0.6432	-0.07
Mof_C 	C 	0.1916	0.6544	0.6461	-0.128
Mof_C 	C 	0.2595	0.4222	0.314	0.025
Mof_C 	C 	0.3384	0.6179	0.4176	0.142
Mof_C 	C 	0.9462	0.7056	0.3528	0.105
Mof_C 	C 	0.118	0.7835	0.8413	-0.113
Mof_C 	C 	0.882	0.2835	0.6587	-0.117
Mof_C 	C 	0.2595	0.186	0.0778	0.025
Mof_C 	C 	0.1916	0.1461	0.1544	-0.128
Mof_C 	C 	0.1916	0.1544	0.8539	-0.128
Mof_N 	N 	0.5791	0.0999	0.0397	-0.078
Mof_N 	N 	0.3688	0.3713	0.5416	-0.116
Mof_N 	N 	0.6324	0.5846	0.3953	-0.118
Mof_N 	N 	0.5791	0.9603	0.0999	-0.078
Mof_N 	N 	0.097	0.7203	0.7797	-0.216
Mof_N 	N 	0.5791	0.5732	0.4205	-0.075
Mof_N 	N 	0.5791	0.0732	0.0795	-0.075
Mof_N 	N 	0.3676	0.9154	0.8953	-0.118
Mof_N 	N 	0.4209	0.4001	0.5397	-0.078
Mof_N 	N 	3.91103e-33	0.1669	0.7727	-0.134
Mof_N 	N 	0.6312	0.3713	0.5416	-0.116
Mof_N 	N 	1.63578e-32	0.6669	0.7273	-0.134
Mof_N 	N 	0.3676	0.1047	0.9154	-0.118
Mof_N 	N 	0.6324	0.1047	0.9154	-0.118
Mof_N 	N 	0.4209	0.5795	0.5732	-0.075
Mof_N 	N 	0.903	0.2203	0.7203	-0.215
Mof_N 	N 	0.6312	0.0416	0.8713	-0.116
Mof_N 	N 	0.3688	0.8713	0.9584	-0.116
Mof_N 	N 	0.6312	0.5416	0.6287	-0.116
Mof_N 	N 	0.3688	0.9584	0.1287	-0.116
Mof_N 	N 	0.4209	0.0397	0.9001	-0.078
Mof_N 	N 	0.6324	0.4154	0.6047	-0.118
Mof_N 	N 	0.6312	0.4584	0.3713	-0.116
Mof_N 	N 	0.3676	0.0846	0.1047	-0.118
Mof_N 	N 	4.21674e-33	0.7727	0.8331	-0.134
Mof_N 	N 	0.4209	0.0999	0.0397	-0.078
Mof_N 	N 	0.3676	0.4154	0.6047	-0.118
Mof_N 	N 	0.5791	0.4205	0.4268	-0.075
Mof_N 	N 	0.5791	0.4001	0.5397	-0.078
Mof_N 	N 	0.4209	0.0732	0.0795	-0.075
Mof_N 	N 	0.6312	0.1287	0.0416	-0.116
Mof_N 	N 	0.6324	0.8953	0.0846	-0.118
Mof_N 	N 	0.5791	0.5999	0.4603	-0.078
Mof_N 	N 	-2.32438e-33	0.2273	0.1669	-0.134
Mof_N 	N 	0.5791	0.9001	0.9603	-0.078
Mof_N 	N 	0.5791	0.5795	0.5732	-0.075
Mof_N 	N 	0.4209	0.9268	0.9205	-0.075
Mof_N 	N 	0.5791	0.5397	0.5999	-0.078
Mof_N 	N 	0.6324	0.0846	0.1047	-0.118
Mof_N 	N 	0.3688	0.6287	0.4584	-0.116
Mof_N 	N 	4.54942e-33	0.3331	0.2727	-0.134
Mof_N 	N 	0.097	0.2797	0.2203	-0.216
Mof_N 	N 	0.3676	0.5846	0.3953	-0.118
Mof_N 	N 	0.6324	0.9154	0.8953	-0.118
Mof_N 	N 	0.4209	0.4205	0.4268	-0.075
Mof_N 	N 	0.4209	0.5999	0.4603	-0.078
Mof_N 	N 	0.3676	0.8953	0.0846	-0.118
Mof_N 	N 	0.5791	0.0795	0.9268	-0.075
Mof_N 	N 	0.5791	0.4268	0.5795	-0.075
Mof_N 	N 	0.5791	0.4603	0.4001	-0.078
Mof_N 	N 	0.4209	0.5397	0.5999	-0.078
Mof_N 	N 	0.3688	0.0416	0.8713	-0.116
Mof_N 	N 	0.6324	0.3953	0.4154	-0.118
Mof_N 	N 	0.3688	0.5416	0.6287	-0.116
Mof_N 	N 	0.097	0.7797	0.2797	-0.216
Mof_N 	N 	0.4209	0.9603	0.0999	-0.078
Mof_N 	N 	0.6324	0.6047	0.5846	-0.118
Mof_N 	N 	0.3676	0.6047	0.5846	-0.118
Mof_N 	N 	0.903	0.7797	0.2797	-0.215
Mof_N 	N 	0.6312	0.9584	0.1287	-0.116
Mof_N 	N 	0.3688	0.4584	0.3713	-0.116
Mof_N 	N 	8.02428e-33	0.7273	0.3331	-0.134
Mof_N 	N 	0.4209	0.9205	0.0732	-0.075
Mof_N 	N 	0.097	0.2203	0.7203	-0.216
Mof_N 	N 	0.4209	0.9001	0.9603	-0.078
Mof_N 	N 	0.4209	0.5732	0.4205	-0.075
Mof_N 	N 	0.4209	0.0795	0.9268	-0.075
Mof_N 	N 	0.3688	0.1287	0.0416	-0.116
Mof_N 	N 	0.4209	0.4603	0.4001	-0.078
Mof_N 	N 	7.48878e-33	0.8331	0.2273	-0.134
Mof_N 	N 	0.4209	0.4268	0.5795	-0.075
Mof_N 	N 	0.5791	0.9268	0.9205	-0.075
Mof_N 	N 	0.5791	0.9205	0.0732	-0.075
Mof_N 	N 	0.3676	0.3953	0.4154	-0.118
Mof_N 	N 	0.6312	0.6287	0.4584	-0.116
Mof_N 	N 	0.903	0.7203	0.7797	-0.215
Mof_N 	N 	0.903	0.2797	0.2203	-0.215
Mof_N 	N 	0.5791	0.0397	0.9001	-0.078
Mof_N 	N 	0.6312	0.8713	0.9584	-0.116
Mof_N 	N 	3.37552e-33	0.2727	0.6669	-0.134
Mof_Cl	Cl	0.5	0.18537	0.9674	-0.452
Mof_Cl	Cl	0.5	0.9674	0.81463	-0.452
Mof_Cl	Cl	0.5	0.68537	0.5326	-0.452
Mof_Cl	Cl	0.5	0.0326	0.18537	-0.452
Mof_Cl	Cl	0.5	0.5326	0.31463	-0.452
Mof_Cl	Cl	0.5	0.31463	0.4674	-0.452
Mof_Cl	Cl	0.5	0.4674	0.68537	-0.452
Mof_Cl	Cl	0.5	0.81463	0.0326	-0.452
_end
