data_functionalizedCrystal
_audit_creation_method	'EQeq! by Chris Wilmer'
_symmetry_space_group_name_H-M	'P1'
_symmetry_Int_Tables_number	1
_symmetry_cell_setting	triclinic
loop_
_symmetry_equiv_pos_as_xyz
  x,y,z
_cell_length_a	9.5837
_cell_length_b	12.643
_cell_length_c	13.9294
_cell_angle_alpha	90
_cell_angle_beta	110.093
_cell_angle_gamma	90
loop_
_atom_site_label
_atom_site_type_symbol
_atom_site_fract_x
_atom_site_fract_y
_atom_site_fract_z
_atom_site_charge
Mof_C 	C 	0.6961	0.89905	0.87428	0.391
Mof_C 	C 	0.837	0.9452	0.86749	0.088
Mof_C 	C 	0.8496	0.0553	0.87222	-0.093
Mof_H 	H 	0.7687	0.0972	0.8748	0.069
Mof_C 	C 	0.98	0.1036	0.8732	-0.166
Mof_C 	C 	0.1002	0.0425	0.87096	-0.036
Mof_H 	H 	0.1894	0.0755	0.8714	-0.014
Mof_C 	C 	0.0882	0.93279	0.86816	0.198
Mof_C 	C 	0.9559	0.88379	0.86552	-0.148
Mof_H 	H 	0.9477	0.8089	0.8624	0.326
Mof_C 	C 	0.2167	0.86944	0.8629	0.287
Mof_C 	C 	0.5151	0.77298	0.075	0.414
Mof_C 	C 	0.5107	0.70944	0.16579	-0.186
Mof_C 	C 	0.5129	0.59974	0.16643	-0.013
Mof_H 	H 	0.5232	0.5622	0.1102	0.078
Mof_Co	Co	0.43542	0.77487	0.84285	1.192
Mof_O 	O 	0.63745	0.81584	0.82347	-0.461
Mof_O 	O 	0.6447	0.94597	0.93251	-0.407
Mof_O 	O 	0.20358	0.77299	0.84136	-0.201
Mof_O 	O 	0.34002	0.91555	0.87522	-0.47
Mof_O 	O 	0.4713	0.12925	0.91151	-0.49
Mof_O 	O 	0.5015	0.72376	0.99333	-0.393
Mof_O 	O 	0.4486	0.62014	0.81104	-0.404
Mof_C 	C 	0.0016	0.2193	0.8882	-0.184
Mof_O 	O 	0.9105	0.2737	0.9123	-0.521
Mof_O 	O 	0.1282	0.2516	0.8902	-0.339
Mof_H 	H 	0.1319	0.3083	0.8526	-0.038
Mof_C 	C 	0.988	0.2226	0.877	0.476
Mof_O 	O 	0.8725	0.2736	0.873	0.239
Mof_O 	O 	0.1049	0.2669	0.8714	-0.152
Mof_H 	H 	0.1528	0.3139	0.9184	0.239
Mof_C 	C 	0.3039	0.89905	0.62572	0.44
Mof_C 	C 	0.163	0.9452	0.63251	-0.166
Mof_C 	C 	0.1504	0.0553	0.62778	0.208
Mof_H 	H 	0.2313	0.0972	0.6252	-0.172
Mof_C 	C 	0.02	0.1036	0.6268	-0.456
Mof_C 	C 	0.8998	0.0425	0.62904	0.122
Mof_H 	H 	0.8106	0.0755	0.6286	0.006
Mof_C 	C 	0.9118	0.93279	0.63184	-0.2
Mof_C 	C 	0.0441	0.88379	0.63448	0.25
Mof_H 	H 	0.0523	0.8089	0.6376	0.08
Mof_C 	C 	0.7833	0.86944	0.6371	0.374
Mof_C 	C 	0.4849	0.77298	0.425	0.342
Mof_C 	C 	0.4893	0.70944	0.33421	-0.236
Mof_C 	C 	0.4871	0.59974	0.33357	-0.041
Mof_H 	H 	0.4768	0.5622	0.3898	0.066
Mof_Co	Co	0.56458	0.77487	0.65715	1.19
Mof_O 	O 	0.36255	0.81584	0.67653	-0.509
Mof_O 	O 	0.3553	0.94597	0.56749	-0.415
Mof_O 	O 	0.79642	0.77299	0.65864	-0.325
Mof_O 	O 	0.65998	0.91555	0.62478	-0.474
Mof_O 	O 	0.5287	0.12925	0.58849	-0.439
Mof_O 	O 	0.4985	0.72376	0.50667	-0.389
Mof_O 	O 	0.5514	0.62014	0.68896	-0.394
Mof_C 	C 	0.9984	0.2193	0.6118	-0.041
Mof_O 	O 	0.0895	0.2737	0.5877	-13.057
Mof_O 	O 	0.8718	0.2516	0.6098	-0.761
Mof_H 	H 	0.8681	0.3083	0.6474	0.033
Mof_C 	C 	0.012	0.2226	0.623	1.455
Mof_O 	O 	0.1275	0.2736	0.627	12.419
Mof_O 	O 	0.8951	0.2669	0.6286	0.013
Mof_H 	H 	0.8472	0.3139	0.5816	0.551
Mof_C 	C 	0.3039	0.10095	0.12572	0.535
Mof_C 	C 	0.163	0.0548	0.13251	-0.508
Mof_C 	C 	0.1504	0.9447	0.12778	0.596
Mof_H 	H 	0.2313	0.9028	0.1252	-0.271
Mof_C 	C 	0.02	0.8964	0.1268	-0.7
Mof_C 	C 	0.8998	0.9575	0.12904	0.505
Mof_H 	H 	0.8106	0.9245	0.1286	-0.109
Mof_C 	C 	0.9118	0.06721	0.13184	-0.557
Mof_C 	C 	0.0441	0.11621	0.13448	0.509
Mof_H 	H 	0.0523	0.1911	0.1376	-0.051
Mof_C 	C 	0.7833	0.13056	0.1371	0.475
Mof_C 	C 	0.4849	0.22702	0.925	0.322
Mof_C 	C 	0.4893	0.29056	0.83421	-0.233
Mof_C 	C 	0.4871	0.40026	0.83357	-0.023
Mof_H 	H 	0.4768	0.4378	0.8898	0.052
Mof_Co	Co	0.56458	0.22513	0.15715	1.19
Mof_O 	O 	0.36255	0.18416	0.17653	-0.546
Mof_O 	O 	0.3553	0.05403	0.06749	-0.493
Mof_O 	O 	0.79642	0.22701	0.15864	-0.373
Mof_O 	O 	0.65998	0.08445	0.12478	-0.548
Mof_O 	O 	0.5287	0.87075	0.08849	-0.404
Mof_O 	O 	0.4985	0.27624	0.00667	-0.374
Mof_O 	O 	0.5514	0.37986	0.18896	-0.398
Mof_C 	C 	0.9984	0.7807	0.1118	-0.024
Mof_O 	O 	0.0895	0.7263	0.0877	-13.392
Mof_O 	O 	0.8718	0.7484	0.1098	-0.781
Mof_H 	H 	0.8681	0.6917	0.1474	-0.023
Mof_C 	C 	0.012	0.7774	0.123	1.52
Mof_O 	O 	0.1275	0.7264	0.127	12.734
Mof_O 	O 	0.8951	0.7331	0.1286	0.004
Mof_H 	H 	0.8472	0.6861	0.0816	0.573
Mof_C 	C 	0.6961	0.10095	0.37428	0.502
Mof_C 	C 	0.837	0.0548	0.36749	-0.265
Mof_C 	C 	0.8496	0.9447	0.37222	0.354
Mof_H 	H 	0.7687	0.9028	0.3748	-0.08
Mof_C 	C 	0.98	0.8964	0.3732	-0.524
Mof_C 	C 	0.1002	0.9575	0.37096	0.413
Mof_H 	H 	0.1894	0.9245	0.3714	-0.133
Mof_C 	C 	0.0882	0.06721	0.36816	-0.151
Mof_C 	C 	0.9559	0.11621	0.36552	0.126
Mof_H 	H 	0.9477	0.1911	0.3624	0.235
Mof_C 	C 	0.2167	0.13056	0.3629	0.4
Mof_C 	C 	0.5151	0.22702	0.575	0.398
Mof_C 	C 	0.5107	0.29056	0.66579	-0.165
Mof_C 	C 	0.5129	0.40026	0.66643	0.011
Mof_H 	H 	0.5232	0.4378	0.6102	0.073
Mof_Co	Co	0.43542	0.22513	0.34285	1.193
Mof_O 	O 	0.63745	0.18416	0.32347	-0.491
Mof_O 	O 	0.6447	0.05403	0.43251	-0.476
Mof_O 	O 	0.20358	0.22701	0.34136	-0.23
Mof_O 	O 	0.34002	0.08445	0.37522	-0.537
Mof_O 	O 	0.4713	0.87075	0.41151	-0.441
Mof_O 	O 	0.5015	0.27624	0.49333	-0.363
Mof_O 	O 	0.4486	0.37986	0.31104	-0.401
Mof_C 	C 	0.0016	0.7807	0.3882	-0.259
Mof_O 	O 	0.9105	0.7263	0.4123	-3.318
Mof_O 	O 	0.1282	0.7484	0.3902	-0.439
Mof_H 	H 	0.1319	0.6917	0.3526	-0.076
Mof_C 	C 	0.988	0.7774	0.377	0.881
Mof_O 	O 	0.8725	0.7264	0.373	2.919
Mof_O 	O 	0.1049	0.7331	0.3714	-0.12
Mof_H 	H 	0.1528	0.6861	0.4184	0.333
Mof_C 	C 	0.5	0.7638	0.25	-0.158
Mof_H 	H 	0.5	0.8389	0.25	0.039
Mof_C 	C 	0.5	0.4255	0.25	0.391
Mof_C 	C 	0.5	0.5443	0.25	-0.148
Mof_C 	C 	0.5	0.2362	0.75	-0.11
Mof_H 	H 	0.5	0.1611	0.75	0.016
Mof_C 	C 	0.5	0.5745	0.75	0.393
Mof_C 	C 	0.5	0.4557	0.75	-0.141
Mof_Co	Co	0.5	0	-0	1.199
Mof_Co	Co	0.5	0	0.5	1.188
_end
