data_functionalizedCrystal
_audit_creation_method	'EQeq! by Chris Wilmer'
_symmetry_space_group_name_H-M	'P1'
_symmetry_Int_Tables_number	1
_symmetry_cell_setting	triclinic
loop_
_symmetry_equiv_pos_as_xyz
  x,y,z
_cell_length_a	4.7982
_cell_length_b	14.6546
_cell_length_c	33.0454
_cell_angle_alpha	90
_cell_angle_beta	90
_cell_angle_gamma	92.676
loop_
_atom_site_label
_atom_site_type_symbol
_atom_site_fract_x
_atom_site_fract_y
_atom_site_fract_z
_atom_site_charge
Mof_Zn	Zn	0.79783	0.4102	0.4717	1.247
Mof_Zn	Zn	0.79783	0.4102	0.0283	1.247
Mof_Zn	Zn	0.20217	0.5898	0.9717	1.247
Mof_Zn	Zn	0.20217	0.5898	0.5283	1.247
Mof_H 	H 	0.82252	0.86785	0.15117	0.05
Mof_H 	H 	0.68747	0.36073	0.37363	-0.01
Mof_H 	H 	0.84605	0.90738	0.65622	0.084
Mof_H 	H 	0.27718	0.45358	0.61553	-0.002
Mof_H 	H 	0.673	0.61223	0.17922	0.078
Mof_H 	H 	0.6679	0.21133	0.84367	0.081
Mof_H 	H 	0.72282	0.54642	0.11553	-0.002
Mof_H 	H 	0.60895	0.27657	0.59272	0.008
Mof_H 	H 	0.65785	0.01267	0.15122	0.047
Mof_H 	H 	0.39105	0.72343	0.40728	0.008
Mof_H 	H 	0.60895	0.27657	0.90728	0.008
Mof_H 	H 	0.27718	0.45358	0.88447	-0.002
Mof_H 	H 	0.72282	0.54642	0.38447	-0.002
Mof_H 	H 	0.94865	0.34295	0.75	0.049
Mof_H 	H 	0.20792	0.72547	0.68303	0.078
Mof_H 	H 	0.673	0.61223	0.32078	0.078
Mof_H 	H 	0.56685	0.7777	0.75	0.043
Mof_H 	H 	0.3321	0.78867	0.34367	0.081
Mof_H 	H 	0.84605	0.90738	0.84378	0.084
Mof_H 	H 	0.15395	0.09262	0.34378	0.084
Mof_H 	H 	0.3321	0.78867	0.15633	0.081
Mof_H 	H 	0.9599	0.8219	0.5996	0.006
Mof_H 	H 	0.31253	0.63927	0.62637	-0.01
Mof_H 	H 	0.65785	0.01267	0.34878	0.047
Mof_H 	H 	0.43315	0.2223	0.25	0.043
Mof_H 	H 	0.39105	0.72343	0.09272	0.008
Mof_H 	H 	0.05135	0.65705	0.25	0.049
Mof_H 	H 	0.68747	0.36073	0.12637	-0.01
Mof_H 	H 	0.34215	0.98733	0.65122	0.047
Mof_H 	H 	0.79208	0.27453	0.18303	0.078
Mof_H 	H 	0.82252	0.86785	0.34883	0.05
Mof_H 	H 	0.9599	0.8219	0.9004	0.006
Mof_H 	H 	0.327	0.38777	0.67922	0.078
Mof_H 	H 	0.327	0.38777	0.82078	0.078
Mof_H 	H 	0.20792	0.72547	0.81697	0.078
Mof_H 	H 	0.6679	0.21133	0.65633	0.081
Mof_H 	H 	0.0401	0.1781	0.4004	0.006
Mof_H 	H 	0.79208	0.27453	0.31697	0.078
Mof_H 	H 	0.34215	0.98733	0.84878	0.047
Mof_H 	H 	0.17748	0.13215	0.84883	0.05
Mof_H 	H 	0.15395	0.09262	0.15622	0.084
Mof_H 	H 	0.0401	0.1781	0.0996	0.006
Mof_H 	H 	0.17748	0.13215	0.65117	0.05
Mof_H 	H 	0.31253	0.63927	0.87363	-0.01
Mof_C 	C 	0.69315	0.9849	0.25	-0.011
Mof_C 	C 	0.08337	0.59315	0.44515	0.505
Mof_C 	C 	0.73383	0.85302	0.85042	-0.151
Mof_C 	C 	0.9388	0.3717	0.59693	-0.211
Mof_C 	C 	0.50405	0.1616	0.25	-0.034
Mof_C 	C 	0.54775	0.1197	0.21263	-0.039
Mof_C 	C 	0.20635	0.1047	0.75	-0.012
Mof_C 	C 	0.98255	0.718	0.25	-0.045
Mof_C 	C 	0.5132	0.82665	0.6752	0.088
Mof_C 	C 	0.0612	0.6283	0.40307	-0.211
Mof_C 	C 	0.91663	0.40685	0.55485	0.505
Mof_C 	C 	0.27618	0.33398	0.42945	0.493
Mof_C 	C 	0.84345	0.8506	0.28687	0.024
Mof_C 	C 	0.20915	0.73813	0.14802	-0.143
Mof_C 	C 	0.84345	0.8506	0.21313	0.025
Mof_C 	C 	0.06093	0.2397	0.78745	-0.035
Mof_C 	C 	0.79085	0.26187	0.85198	-0.143
Mof_C 	C 	0.64263	0.02955	0.28688	0.024
Mof_C 	C 	0.3609	0.74583	0.83445	-0.148
Mof_C 	C 	0.35498	0.27815	0.39393	-0.219
Mof_C 	C 	0.35737	0.97045	0.71312	0.024
Mof_C 	C 	0.30883	0.0162	0.8231	-0.056
Mof_C 	C 	0.79202	0.8966	0.17695	-0.059
Mof_C 	C 	0.49595	0.8384	0.75	-0.034
Mof_C 	C 	0.42177	0.69505	0.63127	0.097
Mof_C 	C 	0.64502	0.72185	0.89393	-0.219
Mof_C 	C 	0.26617	0.14698	0.35042	-0.151
Mof_C 	C 	0.72382	0.66602	0.92945	0.493
Mof_C 	C 	0.54775	0.1197	0.28737	-0.039
Mof_C 	C 	0.73383	0.85302	0.64958	-0.151
Mof_C 	C 	0.69117	0.9838	0.1769	-0.056
Mof_C 	C 	0.80063	0.80163	0.6159	0.099
Mof_C 	C 	0.08337	0.59315	0.05485	0.505
Mof_C 	C 	0.14558	0.4053	0.62358	0.09
Mof_C 	C 	0.45225	0.8803	0.71263	-0.039
Mof_C 	C 	0.35737	0.97045	0.78688	0.024
Mof_C 	C 	0.9388	0.3717	0.90307	-0.211
Mof_C 	C 	0.85442	0.5947	0.12358	0.09
Mof_C 	C 	0.14558	0.4053	0.87642	0.09
Mof_C 	C 	0.5132	0.82665	0.8248	0.088
Mof_C 	C 	0.64502	0.72185	0.60607	-0.219
Mof_C 	C 	0.4868	0.17335	0.3248	0.088
Mof_C 	C 	0.20915	0.73813	0.35198	-0.143
Mof_C 	C 	0.15655	0.1494	0.78687	0.025
Mof_C 	C 	0.17587	0.36615	0.8383	-0.143
Mof_C 	C 	0.2428	0.69907	0.11015	0.094
Mof_C 	C 	0.99377	0.70895	0.32585	0.08
Mof_C 	C 	0.17587	0.36615	0.6617	-0.143
Mof_C 	C 	0.7572	0.30093	0.61015	0.094
Mof_C 	C 	0.4868	0.17335	0.1752	0.088
Mof_C 	C 	0.64263	0.02955	0.21312	0.024
Mof_C 	C 	0.26617	0.14698	0.14958	-0.151
Mof_C 	C 	0.42177	0.69505	0.86873	0.097
Mof_C 	C 	0.99377	0.70895	0.17415	0.08
Mof_C 	C 	0.85442	0.5947	0.37642	0.09
Mof_C 	C 	0.6391	0.25417	0.33445	-0.148
Mof_C 	C 	0.20798	0.1034	0.67695	-0.059
Mof_C 	C 	0.93907	0.7603	0.21255	-0.035
Mof_C 	C 	0.20798	0.1034	0.82305	-0.059
Mof_C 	C 	0.79365	0.8953	0.25	-0.012
Mof_C 	C 	0.82413	0.63385	0.1617	-0.143
Mof_C 	C 	0.3609	0.74583	0.66555	-0.148
Mof_C 	C 	0.72382	0.66602	0.57055	0.493
Mof_C 	C 	0.35498	0.27815	0.10607	-0.219
Mof_C 	C 	0.45225	0.8803	0.78737	-0.039
Mof_C 	C 	0.0612	0.6283	0.09693	-0.211
Mof_C 	C 	0.00623	0.29105	0.67415	0.08
Mof_C 	C 	0.82413	0.63385	0.3383	-0.143
Mof_C 	C 	0.27618	0.33398	0.07055	0.493
Mof_C 	C 	0.6391	0.25417	0.16555	-0.148
Mof_C 	C 	0.91663	0.40685	0.94515	0.505
Mof_C 	C 	0.7572	0.30093	0.88985	0.094
Mof_C 	C 	0.30685	0.0151	0.75	-0.011
Mof_C 	C 	0.79085	0.26187	0.64802	-0.143
Mof_C 	C 	0.19937	0.19837	0.3841	0.099
Mof_C 	C 	0.19937	0.19837	0.1159	0.099
Mof_C 	C 	0.69117	0.9838	0.3231	-0.056
Mof_C 	C 	0.80063	0.80163	0.8841	0.099
Mof_C 	C 	0.79202	0.8966	0.32305	-0.059
Mof_C 	C 	0.06093	0.2397	0.71255	-0.035
Mof_C 	C 	0.57823	0.30495	0.13127	0.097
Mof_C 	C 	0.57823	0.30495	0.36873	0.097
Mof_C 	C 	0.2428	0.69907	0.38985	0.094
Mof_C 	C 	0.93907	0.7603	0.28745	-0.035
Mof_C 	C 	0.01745	0.282	0.75	-0.045
Mof_C 	C 	0.00623	0.29105	0.82585	0.08
Mof_C 	C 	0.15655	0.1494	0.71313	0.024
Mof_C 	C 	0.30883	0.0162	0.6769	-0.056
Mof_O 	O 	0.2492	0.61517	0.0286	-0.501
Mof_O 	O 	0.07558	0.46068	0.96312	-0.535
Mof_O 	O 	0.42268	0.39498	0.44507	-0.508
Mof_O 	O 	0.92442	0.53932	0.03688	-0.535
Mof_O 	O 	0.2492	0.61517	0.4714	-0.501
Mof_O 	O 	0.42268	0.39498	0.05493	-0.508
Mof_O 	O 	0.7508	0.38483	0.9714	-0.501
Mof_O 	O 	0.95083	0.66982	0.9459	-0.508
Mof_O 	O 	0.04917	0.33018	0.4459	-0.509
Mof_O 	O 	0.07558	0.46068	0.53688	-0.535
Mof_O 	O 	0.95083	0.66982	0.5541	-0.509
Mof_O 	O 	0.04917	0.33018	0.0541	-0.508
Mof_O 	O 	0.7508	0.38483	0.5286	-0.501
Mof_O 	O 	0.57732	0.60502	0.94507	-0.508
Mof_O 	O 	0.57732	0.60502	0.55493	-0.508
Mof_O 	O 	0.92442	0.53932	0.46312	-0.535
_end
