data_functionalizedCrystal
_audit_creation_method	'EQeq! by Chris Wilmer'
_symmetry_space_group_name_H-M	'P1'
_symmetry_Int_Tables_number	1
_symmetry_cell_setting	triclinic
loop_
_symmetry_equiv_pos_as_xyz
  x,y,z
_cell_length_a	9.4293
_cell_length_b	10.2259
_cell_length_c	17.1533
_cell_angle_alpha	91.634
_cell_angle_beta	99.933
_cell_angle_gamma	93.062
loop_
_atom_site_label
_atom_site_type_symbol
_atom_site_fract_x
_atom_site_fract_y
_atom_site_fract_z
_atom_site_charge
Mof_Co	Co	0.80248	0.1789	0.70849	1.184
Mof_Co	Co	0.82172	0.39279	0.86878	1.146
Mof_C 	C 	0.7294	0.5807	0.644	-0.016
Mof_C 	C 	0.7445	0.7099	0.6753	-0.05
Mof_H 	H 	0.7704	0.7266	0.7296	0.073
Mof_C 	C 	0.7204	0.8122	0.6244	0.016
Mof_C 	C 	0.6841	0.7883	0.5431	-0.159
Mof_H 	H 	0.6664	0.8573	0.5093	0.12
Mof_C 	C 	0.6745	0.6596	0.513	0.217
Mof_C 	C 	0.6951	0.5569	0.5631	-0.14
Mof_H 	H 	0.686	0.4713	0.5423	0.115
Mof_C 	C 	0.7616	0.4704	0.6993	0.365
Mof_C 	C 	0.7446	0.9508	0.6574	0.267
Mof_C 	C 	0.6501	0.7185	0.377	0.099
Mof_H 	H 	0.5887	0.7876	0.3875	0.027
Mof_H 	H 	0.611	0.6793	0.325	0.025
Mof_C 	C 	0.9664	0.9137	0.3908	0.102
Mof_H 	H 	0.0236	0.9903	0.4055	0.011
Mof_C 	C 	0.9014	0.7269	0.3447	0.113
Mof_H 	H 	0.8969	0.6437	0.3207	0
Mof_C 	C 	0.1732	0.2002	0.8318	-0.037
Mof_C 	C 	0.3118	0.251	0.8326	-0.025
Mof_H 	H 	0.3357	0.3398	0.8438	0.061
Mof_C 	C 	0.4158	0.1668	0.8163	-0.029
Mof_C 	C 	0.3798	0.0347	0.803	-0.129
Mof_H 	H 	0.4482	0.9793	0.7903	0.109
Mof_C 	C 	0.2444	0.9837	0.8083	0.202
Mof_C 	C 	0.1382	0.0673	0.8197	-0.137
Mof_H 	H 	0.0442	0.0344	0.8192	0.099
Mof_C 	C 	0.0546	0.288	0.8422	0.327
Mof_C 	C 	0.5669	0.2192	0.81	0.37
Mof_C 	C 	0.0969	0.785	0.8185	0.083
Mof_H 	H 	0.0837	0.6972	0.7945	0.03
Mof_H 	H 	0.0138	0.8328	0.7969	0.033
Mof_C 	C 	0.1129	0.8403	0.0203	0.1
Mof_H 	H 	0.1114	0.8931	0.0651	0.009
Mof_C 	C 	0.1353	0.6778	0.9508	0.09
Mof_H 	H 	0.1505	0.594	0.9328	-0.001
Mof_N 	N 	0.7949	0.7759	0.376	-0.105
Mof_N 	N 	0.8358	0.8987	0.4062	-0.087
Mof_N 	N 	0.0145	0.8112	0.3521	-0.229
Mof_N 	N 	0.1059	0.7777	0.9038	-0.103
Mof_N 	N 	0.0887	0.8858	0.949	-0.089
Mof_N 	N 	0.1402	0.7116	0.0251	-0.247
Mof_O 	O 	0.7457	0.3565	0.66886	-0.435
Mof_O 	O 	0.8033	0.5009	0.7714	-0.45
Mof_O 	O 	0.8232	0.972	0.72406	-0.357
Mof_O 	O 	0.6927	0.043	0.6166	-0.347
Mof_O 	O 	0.6467	0.6229	0.43378	-0.232
Mof_O 	O 	0.9258	0.2453	0.81723	-0.532
Mof_O 	O 	0.0818	0.3971	0.8767	-0.364
Mof_O 	O 	0.6117	0.3249	0.8475	-0.443
Mof_O 	O 	0.6317	0.1529	0.7685	-0.428
Mof_O 	O 	0.2233	0.8484	0.7993	-0.221
Mof_Co	Co	0.19752	0.8211	0.29151	1.183
Mof_Co	Co	0.17828	0.60721	0.13122	1.145
Mof_C 	C 	0.2706	0.4193	0.356	-0.016
Mof_C 	C 	0.2555	0.2901	0.3247	-0.05
Mof_H 	H 	0.2296	0.2734	0.2704	0.073
Mof_C 	C 	0.2796	0.1878	0.3756	0.016
Mof_C 	C 	0.3159	0.2117	0.4569	-0.159
Mof_H 	H 	0.3336	0.1427	0.4907	0.12
Mof_C 	C 	0.3255	0.3404	0.487	0.217
Mof_C 	C 	0.3049	0.4431	0.4369	-0.14
Mof_H 	H 	0.314	0.5287	0.4577	0.115
Mof_C 	C 	0.2384	0.5296	0.3007	0.365
Mof_C 	C 	0.2554	0.0492	0.3426	0.267
Mof_C 	C 	0.3499	0.2815	0.623	0.099
Mof_H 	H 	0.4113	0.2124	0.6125	0.027
Mof_H 	H 	0.389	0.3207	0.675	0.025
Mof_C 	C 	0.0336	0.0863	0.6092	0.102
Mof_H 	H 	0.9764	0.0097	0.5945	0.011
Mof_C 	C 	0.0986	0.2731	0.6553	0.113
Mof_H 	H 	0.1031	0.3563	0.6793	0
Mof_C 	C 	0.8268	0.7998	0.1682	-0.037
Mof_C 	C 	0.6882	0.749	0.1674	-0.025
Mof_H 	H 	0.6643	0.6602	0.1562	0.061
Mof_C 	C 	0.5842	0.8332	0.1837	-0.029
Mof_C 	C 	0.6202	0.9653	0.197	-0.129
Mof_H 	H 	0.5518	0.0207	0.2097	0.109
Mof_C 	C 	0.7556	0.0163	0.1917	0.202
Mof_C 	C 	0.8618	0.9327	0.1803	-0.137
Mof_H 	H 	0.9558	0.9656	0.1808	0.099
Mof_C 	C 	0.9454	0.712	0.1578	0.327
Mof_C 	C 	0.4331	0.7808	0.19	0.37
Mof_C 	C 	0.9031	0.215	0.1815	0.083
Mof_H 	H 	0.9163	0.3028	0.2055	0.03
Mof_H 	H 	0.9862	0.1672	0.2031	0.033
Mof_C 	C 	0.8871	0.1597	0.9797	0.1
Mof_H 	H 	0.8886	0.1069	0.9349	0.009
Mof_C 	C 	0.8647	0.3222	0.0492	0.09
Mof_H 	H 	0.8495	0.406	0.0672	-0.001
Mof_N 	N 	0.2051	0.2241	0.624	-0.105
Mof_N 	N 	0.1642	0.1013	0.5938	-0.087
Mof_N 	N 	0.9855	0.1888	0.6479	-0.229
Mof_N 	N 	0.8941	0.2223	0.0962	-0.103
Mof_N 	N 	0.9113	0.1142	0.051	-0.089
Mof_N 	N 	0.8598	0.2884	0.9749	-0.247
Mof_O 	O 	0.2543	0.6435	0.33114	-0.435
Mof_O 	O 	0.1967	0.4991	0.2286	-0.45
Mof_O 	O 	0.1768	0.028	0.27594	-0.357
Mof_O 	O 	0.3073	0.957	0.3834	-0.347
Mof_O 	O 	0.3533	0.3771	0.56622	-0.232
Mof_O 	O 	0.0742	0.7547	0.18277	-0.532
Mof_O 	O 	0.9182	0.6029	0.1233	-0.364
Mof_O 	O 	0.3883	0.6751	0.1525	-0.443
Mof_O 	O 	0.3683	0.8471	0.2315	-0.428
Mof_O 	O 	0.7767	0.1516	0.2007	-0.221
_end
