data_functionalizedCrystal
_audit_creation_method	'EQeq! by Chris Wilmer'
_symmetry_space_group_name_H-M	'P1'
_symmetry_Int_Tables_number	1
_symmetry_cell_setting	triclinic
loop_
_symmetry_equiv_pos_as_xyz
  x,y,z
_cell_length_a	10.6546
_cell_length_b	10.6545
_cell_length_c	9.1303
_cell_angle_alpha	89.9957
_cell_angle_beta	89.9997
_cell_angle_gamma	84.4844
loop_
_atom_site_label
_atom_site_type_symbol
_atom_site_fract_x
_atom_site_fract_y
_atom_site_fract_z
_atom_site_charge
Mof_O 	O 	0.66784	0.1764	0.87831	-0.34
Mof_O 	O 	0.30236	0.1932	0.87828	-0.35
Mof_O 	O 	0.4935	0.00206	0.87831	-0.279
Mof_O 	O 	0.47669	0.36754	0.87829	-0.345
Mof_O 	O 	0.49349	0.00206	0.12191	-0.317
Mof_O 	O 	0.30235	0.1932	0.12188	-0.39
Mof_O 	O 	0.66783	0.17639	0.12191	-0.378
Mof_Cu	Cu	0.48508	0.1848	0.14414	0.933
Mof_Cu	Cu	0.4851	0.1848	0.85605	0.944
Mof_O 	O 	0.47668	0.36754	0.12189	-0.382
Mof_C 	C 	0.25555	0.19197	8e-05	0.442
Mof_C 	C 	0.11611	0.18828	7e-05	-0.089
Mof_C 	C 	0.03662	0.30082	7e-05	0.13
Mof_C 	C 	0.9056	0.29734	9e-05	0.039
Mof_C 	C 	0.93357	0.06877	0.00012	0.139
Mof_C 	C 	0.06459	0.07225	0.0001	0.011
Mof_C 	C 	0.49226	0.95526	0.00011	0.281
Mof_C 	C 	0.48857	0.81582	0.0001	-0.028
Mof_C 	C 	0.71714	0.78785	0.00014	0.091
Mof_C 	C 	0.82968	0.70835	0.00016	0.085
Mof_C 	C 	0.8262	0.57734	0.00015	-0.006
Mof_C 	C 	0.71017	0.52581	0.00012	0.101
Mof_C 	C 	0.59763	0.6053	0.0001	0.028
Mof_C 	C 	0.60112	0.73632	0.00011	-0.005
Mof_C 	C 	0.36907	0.63328	6e-05	0.07
Mof_C 	C 	0.37254	0.76429	7e-05	-0.013
Mof_C 	C 	0.25304	0.58175	3e-05	-0.075
Mof_C 	C 	0.14049	0.66124	2e-05	0.095
Mof_C 	C 	0.14397	0.79227	2e-05	0.027
Mof_C 	C 	0.26	0.84379	5e-05	0.067
Mof_C 	C 	0.71463	0.17763	0.00011	0.494
Mof_C 	C 	0.85407	0.18132	0.00011	-0.081
Mof_C 	C 	0.47792	0.41434	9e-05	0.367
Mof_C 	C 	0.48161	0.55378	8e-05	-0.088
Mof_N 	N 	0.48508	0.18479	0.34676	-0.181
Mof_N 	N 	0.48511	0.1848	0.65343	-0.18
Mof_C 	C 	0.56975	0.10019	0.42342	0.038
Mof_C 	C 	0.56976	0.10019	0.57676	0.038
Mof_C 	C 	0.40043	0.2694	0.57676	0.035
Mof_C 	C 	0.40042	0.2694	0.42343	0.035
Mof_H 	H 	0.12931	0.9806	0.00011	0.087
Mof_Br	Br	0.98714	0.77829	0.00018	-0.268
Mof_Br	Br	0.98304	0.59131	0.99995	0.132
Mof_H 	H 	0.3315	0.33829	0.6392	0.059
Mof_H 	H 	0.33146	0.33829	0.361	0.055
Mof_Br	Br	0.10655	0.45828	3e-05	-0.234
Mof_H 	H 	0.84089	0.38899	9e-05	0.144
Mof_Br	Br	0.86364	0.91131	0.00015	-0.106
Mof_Br	Br	0.97894	0.46944	0.00016	-0.192
Mof_Br	Br	0.70546	0.348	-0	-0.385
Mof_Br	Br	0.72186	0.96566	0.00019	-0.262
Mof_H 	H 	0.25022	0.47507	2e-05	0.111
Mof_Br	Br	0.99123	0.90015	0.99998	0.074
Mof_Br	Br	0.26473	0.0216	8e-05	-0.326
Mof_H 	H 	0.6387	0.0313	0.63917	0.076
Mof_H 	H 	0.63869	0.03129	0.36101	0.072
_end
