# CIF file generated by openbabel 3.1.0, see https://openbabel.org
data_I
_chemical_name_common 'image0'
_cell_length_a 8.5028
_cell_length_b 13.1108
_cell_length_c 9.5831
_cell_angle_alpha 90
_cell_angle_beta 96.038
_cell_angle_gamma 90
_space_group_name_H-M_alt 'P 1'
_space_group_name_Hall 'P 1'
loop_
    _symmetry_equiv_pos_as_xyz
    x,y,z
loop_
    _atom_site_label
    _atom_site_type_symbol
    _atom_site_fract_x
    _atom_site_fract_y
    _atom_site_fract_z
    _atom_site_occupancy
    Eu1      Eu       0.54926    0.26692    0.49571    1.000
    C1       C        0.54280    0.38980    0.74470    1.000
    C2       C        0.52560    0.45180    0.87620    1.000
    C3       C        0.62120    0.42650    0.99930    1.000
    C4       C        0.40600    0.52690    0.87300    1.000
    C5       C        0.76110    0.35630    0.99360    1.000
    C6       C        0.30020    0.55140    0.74000    1.000
    O1       O        0.54640    0.43310    0.62720    1.000
    O2       O        0.55230    0.29300    0.75650    1.000
    O3       O        0.78900    0.28670    0.08550    1.000
    O4       O        0.85400    0.37210    0.90030    1.000
    O5       O        0.34810    0.61500    0.65610    1.000
    O6       O        0.16670    0.50770    0.72310    1.000
    Eu2      Eu       0.95074    0.76692    0.00429    1.000
    C7       C        0.95720    0.88980    0.75530    1.000
    C8       C        0.97440    0.95180    0.62380    1.000
    C9       C        0.87880    0.92650    0.50070    1.000
    C10      C        0.09400    0.02690    0.62700    1.000
    C11      C        0.73890    0.85630    0.50640    1.000
    C12      C        0.19980    0.05140    0.76000    1.000
    O7       O        0.95360    0.93310    0.87280    1.000
    O8       O        0.94770    0.79300    0.74350    1.000
    O9       O        0.71100    0.78670    0.41450    1.000
    O10      O        0.64600    0.87210    0.59970    1.000
    O11      O        0.15190    0.11500    0.84390    1.000
    O12      O        0.33330    0.00770    0.77690    1.000
    Eu3      Eu       0.45074    0.73308    0.50429    1.000
    C13      C        0.45720    0.61020    0.25530    1.000
    C14      C        0.47440    0.54820    0.12380    1.000
    C15      C        0.37880    0.57350    0.00070    1.000
    C16      C        0.59400    0.47310    0.12700    1.000
    C17      C        0.23890    0.64370    0.00640    1.000
    C18      C        0.69980    0.44860    0.26000    1.000
    O13      O        0.45360    0.56690    0.37280    1.000
    O14      O        0.44770    0.70700    0.24350    1.000
    O15      O        0.21100    0.71330    0.91450    1.000
    O16      O        0.14600    0.62790    0.09970    1.000
    O17      O        0.65190    0.38500    0.34390    1.000
    O18      O        0.83330    0.49230    0.27690    1.000
    Eu4      Eu       0.04926    0.23308    0.99571    1.000
    C19      C        0.04280    0.11020    0.24470    1.000
    C20      C        0.02560    0.04820    0.37620    1.000
    C21      C        0.12120    0.07350    0.49930    1.000
    C22      C        0.90600    0.97310    0.37300    1.000
    C23      C        0.26110    0.14370    0.49360    1.000
    C24      C        0.80020    0.94860    0.24000    1.000
    O19      O        0.04640    0.06690    0.12720    1.000
    O20      O        0.05230    0.20700    0.25650    1.000
    O21      O        0.28900    0.21330    0.58550    1.000
    O22      O        0.35400    0.12790    0.40030    1.000
    O23      O        0.84810    0.88500    0.15610    1.000
    O24      O        0.66670    0.99230    0.22310    1.000
