data_functionalizedCrystal
_audit_creation_method	'EQeq! by Chris Wilmer'
_symmetry_space_group_name_H-M	'P1'
_symmetry_Int_Tables_number	1
_symmetry_cell_setting	triclinic
loop_
_symmetry_equiv_pos_as_xyz
  x,y,z
_cell_length_a	15.1797
_cell_length_b	15.309
_cell_length_c	15.309
_cell_angle_alpha	120
_cell_angle_beta	90
_cell_angle_gamma	90
loop_
_atom_site_label
_atom_site_type_symbol
_atom_site_fract_x
_atom_site_fract_y
_atom_site_fract_z
_atom_site_charge
Mof_La	La	0.75	0.66667	0.33334	2.358
Mof_La	La	0.75	0.33333	0.66666	2.358
Mof_La	La	0.25	0.33333	0.66666	2.327
Mof_La	La	0.25	0.66667	0.33334	2.327
Mof_Co	Co	-0	0.5	-0	1.058
Mof_Co	Co	-0	0.5	0.5	1.098
Mof_Co	Co	-0	0	0.5	1.058
Mof_Co	Co	0.5	0.5	-0	1.125
Mof_Co	Co	0.5	0	0.5	1.125
Mof_Co	Co	0.5	0.5	0.5	1.165
Mof_H 	H 	0.8353	0.7894	0.1537	0.118
Mof_H 	H 	0.7608	0.7126	0.0896	0.076
Mof_H 	H 	0.8353	0.3643	0.2106	0.097
Mof_H 	H 	0.7608	0.377	0.2874	0.087
Mof_H 	H 	0.8353	0.8463	0.6357	0.14
Mof_H 	H 	0.7608	0.9104	0.623	0.134
Mof_H 	H 	0.8353	0.2106	0.8463	0.118
Mof_H 	H 	0.7608	0.2874	0.9104	0.122
Mof_H 	H 	0.8353	0.6357	0.7894	0.141
Mof_H 	H 	0.7608	0.623	0.7126	0.112
Mof_H 	H 	0.8353	0.1537	0.3643	0.096
Mof_H 	H 	0.7608	0.0896	0.377	0.065
Mof_H 	H 	0.6647	0.6357	0.8463	0.123
Mof_H 	H 	0.7392	0.623	0.9104	0.137
Mof_H 	H 	0.6647	0.1537	0.7894	0.101
Mof_H 	H 	0.7392	0.0896	0.7126	0.08
Mof_H 	H 	0.6647	0.2106	0.3643	0.078
Mof_H 	H 	0.7392	0.2874	0.377	0.091
Mof_H 	H 	0.6647	0.3643	0.1537	0.078
Mof_H 	H 	0.7392	0.377	0.0896	0.068
Mof_H 	H 	0.6647	0.8463	0.2106	0.1
Mof_H 	H 	0.7392	0.9104	0.2874	0.125
Mof_H 	H 	0.6647	0.7894	0.6357	0.124
Mof_H 	H 	0.7392	0.7126	0.623	0.115
Mof_H 	H 	0.1647	0.2106	0.8463	0.076
Mof_H 	H 	0.2392	0.2874	0.9104	0.113
Mof_H 	H 	0.1647	0.6357	0.7894	0.099
Mof_H 	H 	0.2392	0.623	0.7126	0.103
Mof_H 	H 	0.1647	0.1537	0.3643	0.053
Mof_H 	H 	0.2392	0.0896	0.377	0.055
Mof_H 	H 	0.1647	0.7894	0.1537	0.076
Mof_H 	H 	0.2392	0.7126	0.0896	0.067
Mof_H 	H 	0.1647	0.3643	0.2106	0.053
Mof_H 	H 	0.2392	0.377	0.2874	0.077
Mof_H 	H 	0.1647	0.8463	0.6357	0.099
Mof_H 	H 	0.2392	0.9104	0.623	0.125
Mof_H 	H 	0.3353	0.3643	0.1537	0.07
Mof_H 	H 	0.2608	0.377	0.0896	0.053
Mof_H 	H 	0.3353	0.8463	0.2106	0.093
Mof_H 	H 	0.2608	0.9104	0.2874	0.111
Mof_H 	H 	0.3353	0.7894	0.6357	0.117
Mof_H 	H 	0.2608	0.7126	0.623	0.101
Mof_H 	H 	0.3353	0.6357	0.8463	0.116
Mof_H 	H 	0.2608	0.623	0.9104	0.124
Mof_H 	H 	0.3353	0.1537	0.7894	0.094
Mof_H 	H 	0.2608	0.0896	0.7126	0.065
Mof_H 	H 	0.3353	0.2106	0.3643	0.071
Mof_H 	H 	0.2608	0.2874	0.377	0.076
Mof_C 	C 	0.8587	0.6476	0.1288	0.434
Mof_C 	C 	0.8	0.7335	0.1468	-0.214
Mof_C 	C 	0.8587	0.4812	0.3524	0.428
Mof_C 	C 	0.8	0.4133	0.2665	-0.203
Mof_C 	C 	0.8587	0.8712	0.5188	0.446
Mof_C 	C 	0.8	0.8532	0.5867	-0.243
Mof_C 	C 	0.8587	0.3524	0.8712	0.437
Mof_C 	C 	0.8	0.2665	0.8532	-0.225
Mof_C 	C 	0.8587	0.5188	0.6476	0.446
Mof_C 	C 	0.8	0.5867	0.7335	-0.239
Mof_C 	C 	0.8587	0.1288	0.4812	0.425
Mof_C 	C 	0.8	0.1468	0.4133	-0.197
Mof_C 	C 	0.6413	0.5188	0.8712	0.449
Mof_C 	C 	0.7	0.5867	0.8532	-0.247
Mof_C 	C 	0.6413	0.1288	0.6476	0.437
Mof_C 	C 	0.7	0.1468	0.7335	-0.219
Mof_C 	C 	0.6413	0.3524	0.4812	0.432
Mof_C 	C 	0.7	0.2665	0.4133	-0.207
Mof_C 	C 	0.6413	0.4812	0.1288	0.428
Mof_C 	C 	0.7	0.4133	0.1468	-0.201
Mof_C 	C 	0.6413	0.8712	0.3524	0.44
Mof_C 	C 	0.7	0.8532	0.2665	-0.228
Mof_C 	C 	0.6413	0.6476	0.5188	0.45
Mof_C 	C 	0.7	0.7335	0.5867	-0.243
Mof_C 	C 	0.1413	0.3524	0.8712	0.431
Mof_C 	C 	0.2	0.2665	0.8532	-0.217
Mof_C 	C 	0.1413	0.5188	0.6476	0.441
Mof_C 	C 	0.2	0.5867	0.7335	-0.231
Mof_C 	C 	0.1413	0.1288	0.4812	0.419
Mof_C 	C 	0.2	0.1468	0.4133	-0.188
Mof_C 	C 	0.1413	0.6476	0.1288	0.428
Mof_C 	C 	0.2	0.7335	0.1468	-0.207
Mof_C 	C 	0.1413	0.4812	0.3524	0.422
Mof_C 	C 	0.2	0.4133	0.2665	-0.194
Mof_C 	C 	0.1413	0.8712	0.5188	0.44
Mof_C 	C 	0.2	0.8532	0.5867	-0.235
Mof_C 	C 	0.3587	0.4812	0.1288	0.422
Mof_C 	C 	0.3	0.4133	0.1468	-0.188
Mof_C 	C 	0.3587	0.8712	0.3524	0.435
Mof_C 	C 	0.3	0.8532	0.2665	-0.217
Mof_C 	C 	0.3587	0.6476	0.5188	0.444
Mof_C 	C 	0.3	0.7335	0.5867	-0.232
Mof_C 	C 	0.3587	0.5188	0.8712	0.444
Mof_C 	C 	0.3	0.5867	0.8532	-0.236
Mof_C 	C 	0.3587	0.1288	0.6476	0.431
Mof_C 	C 	0.3	0.1468	0.7335	-0.207
Mof_C 	C 	0.3587	0.3524	0.4812	0.426
Mof_C 	C 	0.3	0.2665	0.4133	-0.194
Mof_O 	O 	0.9046	0.6116	0.0517	-0.421
Mof_O 	O 	0.8582	0.6188	0.1931	-0.482
Mof_O 	O 	0.9046	0.4401	0.3884	-0.396
Mof_O 	O 	0.8582	0.5743	0.3812	-0.473
Mof_O 	O 	0.9046	0.9483	0.5599	-0.348
Mof_O 	O 	0.8582	0.8069	0.4257	-0.466
Mof_O 	O 	0.9046	0.3884	0.9483	-0.351
Mof_O 	O 	0.8582	0.3812	0.8069	-0.464
Mof_O 	O 	0.9046	0.5599	0.6116	-0.39
Mof_O 	O 	0.8582	0.4257	0.6188	-0.476
Mof_O 	O 	0.9046	0.0517	0.4401	-0.424
Mof_O 	O 	0.8582	0.1931	0.5743	-0.48
Mof_O 	O 	0.5954	0.5599	0.9483	-0.411
Mof_O 	O 	0.6418	0.4257	0.8069	-0.498
Mof_O 	O 	0.5954	0.0517	0.6116	-0.486
Mof_O 	O 	0.6418	0.1931	0.6188	-0.515
Mof_O 	O 	0.5954	0.3884	0.4401	-0.461
Mof_O 	O 	0.6418	0.3812	0.5743	-0.506
Mof_O 	O 	0.5954	0.4401	0.0517	-0.489
Mof_O 	O 	0.6418	0.5743	0.1931	-0.513
Mof_O 	O 	0.5954	0.9483	0.3884	-0.414
Mof_O 	O 	0.6418	0.8069	0.3812	-0.496
Mof_O 	O 	0.5954	0.6116	0.5599	-0.455
Mof_O 	O 	0.6418	0.6188	0.4257	-0.509
Mof_O 	O 	0.0954	0.3884	0.9483	-0.45
Mof_O 	O 	0.1418	0.3812	0.8069	-0.516
Mof_O 	O 	0.0954	0.5599	0.6116	-0.491
Mof_O 	O 	0.1418	0.4257	0.6188	-0.529
Mof_O 	O 	0.0954	0.0517	0.4401	-0.526
Mof_O 	O 	0.1418	0.1931	0.5743	-0.533
Mof_O 	O 	0.0954	0.6116	0.0517	-0.523
Mof_O 	O 	0.1418	0.6188	0.1931	-0.535
Mof_O 	O 	0.0954	0.4401	0.3884	-0.498
Mof_O 	O 	0.1418	0.5743	0.3812	-0.526
Mof_O 	O 	0.0954	0.9483	0.5599	-0.447
Mof_O 	O 	0.1418	0.8069	0.4257	-0.518
Mof_O 	O 	0.4046	0.4401	0.0517	-0.488
Mof_O 	O 	0.3582	0.5743	0.1931	-0.509
Mof_O 	O 	0.4046	0.9483	0.3884	-0.413
Mof_O 	O 	0.3582	0.8069	0.3812	-0.492
Mof_O 	O 	0.4046	0.6116	0.5599	-0.454
Mof_O 	O 	0.3582	0.6188	0.4257	-0.505
Mof_O 	O 	0.4046	0.5599	0.9483	-0.41
Mof_O 	O 	0.3582	0.4257	0.8069	-0.493
Mof_O 	O 	0.4046	0.0517	0.6116	-0.485
Mof_O 	O 	0.3582	0.1931	0.6188	-0.51
Mof_O 	O 	0.4046	0.3884	0.4401	-0.46
Mof_O 	O 	0.3582	0.3812	0.5743	-0.501
Mof_O 	O 	0.75	0.76455	0.23545	-0.254
Mof_O 	O 	0.75	0.4709	0.23545	-0.267
Mof_O 	O 	0.75	0.76455	0.5291	-0.24
Mof_O 	O 	0.75	0.23545	0.76455	-0.253
Mof_O 	O 	0.75	0.5291	0.76455	-0.24
Mof_O 	O 	0.75	0.23545	0.4709	-0.267
Mof_O 	O 	0.25	0.23545	0.76455	-0.263
Mof_O 	O 	0.25	0.5291	0.76455	-0.249
Mof_O 	O 	0.25	0.23545	0.4709	-0.277
Mof_O 	O 	0.25	0.76455	0.23545	-0.263
Mof_O 	O 	0.25	0.4709	0.23545	-0.277
Mof_O 	O 	0.25	0.76455	0.5291	-0.249
_end
