data_functionalizedCrystal
_audit_creation_method	'EQeq! by Chris Wilmer'
_symmetry_space_group_name_H-M	'P1'
_symmetry_Int_Tables_number	1
_symmetry_cell_setting	triclinic
loop_
_symmetry_equiv_pos_as_xyz
  x,y,z
_cell_length_a	9.8463
_cell_length_b	16.8512
_cell_length_c	17.2543
_cell_angle_alpha	101.219
_cell_angle_beta	106.579
_cell_angle_gamma	90
loop_
_atom_site_label
_atom_site_type_symbol
_atom_site_fract_x
_atom_site_fract_y
_atom_site_fract_z
_atom_site_charge
Mof_Cd	Cd	-0	0.5	-0	0.332
Mof_Cd	Cd	-0	0	-0	0.324
Mof_H 	H 	0.2862	0.877	0.2338	0.145
Mof_H 	H 	0.66	0.9082	0.2732	0.141
Mof_H 	H 	0.426	0.0416	0.3738	0.048
Mof_H 	H 	0.3868	0.9806	0.2888	0.048
Mof_H 	H 	0.5236	0.9141	0.425	0.054
Mof_H 	H 	0.5411	0.8926	0.3358	0.041
Mof_H 	H 	0.1449	0.9977	0.43	0.074
Mof_H 	H 	0.2847	0.0529	0.4538	0.05
Mof_H 	H 	0.7522	0.0892	0.491	0.079
Mof_H 	H 	0.5992	0.0643	0.4918	0.055
Mof_H 	H 	0.9295	0.635	0.154	-0.001
Mof_H 	H 	0.0156	0.7503	0.2474	0.155
Mof_H 	H 	0.2667	0.7852	0.1158	0.138
Mof_H 	H 	0.1634	0.6697	0.0248	-0.036
Mof_H 	H 	0.0718	0.0213	0.1918	-0.039
Mof_H 	H 	0.9791	0.0146	0.2984	0.149
Mof_H 	H 	0.6425	0.886	0.132	0.125
Mof_H 	H 	0.7447	0.8979	0.0322	-0.018
Mof_H 	H 	0.0524	0.623	0.7662	0.137
Mof_H 	H 	0.3868	0.5918	0.7268	0.142
Mof_H 	H 	0.0522	0.4584	0.6262	0.061
Mof_H 	H 	0.098	0.5194	0.7112	0.055
Mof_H 	H 	0.0986	0.5859	0.575	0.047
Mof_H 	H 	0.2053	0.6074	0.6642	0.037
Mof_H 	H 	0.7149	0.5023	0.57	0.079
Mof_H 	H 	0.8309	0.4471	0.5462	0.062
Mof_H 	H 	0.2612	0.4108	0.509	0.078
Mof_H 	H 	0.1074	0.4357	0.5082	0.052
Mof_H 	H 	0.7755	0.865	0.846	-0.019
Mof_H 	H 	0.7682	0.7497	0.7526	0.169
Mof_H 	H 	0.1509	0.7148	0.8842	0.152
Mof_H 	H 	0.1386	0.8303	0.9752	-0.014
Mof_H 	H 	0.88	0.4787	0.8082	-0.007
Mof_H 	H 	0.6807	0.4854	0.7016	0.146
Mof_H 	H 	0.5105	0.614	0.868	0.127
Mof_H 	H 	0.7125	0.6021	0.9678	0.001
Mof_H 	H 	0.7138	0.123	0.7662	0.148
Mof_H 	H 	0.34	0.0918	0.7268	0.141
Mof_H 	H 	0.574	0.9584	0.6262	0.07
Mof_H 	H 	0.6132	0.0194	0.7112	0.056
Mof_H 	H 	0.4764	0.0859	0.575	0.051
Mof_H 	H 	0.4589	0.1074	0.6642	0.038
Mof_H 	H 	0.8551	0.0023	0.57	0.085
Mof_H 	H 	0.7153	0.9471	0.5462	0.07
Mof_H 	H 	0.2478	0.9108	0.509	0.079
Mof_H 	H 	0.4008	0.9357	0.5082	0.057
Mof_H 	H 	0.0705	0.365	0.846	-0.038
Mof_H 	H 	0.9844	0.2497	0.7526	0.176
Mof_H 	H 	0.7333	0.2148	0.8842	0.149
Mof_H 	H 	0.8366	0.3303	0.9752	-0.016
Mof_H 	H 	0.9282	0.9787	0.8082	0.016
Mof_H 	H 	0.0209	0.9854	0.7016	0.144
Mof_H 	H 	0.3575	0.114	0.868	0.125
Mof_H 	H 	0.2553	0.1021	0.9678	0
Mof_H 	H 	0.9476	0.377	0.2338	0.157
Mof_H 	H 	0.6132	0.4082	0.2732	0.141
Mof_H 	H 	0.9478	0.5416	0.3738	0.06
Mof_H 	H 	0.902	0.4806	0.2888	0.051
Mof_H 	H 	0.9014	0.4141	0.425	0.058
Mof_H 	H 	0.7947	0.3926	0.3358	0.042
Mof_H 	H 	0.2851	0.4977	0.43	0.079
Mof_H 	H 	0.1691	0.5529	0.4538	0.058
Mof_H 	H 	0.7388	0.5892	0.491	0.08
Mof_H 	H 	0.8926	0.5643	0.4918	0.061
Mof_H 	H 	0.2245	0.135	0.154	-0.022
Mof_H 	H 	0.2318	0.2503	0.2474	0.162
Mof_H 	H 	0.8491	0.2852	0.1158	0.136
Mof_H 	H 	0.8614	0.1697	0.0248	-0.038
Mof_H 	H 	0.12	0.5213	0.1918	-0.014
Mof_H 	H 	0.3193	0.5146	0.2984	0.146
Mof_H 	H 	0.4895	0.386	0.132	0.122
Mof_H 	H 	0.2875	0.3979	0.0322	-0.02
Mof_C 	C 	0.40475	0.9849	0.3477	-0.048
Mof_C 	C 	0.53526	0.937	0.37972	-0.052
Mof_C 	C 	0.24688	0.9971	0.43956	-0.043
Mof_C 	C 	0.68951	0.0436	0.48802	-0.054
Mof_C 	C 	0.19612	0.8877	0.32084	0.283
Mof_C 	C 	0.0023	0.6649	0.1464	0.148
Mof_C 	C 	0.0531	0.7348	0.2034	-0.292
Mof_C 	C 	0.15802	0.7812	0.19504	0.29
Mof_C 	C 	0.1977	0.7554	0.127	-0.31
Mof_C 	C 	0.1359	0.6838	0.0728	0.185
Mof_C 	C 	0.76008	0.9947	0.36396	0.293
Mof_C 	C 	0.98376	0.9941	0.17972	0.186
Mof_C 	C 	0.92879	0.9906	0.24458	-0.253
Mof_C 	C 	0.79737	0.9508	0.22754	0.253
Mof_C 	C 	0.72967	0.9147	0.14594	-0.26
Mof_C 	C 	0.7926	0.9218	0.0866	0.153
Mof_C 	C 	0.05705	0.5151	0.6523	-0.081
Mof_C 	C 	0.15554	0.563	0.62028	-0.039
Mof_C 	C 	0.80732	0.5029	0.56044	-0.058
Mof_C 	C 	0.20149	0.4564	0.51198	-0.052
Mof_C 	C 	0.87528	0.6123	0.67916	0.284
Mof_C 	C 	0.8559	0.8351	0.8536	0.191
Mof_C 	C 	0.8497	0.7652	0.7966	-0.315
Mof_C 	C 	0.96298	0.7188	0.80496	0.319
Mof_C 	C 	0.0707	0.7446	0.873	-0.328
Mof_C 	C 	0.0631	0.8162	0.9272	0.184
Mof_C 	C 	0.39612	0.5053	0.63604	0.284
Mof_C 	C 	0.80404	0.5059	0.82028	0.144
Mof_C 	C 	0.68421	0.5094	0.75542	-0.243
Mof_C 	C 	0.56983	0.5492	0.77246	0.245
Mof_C 	C 	0.58373	0.5853	0.85406	-0.25
Mof_C 	C 	0.706	0.5782	0.9134	0.15
Mof_C 	C 	0.59525	0.0151	0.6523	-0.083
Mof_C 	C 	0.46474	0.063	0.62028	-0.041
Mof_C 	C 	0.75312	0.0029	0.56044	-0.075
Mof_C 	C 	0.31049	0.9564	0.51198	-0.055
Mof_C 	C 	0.80388	0.1123	0.67916	0.283
Mof_C 	C 	0.9977	0.3351	0.8536	0.218
Mof_C 	C 	0.9469	0.2652	0.7966	-0.327
Mof_C 	C 	0.84198	0.2188	0.80496	0.312
Mof_C 	C 	0.8023	0.2446	0.873	-0.317
Mof_C 	C 	0.8641	0.3162	0.9272	0.196
Mof_C 	C 	0.23992	0.0053	0.63604	0.274
Mof_C 	C 	0.01624	0.0059	0.82028	0.105
Mof_C 	C 	0.07121	0.0094	0.75542	-0.238
Mof_C 	C 	0.20263	0.0492	0.77246	0.238
Mof_C 	C 	0.27033	0.0853	0.85406	-0.246
Mof_C 	C 	0.2074	0.0782	0.9134	0.145
Mof_C 	C 	0.94295	0.4849	0.3477	-0.052
Mof_C 	C 	0.84446	0.437	0.37972	-0.053
Mof_C 	C 	0.19268	0.4971	0.43956	-0.06
Mof_C 	C 	0.79851	0.5436	0.48802	-0.056
Mof_C 	C 	0.12472	0.3877	0.32084	0.282
Mof_C 	C 	0.1441	0.1649	0.1464	0.175
Mof_C 	C 	0.1503	0.2348	0.2034	-0.304
Mof_C 	C 	0.03702	0.2812	0.19504	0.281
Mof_C 	C 	0.9293	0.2554	0.127	-0.299
Mof_C 	C 	0.9369	0.1838	0.0728	0.198
Mof_C 	C 	0.60388	0.4947	0.36396	0.283
Mof_C 	C 	0.19596	0.4941	0.17972	0.143
Mof_C 	C 	0.31579	0.4906	0.24458	-0.246
Mof_C 	C 	0.43017	0.4508	0.22754	0.245
Mof_C 	C 	0.41627	0.4147	0.14594	-0.256
Mof_C 	C 	0.294	0.4218	0.0866	0.148
Mof_I 	I 	0.21223	0.53031	0.90638	-0.153
Mof_I 	I 	0.30585	0.96969	0.09362	-0.182
Mof_I 	I 	0.78777	0.46969	0.09362	-0.183
Mof_I 	I 	0.69415	0.03031	0.90638	-0.15
Mof_N 	N 	0.27583	0.9568	0.36326	-0.146
Mof_N 	N 	0.66754	0.9878	0.40808	-0.14
Mof_N 	N 	0.2232	0.8525	0.2478	-0.284
Mof_N 	N 	0.04596	0.6362	0.08252	-0.199
Mof_N 	N 	0.72769	0.945	0.28618	-0.271
Mof_N 	N 	0.91832	0.9609	0.10104	-0.182
Mof_N 	N 	0.91257	0.5432	0.63674	-0.135
Mof_N 	N 	0.25946	0.5122	0.59192	-0.144
Mof_N 	N 	0.9754	0.6475	0.7522	-0.277
Mof_N 	N 	0.96344	0.8638	0.91748	-0.185
Mof_N 	N 	0.44151	0.555	0.71382	-0.269
Mof_N 	N 	0.81728	0.5391	0.89896	-0.168
Mof_N 	N 	0.72417	0.0432	0.63674	-0.139
Mof_N 	N 	0.33246	0.0122	0.59192	-0.145
Mof_N 	N 	0.7768	0.1475	0.7522	-0.286
Mof_N 	N 	0.95404	0.3638	0.91748	-0.197
Mof_N 	N 	0.27231	0.055	0.71382	-0.267
Mof_N 	N 	0.08168	0.0391	0.89896	-0.166
Mof_N 	N 	0.08743	0.4568	0.36326	-0.149
Mof_N 	N 	0.74054	0.4878	0.40808	-0.141
Mof_N 	N 	0.0246	0.3525	0.2478	-0.293
Mof_N 	N 	0.03656	0.1362	0.08252	-0.212
Mof_N 	N 	0.55849	0.445	0.28618	-0.269
Mof_N 	N 	0.18272	0.4609	0.10104	-0.182
Mof_O 	O 	0.10647	0.8592	0.34494	-0.255
Mof_O 	O 	0.86343	0.0422	0.39126	-0.252
Mof_O 	O 	0.76153	0.6408	0.65506	-0.251
Mof_O 	O 	0.47217	0.4578	0.60874	-0.248
Mof_O 	O 	0.89353	0.1408	0.65506	-0.248
Mof_O 	O 	0.13657	0.9578	0.60874	-0.243
Mof_O 	O 	0.23847	0.3592	0.34494	-0.252
Mof_O 	O 	0.52783	0.5422	0.39126	-0.248
_end
