# CIF file generated by openbabel 3.1.0, see https://openbabel.org
data_I
_chemical_name_common 'GEDDAW_clean'
_cell_length_a 18.5167
_cell_length_b 18.5167
_cell_length_c 18.5167
_cell_angle_alpha 95.4507
_cell_angle_beta 95.4507
_cell_angle_gamma 95.4507
_space_group_name_H-M_alt 'P 1'
_space_group_name_Hall 'P 1'
loop_
    _symmetry_equiv_pos_as_xyz
    x,y,z
loop_
    _atom_site_label
    _atom_site_type_symbol
    _atom_site_fract_x
    _atom_site_fract_y
    _atom_site_fract_z
    _atom_site_occupancy
    Co1      Co       0.91821    0.72438    0.24653    1.000
    Co2      Co       0.77877    0.29499    0.08390    1.000
    Co3      Co       0.87163    0.96171    0.25606    1.000
    Co4      Co       0.79369    0.79617    0.32263    1.000
    Co5      Co       0.24653    0.91821    0.72438    1.000
    Co6      Co       0.08390    0.77877    0.29499    1.000
    Co7      Co       0.25606    0.87163    0.96171    1.000
    Co8      Co       0.32263    0.79369    0.79617    1.000
    Co9      Co       0.72438    0.24653    0.91821    1.000
    Co10     Co       0.29499    0.08390    0.77877    1.000
    Co11     Co       0.96171    0.25606    0.87163    1.000
    Co12     Co       0.79617    0.32263    0.79369    1.000
    Co13     Co       0.08179    0.27562    0.75347    1.000
    Co14     Co       0.22123    0.70501    0.91610    1.000
    Co15     Co       0.12837    0.03829    0.74394    1.000
    Co16     Co       0.20631    0.20383    0.67737    1.000
    Co17     Co       0.75347    0.08179    0.27562    1.000
    Co18     Co       0.91610    0.22123    0.70501    1.000
    Co19     Co       0.74394    0.12837    0.03829    1.000
    Co20     Co       0.67737    0.20631    0.20383    1.000
    Co21     Co       0.27562    0.75347    0.08179    1.000
    Co22     Co       0.70501    0.91610    0.22123    1.000
    Co23     Co       0.03829    0.74394    0.12837    1.000
    Co24     Co       0.20383    0.67737    0.20631    1.000
    H1       H        0.68900    0.60850    0.37910    1.000
    H2       H        0.61090    0.50160    0.37660    1.000
    H3       H        0.62670    0.39830    0.30180    1.000
    H4       H        0.80090    0.50600    0.22870    1.000
    H5       H        0.98880    0.83650    0.21520    1.000
    H6       H        0.66170    0.21700    0.07580    1.000
    H7       H        0.37910    0.68900    0.60850    1.000
    H8       H        0.37660    0.61090    0.50160    1.000
    H9       H        0.30180    0.62670    0.39830    1.000
    H10      H        0.22870    0.80090    0.50600    1.000
    H11      H        0.21520    0.98880    0.83650    1.000
    H12      H        0.07580    0.66170    0.21700    1.000
    H13      H        0.60850    0.37910    0.68900    1.000
    H14      H        0.50160    0.37660    0.61090    1.000
    H15      H        0.39830    0.30180    0.62670    1.000
    H16      H        0.50600    0.22870    0.80090    1.000
    H17      H        0.83650    0.21520    0.98880    1.000
    H18      H        0.21700    0.07580    0.66170    1.000
    H19      H        0.31100    0.39150    0.62090    1.000
    H20      H        0.38910    0.49840    0.62340    1.000
    H21      H        0.37330    0.60170    0.69820    1.000
    H22      H        0.19910    0.49400    0.77130    1.000
    H23      H        0.01120    0.16350    0.78480    1.000
    H24      H        0.33830    0.78300    0.92420    1.000
    H25      H        0.62090    0.31100    0.39150    1.000
    H26      H        0.62340    0.38910    0.49840    1.000
    H27      H        0.69820    0.37330    0.60170    1.000
    H28      H        0.77130    0.19910    0.49400    1.000
    H29      H        0.78480    0.01120    0.16350    1.000
    H30      H        0.92420    0.33830    0.78300    1.000
    H31      H        0.39150    0.62090    0.31100    1.000
    H32      H        0.49840    0.62340    0.38910    1.000
    H33      H        0.60170    0.69820    0.37330    1.000
    H34      H        0.49400    0.77130    0.19910    1.000
    H35      H        0.16350    0.78480    0.01120    1.000
    H36      H        0.78300    0.92420    0.33830    1.000
    C1       C        0.80380    0.63530    0.30590    1.000
    C2       C        0.72580    0.37290    0.21130    1.000
    C3       C        0.75420    0.56630    0.30450    1.000
    C4       C        0.69600    0.56600    0.34860    1.000
    C5       C        0.64980    0.50280    0.34670    1.000
    C6       C        0.65920    0.44130    0.30220    1.000
    C7       C        0.71570    0.44170    0.25790    1.000
    C8       C        0.76260    0.50500    0.25930    1.000
    C9       C        0.30590    0.80380    0.63530    1.000
    C10      C        0.21130    0.72580    0.37290    1.000
    C11      C        0.30450    0.75420    0.56630    1.000
    C12      C        0.34860    0.69600    0.56600    1.000
    C13      C        0.34670    0.64980    0.50280    1.000
    C14      C        0.30220    0.65920    0.44130    1.000
    C15      C        0.25790    0.71570    0.44170    1.000
    C16      C        0.25930    0.76260    0.50500    1.000
    C17      C        0.63530    0.30590    0.80380    1.000
    C18      C        0.37290    0.21130    0.72580    1.000
    C19      C        0.56630    0.30450    0.75420    1.000
    C20      C        0.56600    0.34860    0.69600    1.000
    C21      C        0.50280    0.34670    0.64980    1.000
    C22      C        0.44130    0.30220    0.65920    1.000
    C23      C        0.44170    0.25790    0.71570    1.000
    C24      C        0.50500    0.25930    0.76260    1.000
    C25      C        0.19620    0.36470    0.69410    1.000
    C26      C        0.27420    0.62710    0.78870    1.000
    C27      C        0.24580    0.43370    0.69550    1.000
    C28      C        0.30400    0.43400    0.65140    1.000
    C29      C        0.35020    0.49720    0.65330    1.000
    C30      C        0.34080    0.55870    0.69780    1.000
    C31      C        0.28430    0.55830    0.74210    1.000
    C32      C        0.23740    0.49500    0.74070    1.000
    C33      C        0.69410    0.19620    0.36470    1.000
    C34      C        0.78870    0.27420    0.62710    1.000
    C35      C        0.69550    0.24580    0.43370    1.000
    C36      C        0.65140    0.30400    0.43400    1.000
    C37      C        0.65330    0.35020    0.49720    1.000
    C38      C        0.69780    0.34080    0.55870    1.000
    C39      C        0.74210    0.28430    0.55830    1.000
    C40      C        0.74070    0.23740    0.49500    1.000
    C41      C        0.36470    0.69410    0.19620    1.000
    C42      C        0.62710    0.78870    0.27420    1.000
    C43      C        0.43370    0.69550    0.24580    1.000
    C44      C        0.43400    0.65140    0.30400    1.000
    C45      C        0.49720    0.65330    0.35020    1.000
    C46      C        0.55870    0.69780    0.34080    1.000
    C47      C        0.55830    0.74210    0.28430    1.000
    C48      C        0.49500    0.74070    0.23740    1.000
    S1       S        0.81675    0.81713    0.14967    1.000
    S2       S        0.96234    0.86804    0.36813    1.000
    S3       S        0.14967    0.81675    0.81713    1.000
    S4       S        0.36813    0.96234    0.86804    1.000
    S5       S        0.81713    0.14967    0.81675    1.000
    S6       S        0.86804    0.36813    0.96234    1.000
    S7       S        0.18325    0.18287    0.85033    1.000
    S8       S        0.03766    0.13196    0.63187    1.000
    S9       S        0.85033    0.18325    0.18287    1.000
    S10      S        0.63187    0.03766    0.13196    1.000
    S11      S        0.18287    0.85033    0.18325    1.000
    S12      S        0.13196    0.63187    0.03766    1.000
    O1       O        0.79300    0.69070    0.34830    1.000
    O2       O        0.85290    0.63520    0.26260    1.000
    O3       O        0.76130    0.37880    0.15730    1.000
    O4       O        0.69680    0.31470    0.23040    1.000
    O5       O        0.82020    0.76680    0.20930    1.000
    O6       O        0.74330    0.84240    0.14400    1.000
    O7       O        0.82910    0.77690    0.08110    1.000
    O8       O        0.87410    0.87950    0.16930    1.000
    O9       O        0.90920    0.80200    0.33950    1.000
    O10      O        0.95670    0.92320    0.31600    1.000
    O11      O        0.03610    0.84570    0.37200    1.000
    O12      O        0.94540    0.89550    0.43960    1.000
    O13      O        0.99830    0.79260    0.21780    1.000
    O14      O        0.70110    0.20940    0.10010    1.000
    O15      O        0.34830    0.79300    0.69070    1.000
    O16      O        0.26260    0.85290    0.63520    1.000
    O17      O        0.15730    0.76130    0.37880    1.000
    O18      O        0.23040    0.69680    0.31470    1.000
    O19      O        0.20930    0.82020    0.76680    1.000
    O20      O        0.14400    0.74330    0.84240    1.000
    O21      O        0.08110    0.82910    0.77690    1.000
    O22      O        0.16930    0.87410    0.87950    1.000
    O23      O        0.33950    0.90920    0.80200    1.000
    O24      O        0.31600    0.95670    0.92320    1.000
    O25      O        0.37200    0.03610    0.84570    1.000
    O26      O        0.43960    0.94540    0.89550    1.000
    O27      O        0.21780    0.99830    0.79260    1.000
    O28      O        0.10010    0.70110    0.20940    1.000
    O29      O        0.69070    0.34830    0.79300    1.000
    O30      O        0.63520    0.26260    0.85290    1.000
    O31      O        0.37880    0.15730    0.76130    1.000
    O32      O        0.31470    0.23040    0.69680    1.000
    O33      O        0.76680    0.20930    0.82020    1.000
    O34      O        0.84240    0.14400    0.74330    1.000
    O35      O        0.77690    0.08110    0.82910    1.000
    O36      O        0.87950    0.16930    0.87410    1.000
    O37      O        0.80200    0.33950    0.90920    1.000
    O38      O        0.92320    0.31600    0.95670    1.000
    O39      O        0.84570    0.37200    0.03610    1.000
    O40      O        0.89550    0.43960    0.94540    1.000
    O41      O        0.79260    0.21780    0.99830    1.000
    O42      O        0.20940    0.10010    0.70110    1.000
    O43      O        0.20700    0.30930    0.65170    1.000
    O44      O        0.14710    0.36480    0.73740    1.000
    O45      O        0.23870    0.62120    0.84270    1.000
    O46      O        0.30320    0.68530    0.76960    1.000
    O47      O        0.17980    0.23320    0.79070    1.000
    O48      O        0.25670    0.15760    0.85600    1.000
    O49      O        0.17090    0.22310    0.91890    1.000
    O50      O        0.12590    0.12050    0.83070    1.000
    O51      O        0.09080    0.19800    0.66050    1.000
    O52      O        0.04330    0.07680    0.68400    1.000
    O53      O        0.96390    0.15430    0.62800    1.000
    O54      O        0.05460    0.10450    0.56040    1.000
    O55      O        0.00170    0.20740    0.78220    1.000
    O56      O        0.29890    0.79060    0.89990    1.000
    O57      O        0.65170    0.20700    0.30930    1.000
    O58      O        0.73740    0.14710    0.36480    1.000
    O59      O        0.84270    0.23870    0.62120    1.000
    O60      O        0.76960    0.30320    0.68530    1.000
    O61      O        0.79070    0.17980    0.23320    1.000
    O62      O        0.85600    0.25670    0.15760    1.000
    O63      O        0.91890    0.17090    0.22310    1.000
    O64      O        0.83070    0.12590    0.12050    1.000
    O65      O        0.66050    0.09080    0.19800    1.000
    O66      O        0.68400    0.04330    0.07680    1.000
    O67      O        0.62800    0.96390    0.15430    1.000
    O68      O        0.56040    0.05460    0.10450    1.000
    O69      O        0.78220    0.00170    0.20740    1.000
    O70      O        0.89990    0.29890    0.79060    1.000
    O71      O        0.30930    0.65170    0.20700    1.000
    O72      O        0.36480    0.73740    0.14710    1.000
    O73      O        0.62120    0.84270    0.23870    1.000
    O74      O        0.68530    0.76960    0.30320    1.000
    O75      O        0.23320    0.79070    0.17980    1.000
    O76      O        0.15760    0.85600    0.25670    1.000
    O77      O        0.22310    0.91890    0.17090    1.000
    O78      O        0.12050    0.83070    0.12590    1.000
    O79      O        0.19800    0.66050    0.09080    1.000
    O80      O        0.07680    0.68400    0.04330    1.000
    O81      O        0.15430    0.62800    0.96390    1.000
    O82      O        0.10450    0.56040    0.05460    1.000
    O83      O        0.20740    0.78220    0.00170    1.000
    O84      O        0.79060    0.89990    0.29890    1.000
