# CIF file generated by openbabel 3.1.0, see https://openbabel.org
data_I
_chemical_name_common 'ADOBUR_charged'
_cell_length_a 14.6533
_cell_length_b 17.0616
_cell_length_c 17.0616
_cell_angle_alpha 90
_cell_angle_beta 90
_cell_angle_gamma 90
_space_group_name_H-M_alt 'P 1'
_space_group_name_Hall 'P 1'
loop_
    _symmetry_equiv_pos_as_xyz
    x,y,z
loop_
    _atom_site_label
    _atom_site_type_symbol
    _atom_site_fract_x
    _atom_site_fract_y
    _atom_site_fract_z
    _atom_site_occupancy
    V1       V        0.87166    0.87875    0.88698    1.000
    V2       V        0.91123    0.81449    0.04745    1.000
    V3       V        0.08729    0.81155    0.96620    1.000
    V4       V        0.76963    0.93370    0.07055    1.000
    V5       V        0.87166    0.12125    0.11302    1.000
    V6       V        0.91123    0.18551    0.95255    1.000
    V7       V        0.08729    0.18845    0.03380    1.000
    V8       V        0.76963    0.06630    0.92945    1.000
    V9       V        0.12834    0.88698    0.12125    1.000
    V10      V        0.08877    0.04745    0.18551    1.000
    V11      V        0.91271    0.96620    0.18845    1.000
    V12      V        0.23037    0.07055    0.06630    1.000
    V13      V        0.12834    0.11302    0.87875    1.000
    V14      V        0.08877    0.95255    0.81449    1.000
    V15      V        0.91271    0.03380    0.81155    1.000
    V16      V        0.23037    0.92945    0.93370    1.000
    V17      V        0.37166    0.37875    0.61302    1.000
    V18      V        0.41123    0.31449    0.45255    1.000
    V19      V        0.58729    0.31155    0.53380    1.000
    V20      V        0.26963    0.43370    0.42945    1.000
    V21      V        0.37166    0.62125    0.38698    1.000
    V22      V        0.41123    0.68551    0.54745    1.000
    V23      V        0.58729    0.68845    0.46620    1.000
    V24      V        0.26963    0.56630    0.57055    1.000
    V25      V        0.62834    0.38698    0.37875    1.000
    V26      V        0.58877    0.54745    0.31449    1.000
    V27      V        0.41271    0.46620    0.31155    1.000
    V28      V        0.73037    0.57055    0.43370    1.000
    V29      V        0.62834    0.61302    0.62125    1.000
    V30      V        0.58877    0.45255    0.68551    1.000
    V31      V        0.41271    0.53380    0.68845    1.000
    V32      V        0.73037    0.42945    0.56630    1.000
    Ni1      Ni       0.75000    0.74637    0.75363    1.000
    Ni2      Ni       0.75000    0.25363    0.24637    1.000
    Ni3      Ni       0.25000    0.75363    0.25363    1.000
    Ni4      Ni       0.25000    0.24637    0.74637    1.000
    H1       H        0.94300    0.81870    0.72160    1.000
    H2       H        0.04780    0.82890    0.62240    1.000
    H3       H        0.94420    0.71520    0.82000    1.000
    H4       H        0.75410    0.56830    0.75910    1.000
    H5       H        0.85410    0.46560    0.76780    1.000
    H6       H        0.05190    0.61840    0.81880    1.000
    H7       H        0.75680    0.74860    0.57660    1.000
    H8       H        0.85590    0.75050    0.47370    1.000
    H9       H        0.94300    0.18130    0.27840    1.000
    H10      H        0.04780    0.17110    0.37760    1.000
    H11      H        0.94420    0.28480    0.18000    1.000
    H12      H        0.75410    0.43170    0.24090    1.000
    H13      H        0.85410    0.53440    0.23220    1.000
    H14      H        0.05190    0.38160    0.18120    1.000
    H15      H        0.75680    0.25140    0.42340    1.000
    H16      H        0.85590    0.24950    0.52630    1.000
    H17      H        0.05700    0.72160    0.18130    1.000
    H18      H        0.95220    0.62240    0.17110    1.000
    H19      H        0.05580    0.82000    0.28480    1.000
    H20      H        0.24590    0.75910    0.43170    1.000
    H21      H        0.14590    0.76780    0.53440    1.000
    H22      H        0.94810    0.81880    0.38160    1.000
    H23      H        0.24320    0.57660    0.25140    1.000
    H24      H        0.14410    0.47370    0.24950    1.000
    H25      H        0.05700    0.27840    0.81870    1.000
    H26      H        0.95220    0.37760    0.82890    1.000
    H27      H        0.05580    0.18000    0.71520    1.000
    H28      H        0.24590    0.24090    0.56830    1.000
    H29      H        0.14590    0.23220    0.46560    1.000
    H30      H        0.94810    0.18120    0.61840    1.000
    H31      H        0.24320    0.42340    0.74860    1.000
    H32      H        0.14410    0.52630    0.75050    1.000
    H33      H        0.44300    0.31870    0.77840    1.000
    H34      H        0.54780    0.32890    0.87760    1.000
    H35      H        0.44420    0.21520    0.68000    1.000
    H36      H        0.25410    0.06830    0.74090    1.000
    H37      H        0.35410    0.96560    0.73220    1.000
    H38      H        0.55190    0.11840    0.68120    1.000
    H39      H        0.25680    0.24860    0.92340    1.000
    H40      H        0.35590    0.25050    0.02630    1.000
    H41      H        0.44300    0.68130    0.22160    1.000
    H42      H        0.54780    0.67110    0.12240    1.000
    H43      H        0.44420    0.78480    0.32000    1.000
    H44      H        0.25410    0.93170    0.25910    1.000
    H45      H        0.35410    0.03440    0.26780    1.000
    H46      H        0.55190    0.88160    0.31880    1.000
    H47      H        0.25680    0.75140    0.07660    1.000
    H48      H        0.35590    0.74950    0.97370    1.000
    H49      H        0.55700    0.22160    0.31870    1.000
    H50      H        0.45220    0.12240    0.32890    1.000
    H51      H        0.55580    0.32000    0.21520    1.000
    H52      H        0.74590    0.25910    0.06830    1.000
    H53      H        0.64590    0.26780    0.96560    1.000
    H54      H        0.44810    0.31880    0.11840    1.000
    H55      H        0.74320    0.07660    0.24860    1.000
    H56      H        0.64410    0.97370    0.25050    1.000
    H57      H        0.55700    0.77840    0.68130    1.000
    H58      H        0.45220    0.87760    0.67110    1.000
    H59      H        0.55580    0.68000    0.78480    1.000
    H60      H        0.74590    0.74090    0.93170    1.000
    H61      H        0.64590    0.73220    0.03440    1.000
    H62      H        0.44810    0.68120    0.88160    1.000
    H63      H        0.74320    0.92340    0.75140    1.000
    H64      H        0.64410    0.02630    0.74950    1.000
    C1       C        0.92560    0.80450    0.67120    1.000
    C2       C        0.98910    0.81100    0.61200    1.000
    C3       C        0.96310    0.78990    0.53540    1.000
    C4       C        0.92680    0.66490    0.80530    1.000
    C5       C        0.81480    0.57840    0.77120    1.000
    C6       C        0.87480    0.51660    0.77540    1.000
    C7       C        0.03250    0.79120    0.46960    1.000
    C8       C        0.99160    0.60630    0.80690    1.000
    C9       C        0.81710    0.76260    0.58630    1.000
    C10      C        0.87560    0.76520    0.52340    1.000
    C11      C        0.92560    0.19550    0.32880    1.000
    C12      C        0.98910    0.18900    0.38800    1.000
    C13      C        0.96310    0.21010    0.46460    1.000
    C14      C        0.92680    0.33510    0.19470    1.000
    C15      C        0.81480    0.42160    0.22880    1.000
    C16      C        0.87480    0.48340    0.22460    1.000
    C17      C        0.03250    0.20880    0.53040    1.000
    C18      C        0.99160    0.39370    0.19310    1.000
    C19      C        0.81710    0.23740    0.41370    1.000
    C20      C        0.87560    0.23480    0.47660    1.000
    C21      C        0.07440    0.67120    0.19550    1.000
    C22      C        0.01090    0.61200    0.18900    1.000
    C23      C        0.03690    0.53540    0.21010    1.000
    C24      C        0.07320    0.80530    0.33510    1.000
    C25      C        0.18520    0.77120    0.42160    1.000
    C26      C        0.12520    0.77540    0.48340    1.000
    C27      C        0.96750    0.46960    0.20880    1.000
    C28      C        0.00840    0.80690    0.39370    1.000
    C29      C        0.18290    0.58630    0.23740    1.000
    C30      C        0.12440    0.52340    0.23480    1.000
    C31      C        0.07440    0.32880    0.80450    1.000
    C32      C        0.01090    0.38800    0.81100    1.000
    C33      C        0.03690    0.46460    0.78990    1.000
    C34      C        0.07320    0.19470    0.66490    1.000
    C35      C        0.18520    0.22880    0.57840    1.000
    C36      C        0.12520    0.22460    0.51660    1.000
    C37      C        0.96750    0.53040    0.79120    1.000
    C38      C        0.00840    0.19310    0.60630    1.000
    C39      C        0.18290    0.41370    0.76260    1.000
    C40      C        0.12440    0.47660    0.76520    1.000
    C41      C        0.42560    0.30450    0.82880    1.000
    C42      C        0.48910    0.31100    0.88800    1.000
    C43      C        0.46310    0.28990    0.96460    1.000
    C44      C        0.42680    0.16490    0.69470    1.000
    C45      C        0.31480    0.07840    0.72880    1.000
    C46      C        0.37480    0.01660    0.72460    1.000
    C47      C        0.53250    0.29120    0.03040    1.000
    C48      C        0.49160    0.10630    0.69310    1.000
    C49      C        0.31710    0.26260    0.91370    1.000
    C50      C        0.37560    0.26520    0.97660    1.000
    C51      C        0.42560    0.69550    0.17120    1.000
    C52      C        0.48910    0.68900    0.11200    1.000
    C53      C        0.46310    0.71010    0.03540    1.000
    C54      C        0.42680    0.83510    0.30530    1.000
    C55      C        0.31480    0.92160    0.27120    1.000
    C56      C        0.37480    0.98340    0.27540    1.000
    C57      C        0.53250    0.70880    0.96960    1.000
    C58      C        0.49160    0.89370    0.30690    1.000
    C59      C        0.31710    0.73740    0.08630    1.000
    C60      C        0.37560    0.73480    0.02340    1.000
    C61      C        0.57440    0.17120    0.30450    1.000
    C62      C        0.51090    0.11200    0.31100    1.000
    C63      C        0.53690    0.03540    0.28990    1.000
    C64      C        0.57320    0.30530    0.16490    1.000
    C65      C        0.68520    0.27120    0.07840    1.000
    C66      C        0.62520    0.27540    0.01660    1.000
    C67      C        0.46750    0.96960    0.29120    1.000
    C68      C        0.50840    0.30690    0.10630    1.000
    C69      C        0.68290    0.08630    0.26260    1.000
    C70      C        0.62440    0.02340    0.26520    1.000
    C71      C        0.57440    0.82880    0.69550    1.000
    C72      C        0.51090    0.88800    0.68900    1.000
    C73      C        0.53690    0.96460    0.71010    1.000
    C74      C        0.57320    0.69470    0.83510    1.000
    C75      C        0.68520    0.72880    0.92160    1.000
    C76      C        0.62520    0.72460    0.98340    1.000
    C77      C        0.46750    0.03040    0.70880    1.000
    C78      C        0.50840    0.69310    0.89370    1.000
    C79      C        0.68290    0.91370    0.73740    1.000
    C80      C        0.62440    0.97660    0.73480    1.000
    N1       N        0.84090    0.65290    0.78400    1.000
    N2       N        0.84000    0.77870    0.66000    1.000
    N3       N        0.84090    0.34710    0.21600    1.000
    N4       N        0.84000    0.22130    0.34000    1.000
    N5       N        0.15910    0.78400    0.34710    1.000
    N6       N        0.16000    0.66000    0.22130    1.000
    N7       N        0.15910    0.21600    0.65290    1.000
    N8       N        0.16000    0.34000    0.77870    1.000
    N9       N        0.34090    0.15290    0.71600    1.000
    N10      N        0.34000    0.27870    0.84000    1.000
    N11      N        0.34090    0.84710    0.28400    1.000
    N12      N        0.34000    0.72130    0.16000    1.000
    N13      N        0.65910    0.28400    0.15290    1.000
    N14      N        0.66000    0.16000    0.27870    1.000
    N15      N        0.65910    0.71600    0.84710    1.000
    N16      N        0.66000    0.84000    0.72130    1.000
    O1       O        0.81840    0.81760    0.82900    1.000
    O2       O        0.96230    0.81500    0.94090    1.000
    O3       O        0.81720    0.87020    0.99090    1.000
    O4       O        0.87580    0.72840    0.06750    1.000
    O5       O        0.87760    0.87860    0.13160    1.000
    O6       O        0.96280    0.92820    0.82210    1.000
    O7       O        0.12320    0.72340    0.95650    1.000
    O8       O        0.81790    0.98110    0.87020    1.000
    O9       O        0.68290    0.89410    0.11360    1.000
    O10      O        0.81840    0.18240    0.17100    1.000
    O11      O        0.96230    0.18500    0.05910    1.000
    O12      O        0.81720    0.12980    0.00910    1.000
    O13      O        0.87580    0.27160    0.93250    1.000
    O14      O        0.87760    0.12140    0.86840    1.000
    O15      O        0.96280    0.07180    0.17790    1.000
    O16      O        0.12320    0.27660    0.04350    1.000
    O17      O        0.81790    0.01890    0.12980    1.000
    O18      O        0.68290    0.10590    0.88640    1.000
    O19      O        0.18160    0.82900    0.18240    1.000
    O20      O        0.03770    0.94090    0.18500    1.000
    O21      O        0.18280    0.99090    0.12980    1.000
    O22      O        0.12420    0.06750    0.27160    1.000
    O23      O        0.12240    0.13160    0.12140    1.000
    O24      O        0.03720    0.82210    0.07180    1.000
    O25      O        0.87680    0.95650    0.27660    1.000
    O26      O        0.18210    0.87020    0.01890    1.000
    O27      O        0.31710    0.11360    0.10590    1.000
    O28      O        0.18160    0.17100    0.81760    1.000
    O29      O        0.03770    0.05910    0.81500    1.000
    O30      O        0.18280    0.00910    0.87020    1.000
    O31      O        0.12420    0.93250    0.72840    1.000
    O32      O        0.12240    0.86840    0.87860    1.000
    O33      O        0.03720    0.17790    0.92820    1.000
    O34      O        0.87680    0.04350    0.72340    1.000
    O35      O        0.18210    0.12980    0.98110    1.000
    O36      O        0.31710    0.88640    0.89410    1.000
    O37      O        0.31840    0.31760    0.67100    1.000
    O38      O        0.46230    0.31500    0.55910    1.000
    O39      O        0.31720    0.37020    0.50910    1.000
    O40      O        0.37580    0.22840    0.43250    1.000
    O41      O        0.37760    0.37860    0.36840    1.000
    O42      O        0.46280    0.42820    0.67790    1.000
    O43      O        0.62320    0.22340    0.54350    1.000
    O44      O        0.31790    0.48110    0.62980    1.000
    O45      O        0.18290    0.39410    0.38640    1.000
    O46      O        0.31840    0.68240    0.32900    1.000
    O47      O        0.46230    0.68500    0.44090    1.000
    O48      O        0.31720    0.62980    0.49090    1.000
    O49      O        0.37580    0.77160    0.56750    1.000
    O50      O        0.37760    0.62140    0.63160    1.000
    O51      O        0.46280    0.57180    0.32210    1.000
    O52      O        0.62320    0.77660    0.45650    1.000
    O53      O        0.31790    0.51890    0.37020    1.000
    O54      O        0.18290    0.60590    0.61360    1.000
    O55      O        0.68160    0.32900    0.31760    1.000
    O56      O        0.53770    0.44090    0.31500    1.000
    O57      O        0.68280    0.49090    0.37020    1.000
    O58      O        0.62420    0.56750    0.22840    1.000
    O59      O        0.62240    0.63160    0.37860    1.000
    O60      O        0.53720    0.32210    0.42820    1.000
    O61      O        0.37680    0.45650    0.22340    1.000
    O62      O        0.68210    0.37020    0.48110    1.000
    O63      O        0.81710    0.61360    0.39410    1.000
    O64      O        0.68160    0.67100    0.68240    1.000
    O65      O        0.53770    0.55910    0.68500    1.000
    O66      O        0.68280    0.50910    0.62980    1.000
    O67      O        0.62420    0.43250    0.77160    1.000
    O68      O        0.62240    0.36840    0.62140    1.000
    O69      O        0.53720    0.67790    0.57180    1.000
    O70      O        0.37680    0.54350    0.77660    1.000
    O71      O        0.68210    0.62980    0.51890    1.000
    O72      O        0.81710    0.38640    0.60590    1.000
    O73      O        0.71650    0.00000    0.00000    1.000
    O74      O        0.28350    0.00000    0.00000    1.000
    O75      O        0.21650    0.50000    0.50000    1.000
    O76      O        0.78350    0.50000    0.50000    1.000
    F1       F        0.00000    0.00000    0.00000    1.000
    F2       F        0.50000    0.50000    0.50000    1.000
