# CIF file generated by openbabel 3.1.0, see https://openbabel.org
data_I
_chemical_name_common 'image0'
_cell_length_a 19.6796
_cell_length_b 15.5684
_cell_length_c 28.5978
_cell_angle_alpha 90
_cell_angle_beta 103.83
_cell_angle_gamma 90
_space_group_name_H-M_alt 'P 1'
_space_group_name_Hall 'P 1'
loop_
    _symmetry_equiv_pos_as_xyz
    x,y,z
loop_
    _atom_site_label
    _atom_site_type_symbol
    _atom_site_fract_x
    _atom_site_fract_y
    _atom_site_fract_z
    _atom_site_occupancy
    Sn1      Sn       0.76711    0.72816    0.00410    1.000
    C1       C        0.83910    0.75770    0.96221    1.000
    H1       H        0.87090    0.70900    0.96280    1.000
    H2       H        0.86620    0.80860    0.97550    1.000
    H3       H        0.81370    0.76910    0.92890    1.000
    C2       C        0.79930    0.65600    0.06816    1.000
    H4       H        0.80340    0.69400    0.09600    1.000
    H5       H        0.84470    0.62930    0.06920    1.000
    H6       H        0.76460    0.61120    0.06900    1.000
    C3       C        0.66290    0.77160    0.98180    1.000
    H7       H        0.63190    0.72250    0.97110    1.000
    H8       H        0.65900    0.81230    0.95510    1.000
    H9       H        0.64950    0.80010    0.00880    1.000
    Sn2      Sn       0.74688    0.26573    0.73531    1.000
    C4       C        0.84200    0.28590    0.71489    1.000
    H10      H        0.88000    0.29410    0.74380    1.000
    H11      H        0.83800    0.33720    0.69450    1.000
    H12      H        0.85230    0.23590    0.69690    1.000
    C5       C        0.65540    0.32860    0.69592    1.000
    H13      H        0.65020    0.38380    0.71120    1.000
    H14      H        0.61450    0.29260    0.69560    1.000
    H15      H        0.65930    0.33840    0.66280    1.000
    C6       C        0.73810    0.17930    0.79092    1.000
    H16      H        0.70700    0.13180    0.77720    1.000
    H17      H        0.71890    0.20960    0.81490    1.000
    H18      H        0.78450    0.15650    0.80640    1.000
    Sn3      Sn       0.77380    0.67135    0.23564    1.000
    C7       C        0.77000    0.75590    0.29316    1.000
    H19      H        0.79210    0.72840    0.32390    1.000
    H20      H        0.72120    0.76940    0.29250    1.000
    H21      H        0.79510    0.80900    0.28970    1.000
    C8       C        0.86970    0.64270    0.21844    1.000
    H22      H        0.89660    0.60290    0.24240    1.000
    H23      H        0.89650    0.69580    0.21840    1.000
    H24      H        0.86070    0.61610    0.18650    1.000
    C9       C        0.68190    0.61530    0.19301    1.000
    H25      H        0.64080    0.64120    0.20120    1.000
    H26      H        0.68220    0.55340    0.19920    1.000
    H27      H        0.67990    0.62530    0.15890    1.000
    Sn4      Sn       0.00666    0.99042    0.25378    1.000
    C10      C        0.07470    0.93990    0.21359    1.000
    H28      H        0.08720    0.88070    0.22380    1.000
    H29      H        0.05130    0.94050    0.17930    1.000
    H30      H        0.11720    0.97500    0.21910    1.000
    C11      C        0.99270    0.12470    0.25614    1.000
    H31      H        0.96950    0.13880    0.28190    1.000
    H32      H        0.03840    0.15320    0.26240    1.000
    H33      H        0.96380    0.14440    0.22520    1.000
    C12      C        0.95480    0.90600    0.29170    1.000
    H34      H        0.91600    0.87780    0.26900    1.000
    H35      H        0.98780    0.86260    0.30840    1.000
    H36      H        0.93650    0.93870    0.31530    1.000
    Fe1      Fe       0.75887    0.96030    0.13006    1.000
    C13      C        0.78479    0.89653    0.07943    1.000
    N1       N        0.79504    0.85325    0.04927    1.000
    C14      C        0.75737    0.85180    0.16302    1.000
    N2       N        0.75877    0.78820    0.18335    1.000
    C15      C        0.72978    0.02050    0.18067    1.000
    N3       N        0.71500    0.05810    0.21110    1.000
    C16      C        0.85469    0.97410    0.16613    1.000
    N4       N        0.91115    0.98150    0.18887    1.000
    C17      C        0.76473    0.07100    0.10004    1.000
    N5       N        0.76789    0.13751    0.08367    1.000
    C18      C        0.66310    0.94480    0.09359    1.000
    N6       N        0.60778    0.93450    0.07007    1.000
    Fe2      Fe       0.75606    0.48820    0.87520    1.000
    C19      C        0.74289    0.55865    0.92754    1.000
    N7       N        0.73849    0.60388    0.95828    1.000
    C20      C        0.76819    0.41810    0.82242    1.000
    N8       N        0.77044    0.37510    0.79058    1.000
    C21      C        0.77015    0.59120    0.84098    1.000
    N9       N        0.77615    0.65200    0.81977    1.000
    C22      C        0.65849    0.49440    0.84153    1.000
    N10      N        0.60190    0.49910    0.81902    1.000
    C23      C        0.85475    0.48904    0.90715    1.000
    N11      N        0.91269    0.49360    0.92724    1.000
    C24      C        0.73833    0.38336    0.90685    1.000
    N12      N        0.72760    0.32000    0.92411    1.000
    Sn5      Sn       0.73289    0.22816    0.49590    1.000
    C25      C        0.66090    0.25770    0.53779    1.000
    H37      H        0.62910    0.20900    0.53720    1.000
    H38      H        0.63380    0.30860    0.52450    1.000
    H39      H        0.68630    0.26910    0.57110    1.000
    C26      C        0.70070    0.15600    0.43184    1.000
    H40      H        0.69660    0.19400    0.40400    1.000
    H41      H        0.65530    0.12930    0.43080    1.000
    H42      H        0.73540    0.11120    0.43100    1.000
    C27      C        0.83710    0.27160    0.51820    1.000
    H43      H        0.86810    0.22250    0.52890    1.000
    H44      H        0.84100    0.31230    0.54490    1.000
    H45      H        0.85050    0.30010    0.49120    1.000
    Sn6      Sn       0.75312    0.76573    0.76469    1.000
    C28      C        0.65800    0.78590    0.78511    1.000
    H46      H        0.62000    0.79410    0.75620    1.000
    H47      H        0.66200    0.83720    0.80550    1.000
    H48      H        0.64770    0.73590    0.80310    1.000
    C29      C        0.84460    0.82860    0.80408    1.000
    H49      H        0.84980    0.88380    0.78880    1.000
    H50      H        0.88550    0.79260    0.80440    1.000
    H51      H        0.84070    0.83840    0.83720    1.000
    C30      C        0.76190    0.67930    0.70908    1.000
    H52      H        0.79300    0.63180    0.72280    1.000
    H53      H        0.78110    0.70960    0.68510    1.000
    H54      H        0.71550    0.65650    0.69360    1.000
    Sn7      Sn       0.72620    0.17135    0.26436    1.000
    C31      C        0.73000    0.25590    0.20684    1.000
    H55      H        0.70790    0.22840    0.17610    1.000
    H56      H        0.77880    0.26940    0.20750    1.000
    H57      H        0.70490    0.30900    0.21030    1.000
    C32      C        0.63030    0.14270    0.28156    1.000
    H58      H        0.60340    0.10290    0.25760    1.000
    H59      H        0.60350    0.19580    0.28160    1.000
    H60      H        0.63930    0.11610    0.31350    1.000
    C33      C        0.81810    0.11530    0.30699    1.000
    H61      H        0.85920    0.14120    0.29880    1.000
    H62      H        0.81780    0.05340    0.30080    1.000
    H63      H        0.82010    0.12530    0.34110    1.000
    Sn8      Sn       0.49334    0.49042    0.24622    1.000
    C34      C        0.42530    0.43990    0.28641    1.000
    H64      H        0.41280    0.38070    0.27620    1.000
    H65      H        0.44870    0.44050    0.32070    1.000
    H66      H        0.38280    0.47500    0.28090    1.000
    C35      C        0.50730    0.62470    0.24386    1.000
    H67      H        0.53050    0.63880    0.21810    1.000
    H68      H        0.46160    0.65320    0.23760    1.000
    H69      H        0.53620    0.64440    0.27480    1.000
    C36      C        0.54520    0.40600    0.20830    1.000
    H70      H        0.58400    0.37780    0.23100    1.000
    H71      H        0.51220    0.36260    0.19160    1.000
    H72      H        0.56350    0.43870    0.18470    1.000
    Fe3      Fe       0.74113    0.46030    0.36994    1.000
    C37      C        0.71521    0.39653    0.42057    1.000
    N13      N        0.70496    0.35325    0.45073    1.000
    C38      C        0.74263    0.35180    0.33698    1.000
    N14      N        0.74123    0.28820    0.31665    1.000
    C39      C        0.77022    0.52050    0.31933    1.000
    N15      N        0.78500    0.55810    0.28890    1.000
    C40      C        0.64531    0.47410    0.33387    1.000
    N16      N        0.58885    0.48150    0.31113    1.000
    C41      C        0.73527    0.57100    0.39996    1.000
    N17      N        0.73211    0.63751    0.41633    1.000
    C42      C        0.83690    0.44480    0.40641    1.000
    N18      N        0.89222    0.43450    0.42993    1.000
    Fe4      Fe       0.74394    0.98820    0.62480    1.000
    C43      C        0.75711    0.05865    0.57246    1.000
    N19      N        0.76151    0.10388    0.54172    1.000
    C44      C        0.73181    0.91810    0.67758    1.000
    N20      N        0.72956    0.87510    0.70942    1.000
    C45      C        0.72985    0.09120    0.65902    1.000
    N21      N        0.72385    0.15200    0.68023    1.000
    C46      C        0.84151    0.99440    0.65847    1.000
    N22      N        0.89810    0.99910    0.68098    1.000
    C47      C        0.64525    0.98904    0.59285    1.000
    N23      N        0.58731    0.99360    0.57276    1.000
    C48      C        0.76167    0.88336    0.59315    1.000
    N24      N        0.77240    0.82000    0.57589    1.000
    Sn9      Sn       0.23289    0.27184    0.99590    1.000
    C49      C        0.16090    0.24230    0.03779    1.000
    H73      H        0.12910    0.29100    0.03720    1.000
    H74      H        0.13380    0.19140    0.02450    1.000
    H75      H        0.18630    0.23090    0.07110    1.000
    C50      C        0.20070    0.34400    0.93184    1.000
    H76      H        0.19660    0.30600    0.90400    1.000
    H77      H        0.15530    0.37070    0.93080    1.000
    H78      H        0.23540    0.38880    0.93100    1.000
    C51      C        0.33710    0.22840    0.01820    1.000
    H79      H        0.36810    0.27750    0.02890    1.000
    H80      H        0.34100    0.18770    0.04490    1.000
    H81      H        0.35050    0.19990    0.99120    1.000
    Sn10     Sn       0.25312    0.73427    0.26469    1.000
    C52      C        0.15800    0.71410    0.28511    1.000
    H82      H        0.12000    0.70590    0.25620    1.000
    H83      H        0.16200    0.66280    0.30550    1.000
    H84      H        0.14770    0.76410    0.30310    1.000
    C53      C        0.34460    0.67140    0.30408    1.000
    H85      H        0.34980    0.61620    0.28880    1.000
    H86      H        0.38550    0.70740    0.30440    1.000
    H87      H        0.34070    0.66160    0.33720    1.000
    C54      C        0.26190    0.82070    0.20908    1.000
    H88      H        0.29300    0.86820    0.22280    1.000
    H89      H        0.28110    0.79040    0.18510    1.000
    H90      H        0.21550    0.84350    0.19360    1.000
    Sn11     Sn       0.22620    0.32865    0.76436    1.000
    C55      C        0.23000    0.24410    0.70684    1.000
    H91      H        0.20790    0.27160    0.67610    1.000
    H92      H        0.27880    0.23060    0.70750    1.000
    H93      H        0.20490    0.19100    0.71030    1.000
    C56      C        0.13030    0.35730    0.78156    1.000
    H94      H        0.10340    0.39710    0.75760    1.000
    H95      H        0.10350    0.30420    0.78160    1.000
    H96      H        0.13930    0.38390    0.81350    1.000
    C57      C        0.31810    0.38470    0.80699    1.000
    H97      H        0.35920    0.35880    0.79880    1.000
    H98      H        0.31780    0.44660    0.80080    1.000
    H99      H        0.32010    0.37470    0.84110    1.000
    Sn12     Sn       0.99334    0.00958    0.74622    1.000
    C58      C        0.92530    0.06010    0.78641    1.000
    H100     H        0.91280    0.11930    0.77620    1.000
    H101     H        0.94870    0.05950    0.82070    1.000
    H102     H        0.88280    0.02500    0.78090    1.000
    C59      C        0.00730    0.87530    0.74386    1.000
    H103     H        0.03050    0.86120    0.71810    1.000
    H104     H        0.96160    0.84680    0.73760    1.000
    H105     H        0.03620    0.85560    0.77480    1.000
    C60      C        0.04520    0.09400    0.70830    1.000
    H106     H        0.08400    0.12220    0.73100    1.000
    H107     H        0.01220    0.13740    0.69160    1.000
    H108     H        0.06350    0.06130    0.68470    1.000
    Fe5      Fe       0.24113    0.03970    0.86994    1.000
    C61      C        0.21521    0.10347    0.92057    1.000
    N25      N        0.20496    0.14675    0.95073    1.000
    C62      C        0.24263    0.14820    0.83698    1.000
    N26      N        0.24123    0.21180    0.81665    1.000
    C63      C        0.27022    0.97950    0.81933    1.000
    N27      N        0.28500    0.94190    0.78890    1.000
    C64      C        0.14531    0.02590    0.83387    1.000
    N28      N        0.08885    0.01850    0.81113    1.000
    C65      C        0.23527    0.92900    0.89996    1.000
    N29      N        0.23211    0.86249    0.91633    1.000
    C66      C        0.33690    0.05520    0.90641    1.000
    N30      N        0.39222    0.06550    0.92993    1.000
    Fe6      Fe       0.24394    0.51180    0.12480    1.000
    C67      C        0.25711    0.44135    0.07246    1.000
    N31      N        0.26151    0.39612    0.04172    1.000
    C68      C        0.23181    0.58190    0.17758    1.000
    N32      N        0.22956    0.62490    0.20942    1.000
    C69      C        0.22985    0.40880    0.15902    1.000
    N33      N        0.22385    0.34800    0.18023    1.000
    C70      C        0.34151    0.50560    0.15847    1.000
    N34      N        0.39810    0.50090    0.18098    1.000
    C71      C        0.14525    0.51096    0.09285    1.000
    N35      N        0.08731    0.50640    0.07276    1.000
    C72      C        0.26167    0.61664    0.09315    1.000
    N36      N        0.27240    0.68000    0.07589    1.000
    Sn13     Sn       0.26711    0.77184    0.50410    1.000
    C73      C        0.33910    0.74230    0.46221    1.000
    H109     H        0.37090    0.79100    0.46280    1.000
    H110     H        0.36620    0.69140    0.47550    1.000
    H111     H        0.31370    0.73090    0.42890    1.000
    C74      C        0.29930    0.84400    0.56816    1.000
    H112     H        0.30340    0.80600    0.59600    1.000
    H113     H        0.34470    0.87070    0.56920    1.000
    H114     H        0.26460    0.88880    0.56900    1.000
    C75      C        0.16290    0.72840    0.48180    1.000
    H115     H        0.13190    0.77750    0.47110    1.000
    H116     H        0.15900    0.68770    0.45510    1.000
    H117     H        0.14950    0.69990    0.50880    1.000
    Sn14     Sn       0.24688    0.23427    0.23531    1.000
    C76      C        0.34200    0.21410    0.21489    1.000
    H118     H        0.38000    0.20590    0.24380    1.000
    H119     H        0.33800    0.16280    0.19450    1.000
    H120     H        0.35230    0.26410    0.19690    1.000
    C77      C        0.15540    0.17140    0.19592    1.000
    H121     H        0.15020    0.11620    0.21120    1.000
    H122     H        0.11450    0.20740    0.19560    1.000
    H123     H        0.15930    0.16160    0.16280    1.000
    C78      C        0.23810    0.32070    0.29092    1.000
    H124     H        0.20700    0.36820    0.27720    1.000
    H125     H        0.21890    0.29040    0.31490    1.000
    H126     H        0.28450    0.34350    0.30640    1.000
    Sn15     Sn       0.27380    0.82865    0.73564    1.000
    C79      C        0.27000    0.74410    0.79316    1.000
    H127     H        0.29210    0.77160    0.82390    1.000
    H128     H        0.22120    0.73060    0.79250    1.000
    H129     H        0.29510    0.69100    0.78970    1.000
    C80      C        0.36970    0.85730    0.71844    1.000
    H130     H        0.39660    0.89710    0.74240    1.000
    H131     H        0.39650    0.80420    0.71840    1.000
    H132     H        0.36070    0.88390    0.68650    1.000
    C81      C        0.18190    0.88470    0.69301    1.000
    H133     H        0.14080    0.85880    0.70120    1.000
    H134     H        0.18220    0.94660    0.69920    1.000
    H135     H        0.17990    0.87470    0.65890    1.000
    Sn16     Sn       0.50666    0.50958    0.75378    1.000
    C82      C        0.57470    0.56010    0.71359    1.000
    H136     H        0.58720    0.61930    0.72380    1.000
    H137     H        0.55130    0.55950    0.67930    1.000
    H138     H        0.61720    0.52500    0.71910    1.000
    C83      C        0.49270    0.37530    0.75614    1.000
    H139     H        0.46950    0.36120    0.78190    1.000
    H140     H        0.53840    0.34680    0.76240    1.000
    H141     H        0.46380    0.35560    0.72520    1.000
    C84      C        0.45480    0.59400    0.79170    1.000
    H142     H        0.41600    0.62220    0.76900    1.000
    H143     H        0.48780    0.63740    0.80840    1.000
    H144     H        0.43650    0.56130    0.81530    1.000
    Fe7      Fe       0.25887    0.53970    0.63006    1.000
    C85      C        0.28479    0.60347    0.57943    1.000
    N37      N        0.29504    0.64675    0.54927    1.000
    C86      C        0.25737    0.64820    0.66302    1.000
    N38      N        0.25877    0.71180    0.68335    1.000
    C87      C        0.22978    0.47950    0.68067    1.000
    N39      N        0.21500    0.44190    0.71110    1.000
    C88      C        0.35469    0.52590    0.66613    1.000
    N40      N        0.41115    0.51850    0.68887    1.000
    C89      C        0.26473    0.42900    0.60004    1.000
    N41      N        0.26789    0.36249    0.58367    1.000
    C90      C        0.16310    0.55520    0.59359    1.000
    N42      N        0.10778    0.56550    0.57007    1.000
    Fe8      Fe       0.25606    0.01180    0.37520    1.000
    C91      C        0.24289    0.94135    0.42754    1.000
    N43      N        0.23849    0.89612    0.45828    1.000
    C92      C        0.26819    0.08190    0.32242    1.000
    N44      N        0.27044    0.12490    0.29058    1.000
    C93      C        0.27015    0.90880    0.34098    1.000
    N45      N        0.27615    0.84800    0.31977    1.000
    C94      C        0.15849    0.00560    0.34153    1.000
    N46      N        0.10190    0.00090    0.31902    1.000
    C95      C        0.35475    0.01096    0.40715    1.000
    N47      N        0.41269    0.00640    0.42724    1.000
    C96      C        0.23833    0.11664    0.40685    1.000
    N48      N        0.22760    0.18000    0.42411    1.000
