# CIF file generated by openbabel 3.1.0, see https://openbabel.org
data_I
_chemical_name_common 'image0'
_cell_length_a 15.348
_cell_length_b 32.866
_cell_length_c 10.1122
_cell_angle_alpha 90
_cell_angle_beta 106.642
_cell_angle_gamma 90
_space_group_name_H-M_alt 'P 1'
_space_group_name_Hall 'P 1'
loop_
    _symmetry_equiv_pos_as_xyz
    x,y,z
loop_
    _atom_site_label
    _atom_site_type_symbol
    _atom_site_fract_x
    _atom_site_fract_y
    _atom_site_fract_z
    _atom_site_occupancy
    Cu1      Cu       0.15488    0.27467    0.46082    1.000
    Cu2      Cu       0.00823    0.21721    0.48399    1.000
    Cu3      Cu       0.08122    0.21667    0.22564    1.000
    O1       O        0.11870    0.21828    0.42540    1.000
    H1       H        0.15890    0.20090    0.46450    1.000
    O2       O        0.03300    0.15784    0.23530    1.000
    O3       O        0.97310    0.16248    0.41500    1.000
    O4       O        0.20670    0.22830    0.21320    1.000
    O5       O        0.26360    0.26713    0.40120    1.000
    O6       O        0.04530    0.22509    0.02890    1.000
    H2       H        0.00520    0.20820    0.98590    1.000
    O7       O        0.53860    0.34040    0.42910    1.000
    O8       O        0.64570    0.30780    0.40140    1.000
    O9       O        0.50360    0.30970    0.01900    1.000
    O10      O        0.61180    0.34080    0.97700    1.000
    O11      O        0.75790    0.99990    0.34220    1.000
    O12      O        0.80100    0.04010    0.49080    1.000
    O13      O        0.77990    0.01540    0.01840    1.000
    O14      O        0.81430    0.97140    0.88060    1.000
    O15      O        0.90230    0.27869    0.04880    1.000
    O16      O        0.95560    0.23974    0.23670    1.000
    O17      O        0.90050    0.81948    0.26830    1.000
    O18      O        0.83610    0.83267    0.04650    1.000
    C1       C        0.99290    0.14377    0.31700    1.000
    C2       C        0.96610    0.09978    0.30000    1.000
    C3       C        0.01090    0.07320    0.23690    1.000
    H3       H        0.05800    0.08280    0.20450    1.000
    C4       C        0.98730    0.03270    0.22070    1.000
    H4       H        0.02040    0.01530    0.18100    1.000
    C5       C        0.91550    0.01740    0.26220    1.000
    C6       C        0.87070    0.04490    0.32510    1.000
    C7       C        0.89670    0.08480    0.34550    1.000
    H5       H        0.86670    0.10190    0.39110    1.000
    C8       C        0.89290    0.97300    0.23980    1.000
    C9       C        0.85070    0.95640    0.11040    1.000
    C10      C        0.84200    0.91510    0.08820    1.000
    H6       H        0.81300    0.90520    0.00050    1.000
    C11      C        0.87610    0.88860    0.19470    1.000
    C12      C        0.92160    0.90430    0.32380    1.000
    H7       H        0.94700    0.88660    0.39660    1.000
    C13      C        0.92960    0.94610    0.34520    1.000
    H8       H        0.96020    0.95600    0.43230    1.000
    C14      C        0.87100    0.84330    0.17100    1.000
    C15      C        0.26950    0.24767    0.29670    1.000
    C16      C        0.36060    0.24830    0.27040    1.000
    C17      C        0.41820    0.28050    0.32290    1.000
    H9       H        0.40060    0.30080    0.37370    1.000
    C18      C        0.50230    0.28200    0.29880    1.000
    C19      C        0.53170    0.25220    0.22180    1.000
    C20      C        0.47330    0.21980    0.17600    1.000
    H10      H        0.49130    0.19870    0.12860    1.000
    C21      C        0.38880    0.21810    0.19890    1.000
    H11      H        0.35060    0.19620    0.16520    1.000
    C22      C        0.62150    0.25340    0.19070    1.000
    C23      C        0.68520    0.22350    0.24700    1.000
    H12      H        0.66840    0.20200    0.29420    1.000
    C24      C        0.77260    0.22450    0.23540    1.000
    H13      H        0.81400    0.20450    0.27760    1.000
    C25      C        0.79880    0.25520    0.16130    1.000
    C26      C        0.73400    0.28440    0.09710    1.000
    H14      H        0.74960    0.30460    0.04380    1.000
    C27      C        0.64820    0.28340    0.11160    1.000
    C28      C        0.89380    0.25794    0.14970    1.000
    N1       N        0.79170    0.03260    0.37040    1.000
    N2       N        0.56370    0.31530    0.36280    1.000
    N3       N        0.58430    0.31410    0.03790    1.000
    N4       N        0.81230    0.98350    0.99300    1.000
    O19      O        0.59730    0.33730    0.29500    1.000
    O20      O        0.73910    0.05830    0.38900    1.000
    Cu4      Cu       0.84512    0.77467    0.03918    1.000
    Cu5      Cu       0.99177    0.71721    0.01601    1.000
    Cu6      Cu       0.91878    0.71667    0.27436    1.000
    O21      O        0.88130    0.71828    0.07460    1.000
    H15      H        0.84110    0.70090    0.03550    1.000
    O22      O        0.96700    0.65784    0.26470    1.000
    O23      O        0.02690    0.66248    0.08500    1.000
    O24      O        0.79330    0.72830    0.28680    1.000
    O25      O        0.73640    0.76713    0.09880    1.000
    O26      O        0.95470    0.72509    0.47110    1.000
    H16      H        0.99480    0.70820    0.51410    1.000
    O27      O        0.46140    0.84040    0.07090    1.000
    O28      O        0.35430    0.80780    0.09860    1.000
    O29      O        0.49640    0.80970    0.48100    1.000
    O30      O        0.38820    0.84080    0.52300    1.000
    O31      O        0.24210    0.49990    0.15780    1.000
    O32      O        0.19900    0.54010    0.00920    1.000
    O33      O        0.22010    0.51540    0.48160    1.000
    O34      O        0.18570    0.47140    0.61940    1.000
    O35      O        0.09770    0.77869    0.45120    1.000
    O36      O        0.04440    0.73974    0.26330    1.000
    O37      O        0.09950    0.31948    0.23170    1.000
    O38      O        0.16390    0.33267    0.45350    1.000
    C29      C        0.00710    0.64377    0.18300    1.000
    C30      C        0.03390    0.59978    0.20000    1.000
    C31      C        0.98910    0.57320    0.26310    1.000
    H17      H        0.94200    0.58280    0.29550    1.000
    C32      C        0.01270    0.53270    0.27930    1.000
    H18      H        0.97960    0.51530    0.31900    1.000
    C33      C        0.08450    0.51740    0.23780    1.000
    C34      C        0.12930    0.54490    0.17490    1.000
    C35      C        0.10330    0.58480    0.15450    1.000
    H19      H        0.13330    0.60190    0.10890    1.000
    C36      C        0.10710    0.47300    0.26020    1.000
    C37      C        0.14930    0.45640    0.38960    1.000
    C38      C        0.15800    0.41510    0.41180    1.000
    H20      H        0.18700    0.40520    0.49950    1.000
    C39      C        0.12390    0.38860    0.30530    1.000
    C40      C        0.07840    0.40430    0.17620    1.000
    H21      H        0.05300    0.38660    0.10340    1.000
    C41      C        0.07040    0.44610    0.15480    1.000
    H22      H        0.03980    0.45600    0.06770    1.000
    C42      C        0.12900    0.34330    0.32900    1.000
    C43      C        0.73050    0.74767    0.20330    1.000
    C44      C        0.63940    0.74830    0.22960    1.000
    C45      C        0.58180    0.78050    0.17710    1.000
    H23      H        0.59940    0.80080    0.12630    1.000
    C46      C        0.49770    0.78200    0.20120    1.000
    C47      C        0.46830    0.75220    0.27820    1.000
    C48      C        0.52670    0.71980    0.32400    1.000
    H24      H        0.50870    0.69870    0.37140    1.000
    C49      C        0.61120    0.71810    0.30110    1.000
    H25      H        0.64940    0.69620    0.33480    1.000
    C50      C        0.37850    0.75340    0.30930    1.000
    C51      C        0.31480    0.72350    0.25300    1.000
    H26      H        0.33160    0.70200    0.20580    1.000
    C52      C        0.22740    0.72450    0.26460    1.000
    H27      H        0.18600    0.70450    0.22240    1.000
    C53      C        0.20120    0.75520    0.33870    1.000
    C54      C        0.26600    0.78440    0.40290    1.000
    H28      H        0.25040    0.80460    0.45620    1.000
    C55      C        0.35180    0.78340    0.38840    1.000
    C56      C        0.10620    0.75794    0.35030    1.000
    N5       N        0.20830    0.53260    0.12960    1.000
    N6       N        0.43630    0.81530    0.13720    1.000
    N7       N        0.41570    0.81410    0.46210    1.000
    N8       N        0.18770    0.48350    0.50700    1.000
    O39      O        0.40270    0.83730    0.20500    1.000
    O40      O        0.26090    0.55830    0.11100    1.000
    Cu7      Cu       0.84512    0.72533    0.53918    1.000
    Cu8      Cu       0.99177    0.78279    0.51601    1.000
    Cu9      Cu       0.91878    0.78333    0.77436    1.000
    O41      O        0.88130    0.78172    0.57460    1.000
    H29      H        0.84110    0.79910    0.53550    1.000
    O42      O        0.96700    0.84216    0.76470    1.000
    O43      O        0.02690    0.83752    0.58500    1.000
    O44      O        0.79330    0.77170    0.78680    1.000
    O45      O        0.73640    0.73287    0.59880    1.000
    O46      O        0.95470    0.77491    0.97110    1.000
    H30      H        0.99480    0.79180    0.01410    1.000
    O47      O        0.46140    0.65960    0.57090    1.000
    O48      O        0.35430    0.69220    0.59860    1.000
    O49      O        0.49640    0.69030    0.98100    1.000
    O50      O        0.38820    0.65920    0.02300    1.000
    O51      O        0.24210    0.00010    0.65780    1.000
    O52      O        0.19900    0.95990    0.50920    1.000
    O53      O        0.22010    0.98460    0.98160    1.000
    O54      O        0.18570    0.02860    0.11940    1.000
    O55      O        0.09770    0.72131    0.95120    1.000
    O56      O        0.04440    0.76026    0.76330    1.000
    O57      O        0.09950    0.18052    0.73170    1.000
    O58      O        0.16390    0.16733    0.95350    1.000
    C57      C        0.00710    0.85623    0.68300    1.000
    C58      C        0.03390    0.90022    0.70000    1.000
    C59      C        0.98910    0.92680    0.76310    1.000
    H31      H        0.94200    0.91720    0.79550    1.000
    C60      C        0.01270    0.96730    0.77930    1.000
    H32      H        0.97960    0.98470    0.81900    1.000
    C61      C        0.08450    0.98260    0.73780    1.000
    C62      C        0.12930    0.95510    0.67490    1.000
    C63      C        0.10330    0.91520    0.65450    1.000
    H33      H        0.13330    0.89810    0.60890    1.000
    C64      C        0.10710    0.02700    0.76020    1.000
    C65      C        0.14930    0.04360    0.88960    1.000
    C66      C        0.15800    0.08490    0.91180    1.000
    H34      H        0.18700    0.09480    0.99950    1.000
    C67      C        0.12390    0.11140    0.80530    1.000
    C68      C        0.07840    0.09570    0.67620    1.000
    H35      H        0.05300    0.11340    0.60340    1.000
    C69      C        0.07040    0.05390    0.65480    1.000
    H36      H        0.03980    0.04400    0.56770    1.000
    C70      C        0.12900    0.15670    0.82900    1.000
    C71      C        0.73050    0.75233    0.70330    1.000
    C72      C        0.63940    0.75170    0.72960    1.000
    C73      C        0.58180    0.71950    0.67710    1.000
    H37      H        0.59940    0.69920    0.62630    1.000
    C74      C        0.49770    0.71800    0.70120    1.000
    C75      C        0.46830    0.74780    0.77820    1.000
    C76      C        0.52670    0.78020    0.82400    1.000
    H38      H        0.50870    0.80130    0.87140    1.000
    C77      C        0.61120    0.78190    0.80110    1.000
    H39      H        0.64940    0.80380    0.83480    1.000
    C78      C        0.37850    0.74660    0.80930    1.000
    C79      C        0.31480    0.77650    0.75300    1.000
    H40      H        0.33160    0.79800    0.70580    1.000
    C80      C        0.22740    0.77550    0.76460    1.000
    H41      H        0.18600    0.79550    0.72240    1.000
    C81      C        0.20120    0.74480    0.83870    1.000
    C82      C        0.26600    0.71560    0.90290    1.000
    H42      H        0.25040    0.69540    0.95620    1.000
    C83      C        0.35180    0.71660    0.88840    1.000
    C84      C        0.10620    0.74206    0.85030    1.000
    N9       N        0.20830    0.96740    0.62960    1.000
    N10      N        0.43630    0.68470    0.63720    1.000
    N11      N        0.41570    0.68590    0.96210    1.000
    N12      N        0.18770    0.01650    0.00700    1.000
    O59      O        0.40270    0.66270    0.70500    1.000
    O60      O        0.26090    0.94170    0.61100    1.000
    Cu10     Cu       0.15488    0.22533    0.96082    1.000
    Cu11     Cu       0.00823    0.28279    0.98399    1.000
    Cu12     Cu       0.08122    0.28333    0.72564    1.000
    O61      O        0.11870    0.28172    0.92540    1.000
    H43      H        0.15890    0.29910    0.96450    1.000
    O62      O        0.03300    0.34216    0.73530    1.000
    O63      O        0.97310    0.33752    0.91500    1.000
    O64      O        0.20670    0.27170    0.71320    1.000
    O65      O        0.26360    0.23287    0.90120    1.000
    O66      O        0.04530    0.27491    0.52890    1.000
    H44      H        0.00520    0.29180    0.48590    1.000
    O67      O        0.53860    0.15960    0.92910    1.000
    O68      O        0.64570    0.19220    0.90140    1.000
    O69      O        0.50360    0.19030    0.51900    1.000
    O70      O        0.61180    0.15920    0.47700    1.000
    O71      O        0.75790    0.50010    0.84220    1.000
    O72      O        0.80100    0.45990    0.99080    1.000
    O73      O        0.77990    0.48460    0.51840    1.000
    O74      O        0.81430    0.52860    0.38060    1.000
    O75      O        0.90230    0.22131    0.54880    1.000
    O76      O        0.95560    0.26026    0.73670    1.000
    O77      O        0.90050    0.68052    0.76830    1.000
    O78      O        0.83610    0.66733    0.54650    1.000
    C85      C        0.99290    0.35623    0.81700    1.000
    C86      C        0.96610    0.40022    0.80000    1.000
    C87      C        0.01090    0.42680    0.73690    1.000
    H45      H        0.05800    0.41720    0.70450    1.000
    C88      C        0.98730    0.46730    0.72070    1.000
    H46      H        0.02040    0.48470    0.68100    1.000
    C89      C        0.91550    0.48260    0.76220    1.000
    C90      C        0.87070    0.45510    0.82510    1.000
    C91      C        0.89670    0.41520    0.84550    1.000
    H47      H        0.86670    0.39810    0.89110    1.000
    C92      C        0.89290    0.52700    0.73980    1.000
    C93      C        0.85070    0.54360    0.61040    1.000
    C94      C        0.84200    0.58490    0.58820    1.000
    H48      H        0.81300    0.59480    0.50050    1.000
    C95      C        0.87610    0.61140    0.69470    1.000
    C96      C        0.92160    0.59570    0.82380    1.000
    H49      H        0.94700    0.61340    0.89660    1.000
    C97      C        0.92960    0.55390    0.84520    1.000
    H50      H        0.96020    0.54400    0.93230    1.000
    C98      C        0.87100    0.65670    0.67100    1.000
    C99      C        0.26950    0.25233    0.79670    1.000
    C100     C        0.36060    0.25170    0.77040    1.000
    C101     C        0.41820    0.21950    0.82290    1.000
    H51      H        0.40060    0.19920    0.87370    1.000
    C102     C        0.50230    0.21800    0.79880    1.000
    C103     C        0.53170    0.24780    0.72180    1.000
    C104     C        0.47330    0.28020    0.67600    1.000
    H52      H        0.49130    0.30130    0.62860    1.000
    C105     C        0.38880    0.28190    0.69890    1.000
    H53      H        0.35060    0.30380    0.66520    1.000
    C106     C        0.62150    0.24660    0.69070    1.000
    C107     C        0.68520    0.27650    0.74700    1.000
    H54      H        0.66840    0.29800    0.79420    1.000
    C108     C        0.77260    0.27550    0.73540    1.000
    H55      H        0.81400    0.29550    0.77760    1.000
    C109     C        0.79880    0.24480    0.66130    1.000
    C110     C        0.73400    0.21560    0.59710    1.000
    H56      H        0.74960    0.19540    0.54380    1.000
    C111     C        0.64820    0.21660    0.61160    1.000
    C112     C        0.89380    0.24206    0.64970    1.000
    N13      N        0.79170    0.46740    0.87040    1.000
    N14      N        0.56370    0.18470    0.86280    1.000
    N15      N        0.58430    0.18590    0.53790    1.000
    N16      N        0.81230    0.51650    0.49300    1.000
    O79      O        0.59730    0.16270    0.79500    1.000
    O80      O        0.73910    0.44170    0.88900    1.000
