data_functionalizedCrystal
_audit_creation_method	'EQeq! by Chris Wilmer'
_symmetry_space_group_name_H-M	'P1'
_symmetry_Int_Tables_number	1
_symmetry_cell_setting	triclinic
loop_
_symmetry_equiv_pos_as_xyz
  x,y,z
_cell_length_a	10.1956
_cell_length_b	11.8341
_cell_length_c	14.8738
_cell_angle_alpha	90.9814
_cell_angle_beta	90
_cell_angle_gamma	90
loop_
_atom_site_label
_atom_site_type_symbol
_atom_site_fract_x
_atom_site_fract_y
_atom_site_fract_z
_atom_site_charge
Mof_Mn	Mn	0.91697	0.7539	0.13012	1.103
Mof_Mn	Mn	0.10455	0.73719	0.31418	0.968
Mof_Mn	Mn	0.41697	0.7461	0.36988	1.005
Mof_Mn	Mn	0.60455	0.76281	0.18582	1.015
Mof_Mn	Mn	0.08303	0.2461	0.86988	0.897
Mof_Mn	Mn	0.89545	0.26281	0.68582	1.049
Mof_Mn	Mn	0.58303	0.2539	0.63012	0.991
Mof_Mn	Mn	0.39545	0.23719	0.81418	1
Mof_Mn	Mn	-7.03419e-33	0.5	-0	0.82
Mof_Mn	Mn	0.5	-1.97995e-18	0.5	0.962
Mof_Mn	Mn	-0	0	-0	0.744
Mof_Mn	Mn	0.5	0.5	0.5	1.035
Mof_H 	H 	0.743	0.838	0.378	-0.049
Mof_H 	H 	0.041	0.478	0.271	-0.08
Mof_H 	H 	0.614	0.559	0.048	-0.105
Mof_H 	H 	0.221	0.952	0.229	-0.082
Mof_H 	H 	0.149	0.697	0.913	-0.064
Mof_H 	H 	0.717	0.02	0.028	-0.115
Mof_H 	H 	0.243	0.662	0.122	-0.076
Mof_H 	H 	0.541	0.022	0.229	-0.136
Mof_H 	H 	0.114	0.941	0.452	-0.091
Mof_H 	H 	0.721	0.548	0.271	-0.062
Mof_H 	H 	0.649	0.803	0.587	-0.036
Mof_H 	H 	0.217	0.48	0.472	-0.069
Mof_H 	H 	0.257	0.162	0.622	-0.073
Mof_H 	H 	0.959	0.522	0.729	-0.037
Mof_H 	H 	0.386	0.441	0.952	-0.06
Mof_H 	H 	0.779	0.048	0.771	-0.049
Mof_H 	H 	0.851	0.303	0.087	-0.014
Mof_H 	H 	0.283	0.98	0.972	0.027
Mof_H 	H 	0.757	0.338	0.878	-0.041
Mof_H 	H 	0.459	0.978	0.771	0.017
Mof_H 	H 	0.886	0.059	0.548	-0.08
Mof_H 	H 	0.279	0.452	0.729	-0.079
Mof_H 	H 	0.351	0.197	0.413	-0.063
Mof_H 	H 	0.783	0.52	0.528	-0.048
Mof_C 	C 	0.8221	0.8193	0.3316	0.418
Mof_C 	C 	0.0172	0.5207	0.2101	0.435
Mof_C 	C 	0.7099	0.5762	0.0509	0.463
Mof_C 	C 	0.1418	0.9387	0.1818	0.493
Mof_C 	C 	0.091	0.7429	0.9632	0.504
Mof_C 	C 	0.7262	0.9417	0.0617	0.483
Mof_C 	C 	0.3221	0.6807	0.1684	0.415
Mof_C 	C 	0.5172	0.9793	0.2899	0.583
Mof_C 	C 	0.2099	0.9238	0.4491	0.456
Mof_C 	C 	0.6418	0.5613	0.3182	0.423
Mof_C 	C 	0.591	0.7571	0.5368	0.421
Mof_C 	C 	0.2262	0.5583	0.4383	0.43
Mof_C 	C 	0.1779	0.1807	0.6684	0.414
Mof_C 	C 	0.9828	0.4793	0.7899	0.411
Mof_C 	C 	0.2901	0.4238	0.9491	0.438
Mof_C 	C 	0.8582	0.0613	0.8182	0.326
Mof_C 	C 	0.909	0.2571	0.0368	0.289
Mof_C 	C 	0.2738	0.0583	0.9383	0.341
Mof_C 	C 	0.6779	0.3193	0.8316	0.415
Mof_C 	C 	0.4828	0.0207	0.7101	0.278
Mof_C 	C 	0.7901	0.0762	0.5509	0.464
Mof_C 	C 	0.3582	0.4387	0.6818	0.427
Mof_C 	C 	0.409	0.2429	0.4632	0.425
Mof_C 	C 	0.7738	0.4417	0.5617	0.429
Mof_O 	O 	0.7968	0.7983	0.2491	-0.457
Mof_O 	O 	0.931	0.8074	0.3684	-0.342
Mof_O 	O 	0.0069	0.628	0.2171	-0.51
Mof_O 	O 	0.0033	0.4646	0.1409	-0.426
Mof_O 	O 	0.7381	0.6562	0.1066	-0.488
Mof_O 	O 	0.7893	0.5185	0.0078	-0.396
Mof_O 	O 	0.0767	0.8502	0.1956	-0.51
Mof_O 	O 	0.1233	0.0061	0.1199	-0.457
Mof_O 	O 	0.0247	0.6847	0.0195	-0.562
Mof_O 	O 	0.0966	0.8467	0.9622	-0.36
Mof_O 	O 	0.8436	0.9042	0.0654	-0.449
Mof_O 	O 	0.6292	0.9002	0.0984	-0.416
Mof_O 	O 	0.2968	0.7017	0.2509	-0.465
Mof_O 	O 	0.431	0.6926	0.1316	-0.407
Mof_O 	O 	0.5069	0.872	0.2829	-0.508
Mof_O 	O 	0.5033	0.0354	0.3591	-0.474
Mof_O 	O 	0.2381	0.8438	0.3934	-0.482
Mof_O 	O 	0.2893	0.9815	0.4922	-0.37
Mof_O 	O 	0.5767	0.6498	0.3044	-0.467
Mof_O 	O 	0.6233	0.4939	0.3801	-0.382
Mof_O 	O 	0.5247	0.8153	0.4805	-0.457
Mof_O 	O 	0.5966	0.6533	0.5378	-0.398
Mof_O 	O 	0.3436	0.5958	0.4346	-0.481
Mof_O 	O 	0.1292	0.5998	0.4016	-0.416
Mof_O 	O 	0.2032	0.2017	0.7509	-0.475
Mof_O 	O 	0.069	0.1926	0.6316	-0.444
Mof_O 	O 	0.9931	0.372	0.7829	-0.43
Mof_O 	O 	0.9967	0.5354	0.8591	-0.307
Mof_O 	O 	0.2619	0.3438	0.8934	-0.468
Mof_O 	O 	0.2107	0.4815	0.9922	-0.341
Mof_O 	O 	0.9233	0.1498	0.8044	-0.403
Mof_O 	O 	0.8767	0.9939	0.8801	-0.223
Mof_O 	O 	0.9753	0.3153	0.9805	-0.308
Mof_O 	O 	0.9034	0.1533	0.0378	-0.341
Mof_O 	O 	0.1564	0.0958	0.9346	-0.421
Mof_O 	O 	0.3708	0.0998	0.9016	-0.377
Mof_O 	O 	0.7032	0.2983	0.7491	-0.467
Mof_O 	O 	0.569	0.3074	0.8684	-0.376
Mof_O 	O 	0.4931	0.128	0.7171	-0.442
Mof_O 	O 	0.4967	0.9646	0.6409	-0.305
Mof_O 	O 	0.7619	0.1562	0.6066	-0.485
Mof_O 	O 	0.7107	0.0185	0.5078	-0.412
Mof_O 	O 	0.4233	0.3502	0.6956	-0.467
Mof_O 	O 	0.3767	0.5061	0.6199	-0.389
Mof_O 	O 	0.4753	0.1847	0.5195	-0.473
Mof_O 	O 	0.4034	0.3467	0.4622	-0.409
Mof_O 	O 	0.6564	0.4042	0.5654	-0.474
Mof_O 	O 	0.8708	0.4002	0.5984	-0.388
_end
