# CIF file generated by openbabel 3.1.0, see https://openbabel.org
data_I
_chemical_name_common 'image0'
_cell_length_a 27.72
_cell_length_b 13.3016
_cell_length_c 20.327
_cell_angle_alpha 90
_cell_angle_beta 96.448
_cell_angle_gamma 90
_space_group_name_H-M_alt 'P 1'
_space_group_name_Hall 'P 1'
loop_
    _symmetry_equiv_pos_as_xyz
    x,y,z
loop_
    _atom_site_label
    _atom_site_type_symbol
    _atom_site_fract_x
    _atom_site_fract_y
    _atom_site_fract_z
    _atom_site_occupancy
    W1       W        0.85623    0.47097    0.85893    1.000
    Cu1      Cu       0.91189    0.54475    0.76889    1.000
    Cu2      Cu       0.80922    0.64932    0.86964    1.000
    Cu3      Cu       0.78742    0.41981    0.75882    1.000
    S1       S        0.87006    0.39461    0.76407    1.000
    S2       S        0.77551    0.48961    0.85952    1.000
    S3       S        0.89175    0.62348    0.86262    1.000
    N1       N        0.75190    0.81160    0.78530    1.000
    N2       N        0.81810    0.70730    0.96800    1.000
    N3       N        0.90040    0.01590    0.38370    1.000
    N4       N        0.88490    0.63500    0.69010    1.000
    N5       N        0.73260    0.97240    0.31740    1.000
    C1       C        0.80350    0.79910    0.98070    1.000
    H1       H        0.78380    0.83470    0.94720    1.000
    C2       C        0.84640    0.66020    0.01720    1.000
    H2       H        0.85870    0.59530    0.00910    1.000
    C3       C        0.85780    0.70340    0.07860    1.000
    H3       H        0.87590    0.66440    0.11190    1.000
    C4       C        0.84520    0.79500    0.09420    1.000
    C5       C        0.77330    0.75290    0.81820    1.000
    C6       C        0.89930    0.61890    0.62970    1.000
    H4       H        0.92380    0.57020    0.62530    1.000
    C7       C        0.85040    0.70310    0.69420    1.000
    H5       H        0.83980    0.71530    0.73630    1.000
    C8       C        0.82960    0.75620    0.64190    1.000
    H6       H        0.80490    0.80390    0.64790    1.000
    C9       C        0.84390    0.74140    0.58020    1.000
    C10      C        0.76550    0.89910    0.31350    1.000
    H7       H        0.77340    0.88000    0.27100    1.000
    C11      C        0.72160    0.99270    0.37740    1.000
    H8       H        0.69730    0.04190    0.38170    1.000
    N6       N        0.98060    0.54110    0.75700    1.000
    C12      C        0.97990    0.52200    0.75450    1.000
    C13      C        0.74320    0.94710    0.43490    1.000
    H9       H        0.73420    0.96690    0.47680    1.000
    C14      C        0.91250    0.92380    0.36670    1.000
    H10      H        0.93010    0.88300    0.39940    1.000
    C15      C        0.86260    0.03350    0.27410    1.000
    H11      H        0.83990    0.07390    0.24270    1.000
    C16      C        0.87410    0.93800    0.25530    1.000
    C17      C        0.86240    0.83250    0.16020    1.000
    H12      H        0.88360    0.78710    0.18530    1.000
    C18      C        0.81630    0.84590    0.04260    1.000
    H13      H        0.80540    0.91230    0.04980    1.000
    C19      C        0.90080    0.88290    0.30330    1.000
    H14      H        0.91140    0.81720    0.29370    1.000
    C20      C        0.85600    0.90380    0.18740    1.000
    H15      H        0.83520    0.95050    0.16270    1.000
    C21      C        0.77790    0.87270    0.43130    1.000
    C22      C        0.88000    0.67040    0.57460    1.000
    H16      H        0.89110    0.65760    0.53290    1.000
    C23      C        0.68500    0.69810    0.52770    1.000
    C24      C        0.79180    0.83930    0.50440    1.000
    C25      C        0.78840    0.84980    0.36900    1.000
    H17      H        0.81180    0.79930    0.36330    1.000
    C26      C        0.86990    0.06500    0.34460    1.000
    C27      C        0.88100    0.07600    0.32920    1.000
    C28      C        0.83160    0.77890    0.51180    1.000
    C29      C        0.80790    0.81390    0.53500    1.000
    W2       W        0.35623    0.97097    0.85893    1.000
    Cu4      Cu       0.41189    0.04475    0.76889    1.000
    Cu5      Cu       0.30922    0.14932    0.86964    1.000
    Cu6      Cu       0.28742    0.91981    0.75882    1.000
    S4       S        0.37006    0.89461    0.76407    1.000
    S5       S        0.27551    0.98961    0.85952    1.000
    S6       S        0.39175    0.12348    0.86262    1.000
    N7       N        0.25190    0.31160    0.78530    1.000
    N8       N        0.31810    0.20730    0.96800    1.000
    N9       N        0.40040    0.51590    0.38370    1.000
    N10      N        0.38490    0.13500    0.69010    1.000
    N11      N        0.23260    0.47240    0.31740    1.000
    C30      C        0.30350    0.29910    0.98070    1.000
    H18      H        0.28380    0.33470    0.94720    1.000
    C31      C        0.34640    0.16020    0.01720    1.000
    H19      H        0.35870    0.09530    0.00910    1.000
    C32      C        0.35780    0.20340    0.07860    1.000
    H20      H        0.37590    0.16440    0.11190    1.000
    C33      C        0.34520    0.29500    0.09420    1.000
    C34      C        0.27330    0.25290    0.81820    1.000
    C35      C        0.39930    0.11890    0.62970    1.000
    H21      H        0.42380    0.07020    0.62530    1.000
    C36      C        0.35040    0.20310    0.69420    1.000
    H22      H        0.33980    0.21530    0.73630    1.000
    C37      C        0.32960    0.25620    0.64190    1.000
    H23      H        0.30490    0.30390    0.64790    1.000
    C38      C        0.34390    0.24140    0.58020    1.000
    C39      C        0.26550    0.39910    0.31350    1.000
    H24      H        0.27340    0.38000    0.27100    1.000
    C40      C        0.22160    0.49270    0.37740    1.000
    H25      H        0.19730    0.54190    0.38170    1.000
    N12      N        0.48060    0.04110    0.75700    1.000
    C41      C        0.47990    0.02200    0.75450    1.000
    C42      C        0.24320    0.44710    0.43490    1.000
    H26      H        0.23420    0.46690    0.47680    1.000
    C43      C        0.41250    0.42380    0.36670    1.000
    H27      H        0.43010    0.38300    0.39940    1.000
    C44      C        0.36260    0.53350    0.27410    1.000
    H28      H        0.33990    0.57390    0.24270    1.000
    C45      C        0.37410    0.43800    0.25530    1.000
    C46      C        0.36240    0.33250    0.16020    1.000
    H29      H        0.38360    0.28710    0.18530    1.000
    C47      C        0.31630    0.34590    0.04260    1.000
    H30      H        0.30540    0.41230    0.04980    1.000
    C48      C        0.40080    0.38290    0.30330    1.000
    H31      H        0.41140    0.31720    0.29370    1.000
    C49      C        0.35600    0.40380    0.18740    1.000
    H32      H        0.33520    0.45050    0.16270    1.000
    C50      C        0.27790    0.37270    0.43130    1.000
    C51      C        0.38000    0.17040    0.57460    1.000
    H33      H        0.39110    0.15760    0.53290    1.000
    C52      C        0.18500    0.19810    0.52770    1.000
    C53      C        0.29180    0.33930    0.50440    1.000
    C54      C        0.28840    0.34980    0.36900    1.000
    H34      H        0.31180    0.29930    0.36330    1.000
    C55      C        0.36990    0.56500    0.34460    1.000
    C56      C        0.38100    0.57600    0.32920    1.000
    C57      C        0.33160    0.27890    0.51180    1.000
    C58      C        0.30790    0.31390    0.53500    1.000
    W3       W        0.14377    0.47097    0.64107    1.000
    Cu7      Cu       0.08811    0.54475    0.73111    1.000
    Cu8      Cu       0.19078    0.64932    0.63036    1.000
    Cu9      Cu       0.21258    0.41981    0.74118    1.000
    S7       S        0.12994    0.39461    0.73593    1.000
    S8       S        0.22449    0.48961    0.64048    1.000
    S9       S        0.10825    0.62348    0.63738    1.000
    N13      N        0.24810    0.81160    0.71470    1.000
    N14      N        0.18190    0.70730    0.53200    1.000
    N15      N        0.09960    0.01590    0.11630    1.000
    N16      N        0.11510    0.63500    0.80990    1.000
    N17      N        0.26740    0.97240    0.18260    1.000
    C59      C        0.19650    0.79910    0.51930    1.000
    H35      H        0.21620    0.83470    0.55280    1.000
    C60      C        0.15360    0.66020    0.48280    1.000
    H36      H        0.14130    0.59530    0.49090    1.000
    C61      C        0.14220    0.70340    0.42140    1.000
    H37      H        0.12410    0.66440    0.38810    1.000
    C62      C        0.15480    0.79500    0.40580    1.000
    C63      C        0.22670    0.75290    0.68180    1.000
    C64      C        0.10070    0.61890    0.87030    1.000
    H38      H        0.07620    0.57020    0.87470    1.000
    C65      C        0.14960    0.70310    0.80580    1.000
    H39      H        0.16020    0.71530    0.76370    1.000
    C66      C        0.17040    0.75620    0.85810    1.000
    H40      H        0.19510    0.80390    0.85210    1.000
    C67      C        0.15610    0.74140    0.91980    1.000
    C68      C        0.23450    0.89910    0.18650    1.000
    H41      H        0.22660    0.88000    0.22900    1.000
    C69      C        0.27840    0.99270    0.12260    1.000
    H42      H        0.30270    0.04190    0.11830    1.000
    N18      N        0.01940    0.54110    0.74300    1.000
    C70      C        0.02010    0.52200    0.74550    1.000
    C71      C        0.25680    0.94710    0.06510    1.000
    H43      H        0.26580    0.96690    0.02320    1.000
    C72      C        0.08750    0.92380    0.13330    1.000
    H44      H        0.06990    0.88300    0.10060    1.000
    C73      C        0.13740    0.03350    0.22590    1.000
    H45      H        0.16010    0.07390    0.25730    1.000
    C74      C        0.12590    0.93800    0.24470    1.000
    C75      C        0.13760    0.83250    0.33980    1.000
    H46      H        0.11640    0.78710    0.31470    1.000
    C76      C        0.18370    0.84590    0.45740    1.000
    H47      H        0.19460    0.91230    0.45020    1.000
    C77      C        0.09920    0.88290    0.19670    1.000
    H48      H        0.08860    0.81720    0.20630    1.000
    C78      C        0.14400    0.90380    0.31260    1.000
    H49      H        0.16480    0.95050    0.33730    1.000
    C79      C        0.22210    0.87270    0.06870    1.000
    C80      C        0.12000    0.67040    0.92540    1.000
    H50      H        0.10890    0.65760    0.96710    1.000
    C81      C        0.31500    0.69810    0.97230    1.000
    C82      C        0.20820    0.83930    0.99560    1.000
    C83      C        0.21160    0.84980    0.13100    1.000
    H51      H        0.18820    0.79930    0.13670    1.000
    C84      C        0.13010    0.06500    0.15540    1.000
    C85      C        0.11900    0.07600    0.17080    1.000
    C86      C        0.16840    0.77890    0.98820    1.000
    C87      C        0.19210    0.81390    0.96500    1.000
    W4       W        0.64377    0.97097    0.64107    1.000
    Cu10     Cu       0.58811    0.04475    0.73111    1.000
    Cu11     Cu       0.69078    0.14932    0.63036    1.000
    Cu12     Cu       0.71258    0.91981    0.74118    1.000
    S10      S        0.62994    0.89461    0.73593    1.000
    S11      S        0.72449    0.98961    0.64048    1.000
    S12      S        0.60825    0.12348    0.63738    1.000
    N19      N        0.74810    0.31160    0.71470    1.000
    N20      N        0.68190    0.20730    0.53200    1.000
    N21      N        0.59960    0.51590    0.11630    1.000
    N22      N        0.61510    0.13500    0.80990    1.000
    N23      N        0.76740    0.47240    0.18260    1.000
    C88      C        0.69650    0.29910    0.51930    1.000
    H52      H        0.71620    0.33470    0.55280    1.000
    C89      C        0.65360    0.16020    0.48280    1.000
    H53      H        0.64130    0.09530    0.49090    1.000
    C90      C        0.64220    0.20340    0.42140    1.000
    H54      H        0.62410    0.16440    0.38810    1.000
    C91      C        0.65480    0.29500    0.40580    1.000
    C92      C        0.72670    0.25290    0.68180    1.000
    C93      C        0.60070    0.11890    0.87030    1.000
    H55      H        0.57620    0.07020    0.87470    1.000
    C94      C        0.64960    0.20310    0.80580    1.000
    H56      H        0.66020    0.21530    0.76370    1.000
    C95      C        0.67040    0.25620    0.85810    1.000
    H57      H        0.69510    0.30390    0.85210    1.000
    C96      C        0.65610    0.24140    0.91980    1.000
    C97      C        0.73450    0.39910    0.18650    1.000
    H58      H        0.72660    0.38000    0.22900    1.000
    C98      C        0.77840    0.49270    0.12260    1.000
    H59      H        0.80270    0.54190    0.11830    1.000
    N24      N        0.51940    0.04110    0.74300    1.000
    C99      C        0.52010    0.02200    0.74550    1.000
    C100     C        0.75680    0.44710    0.06510    1.000
    H60      H        0.76580    0.46690    0.02320    1.000
    C101     C        0.58750    0.42380    0.13330    1.000
    H61      H        0.56990    0.38300    0.10060    1.000
    C102     C        0.63740    0.53350    0.22590    1.000
    H62      H        0.66010    0.57390    0.25730    1.000
    C103     C        0.62590    0.43800    0.24470    1.000
    C104     C        0.63760    0.33250    0.33980    1.000
    H63      H        0.61640    0.28710    0.31470    1.000
    C105     C        0.68370    0.34590    0.45740    1.000
    H64      H        0.69460    0.41230    0.45020    1.000
    C106     C        0.59920    0.38290    0.19670    1.000
    H65      H        0.58860    0.31720    0.20630    1.000
    C107     C        0.64400    0.40380    0.31260    1.000
    H66      H        0.66480    0.45050    0.33730    1.000
    C108     C        0.72210    0.37270    0.06870    1.000
    C109     C        0.62000    0.17040    0.92540    1.000
    H67      H        0.60890    0.15760    0.96710    1.000
    C110     C        0.81500    0.19810    0.97230    1.000
    C111     C        0.70820    0.33930    0.99560    1.000
    C112     C        0.71160    0.34980    0.13100    1.000
    H68      H        0.68820    0.29930    0.13670    1.000
    C113     C        0.63010    0.56500    0.15540    1.000
    C114     C        0.61900    0.57600    0.17080    1.000
    C115     C        0.66840    0.27890    0.98820    1.000
    C116     C        0.69210    0.31390    0.96500    1.000
    W5       W        0.14377    0.52903    0.14107    1.000
    Cu13     Cu       0.08811    0.45525    0.23111    1.000
    Cu14     Cu       0.19078    0.35068    0.13036    1.000
    Cu15     Cu       0.21258    0.58019    0.24118    1.000
    S13      S        0.12994    0.60539    0.23593    1.000
    S14      S        0.22449    0.51039    0.14048    1.000
    S15      S        0.10825    0.37652    0.13738    1.000
    N25      N        0.24810    0.18840    0.21470    1.000
    N26      N        0.18190    0.29270    0.03200    1.000
    N27      N        0.09960    0.98410    0.61630    1.000
    N28      N        0.11510    0.36500    0.30990    1.000
    N29      N        0.26740    0.02760    0.68260    1.000
    C117     C        0.19650    0.20090    0.01930    1.000
    H69      H        0.21620    0.16530    0.05280    1.000
    C118     C        0.15360    0.33980    0.98280    1.000
    H70      H        0.14130    0.40470    0.99090    1.000
    C119     C        0.14220    0.29660    0.92140    1.000
    H71      H        0.12410    0.33560    0.88810    1.000
    C120     C        0.15480    0.20500    0.90580    1.000
    C121     C        0.22670    0.24710    0.18180    1.000
    C122     C        0.10070    0.38110    0.37030    1.000
    H72      H        0.07620    0.42980    0.37470    1.000
    C123     C        0.14960    0.29690    0.30580    1.000
    H73      H        0.16020    0.28470    0.26370    1.000
    C124     C        0.17040    0.24380    0.35810    1.000
    H74      H        0.19510    0.19610    0.35210    1.000
    C125     C        0.15610    0.25860    0.41980    1.000
    C126     C        0.23450    0.10090    0.68650    1.000
    H75      H        0.22660    0.12000    0.72900    1.000
    C127     C        0.27840    0.00730    0.62260    1.000
    H76      H        0.30270    0.95810    0.61830    1.000
    N30      N        0.01940    0.45890    0.24300    1.000
    C128     C        0.02010    0.47800    0.24550    1.000
    C129     C        0.25680    0.05290    0.56510    1.000
    H77      H        0.26580    0.03310    0.52320    1.000
    C130     C        0.08750    0.07620    0.63330    1.000
    H78      H        0.06990    0.11700    0.60060    1.000
    C131     C        0.13740    0.96650    0.72590    1.000
    H79      H        0.16010    0.92610    0.75730    1.000
    C132     C        0.12590    0.06200    0.74470    1.000
    C133     C        0.13760    0.16750    0.83980    1.000
    H80      H        0.11640    0.21290    0.81470    1.000
    C134     C        0.18370    0.15410    0.95740    1.000
    H81      H        0.19460    0.08770    0.95020    1.000
    C135     C        0.09920    0.11710    0.69670    1.000
    H82      H        0.08860    0.18280    0.70630    1.000
    C136     C        0.14400    0.09620    0.81260    1.000
    H83      H        0.16480    0.04950    0.83730    1.000
    C137     C        0.22210    0.12730    0.56870    1.000
    C138     C        0.12000    0.32960    0.42540    1.000
    H84      H        0.10890    0.34240    0.46710    1.000
    C139     C        0.31500    0.30190    0.47230    1.000
    C140     C        0.20820    0.16070    0.49560    1.000
    C141     C        0.21160    0.15020    0.63100    1.000
    H85      H        0.18820    0.20070    0.63670    1.000
    C142     C        0.13010    0.93500    0.65540    1.000
    C143     C        0.11900    0.92400    0.67080    1.000
    C144     C        0.16840    0.22110    0.48820    1.000
    C145     C        0.19210    0.18610    0.46500    1.000
    W6       W        0.64377    0.02903    0.14107    1.000
    Cu16     Cu       0.58811    0.95525    0.23111    1.000
    Cu17     Cu       0.69078    0.85068    0.13036    1.000
    Cu18     Cu       0.71258    0.08019    0.24118    1.000
    S16      S        0.62994    0.10539    0.23593    1.000
    S17      S        0.72449    0.01039    0.14048    1.000
    S18      S        0.60825    0.87652    0.13738    1.000
    N31      N        0.74810    0.68840    0.21470    1.000
    N32      N        0.68190    0.79270    0.03200    1.000
    N33      N        0.59960    0.48410    0.61630    1.000
    N34      N        0.61510    0.86500    0.30990    1.000
    N35      N        0.76740    0.52760    0.68260    1.000
    C146     C        0.69650    0.70090    0.01930    1.000
    H86      H        0.71620    0.66530    0.05280    1.000
    C147     C        0.65360    0.83980    0.98280    1.000
    H87      H        0.64130    0.90470    0.99090    1.000
    C148     C        0.64220    0.79660    0.92140    1.000
    H88      H        0.62410    0.83560    0.88810    1.000
    C149     C        0.65480    0.70500    0.90580    1.000
    C150     C        0.72670    0.74710    0.18180    1.000
    C151     C        0.60070    0.88110    0.37030    1.000
    H89      H        0.57620    0.92980    0.37470    1.000
    C152     C        0.64960    0.79690    0.30580    1.000
    H90      H        0.66020    0.78470    0.26370    1.000
    C153     C        0.67040    0.74380    0.35810    1.000
    H91      H        0.69510    0.69610    0.35210    1.000
    C154     C        0.65610    0.75860    0.41980    1.000
    C155     C        0.73450    0.60090    0.68650    1.000
    H92      H        0.72660    0.62000    0.72900    1.000
    C156     C        0.77840    0.50730    0.62260    1.000
    H93      H        0.80270    0.45810    0.61830    1.000
    N36      N        0.51940    0.95890    0.24300    1.000
    C157     C        0.52010    0.97800    0.24550    1.000
    C158     C        0.75680    0.55290    0.56510    1.000
    H94      H        0.76580    0.53310    0.52320    1.000
    C159     C        0.58750    0.57620    0.63330    1.000
    H95      H        0.56990    0.61700    0.60060    1.000
    C160     C        0.63740    0.46650    0.72590    1.000
    H96      H        0.66010    0.42610    0.75730    1.000
    C161     C        0.62590    0.56200    0.74470    1.000
    C162     C        0.63760    0.66750    0.83980    1.000
    H97      H        0.61640    0.71290    0.81470    1.000
    C163     C        0.68370    0.65410    0.95740    1.000
    H98      H        0.69460    0.58770    0.95020    1.000
    C164     C        0.59920    0.61710    0.69670    1.000
    H99      H        0.58860    0.68280    0.70630    1.000
    C165     C        0.64400    0.59620    0.81260    1.000
    H100     H        0.66480    0.54950    0.83730    1.000
    C166     C        0.72210    0.62730    0.56870    1.000
    C167     C        0.62000    0.82960    0.42540    1.000
    H101     H        0.60890    0.84240    0.46710    1.000
    C168     C        0.81500    0.80190    0.47230    1.000
    C169     C        0.70820    0.66070    0.49560    1.000
    C170     C        0.71160    0.65020    0.63100    1.000
    H102     H        0.68820    0.70070    0.63670    1.000
    C171     C        0.63010    0.43500    0.65540    1.000
    C172     C        0.61900    0.42400    0.67080    1.000
    C173     C        0.66840    0.72110    0.48820    1.000
    C174     C        0.69210    0.68610    0.46500    1.000
    W7       W        0.85623    0.52903    0.35893    1.000
    Cu19     Cu       0.91189    0.45525    0.26889    1.000
    Cu20     Cu       0.80922    0.35068    0.36964    1.000
    Cu21     Cu       0.78742    0.58019    0.25882    1.000
    S19      S        0.87006    0.60539    0.26407    1.000
    S20      S        0.77551    0.51039    0.35952    1.000
    S21      S        0.89175    0.37652    0.36262    1.000
    N37      N        0.75190    0.18840    0.28530    1.000
    N38      N        0.81810    0.29270    0.46800    1.000
    N39      N        0.90040    0.98410    0.88370    1.000
    N40      N        0.88490    0.36500    0.19010    1.000
    N41      N        0.73260    0.02760    0.81740    1.000
    C175     C        0.80350    0.20090    0.48070    1.000
    H103     H        0.78380    0.16530    0.44720    1.000
    C176     C        0.84640    0.33980    0.51720    1.000
    H104     H        0.85870    0.40470    0.50910    1.000
    C177     C        0.85780    0.29660    0.57860    1.000
    H105     H        0.87590    0.33560    0.61190    1.000
    C178     C        0.84520    0.20500    0.59420    1.000
    C179     C        0.77330    0.24710    0.31820    1.000
    C180     C        0.89930    0.38110    0.12970    1.000
    H106     H        0.92380    0.42980    0.12530    1.000
    C181     C        0.85040    0.29690    0.19420    1.000
    H107     H        0.83980    0.28470    0.23630    1.000
    C182     C        0.82960    0.24380    0.14190    1.000
    H108     H        0.80490    0.19610    0.14790    1.000
    C183     C        0.84390    0.25860    0.08020    1.000
    C184     C        0.76550    0.10090    0.81350    1.000
    H109     H        0.77340    0.12000    0.77100    1.000
    C185     C        0.72160    0.00730    0.87740    1.000
    H110     H        0.69730    0.95810    0.88170    1.000
    N42      N        0.98060    0.45890    0.25700    1.000
    C186     C        0.97990    0.47800    0.25450    1.000
    C187     C        0.74320    0.05290    0.93490    1.000
    H111     H        0.73420    0.03310    0.97680    1.000
    C188     C        0.91250    0.07620    0.86670    1.000
    H112     H        0.93010    0.11700    0.89940    1.000
    C189     C        0.86260    0.96650    0.77410    1.000
    H113     H        0.83990    0.92610    0.74270    1.000
    C190     C        0.87410    0.06200    0.75530    1.000
    C191     C        0.86240    0.16750    0.66020    1.000
    H114     H        0.88360    0.21290    0.68530    1.000
    C192     C        0.81630    0.15410    0.54260    1.000
    H115     H        0.80540    0.08770    0.54980    1.000
    C193     C        0.90080    0.11710    0.80330    1.000
    H116     H        0.91140    0.18280    0.79370    1.000
    C194     C        0.85600    0.09620    0.68740    1.000
    H117     H        0.83520    0.04950    0.66270    1.000
    C195     C        0.77790    0.12730    0.93130    1.000
    C196     C        0.88000    0.32960    0.07460    1.000
    H118     H        0.89110    0.34240    0.03290    1.000
    C197     C        0.68500    0.30190    0.02770    1.000
    C198     C        0.79180    0.16070    0.00440    1.000
    C199     C        0.78840    0.15020    0.86900    1.000
    H119     H        0.81180    0.20070    0.86330    1.000
    C200     C        0.86990    0.93500    0.84460    1.000
    C201     C        0.88100    0.92400    0.82920    1.000
    C202     C        0.83160    0.22110    0.01180    1.000
    C203     C        0.80790    0.18610    0.03500    1.000
    W8       W        0.35623    0.02903    0.35893    1.000
    Cu22     Cu       0.41189    0.95525    0.26889    1.000
    Cu23     Cu       0.30922    0.85068    0.36964    1.000
    Cu24     Cu       0.28742    0.08019    0.25882    1.000
    S22      S        0.37006    0.10539    0.26407    1.000
    S23      S        0.27551    0.01039    0.35952    1.000
    S24      S        0.39175    0.87652    0.36262    1.000
    N43      N        0.25190    0.68840    0.28530    1.000
    N44      N        0.31810    0.79270    0.46800    1.000
    N45      N        0.40040    0.48410    0.88370    1.000
    N46      N        0.38490    0.86500    0.19010    1.000
    N47      N        0.23260    0.52760    0.81740    1.000
    C204     C        0.30350    0.70090    0.48070    1.000
    H120     H        0.28380    0.66530    0.44720    1.000
    C205     C        0.34640    0.83980    0.51720    1.000
    H121     H        0.35870    0.90470    0.50910    1.000
    C206     C        0.35780    0.79660    0.57860    1.000
    H122     H        0.37590    0.83560    0.61190    1.000
    C207     C        0.34520    0.70500    0.59420    1.000
    C208     C        0.27330    0.74710    0.31820    1.000
    C209     C        0.39930    0.88110    0.12970    1.000
    H123     H        0.42380    0.92980    0.12530    1.000
    C210     C        0.35040    0.79690    0.19420    1.000
    H124     H        0.33980    0.78470    0.23630    1.000
    C211     C        0.32960    0.74380    0.14190    1.000
    H125     H        0.30490    0.69610    0.14790    1.000
    C212     C        0.34390    0.75860    0.08020    1.000
    C213     C        0.26550    0.60090    0.81350    1.000
    H126     H        0.27340    0.62000    0.77100    1.000
    C214     C        0.22160    0.50730    0.87740    1.000
    H127     H        0.19730    0.45810    0.88170    1.000
    N48      N        0.48060    0.95890    0.25700    1.000
    C215     C        0.47990    0.97800    0.25450    1.000
    C216     C        0.24320    0.55290    0.93490    1.000
    H128     H        0.23420    0.53310    0.97680    1.000
    C217     C        0.41250    0.57620    0.86670    1.000
    H129     H        0.43010    0.61700    0.89940    1.000
    C218     C        0.36260    0.46650    0.77410    1.000
    H130     H        0.33990    0.42610    0.74270    1.000
    C219     C        0.37410    0.56200    0.75530    1.000
    C220     C        0.36240    0.66750    0.66020    1.000
    H131     H        0.38360    0.71290    0.68530    1.000
    C221     C        0.31630    0.65410    0.54260    1.000
    H132     H        0.30540    0.58770    0.54980    1.000
    C222     C        0.40080    0.61710    0.80330    1.000
    H133     H        0.41140    0.68280    0.79370    1.000
    C223     C        0.35600    0.59620    0.68740    1.000
    H134     H        0.33520    0.54950    0.66270    1.000
    C224     C        0.27790    0.62730    0.93130    1.000
    C225     C        0.38000    0.82960    0.07460    1.000
    H135     H        0.39110    0.84240    0.03290    1.000
    C226     C        0.18500    0.80190    0.02770    1.000
    C227     C        0.29180    0.66070    0.00440    1.000
    C228     C        0.28840    0.65020    0.86900    1.000
    H136     H        0.31180    0.70070    0.86330    1.000
    C229     C        0.36990    0.43500    0.84460    1.000
    C230     C        0.38100    0.42400    0.82920    1.000
    C231     C        0.33160    0.72110    0.01180    1.000
    C232     C        0.30790    0.68610    0.03500    1.000
