data_functionalizedCrystal
_audit_creation_method	'EQeq! by Chris Wilmer'
_symmetry_space_group_name_H-M	'P1'
_symmetry_Int_Tables_number	1
_symmetry_cell_setting	triclinic
loop_
_symmetry_equiv_pos_as_xyz
  x,y,z
_cell_length_a	10.377
_cell_length_b	27.474
_cell_length_c	27.701
_cell_angle_alpha	90
_cell_angle_beta	90
_cell_angle_gamma	90
loop_
_atom_site_label
_atom_site_type_symbol
_atom_site_fract_x
_atom_site_fract_y
_atom_site_fract_z
_atom_site_charge
Mof_Zn	Zn	0.6519	0.79906	0.69605	1.218
Mof_Zn	Zn	0.1519	0.29906	0.80395	1.215
Mof_Zn	Zn	0.3481	0.20094	0.30395	1.215
Mof_Zn	Zn	9.9258e-34	0.73761	0.09917	1.21
Mof_Zn	Zn	0.5	0.30053	0.30589	1.212
Mof_Zn	Zn	0.5	0.23761	0.40083	1.218
Mof_Zn	Zn	9.0163e-33	0.26239	0.90083	1.21
Mof_Zn	Zn	8.06605e-33	0.19947	0.80589	1.204
Mof_Zn	Zn	0.8481	0.29906	0.80395	1.222
Mof_Zn	Zn	0.5	0.69947	0.69411	1.212
Mof_Zn	Zn	-1.08428e-32	0.80053	0.19411	1.204
Mof_Zn	Zn	0.1519	0.70094	0.19605	1.214
Mof_Zn	Zn	0.8481	0.70094	0.19605	1.222
Mof_Zn	Zn	0.3481	0.79906	0.69605	1.215
Mof_Zn	Zn	0.6519	0.20094	0.30395	1.217
Mof_Zn	Zn	0.5	0.76239	0.59917	1.218
Mof_H 	H 	0.1816	0.7525	0.4315	0.12
Mof_H 	H 	0.3184	0.7475	0.9315	0.131
Mof_H 	H 	0.5	0.7734	0.2121	0.041
Mof_H 	H 	-1.60067e-32	0.9298	0.9556	0.067
Mof_H 	H 	0.2964	0.9651	0.2602	0.07
Mof_H 	H 	0.6887	0.2288	0.1449	-0.016
Mof_H 	H 	0.8094	0.6046	0.7489	0.028
Mof_H 	H 	0.3094	0.8954	0.2489	0.037
Mof_H 	H 	0.3113	0.2288	0.1449	-0.027
Mof_H 	H 	6.22652e-33	0.8123	0.6221	0.046
Mof_H 	H 	4.44394e-34	0.0702	0.0444	0.067
Mof_H 	H 	0.2036	0.5349	0.7602	0.074
Mof_H 	H 	3.4348e-32	0.0654	0.8769	0.021
Mof_H 	H 	0.8118	0.5489	0.2182	0.024
Mof_H 	H 	0.6882	0.0489	0.2818	0.044
Mof_H 	H 	0.8113	0.7288	0.3551	-0.02
Mof_H 	H 	0.6887	0.7712	0.8551	-0.016
Mof_H 	H 	0.1887	0.7288	0.3551	-0.015
Mof_H 	H 	0.3094	0.1046	0.7511	0.037
Mof_H 	H 	0.6882	0.9511	0.7182	0.044
Mof_H 	H 	0.7036	0.9651	0.2602	0.08
Mof_H 	H 	-3.71247e-32	0.9346	0.1231	0.021
Mof_H 	H 	0.8184	0.7525	0.4315	0.113
Mof_H 	H 	0.6906	0.1046	0.7511	0.045
Mof_H 	H 	0.6968	0.719	0.9974	0.033
Mof_H 	H 	0.5	0.6877	0.1221	0.04
Mof_H 	H 	0.1968	0.781	0.4974	0.03
Mof_H 	H 	-1.6352e-32	0.9934	0.9211	0.066
Mof_H 	H 	0.7964	0.5349	0.7602	0.071
Mof_H 	H 	0.1968	0.219	0.5026	0.03
Mof_H 	H 	0.5	0.4298	0.5444	0.071
Mof_H 	H 	0.3032	0.281	0.0026	0.024
Mof_H 	H 	0.8032	0.219	0.5026	0.024
Mof_H 	H 	0.8118	0.4511	0.7818	0.024
Mof_H 	H 	0.5	0.2266	0.7879	0.041
Mof_H 	H 	0.5	0.3577	0.5002	0.028
Mof_H 	H 	0.1816	0.2475	0.5685	0.12
Mof_H 	H 	0.5	0.3123	0.8779	0.04
Mof_H 	H 	0.1882	0.5489	0.2182	0.032
Mof_H 	H 	0.2036	0.4651	0.2398	0.074
Mof_H 	H 	0.1882	0.4511	0.7818	0.032
Mof_H 	H 	0.5	0.4934	0.5789	0.07
Mof_H 	H 	0.3113	0.7712	0.8551	-0.027
Mof_H 	H 	0.5	0.5654	0.6231	0.029
Mof_H 	H 	-8.085e-34	0.0066	0.0789	0.066
Mof_H 	H 	0.7036	0.0349	0.7398	0.08
Mof_H 	H 	0.2964	0.0349	0.7398	0.07
Mof_H 	H 	0.3118	0.9511	0.7182	0.033
Mof_H 	H 	0.3118	0.0489	0.2818	0.033
Mof_H 	H 	0.6816	0.7475	0.9315	0.14
Mof_H 	H 	0.8113	0.2712	0.6449	-0.02
Mof_H 	H 	0.8184	0.2475	0.5685	0.113
Mof_H 	H 	0.7964	0.4651	0.2398	0.071
Mof_H 	H 	0.6906	0.8954	0.2489	0.045
Mof_H 	H 	0.6816	0.2525	0.0685	0.14
Mof_H 	H 	0.5	0.5066	0.4211	0.07
Mof_H 	H 	0.5	0.4346	0.3769	0.029
Mof_H 	H 	0.1906	0.3954	0.2511	0.035
Mof_H 	H 	3.78235e-33	0.1877	0.3779	0.046
Mof_H 	H 	0.5	0.6423	0.4998	0.028
Mof_H 	H 	-4.11355e-32	0.8577	0.9998	0.02
Mof_H 	H 	0.1887	0.2712	0.6449	-0.015
Mof_H 	H 	0.1906	0.6046	0.7489	0.035
Mof_H 	H 	0.6968	0.281	0.0026	0.033
Mof_H 	H 	0.8094	0.3954	0.2511	0.028
Mof_H 	H 	0.5	0.5702	0.4556	0.071
Mof_H 	H 	0.8032	0.781	0.4974	0.024
Mof_H 	H 	-4.10034e-34	0.1423	0.0002	0.02
Mof_H 	H 	3.26985e-32	0.7266	0.7121	0.046
Mof_H 	H 	0.3032	0.719	0.9974	0.024
Mof_H 	H 	2.88156e-33	0.2734	0.2879	0.046
Mof_H 	H 	0.3184	0.2525	0.0685	0.131
Mof_C 	C 	0.5	0.7224	0.99	-0.104
Mof_C 	C 	-1.61909e-32	0.0235	0.9372	-0.119
Mof_C 	C 	0.5	0.8929	0.7017	0.326
Mof_C 	C 	0.8868	0.6219	0.7451	0.072
Mof_C 	C 	0.1184	0.7846	0.5141	0.035
Mof_C 	C 	0.5	0.0551	0.2885	-0.11
Mof_C 	C 	-7.88125e-33	0.7776	0.49	-0.126
Mof_C 	C 	-3.91861e-33	0.4016	0.2472	-0.085
Mof_C 	C 	0.3966	0.2517	0.0856	-0.294
Mof_C 	C 	-1.50892e-32	0.9335	0.0892	0.057
Mof_C 	C 	0.8966	0.2483	0.5856	-0.209
Mof_C 	C 	-1.76792e-32	0.4449	0.7885	-0.163
Mof_C 	C 	0.7605	0.3043	0.2803	0.384
Mof_C 	C 	-7.68108e-33	0.2224	0.51	-0.126
Mof_C 	C 	-1.64551e-32	0.0665	0.9108	0.057
Mof_C 	C 	-1.79024e-32	0.5442	0.7662	0.034
Mof_C 	C 	0.6083	0.2371	0.1315	0.209
Mof_C 	C 	0.5	0.6122	0.5159	0.061
Mof_C 	C 	0.2605	0.1957	0.7803	0.395
Mof_C 	C 	0.8816	0.7846	0.5141	0.077
Mof_C 	C 	0.8753	0.4804	0.2329	-0.081
Mof_C 	C 	0.8966	0.7517	0.4144	-0.209
Mof_C 	C 	0.5	0.7805	0.789	0.434
Mof_C 	C 	7.53468e-33	0.5984	0.7528	-0.085
Mof_C 	C 	-2.29221e-33	0.0691	0.0105	-0.121
Mof_C 	C 	0.2423	0.7994	0.5907	0.384
Mof_C 	C 	-1.83298e-32	0.6944	0.7235	-0.001
Mof_C 	C 	-9.89304e-33	0.7195	0.289	0.38
Mof_C 	C 	0.5	0.9449	0.7115	-0.11
Mof_C 	C 	0.2577	0.2994	0.9093	0.392
Mof_C 	C 	0.1083	0.7371	0.3685	0.179
Mof_C 	C 	0.3966	0.7483	0.9144	-0.294
Mof_C 	C 	0.5	0.8056	0.2235	0.058
Mof_C 	C 	-2.98978e-33	0.7336	0.34	-0.267
Mof_C 	C 	0.6132	0.1219	0.7549	0.017
Mof_C 	C 	0.5	0.6577	0.5979	0.502
Mof_C 	C 	-1.02592e-32	0.9752	0.0129	0.049
Mof_C 	C 	0.5	0.3892	0.4343	-0.14
Mof_C 	C 	0.8883	0.4692	0.7796	0.1
Mof_C 	C 	0.5	0.1944	0.7765	0.058
Mof_C 	C 	2.55644e-33	0.8878	0.0159	0.062
Mof_C 	C 	0.3808	0.8286	0.2317	-0.125
Mof_C 	C 	0.8917	0.7371	0.3685	0.219
Mof_C 	C 	0.2577	0.7006	0.0907	0.392
Mof_C 	C 	0.1117	0.5308	0.2204	0.051
Mof_C 	C 	0.1117	0.4692	0.7796	0.051
Mof_C 	C 	0.2395	0.6957	0.7197	0.387
Mof_C 	C 	0.6117	0.0308	0.2796	0.04
Mof_C 	C 	0.1184	0.2154	0.4859	0.035
Mof_C 	C 	9.02901e-33	0.1577	0.9021	0.505
Mof_C 	C 	-1.2157e-32	0.9765	0.0628	-0.119
Mof_C 	C 	0.2395	0.3043	0.2803	0.387
Mof_C 	C 	0.1034	0.7517	0.4144	-0.257
Mof_C 	C 	0.3883	0.9692	0.7204	0.039
Mof_C 	C 	0.3816	0.2846	0.9859	0.047
Mof_C 	C 	0.1179	0.203	0.4369	-0.108
Mof_C 	C 	0.5	0.9016	0.2528	-0.034
Mof_C 	C 	-1.56914e-32	0.0248	0.9871	0.049
Mof_C 	C 	-3.62535e-33	0.3056	0.2765	-0.001
Mof_C 	C 	0.8808	0.6714	0.7317	-0.085
Mof_C 	C 	-1.99432e-32	0.2351	0.5623	0.161
Mof_C 	C 	0.5	0.5665	0.5892	0.056
Mof_C 	C 	0.3917	0.7629	0.8685	0.208
Mof_C 	C 	0.1179	0.797	0.5631	-0.108
Mof_C 	C 	3.54209e-32	0.1122	0.9841	0.062
Mof_C 	C 	0.5	0.3423	0.4021	0.502
Mof_C 	C 	0.1132	0.3781	0.2549	0.025
Mof_C 	C 	-1.53244e-32	0.8892	0.0657	-0.149
Mof_C 	C 	0.1247	0.5196	0.7671	-0.116
Mof_C 	C 	-2.11903e-32	0.7649	0.4377	0.161
Mof_C 	C 	0.5	0.0984	0.7472	-0.034
Mof_C 	C 	0.5	0.7664	0.84	-0.25
Mof_C 	C 	-1.06687e-32	0.5551	0.2115	-0.163
Mof_C 	C 	0.5	0.4309	0.5105	-0.116
Mof_C 	C 	0.1034	0.2483	0.5856	-0.257
Mof_C 	C 	5.89723e-33	0.8038	0.5892	-0.01
Mof_C 	C 	0.8883	0.5308	0.2204	0.1
Mof_C 	C 	0.3816	0.7154	0.0141	0.047
Mof_C 	C 	0.1247	0.4804	0.2329	-0.116
Mof_C 	C 	0.7577	0.7994	0.5907	0.382
Mof_C 	C 	0.5	0.7351	0.9377	0.24
Mof_C 	C 	0.8753	0.5196	0.7671	-0.081
Mof_C 	C 	0.1083	0.2629	0.6315	0.179
Mof_C 	C 	0.7605	0.6957	0.7197	0.384
Mof_C 	C 	0.5	0.6108	0.5657	-0.14
Mof_C 	C 	0.1132	0.6219	0.7451	0.025
Mof_C 	C 	0.6179	0.297	0.9369	-0.115
Mof_C 	C 	0.3917	0.2371	0.1315	0.208
Mof_C 	C 	0.8917	0.2629	0.6315	0.219
Mof_C 	C 	0.6083	0.7629	0.8685	0.209
Mof_C 	C 	0.7395	0.1957	0.7803	0.39
Mof_C 	C 	0.2423	0.2006	0.4093	0.384
Mof_C 	C 	0.7423	0.7006	0.0907	0.389
Mof_C 	C 	0.3821	0.703	0.0631	-0.121
Mof_C 	C 	-6.68098e-32	0.9309	0.9895	-0.121
Mof_C 	C 	0.5	0.3878	0.4841	0.061
Mof_C 	C 	0.2605	0.8043	0.2197	0.395
Mof_C 	C 	0.8868	0.3781	0.2549	0.072
Mof_C 	C 	0.5	0.3038	0.9108	0.052
Mof_C 	C 	-8.67396e-33	0.1962	0.4108	-0.01
Mof_C 	C 	1.48044e-32	0.6071	0.2017	0.293
Mof_C 	C 	0.6117	0.9692	0.7204	0.04
Mof_C 	C 	0.6247	0.0196	0.7329	-0.106
Mof_C 	C 	0.5	0.0442	0.7338	0.064
Mof_C 	C 	0.5	0.9558	0.2662	0.064
Mof_C 	C 	0.6034	0.2517	0.0856	-0.292
Mof_C 	C 	0.7423	0.2994	0.9093	0.389
Mof_C 	C 	0.3868	0.1219	0.7549	0.019
Mof_C 	C 	0.6192	0.1714	0.7683	-0.119
Mof_C 	C 	0.7577	0.2006	0.4093	0.382
Mof_C 	C 	7.99009e-33	0.3929	0.7983	0.293
Mof_C 	C 	0.5	0.5248	0.5129	0.051
Mof_C 	C 	0.8816	0.2154	0.4859	0.077
Mof_C 	C 	0.3753	0.9804	0.2671	-0.109
Mof_C 	C 	0.8808	0.3286	0.2683	-0.085
Mof_C 	C 	7.11631e-33	0.2805	0.711	0.38
Mof_C 	C 	0.5	0.6962	0.0892	0.052
Mof_C 	C 	0.5	0.2336	0.16	-0.25
Mof_C 	C 	0.5	0.2195	0.211	0.434
Mof_C 	C 	-2.45913e-32	0.8423	0.0979	0.505
Mof_C 	C 	0.3753	0.0196	0.7329	-0.109
Mof_C 	C 	0.6184	0.2846	0.9859	0.045
Mof_C 	C 	0.3883	0.0308	0.2796	0.039
Mof_C 	C 	0.5	0.2776	0.01	-0.104
Mof_C 	C 	0.5	0.1071	0.2983	0.326
Mof_C 	C 	0.5	0.5691	0.4895	-0.116
Mof_C 	C 	0.3868	0.8781	0.2451	0.019
Mof_C 	C 	0.5	0.4765	0.4372	-0.114
Mof_C 	C 	-1.04455e-32	0.4558	0.2338	0.034
Mof_C 	C 	0.3821	0.297	0.9369	-0.121
Mof_C 	C 	0.5	0.4752	0.4871	0.051
Mof_C 	C 	0.1192	0.6714	0.7317	-0.118
Mof_C 	C 	0.6247	0.9804	0.2671	-0.106
Mof_C 	C 	0.6179	0.703	0.0631	-0.115
Mof_C 	C 	0.7395	0.8043	0.2197	0.39
Mof_C 	C 	0.6034	0.7483	0.9144	-0.292
Mof_C 	C 	0.5	0.5235	0.5628	-0.114
Mof_C 	C 	0.8821	0.797	0.5631	-0.073
Mof_C 	C 	0.6184	0.7154	0.0141	0.045
Mof_C 	C 	0.5	0.2649	0.0623	0.24
Mof_C 	C 	0.3808	0.1714	0.7683	-0.125
Mof_C 	C 	0.6192	0.8286	0.2317	-0.119
Mof_C 	C 	-1.62199e-32	0.1108	0.9343	-0.149
Mof_C 	C 	6.60586e-33	0.2664	0.66	-0.267
Mof_C 	C 	0.1192	0.3286	0.2683	-0.118
Mof_C 	C 	0.8821	0.203	0.4369	-0.073
Mof_C 	C 	0.6132	0.8781	0.2451	0.017
Mof_C 	C 	0.5	0.4335	0.4108	0.056
Mof_O 	O 	0.3431	0.6766	0.7283	-0.481
Mof_O 	O 	0.2734	0.761	0.2015	-0.463
Mof_O 	O 	0.7266	0.239	0.7985	-0.454
Mof_O 	O 	0.7734	0.261	0.2985	-0.448
Mof_O 	O 	0.8877	0.37	0.80034	-0.402
Mof_O 	O 	0.3441	0.21384	0.43195	-0.476
Mof_O 	O 	0.6123	0.87	0.69966	-0.434
Mof_O 	O 	0.5	0.306	0.4275	-0.514
Mof_O 	O 	0.6123	0.13	0.30034	-0.434
Mof_O 	O 	0.8441	0.71384	0.06805	-0.453
Mof_O 	O 	0.7418	0.6865	0.13302	-0.449
Mof_O 	O 	0.1559	0.71384	0.06805	-0.485
Mof_O 	O 	0.2266	0.739	0.7015	-0.465
Mof_O 	O 	0.2418	0.8135	0.63302	-0.459
Mof_O 	O 	0.2418	0.1865	0.36698	-0.459
Mof_O 	O 	0.5	0.23536	0.33224	-0.921
Mof_O 	O 	0.2582	0.3135	0.86698	-0.459
Mof_O 	O 	0.3943	0.2097	0.2304	-0.473
Mof_O 	O 	0.5	0.3473	0.3609	-0.557
Mof_O 	O 	0.3431	0.3234	0.2717	-0.481
Mof_O 	O 	0.5	0.694	0.5725	-0.514
Mof_O 	O 	0.8877	0.63	0.19966	-0.402
Mof_O 	O 	0.3441	0.78616	0.56805	-0.476
Mof_O 	O 	0.2734	0.239	0.7985	-0.463
Mof_O 	O 	0.8431	0.8234	0.2283	-0.457
Mof_O 	O 	0.7582	0.1865	0.36698	-0.443
Mof_O 	O 	0.7734	0.739	0.7015	-0.448
Mof_O 	O 	0.5	0.76464	0.66776	-0.921
Mof_O 	O 	0.1559	0.28616	0.93195	-0.485
Mof_O 	O 	0.2266	0.261	0.2985	-0.465
Mof_O 	O 	0.1569	0.1766	0.7717	-0.488
Mof_O 	O 	0.5	0.6527	0.6391	-0.557
Mof_O 	O 	0.7266	0.761	0.2015	-0.454
Mof_O 	O 	0.6569	0.6766	0.7283	-0.476
Mof_O 	O 	0.8943	0.2903	0.7304	-0.426
Mof_O 	O 	0.3877	0.13	0.30034	-0.441
Mof_O 	O 	0.3877	0.87	0.69966	-0.441
Mof_O 	O 	-1.72414e-32	0.26464	0.83224	-0.941
Mof_O 	O 	8.61664e-33	0.1527	0.8609	-0.569
Mof_O 	O 	0.7582	0.8135	0.63302	-0.443
Mof_O 	O 	0.8441	0.28616	0.93195	-0.453
Mof_O 	O 	-1.6288e-32	0.194	0.9275	-0.526
Mof_O 	O 	0.7418	0.3135	0.86698	-0.449
Mof_O 	O 	4.87549e-33	0.73536	0.16776	-0.941
Mof_O 	O 	0.6569	0.3234	0.2717	-0.476
Mof_O 	O 	0.6559	0.78616	0.56805	-0.472
Mof_O 	O 	0.1123	0.37	0.80034	-0.438
Mof_O 	O 	0.1123	0.63	0.19966	-0.438
Mof_O 	O 	-1.77862e-32	0.8473	0.1391	-0.569
Mof_O 	O 	1.03148e-32	0.806	0.0725	-0.526
Mof_O 	O 	0.6559	0.21384	0.43195	-0.472
Mof_O 	O 	0.3943	0.7903	0.7696	-0.473
Mof_O 	O 	0.2582	0.6865	0.13302	-0.459
Mof_O 	O 	0.6057	0.2097	0.2304	-0.467
Mof_O 	O 	0.1569	0.8234	0.2283	-0.488
Mof_O 	O 	0.1057	0.7097	0.2696	-0.464
Mof_O 	O 	0.8431	0.1766	0.7717	-0.457
Mof_O 	O 	0.8943	0.7097	0.2696	-0.426
Mof_O 	O 	0.6057	0.7903	0.7696	-0.467
Mof_O 	O 	0.1057	0.2903	0.7304	-0.464
_end
