# CIF file generated by openbabel 3.1.0, see https://openbabel.org
data_I
_chemical_name_common 'image0'
_cell_length_a 25.5782
_cell_length_b 25.6108
_cell_length_c 11.5927
_cell_angle_alpha 90
_cell_angle_beta 90
_cell_angle_gamma 90
_space_group_name_H-M_alt 'P 1'
_space_group_name_Hall 'P 1'
loop_
    _symmetry_equiv_pos_as_xyz
    x,y,z
loop_
    _atom_site_label
    _atom_site_type_symbol
    _atom_site_fract_x
    _atom_site_fract_y
    _atom_site_fract_z
    _atom_site_occupancy
    Ag1      Ag       0.26780    0.17241    0.28060    1.000
    Ag2      Ag       0.33822    0.28348    0.22372    1.000
    Ag3      Ag       0.15444    0.23690    0.21459    1.000
    Ag4      Ag       0.22353    0.34835    0.27064    1.000
    Ag5      Ag       0.99160    0.37101    0.49451    1.000
    Ag6      Ag       0.13020    0.00151    0.03035    1.000
    N1       N        0.34459    0.18228    0.35520    1.000
    N2       N        0.37894    0.22075    0.31620    1.000
    N3       N        0.42434    0.16952    0.42820    1.000
    N4       N        0.28737    0.39072    0.18590    1.000
    N5       N        0.32541    0.35840    0.13940    1.000
    N6       N        0.33140    0.43572    0.05210    1.000
    N7       N        0.16264    0.15503    0.16440    1.000
    N8       N        0.19930    0.12841    0.22690    1.000
    N9       N        0.15654    0.07095    0.12030    1.000
    N10      N        0.11311    0.30751    0.26470    1.000
    N11      N        0.14249    0.34070    0.33450    1.000
    N12      N        0.05989    0.34363    0.39420    1.000
    N13      N        0.04365    0.99780    0.98910    1.000
    N14      N        0.99980    0.45620    0.53600    1.000
    C1       C        0.37200    0.15325    0.42280    1.000
    C2       C        0.34710    0.10900    0.48990    1.000
    H1       H        0.30870    0.11280    0.47500    1.000
    C3       C        0.36310    0.05560    0.42400    1.000
    H2       H        0.35030    0.05680    0.34430    1.000
    H3       H        0.34740    0.02570    0.46380    1.000
    H4       H        0.40120    0.05200    0.42380    1.000
    C4       C        0.35210    0.11490    0.61400    1.000
    H5       H        0.34000    0.14970    0.63670    1.000
    H6       H        0.38890    0.11070    0.63610    1.000
    H7       H        0.33100    0.08830    0.65290    1.000
    C5       C        0.42453    0.21131    0.36020    1.000
    C6       C        0.47400    0.24240    0.33810    1.000
    H8       H        0.49990    0.23200    0.39850    1.000
    C7       C        0.49800    0.22920    0.22170    1.000
    H9       H        0.53380    0.24290    0.21830    1.000
    H10      H        0.47710    0.24510    0.16020    1.000
    H11      H        0.49870    0.19130    0.21170    1.000
    C8       C        0.46510    0.30150    0.35080    1.000
    H12      H        0.46350    0.31060    0.43280    1.000
    H13      H        0.43210    0.31120    0.31340    1.000
    H14      H        0.49400    0.32040    0.31430    1.000
    C9       C        0.29270    0.43530    0.13330    1.000
    C10      C        0.26160    0.48353    0.15930    1.000
    H15      H        0.27170    0.51090    0.10210    1.000
    C11      C        0.27460    0.50460    0.28190    1.000
    H16      H        0.31070    0.51740    0.28340    1.000
    H17      H        0.27060    0.47640    0.33840    1.000
    H18      H        0.25070    0.53320    0.30110    1.000
    C12      C        0.20160    0.47490    0.15010    1.000
    H19      H        0.19270    0.46440    0.07120    1.000
    H20      H        0.18340    0.50750    0.16900    1.000
    H21      H        0.19090    0.44750    0.20410    1.000
    C13      C        0.34965    0.38535    0.05630    1.000
    C14      C        0.39210    0.36689    0.97870    1.000
    H22      H        0.42310    0.39040    0.98560    1.000
    C15      C        0.40790    0.31310    0.99440    1.000
    H23      H        0.43330    0.31100    0.05750    1.000
    H24      H        0.42380    0.30020    0.92320    1.000
    H25      H        0.37720    0.29190    0.01330    1.000
    C16      C        0.36930    0.36950    0.85140    1.000
    H26      H        0.36100    0.40580    0.83200    1.000
    H27      H        0.33760    0.34820    0.84650    1.000
    H28      H        0.39540    0.35610    0.79710    1.000
    C17      C        0.13817    0.12010    0.10070    1.000
    C18      C        0.09720    0.13230    0.01280    1.000
    H29      H        0.07660    0.09910    0.00910    1.000
    C19      C        0.05750    0.17110    0.04750    1.000
    H30      H        0.04280    0.16130    0.12250    1.000
    H31      H        0.02960    0.17210    0.98970    1.000
    H32      H        0.07390    0.20560    0.05330    1.000
    C20      C        0.12050    0.13620    0.89180    1.000
    H33      H        0.09230    0.13640    0.83460    1.000
    H34      H        0.14350    0.10620    0.87790    1.000
    H35      H        0.14080    0.16850    0.88530    1.000
    C21      C        0.19421    0.07740    0.19840    1.000
    C22      C        0.22630    0.03700    0.26070    1.000
    H36      H        0.24920    0.05560    0.31720    1.000
    C23      C        0.19320    0.99790    0.32740    1.000
    H37      H        0.17380    0.01610    0.38810    1.000
    H38      H        0.21600    0.97150    0.36240    1.000
    H39      H        0.16860    0.98080    0.27480    1.000
    C24      C        0.26060    0.00930    0.17710    1.000
    H40      H        0.27850    0.98050    0.21630    1.000
    H41      H        0.28650    0.03370    0.14620    1.000
    H42      H        0.23940    0.99540    0.11390    1.000
    C25      C        0.06422    0.31151    0.30490    1.000
    C26      C        0.01910    0.27950    0.25060    1.000
    H43      H        0.03280    0.26370    0.17770    1.000
    C27      C        0.97410    0.31440    0.21820    1.000
    H44      H        0.95130    0.29620    0.16340    1.000
    H45      H        0.98760    0.34640    0.18260    1.000
    H46      H        0.95410    0.32340    0.28760    1.000
    C28      C        0.00530    0.23540    0.32980    1.000
    H47      H        0.98820    0.20750    0.28570    1.000
    H48      H        0.98140    0.24800    0.38980    1.000
    H49      H        0.03710    0.22170    0.36580    1.000
    C29      C        0.10956    0.36093    0.40950    1.000
    C30      C        0.12451    0.39661    0.50670    1.000
    H50      H        0.09950    0.42660    0.50710    1.000
    C31      C        0.17990    0.41870    0.50030    1.000
    H51      H        0.18460    0.43710    0.42680    1.000
    H52      H        0.20530    0.39010    0.50570    1.000
    H53      H        0.18540    0.44320    0.56420    1.000
    C32      C        0.11810    0.36700    0.62010    1.000
    H54      H        0.08590    0.34620    0.61740    1.000
    H55      H        0.11600    0.39190    0.68410    1.000
    H56      H        0.14810    0.34380    0.63160    1.000
    C33      C        0.02080    0.95150    0.23640    1.000
    H57      H        0.02010    0.95310    0.32090    1.000
    H58      H        0.05690    0.94670    0.21000    1.000
    H59      H        0.99940    0.92210    0.21000    1.000
    C34      C        0.05400    0.50070    0.28390    1.000
    H60      H        0.05030    0.51350    0.20460    1.000
    H61      H        0.06840    0.46530    0.28290    1.000
    H62      H        0.07750    0.52380    0.32690    1.000
    C35      C        0.02676    0.99830    0.87770    1.000
    C36      C        0.06430    0.99240    0.77620    1.000
    H63      H        0.09680    0.99070    0.82380    1.000
    C37      C        0.08920    0.01810    0.67420    1.000
    H64      H        0.10110    0.99130    0.61980    1.000
    H65      H        0.11920    0.03900    0.69980    1.000
    H66      H        0.06370    0.04090    0.63620    1.000
    C38      C        0.06290    0.93430    0.74610    1.000
    H67      H        0.08620    0.92750    0.68080    1.000
    H68      H        0.02710    0.92420    0.72550    1.000
    H69      H        0.07440    0.91380    0.81290    1.000
    C39      C        0.99840    0.43470    0.74790    1.000
    H70      H        0.01030    0.40040    0.71590    1.000
    C40      C        0.94490    0.42660    0.79800    1.000
    H71      H        0.92090    0.41520    0.73710    1.000
    H72      H        0.93230    0.45950    0.83110    1.000
    H73      H        0.94650    0.40000    0.85850    1.000
    C41      C        0.03870    0.45240    0.83290    1.000
    H74      H        0.07270    0.45490    0.79460    1.000
    H75      H        0.04080    0.42730    0.89640    1.000
    H76      H        0.02880    0.48670    0.86340    1.000
    C42      C        0.00000    0.47424    0.65040    1.000
    C43      C        0.01730    0.05010    0.23610    1.000
    H77      H        0.01680    0.04860    0.32060    1.000
    H78      H        0.00620    0.92220    0.20960    1.000
    H79      H        0.96200    0.99870    0.20970    1.000
    H80      H        0.99950    0.53900    0.34270    1.000
    H81      H        0.05290    0.05740    0.20950    1.000
    N15      N        0.00000    0.52576    0.65040    1.000
    Ag7      Ag       0.73220    0.82758    0.28060    1.000
    Ag8      Ag       0.66178    0.71652    0.22372    1.000
    Ag9      Ag       0.84556    0.76310    0.21459    1.000
    Ag10     Ag       0.77647    0.65165    0.27064    1.000
    Ag11     Ag       0.00840    0.62899    0.49451    1.000
    Ag12     Ag       0.86980    0.99849    0.03035    1.000
    N16      N        0.65541    0.81772    0.35520    1.000
    N17      N        0.62106    0.77925    0.31620    1.000
    N18      N        0.57566    0.83048    0.42820    1.000
    N19      N        0.71263    0.60928    0.18590    1.000
    N20      N        0.67459    0.64160    0.13940    1.000
    N21      N        0.66860    0.56428    0.05210    1.000
    N22      N        0.83736    0.84497    0.16440    1.000
    N23      N        0.80070    0.87159    0.22690    1.000
    N24      N        0.84346    0.92905    0.12030    1.000
    N25      N        0.88689    0.69249    0.26470    1.000
    N26      N        0.85751    0.65930    0.33450    1.000
    N27      N        0.94011    0.65637    0.39420    1.000
    N28      N        0.95635    0.00220    0.98910    1.000
    N29      N        0.00020    0.54380    0.53600    1.000
    C44      C        0.62800    0.84675    0.42280    1.000
    C45      C        0.65290    0.89100    0.48990    1.000
    H82      H        0.69130    0.88720    0.47500    1.000
    C46      C        0.63690    0.94440    0.42400    1.000
    H83      H        0.64970    0.94320    0.34430    1.000
    H84      H        0.65260    0.97430    0.46380    1.000
    H85      H        0.59880    0.94800    0.42380    1.000
    C47      C        0.64790    0.88510    0.61400    1.000
    H86      H        0.66000    0.85030    0.63670    1.000
    H87      H        0.61110    0.88930    0.63610    1.000
    H88      H        0.66900    0.91170    0.65290    1.000
    C48      C        0.57547    0.78869    0.36020    1.000
    C49      C        0.52600    0.75760    0.33810    1.000
    H89      H        0.50010    0.76800    0.39850    1.000
    C50      C        0.50200    0.77080    0.22170    1.000
    H90      H        0.46620    0.75710    0.21830    1.000
    H91      H        0.52290    0.75490    0.16020    1.000
    H92      H        0.50130    0.80870    0.21170    1.000
    C51      C        0.53490    0.69850    0.35080    1.000
    H93      H        0.53650    0.68940    0.43280    1.000
    H94      H        0.56790    0.68880    0.31340    1.000
    H95      H        0.50600    0.67960    0.31430    1.000
    C52      C        0.70730    0.56470    0.13330    1.000
    C53      C        0.73840    0.51647    0.15930    1.000
    H96      H        0.72830    0.48910    0.10210    1.000
    C54      C        0.72540    0.49540    0.28190    1.000
    H97      H        0.68930    0.48260    0.28340    1.000
    H98      H        0.72940    0.52360    0.33840    1.000
    H99      H        0.74930    0.46680    0.30110    1.000
    C55      C        0.79840    0.52510    0.15010    1.000
    H100     H        0.80730    0.53560    0.07120    1.000
    H101     H        0.81660    0.49250    0.16900    1.000
    H102     H        0.80910    0.55250    0.20410    1.000
    C56      C        0.65035    0.61465    0.05630    1.000
    C57      C        0.60790    0.63311    0.97870    1.000
    H103     H        0.57690    0.60960    0.98560    1.000
    C58      C        0.59210    0.68690    0.99440    1.000
    H104     H        0.56670    0.68900    0.05750    1.000
    H105     H        0.57620    0.69980    0.92320    1.000
    H106     H        0.62280    0.70810    0.01330    1.000
    C59      C        0.63070    0.63050    0.85140    1.000
    H107     H        0.63900    0.59420    0.83200    1.000
    H108     H        0.66240    0.65180    0.84650    1.000
    H109     H        0.60460    0.64390    0.79710    1.000
    C60      C        0.86183    0.87990    0.10070    1.000
    C61      C        0.90280    0.86770    0.01280    1.000
    H110     H        0.92340    0.90090    0.00910    1.000
    C62      C        0.94250    0.82890    0.04750    1.000
    H111     H        0.95720    0.83870    0.12250    1.000
    H112     H        0.97040    0.82790    0.98970    1.000
    H113     H        0.92610    0.79440    0.05330    1.000
    C63      C        0.87950    0.86380    0.89180    1.000
    H114     H        0.90770    0.86360    0.83460    1.000
    H115     H        0.85650    0.89380    0.87790    1.000
    H116     H        0.85920    0.83150    0.88530    1.000
    C64      C        0.80579    0.92260    0.19840    1.000
    C65      C        0.77370    0.96300    0.26070    1.000
    H117     H        0.75080    0.94440    0.31720    1.000
    C66      C        0.80680    0.00210    0.32740    1.000
    H118     H        0.82620    0.98390    0.38810    1.000
    H119     H        0.78400    0.02850    0.36240    1.000
    H120     H        0.83140    0.01920    0.27480    1.000
    C67      C        0.73940    0.99070    0.17710    1.000
    H121     H        0.72150    0.01950    0.21630    1.000
    H122     H        0.71350    0.96630    0.14620    1.000
    H123     H        0.76060    0.00460    0.11390    1.000
    C68      C        0.93578    0.68849    0.30490    1.000
    C69      C        0.98090    0.72050    0.25060    1.000
    H124     H        0.96720    0.73630    0.17770    1.000
    C70      C        0.02590    0.68560    0.21820    1.000
    H125     H        0.04870    0.70380    0.16340    1.000
    H126     H        0.01240    0.65360    0.18260    1.000
    H127     H        0.04590    0.67660    0.28760    1.000
    C71      C        0.99470    0.76460    0.32980    1.000
    H128     H        0.01180    0.79250    0.28570    1.000
    H129     H        0.01860    0.75200    0.38980    1.000
    H130     H        0.96290    0.77830    0.36580    1.000
    C72      C        0.89044    0.63907    0.40950    1.000
    C73      C        0.87549    0.60339    0.50670    1.000
    H131     H        0.90050    0.57340    0.50710    1.000
    C74      C        0.82010    0.58130    0.50030    1.000
    H132     H        0.81540    0.56290    0.42680    1.000
    H133     H        0.79470    0.60990    0.50570    1.000
    H134     H        0.81460    0.55680    0.56420    1.000
    C75      C        0.88190    0.63300    0.62010    1.000
    H135     H        0.91410    0.65380    0.61740    1.000
    H136     H        0.88400    0.60810    0.68410    1.000
    H137     H        0.85190    0.65620    0.63160    1.000
    C76      C        0.97920    0.04850    0.23640    1.000
    H138     H        0.97990    0.04690    0.32090    1.000
    H139     H        0.94310    0.05330    0.21000    1.000
    H140     H        0.00060    0.07790    0.21000    1.000
    C77      C        0.94600    0.49930    0.28390    1.000
    H141     H        0.94970    0.48650    0.20460    1.000
    H142     H        0.93160    0.53470    0.28290    1.000
    H143     H        0.92250    0.47620    0.32690    1.000
    C78      C        0.97324    0.00170    0.87770    1.000
    C79      C        0.93570    0.00760    0.77620    1.000
    H144     H        0.90320    0.00930    0.82380    1.000
    C80      C        0.91080    0.98190    0.67420    1.000
    H145     H        0.89890    0.00870    0.61980    1.000
    H146     H        0.88080    0.96100    0.69980    1.000
    H147     H        0.93630    0.95910    0.63620    1.000
    C81      C        0.93710    0.06570    0.74610    1.000
    H148     H        0.91380    0.07250    0.68080    1.000
    H149     H        0.97290    0.07580    0.72550    1.000
    H150     H        0.92560    0.08620    0.81290    1.000
    C82      C        0.00160    0.56530    0.74790    1.000
    H151     H        0.98970    0.59960    0.71590    1.000
    C83      C        0.05510    0.57340    0.79800    1.000
    H152     H        0.07910    0.58480    0.73710    1.000
    H153     H        0.06770    0.54050    0.83110    1.000
    H154     H        0.05350    0.60000    0.85850    1.000
    C84      C        0.96130    0.54760    0.83290    1.000
    H155     H        0.92730    0.54510    0.79460    1.000
    H156     H        0.95920    0.57270    0.89640    1.000
    H157     H        0.97120    0.51330    0.86340    1.000
    C85      C        0.98270    0.94990    0.23610    1.000
    H158     H        0.98320    0.95140    0.32060    1.000
    H159     H        0.99380    0.07780    0.20960    1.000
    H160     H        0.03800    0.00130    0.20970    1.000
    H161     H        0.00050    0.46100    0.34270    1.000
    H162     H        0.94710    0.94260    0.20950    1.000
    Ag13     Ag       0.23220    0.67241    0.71940    1.000
    Ag14     Ag       0.16178    0.78348    0.77628    1.000
    Ag15     Ag       0.34556    0.73690    0.78541    1.000
    Ag16     Ag       0.27647    0.84835    0.72936    1.000
    Ag17     Ag       0.50840    0.87101    0.50549    1.000
    Ag18     Ag       0.36980    0.50151    0.96965    1.000
    N30      N        0.15541    0.68228    0.64480    1.000
    N31      N        0.12106    0.72075    0.68380    1.000
    N32      N        0.07566    0.66952    0.57180    1.000
    N33      N        0.21263    0.89072    0.81410    1.000
    N34      N        0.17459    0.85840    0.86060    1.000
    N35      N        0.16860    0.93572    0.94790    1.000
    N36      N        0.33736    0.65503    0.83560    1.000
    N37      N        0.30070    0.62841    0.77310    1.000
    N38      N        0.34346    0.57095    0.87970    1.000
    N39      N        0.38689    0.80751    0.73530    1.000
    N40      N        0.35751    0.84070    0.66550    1.000
    N41      N        0.44011    0.84363    0.60580    1.000
    N42      N        0.45635    0.49780    0.01090    1.000
    N43      N        0.50020    0.95620    0.46400    1.000
    C86      C        0.12800    0.65325    0.57720    1.000
    C87      C        0.15290    0.60900    0.51010    1.000
    H163     H        0.19130    0.61280    0.52500    1.000
    C88      C        0.13690    0.55560    0.57600    1.000
    H164     H        0.14970    0.55680    0.65570    1.000
    H165     H        0.15260    0.52570    0.53620    1.000
    H166     H        0.09880    0.55200    0.57620    1.000
    C89      C        0.14790    0.61490    0.38600    1.000
    H167     H        0.16000    0.64970    0.36330    1.000
    H168     H        0.11110    0.61070    0.36390    1.000
    H169     H        0.16900    0.58830    0.34710    1.000
    C90      C        0.07547    0.71131    0.63980    1.000
    C91      C        0.02600    0.74240    0.66190    1.000
    H170     H        0.00010    0.73200    0.60150    1.000
    C92      C        0.00200    0.72920    0.77830    1.000
    H171     H        0.96620    0.74290    0.78170    1.000
    H172     H        0.02290    0.74510    0.83980    1.000
    H173     H        0.00130    0.69130    0.78830    1.000
    C93      C        0.03490    0.80150    0.64920    1.000
    H174     H        0.03650    0.81060    0.56720    1.000
    H175     H        0.06790    0.81120    0.68660    1.000
    H176     H        0.00600    0.82040    0.68570    1.000
    C94      C        0.20730    0.93530    0.86670    1.000
    C95      C        0.23840    0.98353    0.84070    1.000
    H177     H        0.22830    0.01090    0.89790    1.000
    C96      C        0.22540    0.00460    0.71810    1.000
    H178     H        0.18930    0.01740    0.71660    1.000
    H179     H        0.22940    0.97640    0.66160    1.000
    H180     H        0.24930    0.03320    0.69890    1.000
    C97      C        0.29840    0.97490    0.84990    1.000
    H181     H        0.30730    0.96440    0.92880    1.000
    H182     H        0.31660    0.00750    0.83100    1.000
    H183     H        0.30910    0.94750    0.79590    1.000
    C98      C        0.15035    0.88535    0.94370    1.000
    C99      C        0.10790    0.86689    0.02130    1.000
    H184     H        0.07690    0.89040    0.01440    1.000
    C100     C        0.09210    0.81310    0.00560    1.000
    H185     H        0.06670    0.81100    0.94250    1.000
    H186     H        0.07620    0.80020    0.07680    1.000
    H187     H        0.12280    0.79190    0.98670    1.000
    C101     C        0.13070    0.86950    0.14860    1.000
    H188     H        0.13900    0.90580    0.16800    1.000
    H189     H        0.16240    0.84820    0.15350    1.000
    H190     H        0.10460    0.85610    0.20290    1.000
    C102     C        0.36183    0.62010    0.89930    1.000
    C103     C        0.40280    0.63230    0.98720    1.000
    H191     H        0.42340    0.59910    0.99090    1.000
    C104     C        0.44250    0.67110    0.95250    1.000
    H192     H        0.45720    0.66130    0.87750    1.000
    H193     H        0.47040    0.67210    0.01030    1.000
    H194     H        0.42610    0.70560    0.94670    1.000
    C105     C        0.37950    0.63620    0.10820    1.000
    H195     H        0.40770    0.63640    0.16540    1.000
    H196     H        0.35650    0.60620    0.12210    1.000
    H197     H        0.35920    0.66850    0.11470    1.000
    C106     C        0.30579    0.57740    0.80160    1.000
    C107     C        0.27370    0.53700    0.73930    1.000
    H198     H        0.25080    0.55560    0.68280    1.000
    C108     C        0.30680    0.49790    0.67260    1.000
    H199     H        0.32620    0.51610    0.61190    1.000
    H200     H        0.28400    0.47150    0.63760    1.000
    H201     H        0.33140    0.48080    0.72520    1.000
    C109     C        0.23940    0.50930    0.82290    1.000
    H202     H        0.22150    0.48050    0.78370    1.000
    H203     H        0.21350    0.53370    0.85380    1.000
    H204     H        0.26060    0.49540    0.88610    1.000
    C110     C        0.43578    0.81151    0.69510    1.000
    C111     C        0.48090    0.77950    0.74940    1.000
    H205     H        0.46720    0.76370    0.82230    1.000
    C112     C        0.52590    0.81440    0.78180    1.000
    H206     H        0.54870    0.79620    0.83660    1.000
    H207     H        0.51240    0.84640    0.81740    1.000
    H208     H        0.54590    0.82340    0.71240    1.000
    C113     C        0.49470    0.73540    0.67020    1.000
    H209     H        0.51180    0.70750    0.71430    1.000
    H210     H        0.51860    0.74800    0.61020    1.000
    H211     H        0.46290    0.72170    0.63420    1.000
    C114     C        0.39044    0.86093    0.59050    1.000
    C115     C        0.37549    0.89661    0.49330    1.000
    H212     H        0.40050    0.92660    0.49290    1.000
    C116     C        0.32010    0.91870    0.49970    1.000
    H213     H        0.31540    0.93710    0.57320    1.000
    H214     H        0.29470    0.89010    0.49430    1.000
    H215     H        0.31460    0.94320    0.43580    1.000
    C117     C        0.38190    0.86700    0.37990    1.000
    H216     H        0.41410    0.84620    0.38260    1.000
    H217     H        0.38400    0.89190    0.31590    1.000
    H218     H        0.35190    0.84380    0.36840    1.000
    C118     C        0.47920    0.45150    0.76360    1.000
    H219     H        0.47990    0.45310    0.67910    1.000
    H220     H        0.44310    0.44670    0.79000    1.000
    H221     H        0.50060    0.42210    0.79000    1.000
    C119     C        0.44600    0.00070    0.71610    1.000
    H222     H        0.44970    0.01350    0.79540    1.000
    H223     H        0.43160    0.96530    0.71710    1.000
    H224     H        0.42250    0.02380    0.67310    1.000
    C120     C        0.47324    0.49830    0.12230    1.000
    C121     C        0.43570    0.49240    0.22380    1.000
    H225     H        0.40320    0.49070    0.17620    1.000
    C122     C        0.41080    0.51810    0.32580    1.000
    H226     H        0.39890    0.49130    0.38020    1.000
    H227     H        0.38080    0.53900    0.30020    1.000
    H228     H        0.43630    0.54090    0.36380    1.000
    C123     C        0.43710    0.43430    0.25390    1.000
    H229     H        0.41380    0.42750    0.31920    1.000
    H230     H        0.47290    0.42420    0.27450    1.000
    H231     H        0.42560    0.41380    0.18710    1.000
    C124     C        0.50160    0.93470    0.25210    1.000
    H232     H        0.48970    0.90040    0.28410    1.000
    C125     C        0.55510    0.92660    0.20200    1.000
    H233     H        0.57910    0.91520    0.26290    1.000
    H234     H        0.56770    0.95950    0.16890    1.000
    H235     H        0.55350    0.90000    0.14150    1.000
    C126     C        0.46130    0.95240    0.16710    1.000
    H236     H        0.42730    0.95490    0.20540    1.000
    H237     H        0.45920    0.92730    0.10360    1.000
    H238     H        0.47120    0.98670    0.13660    1.000
    C127     C        0.50000    0.97424    0.34960    1.000
    C128     C        0.48270    0.55010    0.76390    1.000
    H239     H        0.48320    0.54860    0.67940    1.000
    H240     H        0.49380    0.42220    0.79040    1.000
    H241     H        0.53800    0.49870    0.79030    1.000
    H242     H        0.50050    0.03900    0.65730    1.000
    H243     H        0.44710    0.55740    0.79050    1.000
    N44      N        0.50000    0.02576    0.34960    1.000
    Ag19     Ag       0.76780    0.32758    0.71940    1.000
    Ag20     Ag       0.83822    0.21652    0.77628    1.000
    Ag21     Ag       0.65444    0.26310    0.78541    1.000
    Ag22     Ag       0.72353    0.15165    0.72936    1.000
    Ag23     Ag       0.49160    0.12899    0.50549    1.000
    Ag24     Ag       0.63020    0.49849    0.96965    1.000
    N45      N        0.84459    0.31772    0.64480    1.000
    N46      N        0.87894    0.27925    0.68380    1.000
    N47      N        0.92434    0.33048    0.57180    1.000
    N48      N        0.78737    0.10928    0.81410    1.000
    N49      N        0.82541    0.14160    0.86060    1.000
    N50      N        0.83140    0.06428    0.94790    1.000
    N51      N        0.66264    0.34497    0.83560    1.000
    N52      N        0.69930    0.37159    0.77310    1.000
    N53      N        0.65654    0.42905    0.87970    1.000
    N54      N        0.61311    0.19249    0.73530    1.000
    N55      N        0.64249    0.15930    0.66550    1.000
    N56      N        0.55989    0.15637    0.60580    1.000
    N57      N        0.54365    0.50220    0.01090    1.000
    N58      N        0.49980    0.04380    0.46400    1.000
    C129     C        0.87200    0.34675    0.57720    1.000
    C130     C        0.84710    0.39100    0.51010    1.000
    H244     H        0.80870    0.38720    0.52500    1.000
    C131     C        0.86310    0.44440    0.57600    1.000
    H245     H        0.85030    0.44320    0.65570    1.000
    H246     H        0.84740    0.47430    0.53620    1.000
    H247     H        0.90120    0.44800    0.57620    1.000
    C132     C        0.85210    0.38510    0.38600    1.000
    H248     H        0.84000    0.35030    0.36330    1.000
    H249     H        0.88890    0.38930    0.36390    1.000
    H250     H        0.83100    0.41170    0.34710    1.000
    C133     C        0.92453    0.28869    0.63980    1.000
    C134     C        0.97400    0.25760    0.66190    1.000
    H251     H        0.99990    0.26800    0.60150    1.000
    C135     C        0.99800    0.27080    0.77830    1.000
    H252     H        0.03380    0.25710    0.78170    1.000
    H253     H        0.97710    0.25490    0.83980    1.000
    H254     H        0.99870    0.30870    0.78830    1.000
    C136     C        0.96510    0.19850    0.64920    1.000
    H255     H        0.96350    0.18940    0.56720    1.000
    H256     H        0.93210    0.18880    0.68660    1.000
    H257     H        0.99400    0.17960    0.68570    1.000
    C137     C        0.79270    0.06470    0.86670    1.000
    C138     C        0.76160    0.01647    0.84070    1.000
    H258     H        0.77170    0.98910    0.89790    1.000
    C139     C        0.77460    0.99540    0.71810    1.000
    H259     H        0.81070    0.98260    0.71660    1.000
    H260     H        0.77060    0.02360    0.66160    1.000
    H261     H        0.75070    0.96680    0.69890    1.000
    C140     C        0.70160    0.02510    0.84990    1.000
    H262     H        0.69270    0.03560    0.92880    1.000
    H263     H        0.68340    0.99250    0.83100    1.000
    H264     H        0.69090    0.05250    0.79590    1.000
    C141     C        0.84965    0.11465    0.94370    1.000
    C142     C        0.89210    0.13311    0.02130    1.000
    H265     H        0.92310    0.10960    0.01440    1.000
    C143     C        0.90790    0.18690    0.00560    1.000
    H266     H        0.93330    0.18900    0.94250    1.000
    H267     H        0.92380    0.19980    0.07680    1.000
    H268     H        0.87720    0.20810    0.98670    1.000
    C144     C        0.86930    0.13050    0.14860    1.000
    H269     H        0.86100    0.09420    0.16800    1.000
    H270     H        0.83760    0.15180    0.15350    1.000
    H271     H        0.89540    0.14390    0.20290    1.000
    C145     C        0.63817    0.37990    0.89930    1.000
    C146     C        0.59720    0.36770    0.98720    1.000
    H272     H        0.57660    0.40090    0.99090    1.000
    C147     C        0.55750    0.32890    0.95250    1.000
    H273     H        0.54280    0.33870    0.87750    1.000
    H274     H        0.52960    0.32790    0.01030    1.000
    H275     H        0.57390    0.29440    0.94670    1.000
    C148     C        0.62050    0.36380    0.10820    1.000
    H276     H        0.59230    0.36360    0.16540    1.000
    H277     H        0.64350    0.39380    0.12210    1.000
    H278     H        0.64080    0.33150    0.11470    1.000
    C149     C        0.69421    0.42260    0.80160    1.000
    C150     C        0.72630    0.46300    0.73930    1.000
    H279     H        0.74920    0.44440    0.68280    1.000
    C151     C        0.69320    0.50210    0.67260    1.000
    H280     H        0.67380    0.48390    0.61190    1.000
    H281     H        0.71600    0.52850    0.63760    1.000
    H282     H        0.66860    0.51920    0.72520    1.000
    C152     C        0.76060    0.49070    0.82290    1.000
    H283     H        0.77850    0.51950    0.78370    1.000
    H284     H        0.78650    0.46630    0.85380    1.000
    H285     H        0.73940    0.50460    0.88610    1.000
    C153     C        0.56422    0.18849    0.69510    1.000
    C154     C        0.51910    0.22050    0.74940    1.000
    H286     H        0.53280    0.23630    0.82230    1.000
    C155     C        0.47410    0.18560    0.78180    1.000
    H287     H        0.45130    0.20380    0.83660    1.000
    H288     H        0.48760    0.15360    0.81740    1.000
    H289     H        0.45410    0.17660    0.71240    1.000
    C156     C        0.50530    0.26460    0.67020    1.000
    H290     H        0.48820    0.29250    0.71430    1.000
    H291     H        0.48140    0.25200    0.61020    1.000
    H292     H        0.53710    0.27830    0.63420    1.000
    C157     C        0.60956    0.13907    0.59050    1.000
    C158     C        0.62451    0.10339    0.49330    1.000
    H293     H        0.59950    0.07340    0.49290    1.000
    C159     C        0.67990    0.08130    0.49970    1.000
    H294     H        0.68460    0.06290    0.57320    1.000
    H295     H        0.70530    0.10990    0.49430    1.000
    H296     H        0.68540    0.05680    0.43580    1.000
    C160     C        0.61810    0.13300    0.37990    1.000
    H297     H        0.58590    0.15380    0.38260    1.000
    H298     H        0.61600    0.10810    0.31590    1.000
    H299     H        0.64810    0.15620    0.36840    1.000
    C161     C        0.52080    0.54850    0.76360    1.000
    H300     H        0.52010    0.54690    0.67910    1.000
    H301     H        0.55690    0.55330    0.79000    1.000
    H302     H        0.49940    0.57790    0.79000    1.000
    C162     C        0.55400    0.99930    0.71610    1.000
    H303     H        0.55030    0.98650    0.79540    1.000
    H304     H        0.56840    0.03470    0.71710    1.000
    H305     H        0.57750    0.97620    0.67310    1.000
    C163     C        0.52676    0.50170    0.12230    1.000
    C164     C        0.56430    0.50760    0.22380    1.000
    H306     H        0.59680    0.50930    0.17620    1.000
    C165     C        0.58920    0.48190    0.32580    1.000
    H307     H        0.60110    0.50870    0.38020    1.000
    H308     H        0.61920    0.46100    0.30020    1.000
    H309     H        0.56370    0.45910    0.36380    1.000
    C166     C        0.56290    0.56570    0.25390    1.000
    H310     H        0.58620    0.57250    0.31920    1.000
    H311     H        0.52710    0.57580    0.27450    1.000
    H312     H        0.57440    0.58620    0.18710    1.000
    C167     C        0.49840    0.06530    0.25210    1.000
    H313     H        0.51030    0.09960    0.28410    1.000
    C168     C        0.44490    0.07340    0.20200    1.000
    H314     H        0.42090    0.08480    0.26290    1.000
    H315     H        0.43230    0.04050    0.16890    1.000
    H316     H        0.44650    0.10000    0.14150    1.000
    C169     C        0.53870    0.04760    0.16710    1.000
    H317     H        0.57270    0.04510    0.20540    1.000
    H318     H        0.54080    0.07270    0.10360    1.000
    H319     H        0.52880    0.01330    0.13660    1.000
    C170     C        0.51730    0.44990    0.76390    1.000
    H320     H        0.51680    0.45140    0.67940    1.000
    H321     H        0.50620    0.57780    0.79040    1.000
    H322     H        0.46200    0.50130    0.79030    1.000
    H323     H        0.49950    0.96100    0.65730    1.000
    H324     H        0.55290    0.44260    0.79050    1.000
    C171     C        0.00000    0.00000    0.04910    1.000
    C172     C        0.00000    0.00000    0.18930    1.000
    C173     C        0.50000    0.50000    0.95090    1.000
    C174     C        0.50000    0.50000    0.81070    1.000
    C175     C        0.00000    0.50000    0.47290    1.000
    C176     C        0.00000    0.50000    0.34270    1.000
    C177     C        0.50000    0.00000    0.52710    1.000
    C178     C        0.50000    0.00000    0.65730    1.000
