data_functionalizedCrystal
_audit_creation_method	'EQeq! by Chris Wilmer'
_symmetry_space_group_name_H-M	'P1'
_symmetry_Int_Tables_number	1
_symmetry_cell_setting	triclinic
loop_
_symmetry_equiv_pos_as_xyz
  x,y,z
_cell_length_a	20.5381
_cell_length_b	20.5381
_cell_length_c	21.0268
_cell_angle_alpha	71.8834
_cell_angle_beta	71.8772
_cell_angle_gamma	111.296
loop_
_atom_site_label
_atom_site_type_symbol
_atom_site_fract_x
_atom_site_fract_y
_atom_site_fract_z
_atom_site_charge
Mof_Nd	Nd	0.11501	0.35	0.78033	2.527
Mof_Nd	Nd	0.36967	0.10466	0.28033	2.527
Mof_H 	H 	0.9518	0.2624	0.9758	0.01
Mof_H 	H 	0.8378	0.2489	0.0519	0.106
Mof_H 	H 	0.7443	0.1854	0.9249	0.147
Mof_H 	H 	0.9131	0.2349	0.7788	0.29
Mof_H 	H 	0.8208	0.1777	0.8175	0.295
Mof_H 	H 	0.8746	0.1443	0.8345	0.286
Mof_H 	H 	0.6298	0.1434	0.0144	0.118
Mof_H 	H 	0.5166	0.1361	0.0877	0.024
Mof_H 	H 	0.7447	0.2665	0.096	0.156
Mof_H 	H 	0.6062	0.3089	0.1773	0.295
Mof_H 	H 	0.6788	0.304	0.1828	0.283
Mof_H 	H 	0.5919	0.2329	0.2416	0.284
Mof_H 	H 	0.1796	0.5115	0.5791	0.029
Mof_H 	H 	0.1875	0.6247	0.5046	0.102
Mof_H 	H 	0.2475	0.7198	0.6319	0.151
Mof_H 	H 	0.2054	0.5483	0.7741	0.291
Mof_H 	H 	0.2499	0.6407	0.7424	0.3
Mof_H 	H 	0.2967	0.6001	0.717	0.299
Mof_H 	H 	0.2992	0.8301	0.5419	0.112
Mof_H 	H 	0.3137	0.9497	0.4652	0.002
Mof_H 	H 	0.1705	0.7265	0.4588	0.167
Mof_H 	H 	0.155	0.8903	0.3659	0.311
Mof_H 	H 	0.1292	0.8036	0.3786	0.327
Mof_H 	H 	0.2128	0.8749	0.3119	0.315
Mof_H 	H 	0.2618	0.0724	0.4758	0.009
Mof_H 	H 	0.1992	0.1103	0.5519	0.109
Mof_H 	H 	0.3897	0.3308	0.4249	0.149
Mof_H 	H 	0.4863	0.3081	0.2788	0.291
Mof_H 	H 	0.5048	0.3617	0.3175	0.297
Mof_H 	H 	0.5212	0.2909	0.3345	0.287
Mof_H 	H 	0.3422	0.3558	0.5144	0.118
Mof_H 	H 	0.2762	0.3957	0.5877	0.026
Mof_H 	H 	0.1375	0.1593	0.596	0.155
Mof_H 	H 	0.0138	0.2165	0.6773	0.295
Mof_H 	H 	0.0132	0.1384	0.6828	0.282
Mof_H 	H 	0.0255	0.1665	0.7416	0.284
Mof_H 	H 	0.4094	0.2413	0.0791	0.029
Mof_H 	H 	0.3707	0.3079	0.0046	0.102
Mof_H 	H 	0.1483	0.1206	0.1319	0.151
Mof_H 	H 	0.1776	0.0205	0.2741	0.291
Mof_H 	H 	0.1169	0.0077	0.2424	0.3
Mof_H 	H 	0.1829	0.9863	0.217	0.299
Mof_H 	H 	0.128	0.1589	0.0419	0.112
Mof_H 	H 	0.0851	0.2211	0.9652	0.002
Mof_H 	H 	0.3147	0.3707	0.9588	0.167
Mof_H 	H 	0.2438	0.4791	0.8659	0.311
Mof_H 	H 	0.3178	0.4922	0.8786	0.327
Mof_H 	H 	0.3132	0.4753	0.8119	0.315
Mof_C 	C 	0.9089	0.2457	0.9664	0.104
Mof_C 	C 	0.8415	0.2384	0.0113	-0.153
Mof_C 	C 	0.7758	0.2149	0.9975	0.102
Mof_C 	C 	0.7861	0.2001	0.936	-0.28
Mof_C 	C 	0.8559	0.2064	0.8903	0.352
Mof_C 	C 	0.8672	0.1893	0.8243	-0.847
Mof_C 	C 	0.7006	0.2074	0.0456	0.138
Mof_C 	C 	0.6307	0.1675	0.0452	-0.18
Mof_C 	C 	0.5633	0.163	0.0889	0.123
Mof_C 	C 	0.6307	0.2371	0.1378	0.372
Mof_C 	C 	0.6985	0.2407	0.0936	-0.308
Mof_C 	C 	0.6265	0.2741	0.1896	-0.853
Mof_C 	C 	0.1939	0.5542	0.5889	0.108
Mof_C 	C 	0.1988	0.6217	0.5447	-0.145
Mof_C 	C 	0.2209	0.6885	0.5586	0.102
Mof_C 	C 	0.2345	0.6784	0.6201	-0.293
Mof_C 	C 	0.2299	0.609	0.6657	0.382
Mof_C 	C 	0.247	0.5987	0.7305	-0.892
Mof_C 	C 	0.2314	0.7642	0.5094	0.147
Mof_C 	C 	0.2753	0.8317	0.511	-0.182
Mof_C 	C 	0.2832	0.9035	0.4649	0.125
Mof_C 	C 	0.2087	0.8426	0.4153	0.398
Mof_C 	C 	0.1997	0.7717	0.461	-0.336
Mof_C 	C 	0.1732	0.8538	0.3632	-0.937
Mof_C 	C 	0.2879	0.1247	0.4664	0.107
Mof_C 	C 	0.2503	0.1472	0.5113	-0.158
Mof_C 	C 	0.2876	0.2267	0.4975	0.107
Mof_C 	C 	0.3639	0.2779	0.436	-0.282
Mof_C 	C 	0.4033	0.2538	0.3903	0.354
Mof_C 	C 	0.4864	0.3085	0.3243	-0.848
Mof_C 	C 	0.247	0.2538	0.5456	0.134
Mof_C 	C 	0.2873	0.3241	0.5452	-0.178
Mof_C 	C 	0.2481	0.3478	0.5889	0.121
Mof_C 	C 	0.1251	0.2315	0.6378	0.37
Mof_C 	C 	0.1657	0.2079	0.5936	-0.305
Mof_C 	C 	0.0363	0.1839	0.6896	-0.85
Mof_C 	C 	0.3569	0.2172	0.0889	0.108
Mof_C 	C 	0.3336	0.2565	0.0447	-0.145
Mof_C 	C 	0.2529	0.2205	0.0586	0.102
Mof_C 	C 	0.2015	0.1454	0.1201	-0.293
Mof_C 	C 	0.2253	0.1044	0.1657	0.382
Mof_C 	C 	0.1708	0.0225	0.2305	-0.892
Mof_C 	C 	0.2264	0.2592	0.0094	0.147
Mof_C 	C 	0.1573	0.2137	0.011	-0.181
Mof_C 	C 	0.1316	0.2519	0.9649	0.124
Mof_C 	C 	0.2421	0.376	0.9153	0.398
Mof_C 	C 	0.2673	0.3393	0.961	-0.336
Mof_C 	C 	0.283	0.4636	0.8632	-0.936
Mof_N 	N 	0.9174	0.2292	0.9066	-0.112
Mof_N 	N 	0.5635	0.1971	0.134	-0.111
Mof_N 	N 	0.2101	0.5494	0.6481	-0.111
Mof_N 	N 	0.2493	0.9074	0.4217	-0.132
Mof_N 	N 	0.3642	0.176	0.4066	-0.113
Mof_N 	N 	0.1689	0.3025	0.634	-0.111
Mof_N 	N 	0.3025	0.1418	0.1481	-0.111
Mof_N 	N 	0.1709	0.329	0.9217	-0.132
Mof_O 	O 	0.9841	0.2342	0.8669	-0.376
Mof_O 	O 	0.497	0.1947	0.1745	-0.384
Mof_O 	O 	0.2083	0.4836	0.6893	-0.383
Mof_O 	O 	0.2554	0.9765	0.3831	-0.37
Mof_O 	O 	0.1182	0.2246	0.8256	-0.347
Mof_O 	O 	0.2559	0.3795	0.7358	-0.321
Mof_O 	O 	0.0511	0.4133	0.8398	-0.351
Mof_O 	O 	0.034	0.3832	0.7224	-0.327
Mof_O 	O 	0.3989	0.149	0.3669	-0.376
Mof_O 	O 	0.1308	0.3285	0.6745	-0.384
Mof_O 	O 	0.3271	0.1024	0.1893	-0.383
Mof_O 	O 	0.1404	0.3615	0.8831	-0.37
Mof_O 	O 	0.4498	0.0562	0.3256	-0.347
Mof_O 	O 	0.3847	0.0083	0.2358	-0.321
Mof_O 	O 	0.2469	0.1091	0.3398	-0.352
Mof_O 	O 	0.3944	0.2436	0.2224	-0.327
Mof_Nd	Nd	0.63033	0.89534	0.71967	2.528
Mof_Nd	Nd	0.88499	0.65	0.21967	2.528
Mof_H 	H 	0.7382	0.9276	0.5242	0.009
Mof_H 	H 	0.8008	0.8897	0.4481	0.109
Mof_H 	H 	0.6103	0.6692	0.5751	0.149
Mof_H 	H 	0.5137	0.6919	0.7212	0.291
Mof_H 	H 	0.4952	0.6383	0.6825	0.297
Mof_H 	H 	0.4788	0.7091	0.6655	0.287
Mof_H 	H 	0.6578	0.6442	0.4856	0.118
Mof_H 	H 	0.7238	0.6043	0.4123	0.026
Mof_H 	H 	0.8625	0.8407	0.404	0.155
Mof_H 	H 	0.9862	0.7835	0.3227	0.295
Mof_H 	H 	0.9868	0.8616	0.3172	0.282
Mof_H 	H 	0.9745	0.8335	0.2584	0.284
Mof_H 	H 	0.5906	0.7587	0.9209	0.029
Mof_H 	H 	0.6293	0.6921	0.9954	0.102
Mof_H 	H 	0.8517	0.8794	0.8681	0.151
Mof_H 	H 	0.8224	0.9795	0.7259	0.291
Mof_H 	H 	0.8831	0.9923	0.7576	0.3
Mof_H 	H 	0.8171	0.0137	0.783	0.299
Mof_H 	H 	0.872	0.8411	0.9581	0.112
Mof_H 	H 	0.9149	0.7789	0.0348	0.002
Mof_H 	H 	0.6853	0.6293	0.0412	0.167
Mof_H 	H 	0.7562	0.5209	0.1341	0.311
Mof_H 	H 	0.6822	0.5078	0.1214	0.327
Mof_H 	H 	0.6868	0.5247	0.1881	0.315
Mof_H 	H 	0.0482	0.7376	0.0242	0.011
Mof_H 	H 	0.1622	0.7511	0.9481	0.107
Mof_H 	H 	0.2557	0.8146	0.0751	0.148
Mof_H 	H 	0.0869	0.7651	0.2212	0.291
Mof_H 	H 	0.1792	0.8223	0.1825	0.296
Mof_H 	H 	0.1254	0.8557	0.1655	0.287
Mof_H 	H 	0.3702	0.8566	0.9856	0.119
Mof_H 	H 	0.4834	0.8639	0.9123	0.025
Mof_H 	H 	0.2553	0.7335	0.904	0.157
Mof_H 	H 	0.3938	0.6911	0.8227	0.296
Mof_H 	H 	0.3212	0.696	0.8172	0.284
Mof_H 	H 	0.4081	0.7671	0.7584	0.285
Mof_H 	H 	0.8204	0.4885	0.4209	0.029
Mof_H 	H 	0.8125	0.3753	0.4954	0.102
Mof_H 	H 	0.7525	0.2802	0.3681	0.151
Mof_H 	H 	0.7946	0.4517	0.2259	0.291
Mof_H 	H 	0.7501	0.3593	0.2576	0.3
Mof_H 	H 	0.7033	0.3999	0.283	0.299
Mof_H 	H 	0.7008	0.1699	0.4581	0.112
Mof_H 	H 	0.6863	0.0503	0.5348	0.002
Mof_H 	H 	0.8295	0.2735	0.5412	0.167
Mof_H 	H 	0.845	0.1097	0.6341	0.311
Mof_H 	H 	0.8708	0.1964	0.6214	0.327
Mof_H 	H 	0.7872	0.1251	0.6881	0.315
Mof_C 	C 	0.7121	0.8753	0.5336	0.107
Mof_C 	C 	0.7497	0.8528	0.4887	-0.158
Mof_C 	C 	0.7124	0.7733	0.5025	0.107
Mof_C 	C 	0.6361	0.7221	0.564	-0.282
Mof_C 	C 	0.5967	0.7462	0.6097	0.354
Mof_C 	C 	0.5136	0.6915	0.6757	-0.848
Mof_C 	C 	0.753	0.7462	0.4544	0.134
Mof_C 	C 	0.7127	0.6759	0.4548	-0.178
Mof_C 	C 	0.7519	0.6522	0.4111	0.121
Mof_C 	C 	0.8749	0.7685	0.3622	0.37
Mof_C 	C 	0.8343	0.7921	0.4064	-0.305
Mof_C 	C 	0.9637	0.8161	0.3104	-0.85
Mof_C 	C 	0.6431	0.7828	0.9111	0.108
Mof_C 	C 	0.6664	0.7435	0.9553	-0.145
Mof_C 	C 	0.7471	0.7795	0.9414	0.102
Mof_C 	C 	0.7985	0.8546	0.8799	-0.293
Mof_C 	C 	0.7747	0.8956	0.8343	0.382
Mof_C 	C 	0.8292	0.9775	0.7695	-0.892
Mof_C 	C 	0.7736	0.7408	0.9906	0.147
Mof_C 	C 	0.8427	0.7863	0.989	-0.181
Mof_C 	C 	0.8684	0.7481	0.0351	0.124
Mof_C 	C 	0.7579	0.624	0.0847	0.398
Mof_C 	C 	0.7327	0.6607	0.039	-0.336
Mof_C 	C 	0.717	0.5364	0.1368	-0.936
Mof_C 	C 	0.0911	0.7543	0.0336	0.104
Mof_C 	C 	0.1585	0.7616	0.9887	-0.153
Mof_C 	C 	0.2242	0.7851	0.0025	0.102
Mof_C 	C 	0.2139	0.7999	0.064	-0.28
Mof_C 	C 	0.1441	0.7936	0.1097	0.352
Mof_C 	C 	0.1328	0.8107	0.1757	-0.847
Mof_C 	C 	0.2994	0.7926	0.9544	0.138
Mof_C 	C 	0.3693	0.8325	0.9548	-0.18
Mof_C 	C 	0.4367	0.837	0.9111	0.123
Mof_C 	C 	0.3693	0.7629	0.8622	0.372
Mof_C 	C 	0.3015	0.7593	0.9064	-0.308
Mof_C 	C 	0.3735	0.7259	0.8104	-0.853
Mof_C 	C 	0.8061	0.4458	0.4111	0.108
Mof_C 	C 	0.8012	0.3783	0.4553	-0.145
Mof_C 	C 	0.7791	0.3115	0.4414	0.102
Mof_C 	C 	0.7655	0.3216	0.3799	-0.293
Mof_C 	C 	0.7701	0.391	0.3343	0.382
Mof_C 	C 	0.753	0.4013	0.2695	-0.892
Mof_C 	C 	0.7686	0.2358	0.4906	0.147
Mof_C 	C 	0.7247	0.1683	0.489	-0.182
Mof_C 	C 	0.7168	0.0965	0.5351	0.125
Mof_C 	C 	0.7913	0.1574	0.5847	0.398
Mof_C 	C 	0.8003	0.2283	0.539	-0.336
Mof_C 	C 	0.8268	0.1462	0.6368	-0.937
Mof_N 	N 	0.6358	0.824	0.5934	-0.113
Mof_N 	N 	0.8311	0.6975	0.366	-0.111
Mof_N 	N 	0.6975	0.8582	0.8519	-0.111
Mof_N 	N 	0.8291	0.671	0.0783	-0.132
Mof_N 	N 	0.0826	0.7708	0.0934	-0.112
Mof_N 	N 	0.4365	0.8029	0.866	-0.111
Mof_N 	N 	0.7899	0.4506	0.3519	-0.111
Mof_N 	N 	0.7507	0.0926	0.5783	-0.132
Mof_O 	O 	0.6011	0.851	0.6331	-0.376
Mof_O 	O 	0.8692	0.6715	0.3255	-0.384
Mof_O 	O 	0.6729	0.8976	0.8107	-0.383
Mof_O 	O 	0.8596	0.6385	0.1169	-0.37
Mof_O 	O 	0.5502	0.9438	0.6744	-0.347
Mof_O 	O 	0.6153	0.9917	0.7642	-0.321
Mof_O 	O 	0.7531	0.8909	0.6602	-0.352
Mof_O 	O 	0.6056	0.7564	0.7776	-0.327
Mof_O 	O 	0.0159	0.7658	0.1331	-0.376
Mof_O 	O 	0.503	0.8053	0.8255	-0.384
Mof_O 	O 	0.7917	0.5164	0.3107	-0.383
Mof_O 	O 	0.7446	0.0235	0.6169	-0.37
Mof_O 	O 	0.8818	0.7754	0.1744	-0.347
Mof_O 	O 	0.7441	0.6205	0.2642	-0.321
Mof_O 	O 	0.9489	0.5867	0.1602	-0.351
Mof_O 	O 	0.966	0.6168	0.2776	-0.327
Mof_Cl	Cl	0.9776	0.6276	0.4502	-0.239
Mof_O 	O 	0.0295	0.6154	0.4775	-0.016
Mof_O 	O 	0.9207	0.5714	0.4579	0.025
Mof_O 	O 	0.9664	0.6838	0.4696	-0.034
Mof_O 	O 	0.0235	0.672	0.3673	-0.055
Mof_Cl	Cl	0.35055	0.00109	0.07504	-0.217
Mof_O 	O 	0.3121	0.9535	0.1564	-0.052
Mof_O 	O 	0.3568	0.9561	0.0393	-0.023
Mof_O 	O 	0.3015	0.0278	0.0581	-0.027
Mof_O 	O 	0.4255	0.0614	0.0527	-0.003
Mof_Cl	Cl	0.94845	0.02688	0.25583	-0.239
Mof_O 	O 	0.968	0.001	0.3134	-0.047
Mof_O 	O 	0.9243	0.9673	0.234	-0.028
Mof_O 	O 	0.0082	0.099	0.199	-0.014
Mof_O 	O 	0.8849	0.0342	0.2861	0.011
Mof_Cl	Cl	0.5778	0.4278	0.0498	-0.238
Mof_O 	O 	0.5929	0.507	0.0225	-0.017
Mof_O 	O 	0.5293	0.3786	0.0421	0.025
Mof_O 	O 	0.6534	0.436	0.0304	-0.034
Mof_O 	O 	0.5393	0.3908	0.1327	-0.055
Mof_Cl	Cl	0.57613	0.42559	0.42496	-0.218
Mof_O 	O 	0.6099	0.4685	0.3436	-0.051
Mof_O 	O 	0.4954	0.3961	0.4607	-0.022
Mof_O 	O 	0.5859	0.3596	0.4419	-0.027
Mof_O 	O 	0.6141	0.4782	0.4473	-0.003
Mof_Cl	Cl	0.78271	0.20428	0.24417	-0.242
Mof_O 	O 	0.8144	0.2814	0.1866	-0.048
Mof_O 	O 	0.7013	0.1583	0.266	-0.026
Mof_O 	O 	0.798	0.2072	0.301	-0.012
Mof_O 	O 	0.8203	0.171	0.2139	0.012
Mof_Cl	Cl	0.0224	0.3724	0.5498	-0.239
Mof_O 	O 	0.9705	0.3846	0.5225	-0.016
Mof_O 	O 	0.0793	0.4286	0.5421	0.025
Mof_O 	O 	0.0336	0.3162	0.5304	-0.034
Mof_O 	O 	0.9765	0.328	0.6327	-0.055
Mof_Cl	Cl	0.64945	0.99891	0.92496	-0.217
Mof_O 	O 	0.6879	0.0465	0.8436	-0.052
Mof_O 	O 	0.6432	0.0439	0.9607	-0.023
Mof_O 	O 	0.6985	0.9722	0.9419	-0.027
Mof_O 	O 	0.5745	0.9386	0.9473	-0.003
Mof_Cl	Cl	0.05155	0.97312	0.74417	-0.239
Mof_O 	O 	0.032	0.999	0.6866	-0.047
Mof_O 	O 	0.0757	0.0327	0.766	-0.028
Mof_O 	O 	0.9918	0.901	0.801	-0.014
Mof_O 	O 	0.1151	0.9658	0.7139	0.011
Mof_Cl	Cl	0.4222	0.5722	0.9502	-0.238
Mof_O 	O 	0.4071	0.493	0.9775	-0.017
Mof_O 	O 	0.4707	0.6214	0.9579	0.025
Mof_O 	O 	0.3466	0.564	0.9696	-0.034
Mof_O 	O 	0.4607	0.6092	0.8673	-0.055
Mof_Cl	Cl	0.42387	0.57441	0.57504	-0.218
Mof_O 	O 	0.3901	0.5315	0.6564	-0.051
Mof_O 	O 	0.5046	0.6039	0.5393	-0.022
Mof_O 	O 	0.4141	0.6404	0.5581	-0.027
Mof_O 	O 	0.3859	0.5218	0.5527	-0.003
Mof_Cl	Cl	0.21729	0.79572	0.75583	-0.242
Mof_O 	O 	0.1856	0.7186	0.8134	-0.048
Mof_O 	O 	0.2987	0.8417	0.734	-0.026
Mof_O 	O 	0.202	0.7928	0.699	-0.012
Mof_O 	O 	0.1797	0.829	0.7861	0.012
_end
