data_functionalizedCrystal
_audit_creation_method	'EQeq! by Chris Wilmer'
_symmetry_space_group_name_H-M	'P1'
_symmetry_Int_Tables_number	1
_symmetry_cell_setting	triclinic
loop_
_symmetry_equiv_pos_as_xyz
  x,y,z
_cell_length_a	8.869
_cell_length_b	12.07
_cell_length_c	16.6
_cell_angle_alpha	90
_cell_angle_beta	90
_cell_angle_gamma	109.341
loop_
_atom_site_label
_atom_site_type_symbol
_atom_site_fract_x
_atom_site_fract_y
_atom_site_fract_z
_atom_site_charge
Mof_Gd	Gd	0.433	0.45267	0.88213	1.806
Mof_Gd	Gd	0.067	0.54733	0.38213	1.805
Mof_Gd	Gd	0.567	0.54733	0.11787	1.806
Mof_Gd	Gd	0.933	0.45267	0.61787	1.805
Mof_H 	H 	0.9096	0.2251	0.8222	0.122
Mof_H 	H 	0.5299	0.2199	0.4339	0.125
Mof_H 	H 	0.3711	0.0358	0.4338	0.056
Mof_H 	H 	0.3777	0.8609	0.5329	0.124
Mof_H 	H 	0.7527	0.2951	0.0701	0.095
Mof_H 	H 	0.4701	0.7801	0.5661	0.125
Mof_H 	H 	0.6289	0.9642	0.5662	0.056
Mof_H 	H 	0.7473	0.7049	0.5701	0.095
Mof_H 	H 	0.3219	0.141	0.9013	0.091
Mof_H 	H 	0.4096	0.2251	0.6778	0.122
Mof_H 	H 	0.0299	0.2199	0.0661	0.124
Mof_H 	H 	0.4866	0.8337	0.9268	0.058
Mof_H 	H 	0.4039	0.9744	0.7741	0.061
Mof_H 	H 	0.1223	0.1391	0.0329	0.123
Mof_H 	H 	0.7011	0.004	0.9111	0.078
Mof_H 	H 	0.7989	0.996	0.4111	0.078
Mof_H 	H 	0.8711	0.0358	0.0662	0.054
Mof_H 	H 	0.9039	0.9744	0.7259	0.062
Mof_H 	H 	0.0904	0.7749	0.1778	0.122
Mof_H 	H 	0.0965	0.1529	0.6946	0.102
Mof_H 	H 	0.0134	0.1663	0.4268	0.058
Mof_H 	H 	0.6729	0.6786	0.3314	0.119
Mof_H 	H 	0.8777	0.8609	0.9671	0.123
Mof_H 	H 	0.1781	0.859	0.4013	0.09
Mof_H 	H 	0.2473	0.7049	0.9299	0.095
Mof_H 	H 	0.1729	0.6786	0.1686	0.12
Mof_H 	H 	0.8219	0.141	0.5987	0.09
Mof_H 	H 	0.6179	0.6387	0.5067	0.107
Mof_H 	H 	0.2989	0.996	0.0889	0.078
Mof_H 	H 	0.2011	0.004	0.5889	0.078
Mof_H 	H 	0.6781	0.859	0.0987	0.091
Mof_H 	H 	0.9035	0.8471	0.3054	0.102
Mof_H 	H 	0.5134	0.1663	0.0732	0.058
Mof_H 	H 	0.8821	0.3613	0.0067	0.107
Mof_H 	H 	0.4035	0.8471	0.1946	0.102
Mof_H 	H 	0.9866	0.8337	0.5732	0.058
Mof_H 	H 	0.3271	0.3214	0.6686	0.119
Mof_H 	H 	0.0961	0.0256	0.2741	0.062
Mof_H 	H 	0.1289	0.9642	0.9338	0.054
Mof_H 	H 	0.5904	0.7749	0.3222	0.122
Mof_H 	H 	0.6223	0.1391	0.4671	0.124
Mof_H 	H 	0.9701	0.7801	0.9339	0.124
Mof_H 	H 	0.5965	0.1529	0.8054	0.102
Mof_H 	H 	0.2527	0.2951	0.4299	0.095
Mof_H 	H 	0.5961	0.0256	0.2259	0.061
Mof_H 	H 	0.8271	0.3214	0.8314	0.12
Mof_H 	H 	0.3821	0.3613	0.4933	0.107
Mof_H 	H 	0.1179	0.6387	0.9933	0.107
Mof_C 	C 	0.9388	0.6095	0.20373	0.462
Mof_C 	C 	0.8694	0.8973	0.4906	0.134
Mof_C 	C 	0.2744	0.3067	0.4872	-0.239
Mof_C 	C 	0.0612	0.3905	0.79627	0.462
Mof_C 	C 	0.7752	0.8355	0.204	0.189
Mof_C 	C 	0.4913	0.9003	0.9563	-0.083
Mof_C 	C 	0.5049	0.0471	0.33387	0.1
Mof_C 	C 	0.9869	0.0086	0.76174	-0.051
Mof_C 	C 	0.7248	0.1645	0.704	0.189
Mof_C 	C 	0.8978	0.8848	0.25721	-0.144
Mof_C 	C 	0.5087	0.0997	0.0437	-0.083
Mof_C 	C 	0.8411	0.6398	0.47648	0.458
Mof_C 	C 	0.1202	0.0026	0.5529	-0.099
Mof_C 	C 	0.4951	0.9529	0.66613	0.1
Mof_C 	C 	0.6202	0.0026	0.9471	-0.098
Mof_C 	C 	0.2365	0.108	0.86659	-0.137
Mof_C 	C 	0.0131	0.9914	0.23826	-0.051
Mof_C 	C 	0.5612	0.3905	0.70373	0.459
Mof_C 	C 	0.1306	0.1027	0.5094	0.134
Mof_C 	C 	0.2256	0.6933	0.9872	-0.237
Mof_C 	C 	0.0049	0.0471	0.16613	0.097
Mof_C 	C 	0.0997	0.7038	0.20125	-0.242
Mof_C 	C 	0.2297	0.6939	0.55629	0.496
Mof_C 	C 	0.8786	0.9979	0.11405	-0.053
Mof_C 	C 	0.2752	0.8355	0.296	0.189
Mof_C 	C 	0.5131	0.9914	0.26174	-0.048
Mof_C 	C 	0.2635	0.892	0.36659	-0.135
Mof_C 	C 	0.3742	0.8011	0.57252	-0.267
Mof_C 	C 	0.4869	0.0086	0.73826	-0.048
Mof_C 	C 	0.7365	0.108	0.63341	-0.135
Mof_C 	C 	0.9913	0.9003	0.5437	-0.082
Mof_C 	C 	0.8742	0.8011	0.92748	-0.266
Mof_C 	C 	0.4388	0.6095	0.29627	0.459
Mof_C 	C 	0.2703	0.3061	0.05629	0.493
Mof_C 	C 	0.6589	0.3602	0.97648	0.455
Mof_C 	C 	0.4003	0.2962	0.70125	-0.239
Mof_C 	C 	0.7297	0.6939	0.94371	0.493
Mof_C 	C 	0.0087	0.0997	0.4563	-0.082
Mof_C 	C 	0.9951	0.9529	0.83387	0.097
Mof_C 	C 	0.2248	0.1645	0.796	0.189
Mof_C 	C 	0.7744	0.3067	0.0128	-0.237
Mof_C 	C 	0.6214	0.0021	0.61405	-0.06
Mof_C 	C 	0.9003	0.2962	0.79875	-0.242
Mof_C 	C 	0.3694	0.8973	0.0094	0.134
Mof_C 	C 	0.3798	0.9974	0.0529	-0.098
Mof_C 	C 	0.7635	0.892	0.13341	-0.137
Mof_C 	C 	0.5997	0.7038	0.29875	-0.239
Mof_C 	C 	0.6258	0.1989	0.42748	-0.267
Mof_C 	C 	0.6022	0.1152	0.75721	-0.147
Mof_C 	C 	0.6306	0.1027	0.9906	0.134
Mof_C 	C 	0.7256	0.6933	0.5128	-0.239
Mof_C 	C 	0.1258	0.1989	0.07252	-0.266
Mof_C 	C 	0.1214	0.0021	0.88595	-0.053
Mof_C 	C 	0.3786	0.9979	0.38595	-0.06
Mof_C 	C 	0.3411	0.6398	0.02352	0.455
Mof_C 	C 	0.1022	0.1152	0.74279	-0.144
Mof_C 	C 	0.1589	0.3602	0.52352	0.458
Mof_C 	C 	0.8798	0.9974	0.4471	-0.099
Mof_C 	C 	0.7703	0.3061	0.44371	0.496
Mof_C 	C 	0.3978	0.8848	0.24279	-0.147
Mof_O 	O 	0.6498	0.39939	0.64416	-0.464
Mof_O 	O 	0.697	0.67966	0.01703	-0.486
Mof_O 	O 	0.6583	0.72594	0.2174	-0.278
Mof_O 	O 	0.8405	0.3703	0.38634	-0.47
Mof_O 	O 	0.1315	0.442	0.48622	-0.546
Mof_O 	O 	0.1264	0.15172	0.15065	-0.149
Mof_O 	O 	0.3736	0.84828	0.65065	-0.149
Mof_O 	O 	0.1595	0.6297	0.61366	-0.47
Mof_O 	O 	0.3685	0.558	0.98622	-0.545
Mof_O 	O 	0.3405	0.3703	0.11366	-0.471
Mof_O 	O 	0.5949	0.45523	0.76506	-0.465
Mof_O 	O 	0.3502	0.60061	0.35584	-0.464
Mof_O 	O 	0.0949	0.45523	0.73494	-0.465
Mof_O 	O 	0.2335	0.8023	0.02227	-0.173
Mof_O 	O 	0.6264	0.15172	0.34935	-0.149
Mof_O 	O 	0.7335	0.8023	0.47773	-0.171
Mof_O 	O 	0.8417	0.27406	0.7174	-0.278
Mof_O 	O 	0.3417	0.27406	0.7826	-0.278
Mof_O 	O 	0.6315	0.442	0.01378	-0.545
Mof_O 	O 	0.2665	0.1977	0.52227	-0.171
Mof_O 	O 	0.6595	0.6297	0.88634	-0.471
Mof_O 	O 	0.8736	0.84828	0.84935	-0.149
Mof_O 	O 	0.7665	0.1977	0.97773	-0.173
Mof_O 	O 	0.1498	0.39939	0.85584	-0.464
Mof_O 	O 	0.0997	0.3285	0.59079	-0.431
Mof_O 	O 	0.9003	0.6715	0.40921	-0.431
Mof_O 	O 	0.303	0.32034	0.98297	-0.486
Mof_O 	O 	0.8502	0.60061	0.14416	-0.464
Mof_O 	O 	0.197	0.67966	0.48297	-0.487
Mof_O 	O 	0.5997	0.3285	0.90921	-0.431
Mof_O 	O 	0.4051	0.54477	0.23494	-0.465
Mof_O 	O 	0.1583	0.72594	0.2826	-0.278
Mof_O 	O 	0.8685	0.558	0.51378	-0.546
Mof_O 	O 	0.9051	0.54477	0.26506	-0.465
Mof_O 	O 	0.4003	0.6715	0.09079	-0.431
Mof_O 	O 	0.803	0.32034	0.51703	-0.487
_end
