data_functionalizedCrystal
_audit_creation_method	'EQeq! by Chris Wilmer'
_symmetry_space_group_name_H-M	'P1'
_symmetry_Int_Tables_number	1
_symmetry_cell_setting	triclinic
loop_
_symmetry_equiv_pos_as_xyz
  x,y,z
_cell_length_a	20.573
_cell_length_b	20.573
_cell_length_c	20.573
_cell_angle_alpha	90
_cell_angle_beta	90
_cell_angle_gamma	90
loop_
_atom_site_label
_atom_site_type_symbol
_atom_site_fract_x
_atom_site_fract_y
_atom_site_fract_z
_atom_site_charge
Mof_Zn	Zn	0.5	0.92757	0.5	1.199
Mof_Zn	Zn	0.5	0.07243	0.5	1.195
Mof_Zn	Zn	0.5	0.5	0.92757	1.199
Mof_Zn	Zn	0.5	0.5	0.07243	1.195
Mof_Zn	Zn	0.92757	0.5	0.5	1.199
Mof_Zn	Zn	0.07243	0.5	0.5	1.195
Mof_Zn	Zn	0.73681	0.26319	0.73681	1.182
Mof_Zn	Zn	0.83476	0.16524	0.83476	1.193
Mof_Zn	Zn	0.26319	0.73681	0.73681	1.181
Mof_Zn	Zn	0.16524	0.83476	0.83476	1.192
Mof_Zn	Zn	0.26319	0.26319	0.26319	1.179
Mof_Zn	Zn	0.16524	0.16524	0.16524	1.186
Mof_Zn	Zn	0.73681	0.73681	0.26319	1.181
Mof_Zn	Zn	0.83476	0.83476	0.16524	1.192
Mof_Zn	Zn	0.26319	0.73681	0.26319	1.18
Mof_Zn	Zn	0.16524	0.83476	0.16524	1.189
Mof_Zn	Zn	0.73681	0.26319	0.26319	1.18
Mof_Zn	Zn	0.83476	0.16524	0.16524	1.189
Mof_Zn	Zn	0.26319	0.26319	0.73681	1.18
Mof_Zn	Zn	0.16524	0.16524	0.83476	1.189
Mof_Zn	Zn	0.73681	0.73681	0.73681	1.181
Mof_Zn	Zn	0.83476	0.83476	0.83476	1.195
Mof_H 	H 	0.7669	-5.79812e-33	0.7669	-0.033
Mof_H 	H 	0.2331	-5.79812e-33	0.7669	-0.037
Mof_H 	H 	0.2331	-2.89906e-33	0.2331	-0.041
Mof_H 	H 	0.7669	-2.89906e-33	0.2331	-0.037
Mof_H 	H 	0.7669	0.7669	-0	-0.033
Mof_H 	H 	0.7669	0.2331	-0	-0.037
Mof_H 	H 	0.2331	0.2331	-0	-0.041
Mof_H 	H 	0.2331	0.7669	-0	-0.037
Mof_H 	H 	-1.4519e-32	0.7669	0.7669	-0.033
Mof_H 	H 	-7.8232e-33	0.7669	0.2331	-0.037
Mof_H 	H 	-4.92414e-33	0.2331	0.2331	-0.041
Mof_H 	H 	-8.72083e-33	0.2331	0.7669	-0.037
Mof_H 	H 	0.6509	0.0989	0.6509	-0.018
Mof_H 	H 	0.3491	0.9011	0.6509	-0.023
Mof_H 	H 	0.3491	0.0989	0.3491	-0.021
Mof_H 	H 	0.6509	0.9011	0.3491	-0.023
Mof_H 	H 	0.6509	0.6509	0.0989	-0.018
Mof_H 	H 	0.6509	0.3491	0.9011	-0.023
Mof_H 	H 	0.3491	0.3491	0.0989	-0.021
Mof_H 	H 	0.3491	0.6509	0.9011	-0.023
Mof_H 	H 	0.0989	0.6509	0.6509	-0.018
Mof_H 	H 	0.9011	0.6509	0.3491	-0.023
Mof_H 	H 	0.0989	0.3491	0.3491	-0.021
Mof_H 	H 	0.9011	0.3491	0.6509	-0.023
Mof_H 	H 	0.0989	0.6509	0.3491	-0.019
Mof_H 	H 	0.9011	0.3491	0.3491	-0.024
Mof_H 	H 	0.0989	0.3491	0.6509	-0.019
Mof_H 	H 	0.9011	0.6509	0.6509	-0.022
Mof_H 	H 	0.6509	0.6509	0.9011	-0.022
Mof_H 	H 	0.3491	0.6509	0.0989	-0.019
Mof_H 	H 	0.3491	0.3491	0.9011	-0.024
Mof_H 	H 	0.6509	0.3491	0.0989	-0.019
Mof_H 	H 	0.6509	0.0989	0.3491	-0.019
Mof_H 	H 	0.6509	0.9011	0.6509	-0.022
Mof_H 	H 	0.3491	0.0989	0.6509	-0.019
Mof_H 	H 	0.3491	0.9011	0.3491	-0.024
Mof_C 	C 	0.64	0	0.64	-0.228
Mof_C 	C 	0.7349	0	0.7349	0.157
Mof_C 	C 	0.5867	0	0.5867	0.427
Mof_C 	C 	0.36	0	0.64	-0.23
Mof_C 	C 	0.2651	0	0.7349	0.16
Mof_C 	C 	0.4133	0	0.5867	0.427
Mof_C 	C 	0.36	-2.89906e-33	0.36	-0.233
Mof_C 	C 	0.2651	0	0.2651	0.162
Mof_C 	C 	0.4133	0	0.4133	0.428
Mof_C 	C 	0.64	-2.89906e-33	0.36	-0.23
Mof_C 	C 	0.7349	0	0.2651	0.16
Mof_C 	C 	0.5867	0	0.4133	0.427
Mof_C 	C 	0.64	0.64	-0	-0.228
Mof_C 	C 	0.7349	0.7349	-0	0.157
Mof_C 	C 	0.5867	0.5867	-0	0.427
Mof_C 	C 	0.64	0.36	-0	-0.23
Mof_C 	C 	0.7349	0.2651	-0	0.16
Mof_C 	C 	0.5867	0.4133	-0	0.427
Mof_C 	C 	0.36	0.36	-0	-0.233
Mof_C 	C 	0.2651	0.2651	-0	0.162
Mof_C 	C 	0.4133	0.4133	-0	0.428
Mof_C 	C 	0.36	0.64	-0	-0.23
Mof_C 	C 	0.2651	0.7349	-0	0.16
Mof_C 	C 	0.4133	0.5867	-0	0.427
Mof_C 	C 	2.39962e-33	0.64	0.64	-0.228
Mof_C 	C 	-3.04269e-33	0.7349	0.7349	0.157
Mof_C 	C 	2.19977e-33	0.5867	0.5867	0.427
Mof_C 	C 	-4.44834e-33	0.64	0.36	-0.23
Mof_C 	C 	6.79209e-33	0.7349	0.2651	0.16
Mof_C 	C 	-1.34944e-33	0.5867	0.4133	0.427
Mof_C 	C 	-4.44834e-33	0.36	0.36	-0.233
Mof_C 	C 	9.93966e-34	0.2651	0.2651	0.162
Mof_C 	C 	1.54963e-33	0.4133	0.4133	0.428
Mof_C 	C 	-3.39851e-33	0.36	0.64	-0.23
Mof_C 	C 	8.55356e-33	0.2651	0.7349	0.16
Mof_C 	C 	-3.59835e-33	0.4133	0.5867	0.427
Mof_C 	C 	0.6659	0.059	0.6659	0.161
Mof_C 	C 	0.7118	0.057	0.7118	-0.259
Mof_C 	C 	0.739	0.1188	0.739	0.484
Mof_C 	C 	0.3341	0.941	0.6659	0.189
Mof_C 	C 	0.2882	0.943	0.7118	-0.239
Mof_C 	C 	0.261	0.8812	0.739	0.482
Mof_C 	C 	0.3341	0.059	0.3341	0.164
Mof_C 	C 	0.2882	0.057	0.2882	-0.267
Mof_C 	C 	0.261	0.1188	0.261	0.485
Mof_C 	C 	0.6659	0.941	0.3341	0.189
Mof_C 	C 	0.7118	0.943	0.2882	-0.239
Mof_C 	C 	0.739	0.8812	0.261	0.482
Mof_C 	C 	0.6659	0.6659	0.059	0.161
Mof_C 	C 	0.7118	0.7118	0.057	-0.259
Mof_C 	C 	0.739	0.739	0.1188	0.484
Mof_C 	C 	0.6659	0.3341	0.941	0.189
Mof_C 	C 	0.7118	0.2882	0.943	-0.239
Mof_C 	C 	0.739	0.261	0.8812	0.482
Mof_C 	C 	0.3341	0.3341	0.059	0.164
Mof_C 	C 	0.2882	0.2882	0.057	-0.267
Mof_C 	C 	0.261	0.261	0.1188	0.485
Mof_C 	C 	0.3341	0.6659	0.941	0.189
Mof_C 	C 	0.2882	0.7118	0.943	-0.239
Mof_C 	C 	0.261	0.739	0.8812	0.482
Mof_C 	C 	0.059	0.6659	0.6659	0.161
Mof_C 	C 	0.057	0.7118	0.7118	-0.259
Mof_C 	C 	0.1188	0.739	0.739	0.484
Mof_C 	C 	0.941	0.6659	0.3341	0.189
Mof_C 	C 	0.943	0.7118	0.2882	-0.239
Mof_C 	C 	0.8812	0.739	0.261	0.482
Mof_C 	C 	0.059	0.3341	0.3341	0.164
Mof_C 	C 	0.057	0.2882	0.2882	-0.267
Mof_C 	C 	0.1188	0.261	0.261	0.485
Mof_C 	C 	0.941	0.3341	0.6659	0.189
Mof_C 	C 	0.943	0.2882	0.7118	-0.239
Mof_C 	C 	0.8812	0.261	0.739	0.482
Mof_C 	C 	0.059	0.6659	0.3341	0.163
Mof_C 	C 	0.057	0.7118	0.2882	-0.263
Mof_C 	C 	0.1188	0.739	0.261	0.485
Mof_C 	C 	0.941	0.3341	0.3341	0.191
Mof_C 	C 	0.943	0.2882	0.2882	-0.243
Mof_C 	C 	0.8812	0.261	0.261	0.483
Mof_C 	C 	0.059	0.3341	0.6659	0.163
Mof_C 	C 	0.057	0.2882	0.7118	-0.263
Mof_C 	C 	0.1188	0.261	0.739	0.485
Mof_C 	C 	0.941	0.6659	0.6659	0.187
Mof_C 	C 	0.943	0.7118	0.7118	-0.235
Mof_C 	C 	0.8812	0.739	0.739	0.481
Mof_C 	C 	0.6659	0.6659	0.941	0.187
Mof_C 	C 	0.7118	0.7118	0.943	-0.235
Mof_C 	C 	0.739	0.739	0.8812	0.481
Mof_C 	C 	0.3341	0.6659	0.059	0.163
Mof_C 	C 	0.2882	0.7118	0.057	-0.263
Mof_C 	C 	0.261	0.739	0.1188	0.485
Mof_C 	C 	0.3341	0.3341	0.941	0.191
Mof_C 	C 	0.2882	0.2882	0.943	-0.243
Mof_C 	C 	0.261	0.261	0.8812	0.483
Mof_C 	C 	0.6659	0.3341	0.059	0.163
Mof_C 	C 	0.7118	0.2882	0.057	-0.263
Mof_C 	C 	0.739	0.261	0.1188	0.485
Mof_C 	C 	0.6659	0.059	0.3341	0.163
Mof_C 	C 	0.7118	0.057	0.2882	-0.263
Mof_C 	C 	0.739	0.1188	0.261	0.485
Mof_C 	C 	0.6659	0.941	0.6659	0.187
Mof_C 	C 	0.7118	0.943	0.7118	-0.235
Mof_C 	C 	0.739	0.8812	0.739	0.481
Mof_C 	C 	0.3341	0.059	0.6659	0.163
Mof_C 	C 	0.2882	0.057	0.7118	-0.263
Mof_C 	C 	0.261	0.1188	0.739	0.485
Mof_C 	C 	0.3341	0.941	0.3341	0.191
Mof_C 	C 	0.2882	0.943	0.2882	-0.243
Mof_C 	C 	0.261	0.8812	0.261	0.483
Mof_O 	O 	0.5682	0.9461	0.5682	-0.487
Mof_O 	O 	0.7169	0.1717	0.7169	-0.555
Mof_O 	O 	0.7814	0.1123	0.7814	-0.585
Mof_O 	O 	0.4318	0.0539	0.5682	-0.512
Mof_O 	O 	0.2831	0.8283	0.7169	-0.552
Mof_O 	O 	0.2186	0.8877	0.7814	-0.576
Mof_O 	O 	0.4318	0.9461	0.4318	-0.488
Mof_O 	O 	0.2831	0.1717	0.2831	-0.558
Mof_O 	O 	0.2186	0.1123	0.2186	-0.594
Mof_O 	O 	0.5682	0.0539	0.4318	-0.512
Mof_O 	O 	0.7169	0.8283	0.2831	-0.552
Mof_O 	O 	0.7814	0.8877	0.2186	-0.576
Mof_O 	O 	0.5682	0.5682	0.9461	-0.487
Mof_O 	O 	0.7169	0.7169	0.1717	-0.555
Mof_O 	O 	0.7814	0.7814	0.1123	-0.585
Mof_O 	O 	0.5682	0.4318	0.0539	-0.512
Mof_O 	O 	0.7169	0.2831	0.8283	-0.552
Mof_O 	O 	0.7814	0.2186	0.8877	-0.576
Mof_O 	O 	0.4318	0.4318	0.9461	-0.488
Mof_O 	O 	0.2831	0.2831	0.1717	-0.558
Mof_O 	O 	0.2186	0.2186	0.1123	-0.594
Mof_O 	O 	0.4318	0.5682	0.0539	-0.512
Mof_O 	O 	0.2831	0.7169	0.8283	-0.552
Mof_O 	O 	0.2186	0.7814	0.8877	-0.576
Mof_O 	O 	0.9461	0.5682	0.5682	-0.487
Mof_O 	O 	0.1717	0.7169	0.7169	-0.555
Mof_O 	O 	0.1123	0.7814	0.7814	-0.585
Mof_O 	O 	0.0539	0.5682	0.4318	-0.512
Mof_O 	O 	0.8283	0.7169	0.2831	-0.552
Mof_O 	O 	0.8877	0.7814	0.2186	-0.576
Mof_O 	O 	0.9461	0.4318	0.4318	-0.488
Mof_O 	O 	0.1717	0.2831	0.2831	-0.558
Mof_O 	O 	0.1123	0.2186	0.2186	-0.594
Mof_O 	O 	0.0539	0.4318	0.5682	-0.512
Mof_O 	O 	0.8283	0.2831	0.7169	-0.552
Mof_O 	O 	0.8877	0.2186	0.7814	-0.576
Mof_O 	O 	0.9461	0.5682	0.4318	-0.487
Mof_O 	O 	0.1717	0.7169	0.2831	-0.557
Mof_O 	O 	0.1123	0.7814	0.2186	-0.589
Mof_O 	O 	0.0539	0.4318	0.4318	-0.512
Mof_O 	O 	0.8283	0.2831	0.2831	-0.554
Mof_O 	O 	0.8877	0.2186	0.2186	-0.581
Mof_O 	O 	0.9461	0.4318	0.5682	-0.487
Mof_O 	O 	0.1717	0.2831	0.7169	-0.557
Mof_O 	O 	0.1123	0.2186	0.7814	-0.589
Mof_O 	O 	0.0539	0.5682	0.5682	-0.511
Mof_O 	O 	0.8283	0.7169	0.7169	-0.55
Mof_O 	O 	0.8877	0.7814	0.7814	-0.572
Mof_O 	O 	0.5682	0.5682	0.0539	-0.511
Mof_O 	O 	0.7169	0.7169	0.8283	-0.55
Mof_O 	O 	0.7814	0.7814	0.8877	-0.572
Mof_O 	O 	0.4318	0.5682	0.9461	-0.487
Mof_O 	O 	0.2831	0.7169	0.1717	-0.557
Mof_O 	O 	0.2186	0.7814	0.1123	-0.589
Mof_O 	O 	0.4318	0.4318	0.0539	-0.512
Mof_O 	O 	0.2831	0.2831	0.8283	-0.554
Mof_O 	O 	0.2186	0.2186	0.8877	-0.581
Mof_O 	O 	0.5682	0.4318	0.9461	-0.487
Mof_O 	O 	0.7169	0.2831	0.1717	-0.557
Mof_O 	O 	0.7814	0.2186	0.1123	-0.589
Mof_O 	O 	0.5682	0.9461	0.4318	-0.487
Mof_O 	O 	0.7169	0.1717	0.2831	-0.557
Mof_O 	O 	0.7814	0.1123	0.2186	-0.589
Mof_O 	O 	0.5682	0.0539	0.5682	-0.511
Mof_O 	O 	0.7169	0.8283	0.7169	-0.55
Mof_O 	O 	0.7814	0.8877	0.7814	-0.572
Mof_O 	O 	0.4318	0.9461	0.5682	-0.487
Mof_O 	O 	0.2831	0.1717	0.7169	-0.557
Mof_O 	O 	0.2186	0.1123	0.7814	-0.589
Mof_O 	O 	0.4318	0.0539	0.4318	-0.512
Mof_O 	O 	0.2831	0.8283	0.2831	-0.554
Mof_O 	O 	0.2186	0.8877	0.2186	-0.581
_end
