data_functionalizedCrystal
_audit_creation_method	'EQeq! by Chris Wilmer'
_symmetry_space_group_name_H-M	'P1'
_symmetry_Int_Tables_number	1
_symmetry_cell_setting	triclinic
loop_
_symmetry_equiv_pos_as_xyz
  x,y,z
_cell_length_a	35.4247
_cell_length_b	13.9402
_cell_length_c	9.4516
_cell_angle_alpha	90
_cell_angle_beta	101.693
_cell_angle_gamma	90
loop_
_atom_site_label
_atom_site_type_symbol
_atom_site_fract_x
_atom_site_fract_y
_atom_site_fract_z
_atom_site_charge
Mof_Ni	Ni	0.86393	0.29425	0.16184	1.057
Mof_O 	O 	0.83504	0.177	0.2159	-0.422
Mof_O 	O 	0.82037	0.3782	0.2147	-0.426
Mof_O 	O 	0.85215	0.443	0.4204	-0.327
Mof_O 	O 	0.868	0.1406	0.4348	-0.31
Mof_N 	N 	0.83261	0.2833	0.9517	-0.255
Mof_N 	N 	0.907	0.207	0.1065	-0.27
Mof_C 	C 	0.77403	0.2457	0.7877	-0.211
Mof_H 	H 	0.7486	0.2249	0.7735	0.115
Mof_C 	C 	0.78796	0.4901	0.3347	-0.232
Mof_H 	H 	0.7893	0.5275	0.417	0.122
Mof_C 	C 	0.79092	0.2672	0.67	0.162
Mof_C 	C 	0.77756	0.0487	0.2478	0.021
Mof_H 	H 	0.7762	0.0809	0.1607	0.038
Mof_C 	C 	0.79593	0.2558	0.9253	0.126
Mof_H 	H 	0.7845	0.2427	0.0034	-0.01
Mof_C 	C 	0.80973	0.0599	0.3473	-0.23
Mof_H 	H 	0.8134	0.022	0.4299	0.122
Mof_C 	C 	0.7556	0.4912	0.2381	0.03
Mof_H 	H 	0.7538	0.4532	0.1562	0.031
Mof_C 	C 	0.84	0.1306	0.3314	0.387
Mof_C 	C 	0.84842	0.3031	0.8382	0.13
Mof_H 	H 	0.8741	0.3225	0.8554	-0.036
Mof_C 	C 	0.82283	0.4329	0.3218	0.378
Mof_C 	C 	0.8289	0.2963	0.6982	-0.217
Mof_H 	H 	0.8411	0.3111	0.6227	0.118
Mof_C 	C 	0.94264	0.2373	0.1119	0.117
Mof_H 	H 	0.9492	0.2989	0.1458	-0.051
Mof_C 	C 	0.89883	0.118	0.0601	0.135
Mof_H 	H 	0.8742	0.0946	0.0592	-0.016
Mof_C 	C 	0.9245	0.0591	0.0137	-0.226
Mof_H 	H 	0.9173	0.9972	0.9831	0.123
Mof_C 	C 	0.7684	0.2651	0.5149	-0.167
Mof_H 	H 	0.7687	0.3296	0.4768	0.085
Mof_H 	H 	0.7827	0.225	0.4603	0.085
Mof_C 	C 	0.97052	0.1815	0.0695	-0.214
Mof_H 	H 	0.9956	0.2043	0.0794	0.096
Mof_C 	C 	0.9609	0.0914	0.0122	0.155
Mof_C 	C 	0.9905	0.0311	0.9443	-0.164
Mof_H 	H 	0.9771	0.9942	0.8623	0.077
Mof_H 	H 	0.0089	0.073	0.9121	0.075
Mof_Ni	Ni	0.36393	0.79425	0.16184	1.056
Mof_O 	O 	0.33504	0.677	0.2159	-0.423
Mof_O 	O 	0.32037	0.8782	0.2147	-0.425
Mof_O 	O 	0.35215	0.943	0.4204	-0.327
Mof_O 	O 	0.368	0.6406	0.4348	-0.31
Mof_N 	N 	0.33261	0.7833	0.9517	-0.255
Mof_N 	N 	0.407	0.707	0.1065	-0.27
Mof_C 	C 	0.27403	0.7457	0.7877	-0.209
Mof_H 	H 	0.2486	0.7249	0.7735	0.114
Mof_C 	C 	0.28796	0.9901	0.3347	-0.232
Mof_H 	H 	0.2893	0.0275	0.417	0.121
Mof_C 	C 	0.29092	0.7672	0.67	0.16
Mof_C 	C 	0.27756	0.5487	0.2478	0.021
Mof_H 	H 	0.2762	0.5809	0.1607	0.038
Mof_C 	C 	0.29593	0.7558	0.9253	0.123
Mof_H 	H 	0.2845	0.7427	0.0034	-0.008
Mof_C 	C 	0.30973	0.5599	0.3473	-0.229
Mof_H 	H 	0.3134	0.522	0.4299	0.122
Mof_C 	C 	0.2556	0.9912	0.2381	0.03
Mof_H 	H 	0.2538	0.9532	0.1562	0.031
Mof_C 	C 	0.34	0.6306	0.3314	0.387
Mof_C 	C 	0.34842	0.8031	0.8382	0.13
Mof_H 	H 	0.3741	0.8225	0.8554	-0.036
Mof_C 	C 	0.32283	0.9329	0.3218	0.378
Mof_C 	C 	0.3289	0.7963	0.6982	-0.216
Mof_H 	H 	0.3411	0.8111	0.6227	0.117
Mof_C 	C 	0.44264	0.7373	0.1119	0.118
Mof_H 	H 	0.4492	0.7989	0.1458	-0.051
Mof_C 	C 	0.39883	0.618	0.0601	0.135
Mof_H 	H 	0.3742	0.5946	0.0592	-0.016
Mof_C 	C 	0.4245	0.5591	0.0137	-0.227
Mof_H 	H 	0.4173	0.4972	0.9831	0.123
Mof_C 	C 	0.2684	0.7651	0.5149	-0.165
Mof_H 	H 	0.2687	0.8296	0.4768	0.084
Mof_H 	H 	0.2827	0.725	0.4603	0.085
Mof_C 	C 	0.47052	0.6815	0.0695	-0.215
Mof_H 	H 	0.4956	0.7043	0.0794	0.097
Mof_C 	C 	0.4609	0.5914	0.0122	0.157
Mof_C 	C 	0.4905	0.5311	0.9443	-0.166
Mof_H 	H 	0.4771	0.4942	0.8623	0.078
Mof_H 	H 	0.5089	0.573	0.9121	0.075
Mof_Ni	Ni	0.13607	0.29425	0.33816	1.056
Mof_O 	O 	0.16496	0.177	0.2841	-0.423
Mof_O 	O 	0.17963	0.3782	0.2853	-0.426
Mof_O 	O 	0.14785	0.443	0.0796	-0.327
Mof_O 	O 	0.132	0.1406	0.0652	-0.31
Mof_N 	N 	0.16739	0.2833	0.5483	-0.254
Mof_N 	N 	0.093	0.207	0.3935	-0.27
Mof_C 	C 	0.22597	0.2457	0.7123	-0.208
Mof_H 	H 	0.2514	0.2249	0.7265	0.114
Mof_C 	C 	0.21204	0.4901	0.1653	-0.232
Mof_H 	H 	0.2107	0.5275	0.083	0.122
Mof_C 	C 	0.20908	0.2672	0.83	0.157
Mof_C 	C 	0.22244	0.0487	0.2522	0.02
Mof_H 	H 	0.2238	0.0809	0.3393	0.038
Mof_C 	C 	0.20407	0.2558	0.5747	0.124
Mof_H 	H 	0.2155	0.2427	0.4966	-0.009
Mof_C 	C 	0.19027	0.0599	0.1527	-0.229
Mof_H 	H 	0.1866	0.022	0.0701	0.122
Mof_C 	C 	0.2444	0.4912	0.2619	0.03
Mof_H 	H 	0.2462	0.4532	0.3438	0.032
Mof_C 	C 	0.16	0.1306	0.1686	0.387
Mof_C 	C 	0.15158	0.3031	0.6618	0.129
Mof_H 	H 	0.1259	0.3225	0.6446	-0.036
Mof_C 	C 	0.17717	0.4329	0.1782	0.378
Mof_C 	C 	0.1711	0.2963	0.8018	-0.214
Mof_H 	H 	0.1589	0.3111	0.8773	0.117
Mof_C 	C 	0.05736	0.2373	0.3881	0.118
Mof_H 	H 	0.0508	0.2989	0.3542	-0.051
Mof_C 	C 	0.10117	0.118	0.4399	0.135
Mof_H 	H 	0.1258	0.0946	0.4408	-0.016
Mof_C 	C 	0.0755	0.0591	0.4863	-0.227
Mof_H 	H 	0.0827	0.9972	0.5169	0.123
Mof_C 	C 	0.2316	0.2651	0.9851	-0.158
Mof_H 	H 	0.2313	0.3296	0.0232	0.082
Mof_H 	H 	0.2173	0.225	0.0397	0.083
Mof_C 	C 	0.02948	0.1815	0.4305	-0.215
Mof_H 	H 	0.0044	0.2043	0.4206	0.097
Mof_C 	C 	0.0391	0.0914	0.4878	0.157
Mof_C 	C 	0.0095	0.0311	0.5557	-0.166
Mof_H 	H 	0.0229	0.9942	0.6377	0.078
Mof_H 	H 	0.9911	0.073	0.5879	0.075
Mof_Ni	Ni	0.63607	0.79425	0.33816	1.056
Mof_O 	O 	0.66496	0.677	0.2841	-0.423
Mof_O 	O 	0.67963	0.8782	0.2853	-0.426
Mof_O 	O 	0.64785	0.943	0.0796	-0.327
Mof_O 	O 	0.632	0.6406	0.0652	-0.31
Mof_N 	N 	0.66739	0.7833	0.5483	-0.255
Mof_N 	N 	0.593	0.707	0.3935	-0.27
Mof_C 	C 	0.72597	0.7457	0.7123	-0.212
Mof_H 	H 	0.7514	0.7249	0.7265	0.116
Mof_C 	C 	0.71204	0.9901	0.1653	-0.231
Mof_H 	H 	0.7107	0.0275	0.083	0.121
Mof_C 	C 	0.70908	0.7672	0.83	0.164
Mof_C 	C 	0.72244	0.5487	0.2522	0.021
Mof_H 	H 	0.7238	0.5809	0.3393	0.038
Mof_C 	C 	0.70407	0.7558	0.5747	0.126
Mof_H 	H 	0.7155	0.7427	0.4966	-0.01
Mof_C 	C 	0.69027	0.5599	0.1527	-0.23
Mof_H 	H 	0.6866	0.522	0.0701	0.122
Mof_C 	C 	0.7444	0.9912	0.2619	0.029
Mof_H 	H 	0.7462	0.9532	0.3438	0.032
Mof_C 	C 	0.66	0.6306	0.1686	0.387
Mof_C 	C 	0.65158	0.8031	0.6618	0.131
Mof_H 	H 	0.6259	0.8225	0.6446	-0.037
Mof_C 	C 	0.67717	0.9329	0.1782	0.377
Mof_C 	C 	0.6711	0.7963	0.8018	-0.218
Mof_H 	H 	0.6589	0.8111	0.8773	0.118
Mof_C 	C 	0.55736	0.7373	0.3881	0.118
Mof_H 	H 	0.5508	0.7989	0.3542	-0.051
Mof_C 	C 	0.60117	0.618	0.4399	0.135
Mof_H 	H 	0.6258	0.5946	0.4408	-0.016
Mof_C 	C 	0.5755	0.5591	0.4863	-0.227
Mof_H 	H 	0.5827	0.4972	0.5169	0.123
Mof_C 	C 	0.7316	0.7651	0.9851	-0.174
Mof_H 	H 	0.7313	0.8296	0.0232	0.087
Mof_H 	H 	0.7173	0.725	0.0397	0.088
Mof_C 	C 	0.52948	0.6815	0.4305	-0.215
Mof_H 	H 	0.5044	0.7043	0.4206	0.096
Mof_C 	C 	0.5391	0.5914	0.4878	0.157
Mof_C 	C 	0.5095	0.5311	0.5557	-0.166
Mof_H 	H 	0.5229	0.4942	0.6377	0.078
Mof_H 	H 	0.4911	0.573	0.5879	0.075
Mof_Ni	Ni	0.13607	0.70575	0.83816	1.056
Mof_O 	O 	0.16496	0.823	0.7841	-0.423
Mof_O 	O 	0.17963	0.6218	0.7853	-0.426
Mof_O 	O 	0.14785	0.557	0.5796	-0.327
Mof_O 	O 	0.132	0.8594	0.5652	-0.31
Mof_N 	N 	0.16739	0.7167	0.0483	-0.255
Mof_N 	N 	0.093	0.793	0.8935	-0.27
Mof_C 	C 	0.22597	0.7543	0.2123	-0.211
Mof_H 	H 	0.2514	0.7751	0.2265	0.115
Mof_C 	C 	0.21204	0.5099	0.6653	-0.232
Mof_H 	H 	0.2107	0.4725	0.583	0.122
Mof_C 	C 	0.20908	0.7328	0.33	0.162
Mof_C 	C 	0.22244	0.9513	0.7522	0.021
Mof_H 	H 	0.2238	0.9191	0.8393	0.038
Mof_C 	C 	0.20407	0.7442	0.0747	0.126
Mof_H 	H 	0.2155	0.7573	0.9966	-0.01
Mof_C 	C 	0.19027	0.9401	0.6527	-0.23
Mof_H 	H 	0.1866	0.978	0.5701	0.122
Mof_C 	C 	0.2444	0.5088	0.7619	0.03
Mof_H 	H 	0.2462	0.5468	0.8438	0.031
Mof_C 	C 	0.16	0.8694	0.6686	0.387
Mof_C 	C 	0.15158	0.6969	0.1618	0.13
Mof_H 	H 	0.1259	0.6775	0.1446	-0.036
Mof_C 	C 	0.17717	0.5671	0.6782	0.378
Mof_C 	C 	0.1711	0.7037	0.3018	-0.217
Mof_H 	H 	0.1589	0.6889	0.3773	0.118
Mof_C 	C 	0.05736	0.7627	0.8881	0.117
Mof_H 	H 	0.0508	0.7011	0.8542	-0.051
Mof_C 	C 	0.10117	0.882	0.9399	0.135
Mof_H 	H 	0.1258	0.9054	0.9408	-0.016
Mof_C 	C 	0.0755	0.9409	0.9863	-0.226
Mof_H 	H 	0.0827	0.0028	0.0169	0.123
Mof_C 	C 	0.2316	0.7349	0.4851	-0.167
Mof_H 	H 	0.2313	0.6704	0.5232	0.085
Mof_H 	H 	0.2173	0.775	0.5397	0.085
Mof_C 	C 	0.02948	0.8185	0.9305	-0.214
Mof_H 	H 	0.0044	0.7957	0.9206	0.096
Mof_C 	C 	0.0391	0.9086	0.9878	0.155
Mof_C 	C 	0.0095	0.9689	0.0557	-0.164
Mof_H 	H 	0.0229	0.0058	0.1377	0.077
Mof_H 	H 	0.9911	0.927	0.0879	0.075
Mof_Ni	Ni	0.63607	0.20575	0.83816	1.056
Mof_O 	O 	0.66496	0.323	0.7841	-0.423
Mof_O 	O 	0.67963	0.1218	0.7853	-0.425
Mof_O 	O 	0.64785	0.057	0.5796	-0.327
Mof_O 	O 	0.632	0.3594	0.5652	-0.31
Mof_N 	N 	0.66739	0.2167	0.0483	-0.255
Mof_N 	N 	0.593	0.293	0.8935	-0.27
Mof_C 	C 	0.72597	0.2543	0.2123	-0.209
Mof_H 	H 	0.7514	0.2751	0.2265	0.114
Mof_C 	C 	0.71204	0.0099	0.6653	-0.232
Mof_H 	H 	0.7107	0.9725	0.583	0.121
Mof_C 	C 	0.70908	0.2328	0.33	0.16
Mof_C 	C 	0.72244	0.4513	0.7522	0.021
Mof_H 	H 	0.7238	0.4191	0.8393	0.038
Mof_C 	C 	0.70407	0.2442	0.0747	0.123
Mof_H 	H 	0.7155	0.2573	0.9966	-0.008
Mof_C 	C 	0.69027	0.4401	0.6527	-0.229
Mof_H 	H 	0.6866	0.478	0.5701	0.122
Mof_C 	C 	0.7444	0.0088	0.7619	0.03
Mof_H 	H 	0.7462	0.0468	0.8438	0.031
Mof_C 	C 	0.66	0.3694	0.6686	0.387
Mof_C 	C 	0.65158	0.1969	0.1618	0.13
Mof_H 	H 	0.6259	0.1775	0.1446	-0.036
Mof_C 	C 	0.67717	0.0671	0.6782	0.378
Mof_C 	C 	0.6711	0.2037	0.3018	-0.216
Mof_H 	H 	0.6589	0.1889	0.3773	0.117
Mof_C 	C 	0.55736	0.2627	0.8881	0.118
Mof_H 	H 	0.5508	0.2011	0.8542	-0.051
Mof_C 	C 	0.60117	0.382	0.9399	0.135
Mof_H 	H 	0.6258	0.4054	0.9408	-0.016
Mof_C 	C 	0.5755	0.4409	0.9863	-0.227
Mof_H 	H 	0.5827	0.5028	0.0169	0.123
Mof_C 	C 	0.7316	0.2349	0.4851	-0.165
Mof_H 	H 	0.7313	0.1704	0.5232	0.084
Mof_H 	H 	0.7173	0.275	0.5397	0.085
Mof_C 	C 	0.52948	0.3185	0.9305	-0.215
Mof_H 	H 	0.5044	0.2957	0.9206	0.097
Mof_C 	C 	0.5391	0.4086	0.9878	0.157
Mof_C 	C 	0.5095	0.4689	0.0557	-0.166
Mof_H 	H 	0.5229	0.5058	0.1377	0.078
Mof_H 	H 	0.4911	0.427	0.0879	0.075
Mof_Ni	Ni	0.86393	0.70575	0.66184	1.056
Mof_O 	O 	0.83504	0.823	0.7159	-0.423
Mof_O 	O 	0.82037	0.6218	0.7147	-0.426
Mof_O 	O 	0.85215	0.557	0.9204	-0.327
Mof_O 	O 	0.868	0.8594	0.9348	-0.31
Mof_N 	N 	0.83261	0.7167	0.4517	-0.254
Mof_N 	N 	0.907	0.793	0.6065	-0.27
Mof_C 	C 	0.77403	0.7543	0.2877	-0.208
Mof_H 	H 	0.7486	0.7751	0.2735	0.114
Mof_C 	C 	0.78796	0.5099	0.8347	-0.232
Mof_H 	H 	0.7893	0.4725	0.917	0.122
Mof_C 	C 	0.79092	0.7328	0.17	0.157
Mof_C 	C 	0.77756	0.9513	0.7478	0.02
Mof_H 	H 	0.7762	0.9191	0.6607	0.038
Mof_C 	C 	0.79593	0.7442	0.4253	0.124
Mof_H 	H 	0.7845	0.7573	0.5034	-0.009
Mof_C 	C 	0.80973	0.9401	0.8473	-0.229
Mof_H 	H 	0.8134	0.978	0.9299	0.122
Mof_C 	C 	0.7556	0.5088	0.7381	0.03
Mof_H 	H 	0.7538	0.5468	0.6562	0.032
Mof_C 	C 	0.84	0.8694	0.8314	0.387
Mof_C 	C 	0.84842	0.6969	0.3382	0.129
Mof_H 	H 	0.8741	0.6775	0.3554	-0.036
Mof_C 	C 	0.82283	0.5671	0.8218	0.378
Mof_C 	C 	0.8289	0.7037	0.1982	-0.214
Mof_H 	H 	0.8411	0.6889	0.1227	0.117
Mof_C 	C 	0.94264	0.7627	0.6119	0.118
Mof_H 	H 	0.9492	0.7011	0.6458	-0.051
Mof_C 	C 	0.89883	0.882	0.5601	0.135
Mof_H 	H 	0.8742	0.9054	0.5592	-0.016
Mof_C 	C 	0.9245	0.9409	0.5137	-0.227
Mof_H 	H 	0.9173	0.0028	0.4831	0.123
Mof_C 	C 	0.7684	0.7349	0.0149	-0.158
Mof_H 	H 	0.7687	0.6704	0.9768	0.082
Mof_H 	H 	0.7827	0.775	0.9603	0.083
Mof_C 	C 	0.97052	0.8185	0.5695	-0.215
Mof_H 	H 	0.9956	0.7957	0.5794	0.097
Mof_C 	C 	0.9609	0.9086	0.5122	0.157
Mof_C 	C 	0.9905	0.9689	0.4443	-0.166
Mof_H 	H 	0.9771	0.0058	0.3623	0.078
Mof_H 	H 	0.0089	0.927	0.4121	0.075
Mof_Ni	Ni	0.36393	0.20575	0.66184	1.056
Mof_O 	O 	0.33504	0.323	0.7159	-0.423
Mof_O 	O 	0.32037	0.1218	0.7147	-0.426
Mof_O 	O 	0.35215	0.057	0.9204	-0.327
Mof_O 	O 	0.368	0.3594	0.9348	-0.31
Mof_N 	N 	0.33261	0.2167	0.4517	-0.255
Mof_N 	N 	0.407	0.293	0.6065	-0.27
Mof_C 	C 	0.27403	0.2543	0.2877	-0.212
Mof_H 	H 	0.2486	0.2751	0.2735	0.116
Mof_C 	C 	0.28796	0.0099	0.8347	-0.231
Mof_H 	H 	0.2893	0.9725	0.917	0.121
Mof_C 	C 	0.29092	0.2328	0.17	0.164
Mof_C 	C 	0.27756	0.4513	0.7478	0.021
Mof_H 	H 	0.2762	0.4191	0.6607	0.038
Mof_C 	C 	0.29593	0.2442	0.4253	0.126
Mof_H 	H 	0.2845	0.2573	0.5034	-0.01
Mof_C 	C 	0.30973	0.4401	0.8473	-0.23
Mof_H 	H 	0.3134	0.478	0.9299	0.122
Mof_C 	C 	0.2556	0.0088	0.7381	0.029
Mof_H 	H 	0.2538	0.0468	0.6562	0.032
Mof_C 	C 	0.34	0.3694	0.8314	0.387
Mof_C 	C 	0.34842	0.1969	0.3382	0.131
Mof_H 	H 	0.3741	0.1775	0.3554	-0.037
Mof_C 	C 	0.32283	0.0671	0.8218	0.377
Mof_C 	C 	0.3289	0.2037	0.1982	-0.218
Mof_H 	H 	0.3411	0.1889	0.1227	0.118
Mof_C 	C 	0.44264	0.2627	0.6119	0.118
Mof_H 	H 	0.4492	0.2011	0.6458	-0.051
Mof_C 	C 	0.39883	0.382	0.5601	0.135
Mof_H 	H 	0.3742	0.4054	0.5592	-0.016
Mof_C 	C 	0.4245	0.4409	0.5137	-0.227
Mof_H 	H 	0.4173	0.5028	0.4831	0.123
Mof_C 	C 	0.2684	0.2349	0.0149	-0.174
Mof_H 	H 	0.2687	0.1704	0.9768	0.087
Mof_H 	H 	0.2827	0.275	0.9603	0.088
Mof_C 	C 	0.47052	0.3185	0.5695	-0.215
Mof_H 	H 	0.4956	0.2957	0.5794	0.096
Mof_C 	C 	0.4609	0.4086	0.5122	0.157
Mof_C 	C 	0.4905	0.4689	0.4443	-0.166
Mof_H 	H 	0.4771	0.5058	0.3623	0.078
Mof_H 	H 	0.5089	0.427	0.4121	0.075
_end
