# CIF file generated by openbabel 3.1.0, see https://openbabel.org
data_I
_chemical_name_common 'ECUFEP_charged'
_cell_length_a 9.4926
_cell_length_b 12.9357
_cell_length_c 12.9357
_cell_angle_alpha 92.3739
_cell_angle_beta 90
_cell_angle_gamma 90
_space_group_name_H-M_alt 'P 1'
_space_group_name_Hall 'P 1'
loop_
    _symmetry_equiv_pos_as_xyz
    x,y,z
loop_
    _atom_site_label
    _atom_site_type_symbol
    _atom_site_fract_x
    _atom_site_fract_y
    _atom_site_fract_z
    _atom_site_occupancy
    U1       U        0.26463    0.31813    0.90249    1.000
    U2       U        0.76463    0.68187    0.09751    1.000
    U3       U        0.76463    0.09751    0.68187    1.000
    U4       U        0.26463    0.90249    0.31813    1.000
    U5       U        0.09510    0.79109    0.79109    1.000
    U6       U        0.59510    0.20891    0.20891    1.000
    Ag1      Ag       0.08300    0.00340    0.00340    1.000
    Ag2      Ag       0.58300    0.99660    0.99660    1.000
    P1       P        0.13900    0.07000    0.77080    1.000
    P2       P        0.07160    0.96230    0.57010    1.000
    P3       P        0.63900    0.93000    0.22920    1.000
    P4       P        0.57160    0.03770    0.42990    1.000
    P5       P        0.63900    0.22920    0.93000    1.000
    P6       P        0.57160    0.42990    0.03770    1.000
    P7       P        0.13900    0.77080    0.07000    1.000
    P8       P        0.07160    0.57010    0.96230    1.000
    H1       H        0.08980    0.18810    0.58810    1.000
    H2       H        0.21530    0.15390    0.51570    1.000
    H3       H        0.24550    0.20830    0.62390    1.000
    H4       H        0.33340    0.96520    0.58840    1.000
    H5       H        0.58980    0.81190    0.41190    1.000
    H6       H        0.71530    0.84610    0.48430    1.000
    H7       H        0.74550    0.79170    0.37610    1.000
    H8       H        0.83340    0.03480    0.41160    1.000
    H9       H        0.58980    0.41190    0.81190    1.000
    H10      H        0.71530    0.48430    0.84610    1.000
    H11      H        0.74550    0.37610    0.79170    1.000
    H12      H        0.83340    0.41160    0.03480    1.000
    H13      H        0.08980    0.58810    0.18810    1.000
    H14      H        0.21530    0.51570    0.15390    1.000
    H15      H        0.24550    0.62390    0.20830    1.000
    H16      H        0.33340    0.58840    0.96520    1.000
    C1       C        0.18720    0.05710    0.63490    1.000
    C2       C        0.18420    0.16140    0.58620    1.000
    C3       C        0.68720    0.94290    0.36510    1.000
    C4       C        0.68420    0.83860    0.41380    1.000
    C5       C        0.68720    0.36510    0.94290    1.000
    C6       C        0.68420    0.41380    0.83860    1.000
    C7       C        0.18720    0.63490    0.05710    1.000
    C8       C        0.18420    0.58620    0.16140    1.000
    O1       O        0.30810    0.36840    0.78120    1.000
    O2       O        0.01910    0.30140    0.84040    1.000
    O3       O        0.22880    0.15360    0.82120    1.000
    O4       O        0.15990    0.96590    0.81910    1.000
    O5       O        0.92620    0.01390    0.56630    1.000
    O6       O        0.06760    0.86560    0.63240    1.000
    O7       O        0.98400    0.10030    0.76990    1.000
    O8       O        0.21670    0.26660    0.02320    1.000
    O9       O        0.13160    0.94180    0.46420    1.000
    O10      O        0.33060    0.01400    0.63100    1.000
    O11      O        0.80810    0.63160    0.21880    1.000
    O12      O        0.51910    0.69860    0.15960    1.000
    O13      O        0.72880    0.84640    0.17880    1.000
    O14      O        0.65990    0.03410    0.18090    1.000
    O15      O        0.42620    0.98610    0.43370    1.000
    O16      O        0.56760    0.13440    0.36760    1.000
    O17      O        0.48400    0.89970    0.23010    1.000
    O18      O        0.71670    0.73340    0.97680    1.000
    O19      O        0.63160    0.05820    0.53580    1.000
    O20      O        0.83060    0.98600    0.36900    1.000
    O21      O        0.80810    0.21880    0.63160    1.000
    O22      O        0.51910    0.15960    0.69860    1.000
    O23      O        0.72880    0.17880    0.84640    1.000
    O24      O        0.65990    0.18090    0.03410    1.000
    O25      O        0.42620    0.43370    0.98610    1.000
    O26      O        0.56760    0.36760    0.13440    1.000
    O27      O        0.48400    0.23010    0.89970    1.000
    O28      O        0.71670    0.97680    0.73340    1.000
    O29      O        0.63160    0.53580    0.05820    1.000
    O30      O        0.83060    0.36900    0.98600    1.000
    O31      O        0.30810    0.78120    0.36840    1.000
    O32      O        0.01910    0.84040    0.30140    1.000
    O33      O        0.22880    0.82120    0.15360    1.000
    O34      O        0.15990    0.81910    0.96590    1.000
    O35      O        0.92620    0.56630    0.01390    1.000
    O36      O        0.06760    0.63240    0.86560    1.000
    O37      O        0.98400    0.76990    0.10030    1.000
    O38      O        0.21670    0.02320    0.26660    1.000
    O39      O        0.13160    0.46420    0.94180    1.000
    O40      O        0.33060    0.63100    0.01400    1.000
    O41      O        0.92200    0.81910    0.81910    1.000
    O42      O        0.01800    0.65870    0.65870    1.000
    O43      O        0.27610    0.75900    0.75900    1.000
    O44      O        0.17200    0.11520    0.11520    1.000
    O45      O        0.31700    0.02410    0.02410    1.000
    O46      O        0.42200    0.18090    0.18090    1.000
    O47      O        0.51800    0.34130    0.34130    1.000
    O48      O        0.77610    0.24100    0.24100    1.000
    O49      O        0.67200    0.88480    0.88480    1.000
    O50      O        0.81700    0.97590    0.97590    1.000
