# CIF file generated by openbabel 3.1.0, see https://openbabel.org
data_I
_chemical_name_common 'image0'
_cell_length_a 23.0687
_cell_length_b 23.0687
_cell_length_c 20.7587
_cell_angle_alpha 90
_cell_angle_beta 90
_cell_angle_gamma 120
_space_group_name_H-M_alt 'P 1'
_space_group_name_Hall 'P 1'
loop_
    _symmetry_equiv_pos_as_xyz
    x,y,z
loop_
    _atom_site_label
    _atom_site_type_symbol
    _atom_site_fract_x
    _atom_site_fract_y
    _atom_site_fract_z
    _atom_site_occupancy
    Zn1      Zn       0.18444    0.40745    0.18072    1.000
    Zn2      Zn       0.11137    0.25928    0.15279    1.000
    Zn3      Zn       0.07413    0.53033    0.48560    1.000
    C1       C        0.00140    0.30360    0.29690    1.000
    C2       C        0.01280    0.35510    0.33240    1.000
    H1       H        0.05470    0.39550    0.33140    1.000
    C3       C        0.96180    0.35070    0.37580    1.000
    C4       C        0.89920    0.28770    0.37640    1.000
    H2       H        0.86480    0.28190    0.40530    1.000
    C5       C        0.88920    0.23900    0.33800    1.000
    C6       C        0.93830    0.24000    0.29270    1.000
    H3       H        0.93040    0.20440    0.26440    1.000
    C7       C        0.05620    0.30880    0.24460    1.000
    C8       C        0.67570    0.95350    0.29190    1.000
    C9       C        0.73840    0.01750    0.28780    1.000
    H4       H        0.77330    0.02360    0.25940    1.000
    C10      C        0.74470    0.06940    0.32790    1.000
    C11      C        0.70000    0.06480    0.36470    1.000
    H5       H        0.70900    0.10180    0.39140    1.000
    C12      C        0.63410    0.00430    0.36850    1.000
    C13      C        0.62330    0.95140    0.32810    1.000
    H6       H        0.57970    0.91340    0.32510    1.000
    C14      C        0.67170    0.89990    0.25140    1.000
    C15      C        0.57960    0.00150    0.40490    1.000
    C16      C        0.30140    0.36670    0.04490    1.000
    C17      C        0.36060    0.42380    0.04860    1.000
    H7       H        0.36570    0.45750    0.07800    1.000
    C18      C        0.41580    0.43480    0.00950    1.000
    C19      C        0.41150    0.38180    0.97230    1.000
    H8       H        0.45000    0.38540    0.95180    1.000
    C20      C        0.35070    0.32500    0.96650    1.000
    C21      C        0.29400    0.31480    0.00530    1.000
    H9       H        0.25280    0.27370    0.00360    1.000
    C22      C        0.33220    0.26230    0.91790    1.000
    C23      C        0.23820    0.34940    0.08980    1.000
    C24      C        0.96730    0.40320    0.41670    1.000
    O1       O        0.10620    0.37130    0.24260    1.000
    O2       O        0.05260    0.25980    0.22480    1.000
    O3       O        0.02870    0.45090    0.42450    1.000
    O4       O        0.91940    0.39970    0.45010    1.000
    O5       O        0.58550    0.04780    0.44450    1.000
    O6       O        0.52520    0.94000    0.41570    1.000
    O7       O        0.61070    0.84800    0.24650    1.000
    O8       O        0.71900    0.90610    0.22340    1.000
    O9       O        0.19190    0.29410    0.09160    1.000
    O10      O        0.24710    0.40520    0.11600    1.000
    O11      O        0.39270    0.27700    0.89300    1.000
    O12      O        0.27920    0.21580    0.91310    1.000
    N1       N        0.81980    0.17640    0.34710    1.000
    N2       N        0.82020    0.13560    0.31740    1.000
    N3       N        0.47610    0.49460    0.02110    1.000
    Zn4      Zn       0.59255    0.77699    0.18072    1.000
    Zn5      Zn       0.74072    0.85209    0.15279    1.000
    Zn6      Zn       0.46967    0.54380    0.48560    1.000
    C25      C        0.69640    0.69780    0.29690    1.000
    C26      C        0.64490    0.65770    0.33240    1.000
    H10      H        0.60450    0.65920    0.33140    1.000
    C27      C        0.64930    0.61110    0.37580    1.000
    C28      C        0.71230    0.61150    0.37640    1.000
    H11      H        0.71810    0.58290    0.40530    1.000
    C29      C        0.76100    0.65020    0.33800    1.000
    C30      C        0.76000    0.69830    0.29270    1.000
    H12      H        0.79560    0.72600    0.26440    1.000
    C31      C        0.69120    0.74740    0.24460    1.000
    C32      C        0.04650    0.72220    0.29190    1.000
    C33      C        0.98250    0.72090    0.28780    1.000
    H13      H        0.97640    0.74970    0.25940    1.000
    C34      C        0.93060    0.67530    0.32790    1.000
    C35      C        0.93520    0.63520    0.36470    1.000
    H14      H        0.89820    0.60720    0.39140    1.000
    C36      C        0.99570    0.62980    0.36850    1.000
    C37      C        0.04860    0.67190    0.32810    1.000
    H15      H        0.08660    0.66630    0.32510    1.000
    C38      C        0.10010    0.77180    0.25140    1.000
    C39      C        0.99850    0.57810    0.40490    1.000
    C40      C        0.63330    0.93470    0.04490    1.000
    C41      C        0.57620    0.93680    0.04860    1.000
    H16      H        0.54250    0.90820    0.07800    1.000
    C42      C        0.56520    0.98100    0.00950    1.000
    C43      C        0.61820    0.02970    0.97230    1.000
    H17      H        0.61460    0.06460    0.95180    1.000
    C44      C        0.67500    0.02570    0.96650    1.000
    C45      C        0.68520    0.97920    0.00530    1.000
    H18      H        0.72630    0.97910    0.00360    1.000
    C46      C        0.73770    0.06990    0.91790    1.000
    C47      C        0.65060    0.88880    0.08980    1.000
    C48      C        0.59680    0.56410    0.41670    1.000
    O13      O        0.62870    0.73490    0.24260    1.000
    O14      O        0.74020    0.79280    0.22480    1.000
    O15      O        0.54910    0.57780    0.42450    1.000
    O16      O        0.60030    0.51970    0.45010    1.000
    O17      O        0.95220    0.53770    0.44450    1.000
    O18      O        0.06000    0.58520    0.41570    1.000
    O19      O        0.15200    0.76270    0.24650    1.000
    O20      O        0.09390    0.81290    0.22340    1.000
    O21      O        0.70590    0.89780    0.09160    1.000
    O22      O        0.59480    0.84190    0.11600    1.000
    O23      O        0.72300    0.11570    0.89300    1.000
    O24      O        0.78420    0.06340    0.91310    1.000
    N4       N        0.82360    0.64340    0.34710    1.000
    N5       N        0.86440    0.68460    0.31740    1.000
    N6       N        0.50540    0.98150    0.02110    1.000
    Zn7      Zn       0.22301    0.81556    0.18072    1.000
    Zn8      Zn       0.14791    0.88863    0.15279    1.000
    Zn9      Zn       0.45620    0.92587    0.48560    1.000
    C49      C        0.30220    0.99860    0.29690    1.000
    C50      C        0.34230    0.98720    0.33240    1.000
    H19      H        0.34080    0.94530    0.33140    1.000
    C51      C        0.38890    0.03820    0.37580    1.000
    C52      C        0.38850    0.10080    0.37640    1.000
    H20      H        0.41710    0.13520    0.40530    1.000
    C53      C        0.34980    0.11080    0.33800    1.000
    C54      C        0.30170    0.06170    0.29270    1.000
    H21      H        0.27400    0.06960    0.26440    1.000
    C55      C        0.25260    0.94380    0.24460    1.000
    C56      C        0.27780    0.32430    0.29190    1.000
    C57      C        0.27910    0.26160    0.28780    1.000
    H22      H        0.25030    0.22670    0.25940    1.000
    C58      C        0.32470    0.25530    0.32790    1.000
    C59      C        0.36480    0.30000    0.36470    1.000
    H23      H        0.39280    0.29100    0.39140    1.000
    C60      C        0.37020    0.36590    0.36850    1.000
    C61      C        0.32810    0.37670    0.32810    1.000
    H24      H        0.33370    0.42030    0.32510    1.000
    C62      C        0.22820    0.32830    0.25140    1.000
    C63      C        0.42190    0.42040    0.40490    1.000
    C64      C        0.06530    0.69860    0.04490    1.000
    C65      C        0.06320    0.63940    0.04860    1.000
    H25      H        0.09180    0.63430    0.07800    1.000
    C66      C        0.01900    0.58420    0.00950    1.000
    C67      C        0.97030    0.58850    0.97230    1.000
    H26      H        0.93540    0.55000    0.95180    1.000
    C68      C        0.97430    0.64930    0.96650    1.000
    C69      C        0.02080    0.70600    0.00530    1.000
    H27      H        0.02090    0.74720    0.00360    1.000
    C70      C        0.93010    0.66780    0.91790    1.000
    C71      C        0.11120    0.76180    0.08980    1.000
    C72      C        0.43590    0.03270    0.41670    1.000
    O25      O        0.26510    0.89380    0.24260    1.000
    O26      O        0.20720    0.94740    0.22480    1.000
    O27      O        0.42220    0.97130    0.42450    1.000
    O28      O        0.48030    0.08060    0.45010    1.000
    O29      O        0.46230    0.41450    0.44450    1.000
    O30      O        0.41480    0.47480    0.41570    1.000
    O31      O        0.23730    0.38930    0.24650    1.000
    O32      O        0.18710    0.28100    0.22340    1.000
    O33      O        0.10220    0.80810    0.09160    1.000
    O34      O        0.15810    0.75290    0.11600    1.000
    O35      O        0.88430    0.60730    0.89300    1.000
    O36      O        0.93660    0.72080    0.91310    1.000
    N7       N        0.35660    0.18020    0.34710    1.000
    N8       N        0.31540    0.17980    0.31740    1.000
    N9       N        0.01850    0.52390    0.02110    1.000
    Zn10     Zn       0.81556    0.59255    0.81928    1.000
    Zn11     Zn       0.88863    0.74072    0.84721    1.000
    Zn12     Zn       0.92587    0.46967    0.51440    1.000
    C73      C        0.99860    0.69640    0.70310    1.000
    C74      C        0.98720    0.64490    0.66760    1.000
    H28      H        0.94530    0.60450    0.66860    1.000
    C75      C        0.03820    0.64930    0.62420    1.000
    C76      C        0.10080    0.71230    0.62360    1.000
    H29      H        0.13520    0.71810    0.59470    1.000
    C77      C        0.11080    0.76100    0.66200    1.000
    C78      C        0.06170    0.76000    0.70730    1.000
    H30      H        0.06960    0.79560    0.73560    1.000
    C79      C        0.94380    0.69120    0.75540    1.000
    C80      C        0.32430    0.04650    0.70810    1.000
    C81      C        0.26160    0.98250    0.71220    1.000
    H31      H        0.22670    0.97640    0.74060    1.000
    C82      C        0.25530    0.93060    0.67210    1.000
    C83      C        0.30000    0.93520    0.63530    1.000
    H32      H        0.29100    0.89820    0.60860    1.000
    C84      C        0.36590    0.99570    0.63150    1.000
    C85      C        0.37670    0.04860    0.67190    1.000
    H33      H        0.42030    0.08660    0.67490    1.000
    C86      C        0.32830    0.10010    0.74860    1.000
    C87      C        0.42040    0.99850    0.59510    1.000
    C88      C        0.69860    0.63330    0.95510    1.000
    C89      C        0.63940    0.57620    0.95140    1.000
    H34      H        0.63430    0.54250    0.92200    1.000
    C90      C        0.58420    0.56520    0.99050    1.000
    C91      C        0.58850    0.61820    0.02770    1.000
    H35      H        0.55000    0.61460    0.04820    1.000
    C92      C        0.64930    0.67500    0.03350    1.000
    C93      C        0.70600    0.68520    0.99470    1.000
    H36      H        0.74720    0.72630    0.99640    1.000
    C94      C        0.66780    0.73770    0.08210    1.000
    C95      C        0.76180    0.65060    0.91020    1.000
    C96      C        0.03270    0.59680    0.58330    1.000
    O37      O        0.89380    0.62870    0.75740    1.000
    O38      O        0.94740    0.74020    0.77520    1.000
    O39      O        0.97130    0.54910    0.57550    1.000
    O40      O        0.08060    0.60030    0.54990    1.000
    O41      O        0.41450    0.95220    0.55550    1.000
    O42      O        0.47480    0.06000    0.58430    1.000
    O43      O        0.38930    0.15200    0.75350    1.000
    O44      O        0.28100    0.09390    0.77660    1.000
    O45      O        0.80810    0.70590    0.90840    1.000
    O46      O        0.75290    0.59480    0.88400    1.000
    O47      O        0.60730    0.72300    0.10700    1.000
    O48      O        0.72080    0.78420    0.08690    1.000
    N10      N        0.18020    0.82360    0.65290    1.000
    N11      N        0.17980    0.86440    0.68260    1.000
    N12      N        0.52390    0.50540    0.97890    1.000
    Zn13     Zn       0.40745    0.22301    0.81928    1.000
    Zn14     Zn       0.25928    0.14791    0.84721    1.000
    Zn15     Zn       0.53033    0.45620    0.51440    1.000
    C97      C        0.30360    0.30220    0.70310    1.000
    C98      C        0.35510    0.34230    0.66760    1.000
    H37      H        0.39550    0.34080    0.66860    1.000
    C99      C        0.35070    0.38890    0.62420    1.000
    C100     C        0.28770    0.38850    0.62360    1.000
    H38      H        0.28190    0.41710    0.59470    1.000
    C101     C        0.23900    0.34980    0.66200    1.000
    C102     C        0.24000    0.30170    0.70730    1.000
    H39      H        0.20440    0.27400    0.73560    1.000
    C103     C        0.30880    0.25260    0.75540    1.000
    C104     C        0.95350    0.27780    0.70810    1.000
    C105     C        0.01750    0.27910    0.71220    1.000
    H40      H        0.02360    0.25030    0.74060    1.000
    C106     C        0.06940    0.32470    0.67210    1.000
    C107     C        0.06480    0.36480    0.63530    1.000
    H41      H        0.10180    0.39280    0.60860    1.000
    C108     C        0.00430    0.37020    0.63150    1.000
    C109     C        0.95140    0.32810    0.67190    1.000
    H42      H        0.91340    0.33370    0.67490    1.000
    C110     C        0.89990    0.22820    0.74860    1.000
    C111     C        0.00150    0.42190    0.59510    1.000
    C112     C        0.36670    0.06530    0.95510    1.000
    C113     C        0.42380    0.06320    0.95140    1.000
    H43      H        0.45750    0.09180    0.92200    1.000
    C114     C        0.43480    0.01900    0.99050    1.000
    C115     C        0.38180    0.97030    0.02770    1.000
    H44      H        0.38540    0.93540    0.04820    1.000
    C116     C        0.32500    0.97430    0.03350    1.000
    C117     C        0.31480    0.02080    0.99470    1.000
    H45      H        0.27370    0.02090    0.99640    1.000
    C118     C        0.26230    0.93010    0.08210    1.000
    C119     C        0.34940    0.11120    0.91020    1.000
    C120     C        0.40320    0.43590    0.58330    1.000
    O49      O        0.37130    0.26510    0.75740    1.000
    O50      O        0.25980    0.20720    0.77520    1.000
    O51      O        0.45090    0.42220    0.57550    1.000
    O52      O        0.39970    0.48030    0.54990    1.000
    O53      O        0.04780    0.46230    0.55550    1.000
    O54      O        0.94000    0.41480    0.58430    1.000
    O55      O        0.84800    0.23730    0.75350    1.000
    O56      O        0.90610    0.18710    0.77660    1.000
    O57      O        0.29410    0.10220    0.90840    1.000
    O58      O        0.40520    0.15810    0.88400    1.000
    O59      O        0.27700    0.88430    0.10700    1.000
    O60      O        0.21580    0.93660    0.08690    1.000
    N13      N        0.17640    0.35660    0.65290    1.000
    N14      N        0.13560    0.31540    0.68260    1.000
    N15      N        0.49460    0.01850    0.97890    1.000
    Zn16     Zn       0.77699    0.18444    0.81928    1.000
    Zn17     Zn       0.85209    0.11137    0.84721    1.000
    Zn18     Zn       0.54380    0.07413    0.51440    1.000
    C121     C        0.69780    0.00140    0.70310    1.000
    C122     C        0.65770    0.01280    0.66760    1.000
    H46      H        0.65920    0.05470    0.66860    1.000
    C123     C        0.61110    0.96180    0.62420    1.000
    C124     C        0.61150    0.89920    0.62360    1.000
    H47      H        0.58290    0.86480    0.59470    1.000
    C125     C        0.65020    0.88920    0.66200    1.000
    C126     C        0.69830    0.93830    0.70730    1.000
    H48      H        0.72600    0.93040    0.73560    1.000
    C127     C        0.74740    0.05620    0.75540    1.000
    C128     C        0.72220    0.67570    0.70810    1.000
    C129     C        0.72090    0.73840    0.71220    1.000
    H49      H        0.74970    0.77330    0.74060    1.000
    C130     C        0.67530    0.74470    0.67210    1.000
    C131     C        0.63520    0.70000    0.63530    1.000
    H50      H        0.60720    0.70900    0.60860    1.000
    C132     C        0.62980    0.63410    0.63150    1.000
    C133     C        0.67190    0.62330    0.67190    1.000
    H51      H        0.66630    0.57970    0.67490    1.000
    C134     C        0.77180    0.67170    0.74860    1.000
    C135     C        0.57810    0.57960    0.59510    1.000
    C136     C        0.93470    0.30140    0.95510    1.000
    C137     C        0.93680    0.36060    0.95140    1.000
    H52      H        0.90820    0.36570    0.92200    1.000
    C138     C        0.98100    0.41580    0.99050    1.000
    C139     C        0.02970    0.41150    0.02770    1.000
    H53      H        0.06460    0.45000    0.04820    1.000
    C140     C        0.02570    0.35070    0.03350    1.000
    C141     C        0.97920    0.29400    0.99470    1.000
    H54      H        0.97910    0.25280    0.99640    1.000
    C142     C        0.06990    0.33220    0.08210    1.000
    C143     C        0.88880    0.23820    0.91020    1.000
    C144     C        0.56410    0.96730    0.58330    1.000
    O61      O        0.73490    0.10620    0.75740    1.000
    O62      O        0.79280    0.05260    0.77520    1.000
    O63      O        0.57780    0.02870    0.57550    1.000
    O64      O        0.51970    0.91940    0.54990    1.000
    O65      O        0.53770    0.58550    0.55550    1.000
    O66      O        0.58520    0.52520    0.58430    1.000
    O67      O        0.76270    0.61070    0.75350    1.000
    O68      O        0.81290    0.71900    0.77660    1.000
    O69      O        0.89780    0.19190    0.90840    1.000
    O70      O        0.84190    0.24710    0.88400    1.000
    O71      O        0.11570    0.39270    0.10700    1.000
    O72      O        0.06340    0.27920    0.08690    1.000
    N16      N        0.64340    0.81980    0.65290    1.000
    N17      N        0.68460    0.82020    0.68260    1.000
    N18      N        0.98150    0.47610    0.97890    1.000
