data_functionalizedCrystal
_audit_creation_method	'EQeq! by Chris Wilmer'
_symmetry_space_group_name_H-M	'P1'
_symmetry_Int_Tables_number	1
_symmetry_cell_setting	triclinic
loop_
_symmetry_equiv_pos_as_xyz
  x,y,z
_cell_length_a	27.604
_cell_length_b	29.333
_cell_length_c	13.11
_cell_angle_alpha	90
_cell_angle_beta	90
_cell_angle_gamma	90
loop_
_atom_site_label
_atom_site_type_symbol
_atom_site_fract_x
_atom_site_fract_y
_atom_site_fract_z
_atom_site_charge
Mof_O 	O 	0.697	0.48468	0.188	-0.893
Mof_O 	O 	0.7646	0.443	0.5328	-0.24
Mof_O 	O 	0.7086	0.4124	0.6405	-0.763
Mof_O 	O 	0.6403	0.4446	0.1207	-0.526
Mof_C 	C 	0.6035	0.2876	0.4073	0.065
Mof_C 	C 	0.665	0.4255	0.2894	-0.321
Mof_C 	C 	0.655	0.3794	0.4746	0.051
Mof_H 	H 	0.6517	0.3629	0.5366	0.007
Mof_C 	C 	0.6258	0.3693	0.3924	-0.058
Mof_C 	C 	0.6526	0.2728	0.4024	-0.083
Mof_H 	H 	0.6803	0.2919	0.3996	0.045
Mof_C 	C 	0.5874	0.3315	0.4017	-0.118
Mof_C 	C 	0.6707	0.4514	0.1964	0.561
Mof_C 	C 	0.6325	0.3923	0.2989	0.098
Mof_H 	H 	0.6134	0.3839	0.2415	-0.02
Mof_C 	C 	0.72	0.4284	0.5555	0.513
Mof_C 	C 	0.5406	0.3462	0.3994	0.057
Mof_C 	C 	0.5245	0.3933	0.4027	-0.082
Mof_H 	H 	0.5447	0.4195	0.4046	0.036
Mof_C 	C 	0.6954	0.4366	0.3759	0.208
Mof_H 	H 	0.7192	0.4598	0.3691	-0.132
Mof_C 	C 	0.6904	0.4148	0.4661	-0.25
Mof_O 	O 	0.7479	0.4591	0.5423	-0.535
Mof_O 	O 	0.6559	0.4306	0.107	-0.042
Mof_O 	O 	0.197	0.98468	0.688	-0.84
Mof_O 	O 	0.2646	0.943	0.0328	-0.248
Mof_O 	O 	0.2086	0.9124	0.1405	-0.774
Mof_O 	O 	0.1403	0.9446	0.6207	-0.498
Mof_C 	C 	0.1035	0.7876	0.9073	0.067
Mof_C 	C 	0.165	0.9255	0.7894	-0.297
Mof_C 	C 	0.155	0.8794	0.9746	0.179
Mof_H 	H 	0.1517	0.8629	0.0366	-0.099
Mof_C 	C 	0.1258	0.8693	0.8924	-0.094
Mof_C 	C 	0.1526	0.7728	0.9024	-0.076
Mof_H 	H 	0.1803	0.7919	0.8996	0.053
Mof_C 	C 	0.0874	0.8315	0.9017	-0.099
Mof_C 	C 	0.1707	0.9514	0.6964	0.548
Mof_C 	C 	0.1325	0.8923	0.7989	0.109
Mof_H 	H 	0.1134	0.8839	0.7415	-0.017
Mof_C 	C 	0.22	0.9284	0.0555	0.417
Mof_C 	C 	0.0406	0.8462	0.8994	0.066
Mof_C 	C 	0.0245	0.8933	0.9027	-0.109
Mof_H 	H 	0.0447	0.9195	0.9046	0.062
Mof_C 	C 	0.1954	0.9366	0.8759	0.182
Mof_H 	H 	0.2192	0.9598	0.8691	-0.088
Mof_C 	C 	0.1904	0.9148	0.9661	-0.184
Mof_O 	O 	0.2479	0.9591	0.0423	-0.475
Mof_O 	O 	0.1559	0.9306	0.607	-0.035
Mof_O 	O 	0.303	0.01532	0.188	-0.934
Mof_O 	O 	0.2354	0.057	0.5328	-0.204
Mof_O 	O 	0.2914	0.0876	0.6405	-0.747
Mof_O 	O 	0.3597	0.0554	0.1207	-0.539
Mof_C 	C 	0.3965	0.2124	0.4073	0.064
Mof_C 	C 	0.335	0.0745	0.2894	-0.341
Mof_C 	C 	0.345	0.1206	0.4746	0.055
Mof_H 	H 	0.3483	0.1371	0.5366	0.004
Mof_C 	C 	0.3742	0.1307	0.3924	-0.065
Mof_C 	C 	0.3474	0.2272	0.4024	-0.082
Mof_H 	H 	0.3197	0.2081	0.3996	0.044
Mof_C 	C 	0.4126	0.1685	0.4017	-0.116
Mof_C 	C 	0.3293	0.0486	0.1964	0.579
Mof_C 	C 	0.3675	0.1077	0.2989	0.108
Mof_H 	H 	0.3866	0.1161	0.2415	-0.025
Mof_C 	C 	0.28	0.0716	0.5555	0.508
Mof_C 	C 	0.4594	0.1538	0.3994	0.055
Mof_C 	C 	0.4755	0.1067	0.4027	-0.084
Mof_H 	H 	0.4553	0.0805	0.4046	0.029
Mof_C 	C 	0.3046	0.0634	0.3759	0.218
Mof_H 	H 	0.2808	0.0402	0.3691	-0.149
Mof_C 	C 	0.3096	0.0852	0.4661	-0.261
Mof_O 	O 	0.2521	0.0409	0.5423	-0.558
Mof_O 	O 	0.3441	0.0694	0.107	-0.025
Mof_O 	O 	0.803	0.51532	0.688	-0.915
Mof_O 	O 	0.7354	0.557	0.0328	-0.261
Mof_O 	O 	0.7914	0.5876	0.1405	-0.76
Mof_O 	O 	0.8597	0.5554	0.6207	-0.56
Mof_C 	C 	0.8965	0.7124	0.9073	0.067
Mof_C 	C 	0.835	0.5745	0.7894	-0.327
Mof_C 	C 	0.845	0.6206	0.9746	0.192
Mof_H 	H 	0.8483	0.6371	0.0366	-0.103
Mof_C 	C 	0.8742	0.6307	0.8924	-0.108
Mof_C 	C 	0.8474	0.7272	0.9024	-0.073
Mof_H 	H 	0.8197	0.7081	0.8996	0.052
Mof_C 	C 	0.9126	0.6685	0.9017	-0.089
Mof_C 	C 	0.8293	0.5486	0.6964	0.576
Mof_C 	C 	0.8675	0.6077	0.7989	0.127
Mof_H 	H 	0.8866	0.6161	0.7415	-0.023
Mof_C 	C 	0.78	0.5716	0.0555	0.433
Mof_C 	C 	0.9594	0.6538	0.8994	0.062
Mof_C 	C 	0.9755	0.6067	0.9027	-0.04
Mof_H 	H 	0.9553	0.5805	0.9046	0.037
Mof_C 	C 	0.8046	0.5634	0.8759	0.205
Mof_H 	H 	0.7808	0.5402	0.8691	-0.115
Mof_C 	C 	0.8096	0.5852	0.9661	-0.21
Mof_O 	O 	0.7521	0.5409	0.0423	-0.5
Mof_O 	O 	0.8441	0.5694	0.607	-0.013
Mof_O 	O 	0.303	0.98468	0.812	-0.804
Mof_O 	O 	0.2354	0.943	0.4672	-0.238
Mof_O 	O 	0.2914	0.9124	0.3595	-0.781
Mof_O 	O 	0.3597	0.9446	0.8793	-0.466
Mof_C 	C 	0.3965	0.7876	0.5927	0.068
Mof_C 	C 	0.335	0.9255	0.7106	-0.28
Mof_C 	C 	0.345	0.8794	0.5254	0.038
Mof_H 	H 	0.3483	0.8629	0.4634	0.005
Mof_C 	C 	0.3742	0.8693	0.6076	-0.041
Mof_C 	C 	0.3474	0.7728	0.5976	-0.084
Mof_H 	H 	0.3197	0.7919	0.6004	0.045
Mof_C 	C 	0.4126	0.8315	0.5983	-0.122
Mof_C 	C 	0.3293	0.9514	0.8036	0.535
Mof_C 	C 	0.3675	0.8923	0.7011	0.078
Mof_H 	H 	0.3866	0.8839	0.7585	0.005
Mof_C 	C 	0.28	0.9284	0.4445	0.495
Mof_C 	C 	0.4594	0.8462	0.6006	0.063
Mof_C 	C 	0.4755	0.8933	0.5973	-0.079
Mof_H 	H 	0.4553	0.9195	0.5954	0.048
Mof_C 	C 	0.3046	0.9366	0.6241	0.186
Mof_H 	H 	0.2808	0.9598	0.6309	-0.106
Mof_C 	C 	0.3096	0.9148	0.5339	-0.226
Mof_O 	O 	0.2521	0.9591	0.4577	-0.496
Mof_O 	O 	0.3441	0.9306	0.893	-0.004
Mof_O 	O 	0.803	0.48468	0.312	-0.907
Mof_O 	O 	0.7354	0.443	0.9672	-0.162
Mof_O 	O 	0.7914	0.4124	0.8595	-0.766
Mof_O 	O 	0.8597	0.4446	0.3793	-0.571
Mof_C 	C 	0.8965	0.2876	0.0927	0.069
Mof_C 	C 	0.835	0.4255	0.2106	-0.306
Mof_C 	C 	0.845	0.3794	0.0254	-0.096
Mof_H 	H 	0.8483	0.3629	0.9634	0.109
Mof_C 	C 	0.8742	0.3693	0.1076	-0.003
Mof_C 	C 	0.8474	0.2728	0.0976	-0.092
Mof_H 	H 	0.8197	0.2919	0.1004	0.038
Mof_C 	C 	0.9126	0.3315	0.0983	-0.148
Mof_C 	C 	0.8293	0.4514	0.3036	0.56
Mof_C 	C 	0.8675	0.3923	0.2011	0.067
Mof_H 	H 	0.8866	0.3839	0.2585	-0.002
Mof_C 	C 	0.78	0.4284	0.9445	0.567
Mof_C 	C 	0.9594	0.3462	0.1006	0.068
Mof_C 	C 	0.9755	0.3933	0.0973	-0.057
Mof_H 	H 	0.9553	0.4195	0.0954	0.019
Mof_C 	C 	0.8046	0.4366	0.1241	0.203
Mof_H 	H 	0.7808	0.4598	0.1309	-0.139
Mof_C 	C 	0.8096	0.4148	0.0339	-0.279
Mof_O 	O 	0.7521	0.4591	0.9577	-0.554
Mof_O 	O 	0.8441	0.4306	0.393	0.003
Mof_O 	O 	0.697	0.51532	0.812	-0.879
Mof_O 	O 	0.7646	0.557	0.4672	-0.251
Mof_O 	O 	0.7086	0.5876	0.3595	-0.769
Mof_O 	O 	0.6403	0.5554	0.8793	-0.536
Mof_C 	C 	0.6035	0.7124	0.5927	0.065
Mof_C 	C 	0.665	0.5745	0.7106	-0.313
Mof_C 	C 	0.655	0.6206	0.5254	0.051
Mof_H 	H 	0.6517	0.6371	0.4634	-0.002
Mof_C 	C 	0.6258	0.6307	0.6076	-0.056
Mof_C 	C 	0.6526	0.7272	0.5976	-0.081
Mof_H 	H 	0.6803	0.7081	0.6004	0.044
Mof_C 	C 	0.5874	0.6685	0.5983	-0.118
Mof_C 	C 	0.6707	0.5486	0.8036	0.564
Mof_C 	C 	0.6325	0.6077	0.7011	0.097
Mof_H 	H 	0.6134	0.6161	0.7585	-0.005
Mof_C 	C 	0.72	0.5716	0.4445	0.513
Mof_C 	C 	0.5406	0.6538	0.6006	0.059
Mof_C 	C 	0.5245	0.6067	0.5973	-0.081
Mof_H 	H 	0.5447	0.5805	0.5954	0.038
Mof_C 	C 	0.6954	0.5634	0.6241	0.21
Mof_H 	H 	0.7192	0.5402	0.6309	-0.134
Mof_C 	C 	0.6904	0.5852	0.5339	-0.254
Mof_O 	O 	0.7479	0.5409	0.4577	-0.524
Mof_O 	O 	0.6559	0.5694	0.893	0.024
Mof_O 	O 	0.197	0.01532	0.312	-0.948
Mof_O 	O 	0.2646	0.057	0.9672	-0.125
Mof_O 	O 	0.2086	0.0876	0.8595	-0.751
Mof_O 	O 	0.1403	0.0554	0.3793	-0.591
Mof_C 	C 	0.1035	0.2124	0.0927	0.065
Mof_C 	C 	0.165	0.0745	0.2106	-0.329
Mof_C 	C 	0.155	0.1206	0.0254	-0.09
Mof_H 	H 	0.1517	0.1371	0.9634	0.104
Mof_C 	C 	0.1258	0.1307	0.1076	-0.011
Mof_C 	C 	0.1526	0.2272	0.0976	-0.092
Mof_H 	H 	0.1803	0.2081	0.1004	0.038
Mof_C 	C 	0.0874	0.1685	0.0983	-0.151
Mof_C 	C 	0.1707	0.0486	0.3036	0.578
Mof_C 	C 	0.1325	0.1077	0.2011	0.078
Mof_H 	H 	0.1134	0.1161	0.2585	-0.01
Mof_C 	C 	0.22	0.0716	0.9445	0.564
Mof_C 	C 	0.0406	0.1538	0.1006	0.066
Mof_C 	C 	0.0245	0.1067	0.0973	-0.129
Mof_H 	H 	0.0447	0.0805	0.0954	0.028
Mof_C 	C 	0.1954	0.0634	0.1241	0.214
Mof_H 	H 	0.2192	0.0402	0.1309	-0.157
Mof_C 	C 	0.1904	0.0852	0.0339	-0.29
Mof_O 	O 	0.2479	0.0409	0.9577	-0.58
Mof_O 	O 	0.1559	0.0694	0.393	0.024
Mof_O 	O 	0.303	0.51532	0.812	-0.878
Mof_O 	O 	0.2354	0.557	0.4672	-0.252
Mof_O 	O 	0.2914	0.5876	0.3595	-0.769
Mof_O 	O 	0.3597	0.5554	0.8793	-0.535
Mof_C 	C 	0.3965	0.7124	0.5927	0.065
Mof_C 	C 	0.335	0.5745	0.7106	-0.312
Mof_C 	C 	0.345	0.6206	0.5254	0.05
Mof_H 	H 	0.3483	0.6371	0.4634	-0.002
Mof_C 	C 	0.3742	0.6307	0.6076	-0.055
Mof_C 	C 	0.3474	0.7272	0.5976	-0.081
Mof_H 	H 	0.3197	0.7081	0.6004	0.044
Mof_C 	C 	0.4126	0.6685	0.5983	-0.118
Mof_C 	C 	0.3293	0.5486	0.8036	0.563
Mof_C 	C 	0.3675	0.6077	0.7011	0.096
Mof_H 	H 	0.3866	0.6161	0.7585	-0.005
Mof_C 	C 	0.28	0.5716	0.4445	0.511
Mof_C 	C 	0.4594	0.6538	0.6006	0.059
Mof_C 	C 	0.4755	0.6067	0.5973	-0.081
Mof_H 	H 	0.4553	0.5805	0.5954	0.038
Mof_C 	C 	0.3046	0.5634	0.6241	0.209
Mof_H 	H 	0.2808	0.5402	0.6309	-0.133
Mof_C 	C 	0.3096	0.5852	0.5339	-0.253
Mof_O 	O 	0.2521	0.5409	0.4577	-0.522
Mof_O 	O 	0.3441	0.5694	0.893	0.024
Mof_O 	O 	0.803	0.01532	0.312	-0.948
Mof_O 	O 	0.7354	0.057	0.9672	-0.125
Mof_O 	O 	0.7914	0.0876	0.8595	-0.749
Mof_O 	O 	0.8597	0.0554	0.3793	-0.582
Mof_C 	C 	0.8965	0.2124	0.0927	0.067
Mof_C 	C 	0.835	0.0745	0.2106	-0.326
Mof_C 	C 	0.845	0.1206	0.0254	-0.089
Mof_H 	H 	0.8483	0.1371	0.9634	0.106
Mof_C 	C 	0.8742	0.1307	0.1076	-0.01
Mof_C 	C 	0.8474	0.2272	0.0976	-0.091
Mof_H 	H 	0.8197	0.2081	0.1004	0.038
Mof_C 	C 	0.9126	0.1685	0.0983	-0.145
Mof_C 	C 	0.8293	0.0486	0.3036	0.578
Mof_C 	C 	0.8675	0.1077	0.2011	0.078
Mof_H 	H 	0.8866	0.1161	0.2585	-0.007
Mof_C 	C 	0.78	0.0716	0.9445	0.563
Mof_C 	C 	0.9594	0.1538	0.1006	0.066
Mof_C 	C 	0.9755	0.1067	0.0973	-0.059
Mof_H 	H 	0.9553	0.0805	0.0954	0.012
Mof_C 	C 	0.8046	0.0634	0.1241	0.214
Mof_H 	H 	0.7808	0.0402	0.1309	-0.157
Mof_C 	C 	0.8096	0.0852	0.0339	-0.289
Mof_O 	O 	0.7521	0.0409	0.9577	-0.579
Mof_O 	O 	0.8441	0.0694	0.393	0.019
Mof_O 	O 	0.697	0.98468	0.812	-0.804
Mof_O 	O 	0.7646	0.943	0.4672	-0.237
Mof_O 	O 	0.7086	0.9124	0.3595	-0.782
Mof_O 	O 	0.6403	0.9446	0.8793	-0.466
Mof_C 	C 	0.6035	0.7876	0.5927	0.068
Mof_C 	C 	0.665	0.9255	0.7106	-0.28
Mof_C 	C 	0.655	0.8794	0.5254	0.038
Mof_H 	H 	0.6517	0.8629	0.4634	0.005
Mof_C 	C 	0.6258	0.8693	0.6076	-0.041
Mof_C 	C 	0.6526	0.7728	0.5976	-0.083
Mof_H 	H 	0.6803	0.7919	0.6004	0.045
Mof_C 	C 	0.5874	0.8315	0.5983	-0.122
Mof_C 	C 	0.6707	0.9514	0.8036	0.535
Mof_C 	C 	0.6325	0.8923	0.7011	0.078
Mof_H 	H 	0.6134	0.8839	0.7585	0.005
Mof_C 	C 	0.72	0.9284	0.4445	0.496
Mof_C 	C 	0.5406	0.8462	0.6006	0.063
Mof_C 	C 	0.5245	0.8933	0.5973	-0.079
Mof_H 	H 	0.5447	0.9195	0.5954	0.047
Mof_C 	C 	0.6954	0.9366	0.6241	0.187
Mof_H 	H 	0.7192	0.9598	0.6309	-0.107
Mof_C 	C 	0.6904	0.9148	0.5339	-0.227
Mof_O 	O 	0.7479	0.9591	0.4577	-0.498
Mof_O 	O 	0.6559	0.9306	0.893	-0.004
Mof_O 	O 	0.197	0.48468	0.312	-0.907
Mof_O 	O 	0.2646	0.443	0.9672	-0.161
Mof_O 	O 	0.2086	0.4124	0.8595	-0.768
Mof_O 	O 	0.1403	0.4446	0.3793	-0.58
Mof_C 	C 	0.1035	0.2876	0.0927	0.067
Mof_C 	C 	0.165	0.4255	0.2106	-0.308
Mof_C 	C 	0.155	0.3794	0.0254	-0.096
Mof_H 	H 	0.1517	0.3629	0.9634	0.107
Mof_C 	C 	0.1258	0.3693	0.1076	-0.003
Mof_C 	C 	0.1526	0.2728	0.0976	-0.093
Mof_H 	H 	0.1803	0.2919	0.1004	0.038
Mof_C 	C 	0.0874	0.3315	0.0983	-0.153
Mof_C 	C 	0.1707	0.4514	0.3036	0.56
Mof_C 	C 	0.1325	0.3923	0.2011	0.067
Mof_H 	H 	0.1134	0.3839	0.2585	-0.005
Mof_C 	C 	0.22	0.4284	0.9445	0.568
Mof_C 	C 	0.0406	0.3462	0.1006	0.068
Mof_C 	C 	0.0245	0.3933	0.0973	-0.129
Mof_H 	H 	0.0447	0.4195	0.0954	0.035
Mof_C 	C 	0.1954	0.4366	0.1241	0.204
Mof_H 	H 	0.2192	0.4598	0.1309	-0.14
Mof_C 	C 	0.1904	0.4148	0.0339	-0.28
Mof_O 	O 	0.2479	0.4591	0.9577	-0.555
Mof_O 	O 	0.1559	0.4306	0.393	0.008
Mof_O 	O 	0.697	0.01532	0.188	-0.935
Mof_O 	O 	0.7646	0.057	0.5328	-0.203
Mof_O 	O 	0.7086	0.0876	0.6405	-0.747
Mof_O 	O 	0.6403	0.0554	0.1207	-0.539
Mof_C 	C 	0.6035	0.2124	0.4073	0.064
Mof_C 	C 	0.665	0.0745	0.2894	-0.341
Mof_C 	C 	0.655	0.1206	0.4746	0.055
Mof_H 	H 	0.6517	0.1371	0.5366	0.004
Mof_C 	C 	0.6258	0.1307	0.3924	-0.065
Mof_C 	C 	0.6526	0.2272	0.4024	-0.082
Mof_H 	H 	0.6803	0.2081	0.3996	0.045
Mof_C 	C 	0.5874	0.1685	0.4017	-0.116
Mof_C 	C 	0.6707	0.0486	0.1964	0.579
Mof_C 	C 	0.6325	0.1077	0.2989	0.109
Mof_H 	H 	0.6134	0.1161	0.2415	-0.025
Mof_C 	C 	0.72	0.0716	0.5555	0.509
Mof_C 	C 	0.5406	0.1538	0.3994	0.055
Mof_C 	C 	0.5245	0.1067	0.4027	-0.084
Mof_H 	H 	0.5447	0.0805	0.4046	0.029
Mof_C 	C 	0.6954	0.0634	0.3759	0.219
Mof_H 	H 	0.7192	0.0402	0.3691	-0.15
Mof_C 	C 	0.6904	0.0852	0.4661	-0.261
Mof_O 	O 	0.7479	0.0409	0.5423	-0.561
Mof_O 	O 	0.6559	0.0694	0.107	-0.025
Mof_O 	O 	0.197	0.51532	0.688	-0.915
Mof_O 	O 	0.2646	0.557	0.0328	-0.261
Mof_O 	O 	0.2086	0.5876	0.1405	-0.762
Mof_O 	O 	0.1403	0.5554	0.6207	-0.57
Mof_C 	C 	0.1035	0.7124	0.9073	0.065
Mof_C 	C 	0.165	0.5745	0.7894	-0.33
Mof_C 	C 	0.155	0.6206	0.9746	0.192
Mof_H 	H 	0.1517	0.6371	0.0366	-0.105
Mof_C 	C 	0.1258	0.6307	0.8924	-0.109
Mof_C 	C 	0.1526	0.7272	0.9024	-0.074
Mof_H 	H 	0.1803	0.7081	0.8996	0.052
Mof_C 	C 	0.0874	0.6685	0.9017	-0.095
Mof_C 	C 	0.1707	0.5486	0.6964	0.576
Mof_C 	C 	0.1325	0.6077	0.7989	0.127
Mof_H 	H 	0.1134	0.6161	0.7415	-0.026
Mof_C 	C 	0.22	0.5716	0.0555	0.433
Mof_C 	C 	0.0406	0.6538	0.8994	0.062
Mof_C 	C 	0.0245	0.6067	0.9027	-0.111
Mof_H 	H 	0.0447	0.5805	0.9046	0.053
Mof_C 	C 	0.1954	0.5634	0.8759	0.205
Mof_H 	H 	0.2192	0.5402	0.8691	-0.115
Mof_C 	C 	0.1904	0.5852	0.9661	-0.211
Mof_O 	O 	0.2479	0.5409	0.0423	-0.501
Mof_O 	O 	0.1559	0.5694	0.607	-0.007
Mof_O 	O 	0.303	0.48468	0.188	-0.893
Mof_O 	O 	0.2354	0.443	0.5328	-0.243
Mof_O 	O 	0.2914	0.4124	0.6405	-0.764
Mof_O 	O 	0.3597	0.4446	0.1207	-0.527
Mof_C 	C 	0.3965	0.2876	0.4073	0.065
Mof_C 	C 	0.335	0.4255	0.2894	-0.32
Mof_C 	C 	0.345	0.3794	0.4746	0.05
Mof_H 	H 	0.3483	0.3629	0.5366	0.007
Mof_C 	C 	0.3742	0.3693	0.3924	-0.058
Mof_C 	C 	0.3474	0.2728	0.4024	-0.083
Mof_H 	H 	0.3197	0.2919	0.3996	0.044
Mof_C 	C 	0.4126	0.3315	0.4017	-0.118
Mof_C 	C 	0.3293	0.4514	0.1964	0.561
Mof_C 	C 	0.3675	0.3923	0.2989	0.098
Mof_H 	H 	0.3866	0.3839	0.2415	-0.02
Mof_C 	C 	0.28	0.4284	0.5555	0.511
Mof_C 	C 	0.4594	0.3462	0.3994	0.057
Mof_C 	C 	0.4755	0.3933	0.4027	-0.082
Mof_H 	H 	0.4553	0.4195	0.4046	0.036
Mof_C 	C 	0.3046	0.4366	0.3759	0.208
Mof_H 	H 	0.2808	0.4598	0.3691	-0.132
Mof_C 	C 	0.3096	0.4148	0.4661	-0.25
Mof_O 	O 	0.2521	0.4591	0.5423	-0.532
Mof_O 	O 	0.3441	0.4306	0.107	-0.042
Mof_O 	O 	0.803	0.98468	0.688	-0.84
Mof_O 	O 	0.7354	0.943	0.0328	-0.249
Mof_O 	O 	0.7914	0.9124	0.1405	-0.773
Mof_O 	O 	0.8597	0.9446	0.6207	-0.489
Mof_C 	C 	0.8965	0.7876	0.9073	0.069
Mof_C 	C 	0.835	0.9255	0.7894	-0.295
Mof_C 	C 	0.845	0.8794	0.9746	0.18
Mof_H 	H 	0.8483	0.8629	0.0366	-0.097
Mof_C 	C 	0.8742	0.8693	0.8924	-0.094
Mof_C 	C 	0.8474	0.7728	0.9024	-0.075
Mof_H 	H 	0.8197	0.7919	0.8996	0.053
Mof_C 	C 	0.9126	0.8315	0.9017	-0.093
Mof_C 	C 	0.8293	0.9514	0.6964	0.547
Mof_C 	C 	0.8675	0.8923	0.7989	0.109
Mof_H 	H 	0.8866	0.8839	0.7415	-0.013
Mof_C 	C 	0.78	0.9284	0.0555	0.416
Mof_C 	C 	0.9594	0.8462	0.8994	0.066
Mof_C 	C 	0.9755	0.8933	0.9027	-0.038
Mof_H 	H 	0.9553	0.9195	0.9046	0.046
Mof_C 	C 	0.8046	0.9366	0.8759	0.182
Mof_H 	H 	0.7808	0.9598	0.8691	-0.088
Mof_C 	C 	0.8096	0.9148	0.9661	-0.183
Mof_O 	O 	0.7521	0.9591	0.0423	-0.474
Mof_O 	O 	0.8441	0.9306	0.607	-0.041
Mof_Pr	Pr	0.82272	0.5	0.5	1.912
Mof_Pr	Pr	0.32272	0	-0	1.517
Mof_Pr	Pr	0.17728	0	0.5	1.73
Mof_Pr	Pr	0.67728	0.5	-0	1.679
Mof_Pr	Pr	0.17728	0.5	0.5	1.9
Mof_Pr	Pr	0.67728	0	-0	1.517
Mof_Pr	Pr	0.82272	0	0.5	1.742
Mof_Pr	Pr	0.32272	0.5	-0	1.679
Mof_Zn	Zn	0.5	0.25	0.4369	0.784
Mof_Zn	Zn	0.5	0.25	0.3813	0.785
Mof_Zn	Zn	1.66834e-33	0.75	0.9369	0.784
Mof_Zn	Zn	-3.18674e-33	0.75	0.8813	0.783
Mof_Zn	Zn	0.5	0.75	0.5631	0.78
Mof_Zn	Zn	0.5	0.75	0.6187	0.79
Mof_Zn	Zn	7.06873e-34	0.25	0.0631	0.773
Mof_Zn	Zn	2.1137e-34	0.25	0.1187	0.785
Mof_Na	Na	0.75	0.45985	0.75	2.942
Mof_Na	Na	0.25	0.04015	0.75	2.77
Mof_Na	Na	0.25	0.95985	0.25	3.083
Mof_Na	Na	0.75	0.54015	0.25	2.87
Mof_Na	Na	0.25	0.54015	0.25	2.866
Mof_Na	Na	0.75	0.95985	0.25	3.086
Mof_Na	Na	0.75	0.04015	0.75	2.773
Mof_Na	Na	0.25	0.45985	0.75	2.939
Mof_N 	N 	0.5	0.3194	0.4024	-0.346
Mof_N 	N 	-3.14917e-33	0.8194	0.9024	-0.353
Mof_N 	N 	0.5	0.1806	0.4024	-0.346
Mof_N 	N 	6.36299e-33	0.6806	0.9024	-0.353
Mof_N 	N 	0.5	0.8194	0.5976	-0.346
Mof_N 	N 	7.68307e-34	0.3194	0.0976	-0.364
Mof_N 	N 	0.5	0.6806	0.5976	-0.345
Mof_N 	N 	7.68307e-34	0.1806	0.0976	-0.363
Mof_N 	N 	0.5749	0.25	0.4095	-0.342
Mof_N 	N 	0.0749	0.75	0.9095	-0.339
Mof_N 	N 	0.4251	0.25	0.4095	-0.342
Mof_N 	N 	0.9251	0.75	0.9095	-0.332
Mof_N 	N 	0.4251	0.75	0.5905	-0.342
Mof_N 	N 	0.9251	0.25	0.0905	-0.343
Mof_N 	N 	0.5749	0.75	0.5905	-0.342
Mof_N 	N 	0.0749	0.25	0.0905	-0.349
_end
