data_functionalizedCrystal
_audit_creation_method	'EQeq! by Chris Wilmer'
_symmetry_space_group_name_H-M	'P1'
_symmetry_Int_Tables_number	1
_symmetry_cell_setting	triclinic
loop_
_symmetry_equiv_pos_as_xyz
  x,y,z
_cell_length_a	13.491
_cell_length_b	36.221
_cell_length_c	13.779
_cell_angle_alpha	90
_cell_angle_beta	100.794
_cell_angle_gamma	90
loop_
_atom_site_label
_atom_site_type_symbol
_atom_site_fract_x
_atom_site_fract_y
_atom_site_fract_z
_atom_site_charge
Mof_Cd	Cd	0.35079	0.1505	0.00519	0.436
Mof_Cd	Cd	0.20738	0.09158	0.79387	0.466
Mof_Cd	Cd	0.40075	0.05259	0.6168	0.439
Mof_Cd	Cd	0.98965	0.1476	0.63691	0.4
Mof_Cl	Cl	0.2383	0.0926	0.9849	-0.327
Mof_Cl	Cl	0.0113	0.0888	0.7595	-0.324
Mof_Cl	Cl	0.2621	0.1918	0.1161	-0.386
Mof_N 	N 	0.2538	0.085	0.5624	-0.123
Mof_N 	N 	0.2007	0.1015	0.6203	-0.057
Mof_N 	N 	0.1207	0.1182	0.5728	-0.051
Mof_N 	N 	0.1247	0.1146	0.4763	-0.118
Mof_C 	C 	0.2067	0.0926	0.4713	0.242
Mof_N 	N 	0.2361	0.0815	0.3851	-0.343
Mof_H 	H 	0.2897	0.0684	0.3877	0.196
Mof_H 	H 	0.2009	0.0877	0.3289	0.199
Mof_N 	N 	0.1137	0.1779	0.7447	-0.121
Mof_N 	N 	0.184	0.1562	0.8015	-0.059
Mof_N 	N 	0.2353	0.1772	0.8716	-0.055
Mof_N 	N 	0.1976	0.2108	0.8658	-0.126
Mof_C 	C 	0.1228	0.2112	0.7888	0.247
Mof_N 	N 	0.0654	0.2407	0.7529	-0.35
Mof_H 	H 	0.0762	0.2619	0.781	0.203
Mof_H 	H 	0.0181	0.2382	0.7019	0.202
Mof_N 	N 	0.4193	0.2386	0.995	-0.115
Mof_N 	N 	0.4533	0.2032	0.9951	-0.051
Mof_H 	H 	0.4442	0.3096	0.9965	0.224
Mof_N 	N 	0.5278	0.1287	0.8672	-0.137
Mof_N 	N 	0.4306	0.1233	0.8841	-0.061
Mof_N 	N 	0.3834	0.1043	0.8078	-0.062
Mof_N 	N 	0.4464	0.0962	0.7452	-0.131
Mof_C 	C 	0.5327	0.1124	0.7872	0.248
Mof_N 	N 	0.6169	0.1133	0.741	-0.339
Mof_H 	H 	0.6696	0.1257	0.7672	0.195
Mof_H 	H 	0.6158	0.1016	0.6865	0.185
Mof_N 	N 	0.235	0.0299	0.7758	-0.14
Mof_N 	N 	0.3062	0.0182	0.7239	-0.059
Mof_H 	H 	0.11	0.0205	0.8822	0.241
Mof_Cd	Cd	0.85079	0.6505	0.00519	0.428
Mof_Cd	Cd	0.70738	0.59158	0.79387	0.461
Mof_Cd	Cd	0.90075	0.55259	0.6168	0.42
Mof_Cd	Cd	0.48965	0.6476	0.63691	0.438
Mof_Cl	Cl	0.7383	0.5926	0.9849	-0.336
Mof_Cl	Cl	0.5113	0.5888	0.7595	-0.349
Mof_Cl	Cl	0.7621	0.6918	0.1161	-0.391
Mof_N 	N 	0.7538	0.585	0.5624	-0.124
Mof_N 	N 	0.7007	0.6015	0.6203	-0.059
Mof_N 	N 	0.6207	0.6182	0.5728	-0.058
Mof_N 	N 	0.6247	0.6146	0.4763	-0.121
Mof_C 	C 	0.7067	0.5926	0.4713	0.235
Mof_N 	N 	0.7361	0.5815	0.3851	-0.341
Mof_H 	H 	0.7897	0.5684	0.3877	0.189
Mof_H 	H 	0.7009	0.5877	0.3289	0.192
Mof_N 	N 	0.6137	0.6779	0.7447	-0.127
Mof_N 	N 	0.684	0.6562	0.8015	-0.061
Mof_N 	N 	0.7353	0.6772	0.8716	-0.056
Mof_N 	N 	0.6976	0.7108	0.8658	-0.126
Mof_C 	C 	0.6228	0.7112	0.7888	0.242
Mof_N 	N 	0.5654	0.7407	0.7529	-0.348
Mof_H 	H 	0.5762	0.7619	0.781	0.199
Mof_H 	H 	0.5181	0.7382	0.7019	0.194
Mof_N 	N 	0.9193	0.7386	0.995	-0.13
Mof_N 	N 	0.9533	0.7032	0.9951	-0.066
Mof_H 	H 	0.9442	0.8096	0.9965	0.198
Mof_N 	N 	0.0278	0.6287	0.8672	-0.129
Mof_N 	N 	0.9306	0.6233	0.8841	-0.074
Mof_N 	N 	0.8834	0.6043	0.8078	-0.065
Mof_N 	N 	0.9464	0.5962	0.7452	-0.15
Mof_C 	C 	0.0327	0.6124	0.7872	0.276
Mof_N 	N 	0.1169	0.6133	0.741	-0.344
Mof_H 	H 	0.1696	0.6257	0.7672	0.199
Mof_H 	H 	0.1158	0.6016	0.6865	0.191
Mof_N 	N 	0.735	0.5299	0.7758	-0.14
Mof_N 	N 	0.8062	0.5182	0.7239	-0.063
Mof_H 	H 	0.61	0.5205	0.8822	0.237
Mof_Cd	Cd	0.64921	0.1505	0.99481	0.48
Mof_Cd	Cd	0.79262	0.09158	0.20613	0.457
Mof_Cd	Cd	0.59925	0.05259	0.3832	0.436
Mof_Cd	Cd	0.01035	0.1476	0.36309	0.466
Mof_Cl	Cl	0.7617	0.0926	0.0151	-0.372
Mof_Cl	Cl	0.9887	0.0888	0.2405	-0.379
Mof_Cl	Cl	0.7379	0.1918	0.8839	-0.38
Mof_N 	N 	0.7462	0.085	0.4376	-0.123
Mof_N 	N 	0.7993	0.1015	0.3797	-0.059
Mof_N 	N 	0.8793	0.1182	0.4272	-0.065
Mof_N 	N 	0.8753	0.1146	0.5237	-0.125
Mof_C 	C 	0.7933	0.0926	0.5287	0.235
Mof_N 	N 	0.7639	0.0815	0.6149	-0.342
Mof_H 	H 	0.7103	0.0684	0.6123	0.193
Mof_H 	H 	0.7991	0.0877	0.6711	0.19
Mof_N 	N 	0.8863	0.1779	0.2553	-0.134
Mof_N 	N 	0.816	0.1562	0.1985	-0.064
Mof_N 	N 	0.7647	0.1772	0.1284	-0.065
Mof_N 	N 	0.8024	0.2108	0.1342	-0.132
Mof_C 	C 	0.8772	0.2112	0.2112	0.231
Mof_N 	N 	0.9346	0.2407	0.2471	-0.344
Mof_H 	H 	0.9238	0.2619	0.219	0.189
Mof_H 	H 	0.9819	0.2382	0.2981	0.18
Mof_N 	N 	0.5807	0.2386	0.005	-0.131
Mof_N 	N 	0.5467	0.2032	0.0049	-0.079
Mof_H 	H 	0.5558	0.3096	0.0035	0.202
Mof_N 	N 	0.4722	0.1287	0.1328	-0.14
Mof_N 	N 	0.5694	0.1233	0.1159	-0.071
Mof_N 	N 	0.6166	0.1043	0.1922	-0.064
Mof_N 	N 	0.5536	0.0962	0.2548	-0.132
Mof_C 	C 	0.4673	0.1124	0.2128	0.246
Mof_N 	N 	0.3831	0.1133	0.259	-0.34
Mof_H 	H 	0.3304	0.1257	0.2328	0.195
Mof_H 	H 	0.3842	0.1016	0.3135	0.185
Mof_N 	N 	0.765	0.0299	0.2242	-0.14
Mof_N 	N 	0.6938	0.0182	0.2761	-0.061
Mof_H 	H 	0.89	0.0205	0.1178	0.225
Mof_Cd	Cd	0.14921	0.6505	0.99481	0.485
Mof_Cd	Cd	0.29262	0.59158	0.20613	0.46
Mof_Cd	Cd	0.09925	0.55259	0.3832	0.444
Mof_Cd	Cd	0.51035	0.6476	0.36309	0.436
Mof_Cl	Cl	0.2617	0.5926	0.0151	-0.365
Mof_Cl	Cl	0.4887	0.5888	0.2405	-0.356
Mof_Cl	Cl	0.2379	0.6918	0.8839	-0.374
Mof_N 	N 	0.2462	0.585	0.4376	-0.123
Mof_N 	N 	0.2993	0.6015	0.3797	-0.058
Mof_N 	N 	0.3793	0.6182	0.4272	-0.057
Mof_N 	N 	0.3753	0.6146	0.5237	-0.121
Mof_C 	C 	0.2933	0.5926	0.5287	0.239
Mof_N 	N 	0.2639	0.5815	0.6149	-0.343
Mof_H 	H 	0.2103	0.5684	0.6123	0.196
Mof_H 	H 	0.2991	0.5877	0.6711	0.196
Mof_N 	N 	0.3863	0.6779	0.2553	-0.127
Mof_N 	N 	0.316	0.6562	0.1985	-0.062
Mof_N 	N 	0.2647	0.6772	0.1284	-0.064
Mof_N 	N 	0.3024	0.7108	0.1342	-0.131
Mof_C 	C 	0.3772	0.7112	0.2112	0.239
Mof_N 	N 	0.4346	0.7407	0.2471	-0.347
Mof_H 	H 	0.4238	0.7619	0.219	0.195
Mof_H 	H 	0.4819	0.7382	0.2981	0.193
Mof_N 	N 	0.0807	0.7386	0.005	-0.132
Mof_N 	N 	0.0467	0.7032	0.0049	-0.064
Mof_H 	H 	0.0558	0.8096	0.0035	0.201
Mof_N 	N 	0.9722	0.6287	0.1328	-0.148
Mof_N 	N 	0.0694	0.6233	0.1159	-0.058
Mof_N 	N 	0.1166	0.6043	0.1922	-0.062
Mof_N 	N 	0.0536	0.5962	0.2548	-0.114
Mof_C 	C 	0.9673	0.6124	0.2128	0.215
Mof_N 	N 	0.8831	0.6133	0.259	-0.334
Mof_H 	H 	0.8304	0.6257	0.2328	0.191
Mof_H 	H 	0.8842	0.6016	0.3135	0.175
Mof_N 	N 	0.265	0.5299	0.2242	-0.139
Mof_N 	N 	0.1938	0.5182	0.2761	-0.062
Mof_H 	H 	0.39	0.5205	0.1178	0.231
Mof_Cd	Cd	0.64921	0.8495	0.99481	0.479
Mof_Cd	Cd	0.79262	0.90842	0.20613	0.456
Mof_Cd	Cd	0.59925	0.94741	0.3832	0.432
Mof_Cd	Cd	0.01035	0.8524	0.36309	0.466
Mof_Cl	Cl	0.7617	0.9074	0.0151	-0.374
Mof_Cl	Cl	0.9887	0.9112	0.2405	-0.381
Mof_Cl	Cl	0.7379	0.8082	0.8839	-0.38
Mof_N 	N 	0.7462	0.915	0.4376	-0.123
Mof_N 	N 	0.7993	0.8985	0.3797	-0.059
Mof_N 	N 	0.8793	0.8818	0.4272	-0.065
Mof_N 	N 	0.8753	0.8854	0.5237	-0.125
Mof_C 	C 	0.7933	0.9074	0.5287	0.234
Mof_N 	N 	0.7639	0.9185	0.6149	-0.341
Mof_H 	H 	0.7103	0.9316	0.6123	0.192
Mof_H 	H 	0.7991	0.9123	0.6711	0.189
Mof_N 	N 	0.8863	0.8221	0.2553	-0.134
Mof_N 	N 	0.816	0.8438	0.1985	-0.064
Mof_N 	N 	0.7647	0.8228	0.1284	-0.065
Mof_N 	N 	0.8024	0.7892	0.1342	-0.132
Mof_C 	C 	0.8772	0.7888	0.2112	0.231
Mof_N 	N 	0.9346	0.7593	0.2471	-0.344
Mof_H 	H 	0.9238	0.7381	0.219	0.189
Mof_H 	H 	0.9819	0.7618	0.2981	0.18
Mof_N 	N 	0.5807	0.7614	0.005	-0.131
Mof_N 	N 	0.5467	0.7968	0.0049	-0.079
Mof_H 	H 	0.5558	0.6904	0.0035	0.203
Mof_N 	N 	0.4722	0.8713	0.1328	-0.14
Mof_N 	N 	0.5694	0.8767	0.1159	-0.071
Mof_N 	N 	0.6166	0.8957	0.1922	-0.064
Mof_N 	N 	0.5536	0.9038	0.2548	-0.132
Mof_C 	C 	0.4673	0.8876	0.2128	0.245
Mof_N 	N 	0.3831	0.8867	0.259	-0.339
Mof_H 	H 	0.3304	0.8743	0.2328	0.195
Mof_H 	H 	0.3842	0.8984	0.3135	0.184
Mof_N 	N 	0.765	0.9701	0.2242	-0.143
Mof_N 	N 	0.6938	0.9818	0.2761	-0.067
Mof_H 	H 	0.89	0.9795	0.1178	0.22
Mof_Cd	Cd	0.14921	0.3495	0.99481	0.485
Mof_Cd	Cd	0.29262	0.40842	0.20613	0.46
Mof_Cd	Cd	0.09925	0.44741	0.3832	0.444
Mof_Cd	Cd	0.51035	0.3524	0.36309	0.436
Mof_Cl	Cl	0.2617	0.4074	0.0151	-0.365
Mof_Cl	Cl	0.4887	0.4112	0.2405	-0.356
Mof_Cl	Cl	0.2379	0.3082	0.8839	-0.375
Mof_N 	N 	0.2462	0.415	0.4376	-0.123
Mof_N 	N 	0.2993	0.3985	0.3797	-0.058
Mof_N 	N 	0.3793	0.3818	0.4272	-0.057
Mof_N 	N 	0.3753	0.3854	0.5237	-0.121
Mof_C 	C 	0.2933	0.4074	0.5287	0.239
Mof_N 	N 	0.2639	0.4185	0.6149	-0.343
Mof_H 	H 	0.2103	0.4316	0.6123	0.196
Mof_H 	H 	0.2991	0.4123	0.6711	0.196
Mof_N 	N 	0.3863	0.3221	0.2553	-0.127
Mof_N 	N 	0.316	0.3438	0.1985	-0.062
Mof_N 	N 	0.2647	0.3228	0.1284	-0.064
Mof_N 	N 	0.3024	0.2892	0.1342	-0.131
Mof_C 	C 	0.3772	0.2888	0.2112	0.239
Mof_N 	N 	0.4346	0.2593	0.2471	-0.347
Mof_H 	H 	0.4238	0.2381	0.219	0.195
Mof_H 	H 	0.4819	0.2618	0.2981	0.193
Mof_N 	N 	0.0807	0.2614	0.005	-0.132
Mof_N 	N 	0.0467	0.2968	0.0049	-0.064
Mof_H 	H 	0.0558	0.1904	0.0035	0.201
Mof_N 	N 	0.9722	0.3713	0.1328	-0.148
Mof_N 	N 	0.0694	0.3767	0.1159	-0.058
Mof_N 	N 	0.1166	0.3957	0.1922	-0.062
Mof_N 	N 	0.0536	0.4038	0.2548	-0.114
Mof_C 	C 	0.9673	0.3876	0.2128	0.215
Mof_N 	N 	0.8831	0.3867	0.259	-0.334
Mof_H 	H 	0.8304	0.3743	0.2328	0.191
Mof_H 	H 	0.8842	0.3984	0.3135	0.175
Mof_N 	N 	0.265	0.4701	0.2242	-0.139
Mof_N 	N 	0.1938	0.4818	0.2761	-0.062
Mof_H 	H 	0.39	0.4795	0.1178	0.231
Mof_Cd	Cd	0.35079	0.8495	0.00519	0.435
Mof_Cd	Cd	0.20738	0.90842	0.79387	0.464
Mof_Cd	Cd	0.40075	0.94741	0.6168	0.434
Mof_Cd	Cd	0.98965	0.8524	0.63691	0.399
Mof_Cl	Cl	0.2383	0.9074	0.9849	-0.33
Mof_Cl	Cl	0.0113	0.9112	0.7595	-0.326
Mof_Cl	Cl	0.2621	0.8082	0.1161	-0.385
Mof_N 	N 	0.2538	0.915	0.5624	-0.123
Mof_N 	N 	0.2007	0.8985	0.6203	-0.057
Mof_N 	N 	0.1207	0.8818	0.5728	-0.051
Mof_N 	N 	0.1247	0.8854	0.4763	-0.118
Mof_C 	C 	0.2067	0.9074	0.4713	0.241
Mof_N 	N 	0.2361	0.9185	0.3851	-0.343
Mof_H 	H 	0.2897	0.9316	0.3877	0.194
Mof_H 	H 	0.2009	0.9123	0.3289	0.198
Mof_N 	N 	0.1137	0.8221	0.7447	-0.121
Mof_N 	N 	0.184	0.8438	0.8015	-0.059
Mof_N 	N 	0.2353	0.8228	0.8716	-0.055
Mof_N 	N 	0.1976	0.7892	0.8658	-0.125
Mof_C 	C 	0.1228	0.7888	0.7888	0.247
Mof_N 	N 	0.0654	0.7593	0.7529	-0.35
Mof_H 	H 	0.0762	0.7381	0.781	0.203
Mof_H 	H 	0.0181	0.7618	0.7019	0.202
Mof_N 	N 	0.4193	0.7614	0.995	-0.115
Mof_N 	N 	0.4533	0.7968	0.9951	-0.051
Mof_H 	H 	0.4442	0.6904	0.9965	0.224
Mof_N 	N 	0.5278	0.8713	0.8672	-0.137
Mof_N 	N 	0.4306	0.8767	0.8841	-0.061
Mof_N 	N 	0.3834	0.8957	0.8078	-0.063
Mof_N 	N 	0.4464	0.9038	0.7452	-0.131
Mof_C 	C 	0.5327	0.8876	0.7872	0.248
Mof_N 	N 	0.6169	0.8867	0.741	-0.339
Mof_H 	H 	0.6696	0.8743	0.7672	0.195
Mof_H 	H 	0.6158	0.8984	0.6865	0.184
Mof_N 	N 	0.235	0.9701	0.7758	-0.143
Mof_N 	N 	0.3062	0.9818	0.7239	-0.065
Mof_H 	H 	0.11	0.9795	0.8822	0.236
Mof_Cd	Cd	0.85079	0.3495	0.00519	0.428
Mof_Cd	Cd	0.70738	0.40842	0.79387	0.461
Mof_Cd	Cd	0.90075	0.44741	0.6168	0.42
Mof_Cd	Cd	0.48965	0.3524	0.63691	0.438
Mof_Cl	Cl	0.7383	0.4074	0.9849	-0.336
Mof_Cl	Cl	0.5113	0.4112	0.7595	-0.349
Mof_Cl	Cl	0.7621	0.3082	0.1161	-0.391
Mof_N 	N 	0.7538	0.415	0.5624	-0.124
Mof_N 	N 	0.7007	0.3985	0.6203	-0.059
Mof_N 	N 	0.6207	0.3818	0.5728	-0.058
Mof_N 	N 	0.6247	0.3854	0.4763	-0.121
Mof_C 	C 	0.7067	0.4074	0.4713	0.235
Mof_N 	N 	0.7361	0.4185	0.3851	-0.341
Mof_H 	H 	0.7897	0.4316	0.3877	0.189
Mof_H 	H 	0.7009	0.4123	0.3289	0.192
Mof_N 	N 	0.6137	0.3221	0.7447	-0.127
Mof_N 	N 	0.684	0.3438	0.8015	-0.061
Mof_N 	N 	0.7353	0.3228	0.8716	-0.056
Mof_N 	N 	0.6976	0.2892	0.8658	-0.126
Mof_C 	C 	0.6228	0.2888	0.7888	0.242
Mof_N 	N 	0.5654	0.2593	0.7529	-0.348
Mof_H 	H 	0.5762	0.2381	0.781	0.199
Mof_H 	H 	0.5181	0.2618	0.7019	0.194
Mof_N 	N 	0.9193	0.2614	0.995	-0.13
Mof_N 	N 	0.9533	0.2968	0.9951	-0.066
Mof_H 	H 	0.9442	0.1904	0.9965	0.198
Mof_N 	N 	0.0278	0.3713	0.8672	-0.129
Mof_N 	N 	0.9306	0.3767	0.8841	-0.074
Mof_N 	N 	0.8834	0.3957	0.8078	-0.065
Mof_N 	N 	0.9464	0.4038	0.7452	-0.15
Mof_C 	C 	0.0327	0.3876	0.7872	0.276
Mof_N 	N 	0.1169	0.3867	0.741	-0.344
Mof_H 	H 	0.1696	0.3743	0.7672	0.198
Mof_H 	H 	0.1158	0.3984	0.6865	0.191
Mof_N 	N 	0.735	0.4701	0.7758	-0.14
Mof_N 	N 	0.8062	0.4818	0.7239	-0.063
Mof_H 	H 	0.61	0.4795	0.8822	0.237
Mof_Cd	Cd	0.25	0.25	-0	0.433
Mof_Cd	Cd	0.75	0.25	-0	0.43
Mof_Cd	Cd	0.75	0.75	-0	0.43
Mof_Cd	Cd	0.25	0.75	-0	0.433
Mof_Cl	Cl	0.5	0.08863	0.5	-0.39
Mof_Cl	Cl	2.27331e-33	0.58863	0.5	-0.365
Mof_Cl	Cl	0.5	0.91137	0.5	-0.391
Mof_Cl	Cl	2.27331e-33	0.41137	0.5	-0.365
Mof_Cl	Cl	0.3411	0	0.4915	-0.368
Mof_C 	C 	0.195	0	0.804	0.297
Mof_N 	N 	0.127	-3.81664e-33	0.862	-0.397
Mof_Cl	Cl	0.8411	0.5	0.4915	-0.385
Mof_C 	C 	0.695	0.5	0.804	0.288
Mof_N 	N 	0.627	0.5	0.862	-0.4
Mof_Cl	Cl	0.6589	1.90832e-33	0.5085	-0.373
Mof_C 	C 	0.805	0	0.196	0.287
Mof_N 	N 	0.873	4.7708e-34	0.138	-0.39
Mof_Cl	Cl	0.1589	0.5	0.5085	-0.369
Mof_C 	C 	0.305	0.5	0.196	0.286
Mof_N 	N 	0.373	0.5	0.138	-0.397
Mof_Cl	Cl	2.27331e-33	0.19798	0.5	-0.344
Mof_Cl	Cl	0.5	0.69798	0.5	-0.368
Mof_Cl	Cl	2.27331e-33	0.80202	0.5	-0.344
Mof_Cl	Cl	0.5	0.30202	0.5	-0.368
Mof_C 	C 	0.5	0.2607	-0	0.22
Mof_N 	N 	0.5	0.2978	-0	-0.373
Mof_C 	C 	1.52666e-32	0.7607	-0	0.245
Mof_N 	N 	-0	0.7978	-0	-0.349
Mof_C 	C 	0.5	0.7393	-0	0.22
Mof_N 	N 	0.5	0.7022	-0	-0.373
Mof_C 	C 	-0	0.2393	-0	0.245
Mof_N 	N 	-3.81664e-33	0.2022	-0	-0.349
_end
