data_functionalizedCrystal
_audit_creation_method	'EQeq! by Chris Wilmer'
_symmetry_space_group_name_H-M	'P1'
_symmetry_Int_Tables_number	1
_symmetry_cell_setting	triclinic
loop_
_symmetry_equiv_pos_as_xyz
  x,y,z
_cell_length_a	10.5255
_cell_length_b	11.3271
_cell_length_c	14.3881
_cell_angle_alpha	111.366
_cell_angle_beta	107.857
_cell_angle_gamma	91.374
loop_
_atom_site_label
_atom_site_type_symbol
_atom_site_fract_x
_atom_site_fract_y
_atom_site_fract_z
_atom_site_charge
Mof_Eu	Eu	0.78409	0.13255	0.89416	2.082
Mof_Eu	Eu	0.69361	0.98229	0.5812	2.447
Mof_Eu	Eu	0.21591	0.86745	0.10584	2.082
Mof_Eu	Eu	0.30639	0.01771	0.4188	2.447
Mof_H 	H 	0.8692	0.6069	0.9895	0.161
Mof_H 	H 	0.8426	0.4641	0.9398	0.182
Mof_H 	H 	0.254	0.851	0.513	0.119
Mof_H 	H 	0.1042	0.883	0.499	0.126
Mof_H 	H 	0.4213	0.4383	0.0889	0.156
Mof_H 	H 	0.4932	0.3596	0.0192	0.173
Mof_H 	H 	0.6312	0.3819	0.5833	0.033
Mof_H 	H 	0.8266	0.7342	0.8942	0.06
Mof_H 	H 	0.4511	0.1463	0.8544	-0.031
Mof_H 	H 	0.267	0.1829	0.9109	0.053
Mof_H 	H 	0.0233	0.9685	0.6146	0.054
Mof_H 	H 	0.9449	0.5305	0.2082	0.045
Mof_H 	H 	0.5344	0.6162	0.2457	0.09
Mof_H 	H 	0.1308	0.3931	0.0105	0.161
Mof_H 	H 	0.1574	0.5359	0.0602	0.182
Mof_H 	H 	0.746	0.149	0.487	0.119
Mof_H 	H 	0.8958	0.117	0.501	0.126
Mof_H 	H 	0.5787	0.5617	0.9111	0.156
Mof_H 	H 	0.5068	0.6404	0.9808	0.173
Mof_H 	H 	0.3688	0.6181	0.4167	0.033
Mof_H 	H 	0.1734	0.2658	0.1058	0.06
Mof_H 	H 	0.5489	0.8537	0.1456	-0.031
Mof_H 	H 	0.733	0.8171	0.0891	0.053
Mof_H 	H 	0.9767	0.0315	0.3854	0.054
Mof_H 	H 	0.0551	0.4695	0.7918	0.045
Mof_H 	H 	0.4656	0.3838	0.7543	0.09
Mof_C 	C 	0.7411	0.3001	0.7334	0.536
Mof_C 	C 	0.7345	0.4332	0.7384	-0.213
Mof_C 	C 	0.6724	0.4529	0.6461	0.028
Mof_C 	C 	0.6692	0.5742	0.6439	0.013
Mof_C 	C 	0.7314	0.6812	0.7391	-0.104
Mof_C 	C 	0.7876	0.6628	0.8313	-0.104
Mof_C 	C 	0.7887	0.5414	0.8346	0.179
Mof_C 	C 	0.7382	0.8142	0.7392	0.469
Mof_C 	C 	0.4717	0.0185	0.669	0.535
Mof_C 	C 	0.3508	0.035	0.7021	-0.26
Mof_C 	C 	0.3649	0.1098	0.806	0.096
Mof_C 	C 	0.2552	0.1324	0.8405	-0.104
Mof_C 	C 	0.1271	0.0772	0.767	-0.069
Mof_C 	C 	0.1101	0.003	0.6629	-0.113
Mof_C 	C 	0.2199	0.9787	0.6286	0.152
Mof_C 	C 	0.0047	0.0959	0.8001	0.432
Mof_C 	C 	0.7258	0.7708	0.4172	0.308
Mof_C 	C 	0.7342	0.6684	0.3184	-0.028
Mof_C 	C 	0.8604	0.6461	0.3087	-0.005
Mof_C 	C 	0.8622	0.547	0.2168	-0.005
Mof_C 	C 	0.7445	0.4721	0.1375	-0.146
Mof_C 	C 	0.6186	0.4978	0.1484	0.164
Mof_C 	C 	0.6171	0.5969	0.2385	-0.132
Mof_C 	C 	0.7565	0.3605	0.047	0.342
Mof_C 	C 	0.2589	0.6999	0.2666	0.536
Mof_C 	C 	0.2655	0.5668	0.2616	-0.213
Mof_C 	C 	0.3276	0.5471	0.3539	0.028
Mof_C 	C 	0.3308	0.4258	0.3561	0.013
Mof_C 	C 	0.2686	0.3188	0.2609	-0.104
Mof_C 	C 	0.2124	0.3372	0.1687	-0.104
Mof_C 	C 	0.2113	0.4586	0.1654	0.179
Mof_C 	C 	0.2618	0.1858	0.2608	0.469
Mof_C 	C 	0.5283	0.9815	0.331	0.535
Mof_C 	C 	0.6492	0.965	0.2979	-0.26
Mof_C 	C 	0.6351	0.8902	0.194	0.096
Mof_C 	C 	0.7448	0.8676	0.1595	-0.104
Mof_C 	C 	0.8729	0.9228	0.233	-0.069
Mof_C 	C 	0.8899	0.997	0.3371	-0.113
Mof_C 	C 	0.7801	0.0213	0.3714	0.152
Mof_C 	C 	0.9953	0.9041	0.1999	0.432
Mof_C 	C 	0.2742	0.2292	0.5828	0.308
Mof_C 	C 	0.2658	0.3316	0.6816	-0.028
Mof_C 	C 	0.1396	0.3539	0.6913	-0.005
Mof_C 	C 	0.1378	0.453	0.7832	-0.005
Mof_C 	C 	0.2555	0.5279	0.8625	-0.146
Mof_C 	C 	0.3814	0.5022	0.8516	0.164
Mof_C 	C 	0.3829	0.4031	0.7615	-0.132
Mof_C 	C 	0.2435	0.6395	0.953	0.342
Mof_N 	N 	0.84	0.5369	0.9338	-0.335
Mof_N 	N 	0.1946	0.9086	0.5185	-0.36
Mof_N 	N 	0.495	0.4221	0.0762	-0.324
Mof_N 	N 	0.16	0.4631	0.0662	-0.335
Mof_N 	N 	0.8054	0.0914	0.4815	-0.36
Mof_N 	N 	0.505	0.5779	0.9238	-0.324
Mof_O 	O 	0.7822	0.2849	0.8194	-0.559
Mof_O 	O 	0.7068	0.2101	0.6439	-0.575
Mof_O 	O 	0.692	0.8249	0.6518	-0.564
Mof_O 	O 	0.7935	0.9069	0.8284	-0.57
Mof_O 	O 	0.5882	0.0559	0.737	-0.676
Mof_O 	O 	0.4581	0.9673	0.5709	-0.7
Mof_O 	O 	0.8888	0.0564	0.7298	-0.658
Mof_O 	O 	0.0184	0.146	0.8974	-0.509
Mof_O 	O 	0.6097	0.7913	0.4217	-0.476
Mof_O 	O 	0.8304	0.8375	0.4921	-0.467
Mof_O 	O 	0.8724	0.3347	0.0463	-0.471
Mof_O 	O 	0.6526	0.2925	0.9735	-0.477
Mof_O 	O 	0.2178	0.7151	0.1806	-0.559
Mof_O 	O 	0.2932	0.7899	0.3561	-0.575
Mof_O 	O 	0.308	0.1751	0.3482	-0.564
Mof_O 	O 	0.2065	0.0931	0.1716	-0.57
Mof_O 	O 	0.4118	0.9441	0.263	-0.676
Mof_O 	O 	0.5419	0.0327	0.4291	-0.7
Mof_O 	O 	0.1112	0.9436	0.2702	-0.658
Mof_O 	O 	0.9816	0.854	0.1026	-0.509
Mof_O 	O 	0.3903	0.2087	0.5783	-0.476
Mof_O 	O 	0.1696	0.1625	0.5079	-0.467
Mof_O 	O 	0.1276	0.6653	0.9537	-0.471
Mof_O 	O 	0.3474	0.7075	0.0265	-0.477
_end
