data_functionalizedCrystal
_audit_creation_method	'EQeq! by Chris Wilmer'
_symmetry_space_group_name_H-M	'P1'
_symmetry_Int_Tables_number	1
_symmetry_cell_setting	triclinic
loop_
_symmetry_equiv_pos_as_xyz
  x,y,z
_cell_length_a	13.2019
_cell_length_b	13.2019
_cell_length_c	13.2019
_cell_angle_alpha	90
_cell_angle_beta	90
_cell_angle_gamma	90
loop_
_atom_site_label
_atom_site_type_symbol
_atom_site_fract_x
_atom_site_fract_y
_atom_site_fract_z
_atom_site_charge
Mof_N 	N 	0.63704	0.93598	0.95499	-0.007
Mof_N 	N 	0.71544	0.98025	0.96075	0.105
Mof_N 	N 	0.79256	0.02117	0.9645	-0.195
Mof_N 	N 	0.86296	0.06402	0.45499	-0.082
Mof_N 	N 	0.78456	0.01975	0.46075	-0.148
Mof_N 	N 	0.70744	0.97883	0.4645	-0.139
Mof_N 	N 	0.36296	0.43598	0.54501	-0.168
Mof_N 	N 	0.28456	0.48025	0.53925	-0.052
Mof_N 	N 	0.20744	0.52117	0.5355	-0.303
Mof_N 	N 	0.13704	0.56402	0.04501	-0.193
Mof_N 	N 	0.21544	0.51975	0.03925	-0.071
Mof_N 	N 	0.29256	0.47883	0.0355	-0.33
Mof_N 	N 	0.95499	0.63704	0.93598	-0.008
Mof_N 	N 	0.96075	0.71544	0.98025	0.104
Mof_N 	N 	0.9645	0.79256	0.02117	-0.196
Mof_N 	N 	0.45499	0.86296	0.06402	-0.083
Mof_N 	N 	0.46075	0.78456	0.01975	-0.149
Mof_N 	N 	0.4645	0.70744	0.97883	-0.139
Mof_N 	N 	0.54501	0.36296	0.43598	-0.168
Mof_N 	N 	0.53925	0.28456	0.48025	-0.052
Mof_N 	N 	0.5355	0.20744	0.52117	-0.303
Mof_N 	N 	0.04501	0.13704	0.56402	-0.193
Mof_N 	N 	0.03925	0.21544	0.51975	-0.071
Mof_N 	N 	0.0355	0.29256	0.47883	-0.33
Mof_N 	N 	0.93598	0.95499	0.63704	-0.008
Mof_N 	N 	0.98025	0.96075	0.71544	0.104
Mof_N 	N 	0.02117	0.9645	0.79256	-0.196
Mof_N 	N 	0.06402	0.45499	0.86296	-0.083
Mof_N 	N 	0.01975	0.46075	0.78456	-0.149
Mof_N 	N 	0.97883	0.4645	0.70744	-0.139
Mof_N 	N 	0.43598	0.54501	0.36296	-0.168
Mof_N 	N 	0.48025	0.53925	0.28456	-0.052
Mof_N 	N 	0.52117	0.5355	0.20744	-0.303
Mof_N 	N 	0.56402	0.04501	0.13704	-0.193
Mof_N 	N 	0.51975	0.03925	0.21544	-0.071
Mof_N 	N 	0.47883	0.0355	0.29256	-0.33
Mof_N 	N 	0.36296	0.06402	0.04501	-0.179
Mof_N 	N 	0.28456	0.01975	0.03925	-0.183
Mof_N 	N 	0.20744	0.97883	0.0355	-0.103
Mof_N 	N 	0.13704	0.93598	0.54501	-0.116
Mof_N 	N 	0.21544	0.98025	0.53925	0.073
Mof_N 	N 	0.29256	0.02117	0.5355	-0.403
Mof_N 	N 	0.63704	0.56402	0.45499	-0.154
Mof_N 	N 	0.71544	0.51975	0.46075	-0.043
Mof_N 	N 	0.79256	0.47883	0.4645	-0.25
Mof_N 	N 	0.86296	0.43598	0.95499	-0.003
Mof_N 	N 	0.78456	0.48025	0.96075	-0.01
Mof_N 	N 	0.70744	0.52117	0.9645	-0.212
Mof_N 	N 	0.04501	0.36296	0.06402	-0.179
Mof_N 	N 	0.03925	0.28456	0.01975	-0.183
Mof_N 	N 	0.0355	0.20744	0.97883	-0.103
Mof_N 	N 	0.54501	0.13704	0.93598	-0.116
Mof_N 	N 	0.53925	0.21544	0.98025	0.073
Mof_N 	N 	0.5355	0.29256	0.02117	-0.403
Mof_N 	N 	0.45499	0.63704	0.56402	-0.154
Mof_N 	N 	0.46075	0.71544	0.51975	-0.043
Mof_N 	N 	0.4645	0.79256	0.47883	-0.25
Mof_N 	N 	0.95499	0.86296	0.43598	-0.003
Mof_N 	N 	0.96075	0.78456	0.48025	-0.01
Mof_N 	N 	0.9645	0.70744	0.52117	-0.212
Mof_N 	N 	0.06402	0.04501	0.36296	-0.179
Mof_N 	N 	0.01975	0.03925	0.28456	-0.183
Mof_N 	N 	0.97883	0.0355	0.20744	-0.103
Mof_N 	N 	0.93598	0.54501	0.13704	-0.116
Mof_N 	N 	0.98025	0.53925	0.21544	0.073
Mof_N 	N 	0.02117	0.5355	0.29256	-0.403
Mof_N 	N 	0.56402	0.45499	0.63704	-0.154
Mof_N 	N 	0.51975	0.46075	0.71544	-0.043
Mof_N 	N 	0.47883	0.4645	0.79256	-0.25
Mof_N 	N 	0.43598	0.95499	0.86296	-0.003
Mof_N 	N 	0.48025	0.96075	0.78456	-0.01
Mof_N 	N 	0.52117	0.9645	0.70744	-0.212
Mof_Fe	Fe	0.5	0	-0	0.246
Mof_Fe	Fe	1.8747e-33	0	0.5	0.246
Mof_Fe	Fe	0.5	0.5	0.5	0.695
Mof_Fe	Fe	-0	0.5	-0	0.246
Mof_K 	K 	-0	0	-0	1.061
Mof_K 	K 	0.5	0	0.5	2.338
Mof_K 	K 	1.8747e-33	0.5	0.5	2.338
Mof_K 	K 	0.5	0.5	-0	2.338
_end
