# CIF file generated by openbabel 3.1.0, see https://openbabel.org
data_I
_chemical_name_common 'KETHEY_clean'
_cell_length_a 9.238
_cell_length_b 9.743
_cell_length_c 18.225
_cell_angle_alpha 90
_cell_angle_beta 90
_cell_angle_gamma 104.94
_space_group_name_H-M_alt 'P 1'
_space_group_name_Hall 'P 1'
loop_
    _symmetry_equiv_pos_as_xyz
    x,y,z
loop_
    _atom_site_label
    _atom_site_type_symbol
    _atom_site_fract_x
    _atom_site_fract_y
    _atom_site_fract_z
    _atom_site_occupancy
    Cd1      Cd       0.13315    0.43812    0.93392    1.000
    Cd2      Cd       0.86685    0.06188    0.43392    1.000
    Cd3      Cd       0.86685    0.56188    0.06608    1.000
    Cd4      Cd       0.13315    0.93812    0.56608    1.000
    H1       H        0.63280    0.85950    0.66670    1.000
    H2       H        0.97750    0.20220    0.68980    1.000
    H3       H        0.74900    0.02260    0.86710    1.000
    H4       H        0.21630    0.60700    0.78280    1.000
    H5       H        0.39590    0.78150    0.72590    1.000
    H6       H        0.66570    0.77650    0.89750    1.000
    H7       H        0.47550    0.60600    0.95110    1.000
    H8       H        0.36720    0.64050    0.16670    1.000
    H9       H        0.02250    0.29780    0.18980    1.000
    H10      H        0.25100    0.47740    0.36710    1.000
    H11      H        0.78370    0.89300    0.28280    1.000
    H12      H        0.60410    0.71850    0.22590    1.000
    H13      H        0.33430    0.72350    0.39750    1.000
    H14      H        0.52450    0.89400    0.45110    1.000
    H15      H        0.36720    0.14050    0.33330    1.000
    H16      H        0.02250    0.79780    0.31020    1.000
    H17      H        0.25100    0.97740    0.13290    1.000
    H18      H        0.78370    0.39300    0.21720    1.000
    H19      H        0.60410    0.21850    0.27410    1.000
    H20      H        0.33430    0.22350    0.10250    1.000
    H21      H        0.52450    0.39400    0.04890    1.000
    H22      H        0.63280    0.35950    0.83330    1.000
    H23      H        0.97750    0.70220    0.81020    1.000
    H24      H        0.74900    0.52260    0.63290    1.000
    H25      H        0.21630    0.10700    0.71720    1.000
    H26      H        0.39590    0.28150    0.77410    1.000
    H27      H        0.66570    0.27650    0.60250    1.000
    H28      H        0.47550    0.10600    0.54890    1.000
    C1       C        0.67200    0.91950    0.77270    1.000
    C2       C        0.69530    0.92600    0.69700    1.000
    C3       C        0.81030    0.03030    0.66660    1.000
    C4       C        0.90000    0.13270    0.71050    1.000
    C5       C        0.87540    0.13270    0.78560    1.000
    C6       C        0.76340    0.02480    0.81660    1.000
    C7       C        0.30710    0.64320    0.80660    1.000
    C8       C        0.41500    0.74810    0.77180    1.000
    C9       C        0.55290    0.80340    0.80630    1.000
    C10      C        0.57420    0.74570    0.87350    1.000
    C11      C        0.45940    0.64180    0.90530    1.000
    C12      C        0.83720    0.03150    0.58440    1.000
    C13      C        0.97190    0.24870    0.83420    1.000
    C14      C        0.32800    0.58050    0.27270    1.000
    C15      C        0.30470    0.57400    0.19700    1.000
    C16      C        0.18970    0.46970    0.16660    1.000
    C17      C        0.10000    0.36730    0.21050    1.000
    C18      C        0.12460    0.36730    0.28560    1.000
    C19      C        0.23660    0.47520    0.31660    1.000
    C20      C        0.69290    0.85680    0.30660    1.000
    C21      C        0.58500    0.75190    0.27180    1.000
    C22      C        0.44710    0.69660    0.30630    1.000
    C23      C        0.42580    0.75430    0.37350    1.000
    C24      C        0.54060    0.85820    0.40530    1.000
    C25      C        0.16280    0.46850    0.08440    1.000
    C26      C        0.02810    0.25130    0.33420    1.000
    C27      C        0.32800    0.08050    0.22730    1.000
    C28      C        0.30470    0.07400    0.30300    1.000
    C29      C        0.18970    0.96970    0.33340    1.000
    C30      C        0.10000    0.86730    0.28950    1.000
    C31      C        0.12460    0.86730    0.21440    1.000
    C32      C        0.23660    0.97520    0.18340    1.000
    C33      C        0.69290    0.35680    0.19340    1.000
    C34      C        0.58500    0.25190    0.22820    1.000
    C35      C        0.44710    0.19660    0.19370    1.000
    C36      C        0.42580    0.25430    0.12650    1.000
    C37      C        0.54060    0.35820    0.09470    1.000
    C38      C        0.16280    0.96850    0.41560    1.000
    C39      C        0.02810    0.75130    0.16580    1.000
    C40      C        0.67200    0.41950    0.72730    1.000
    C41      C        0.69530    0.42600    0.80300    1.000
    C42      C        0.81030    0.53030    0.83340    1.000
    C43      C        0.90000    0.63270    0.78950    1.000
    C44      C        0.87540    0.63270    0.71440    1.000
    C45      C        0.76340    0.52480    0.68340    1.000
    C46      C        0.30710    0.14320    0.69340    1.000
    C47      C        0.41500    0.24810    0.72820    1.000
    C48      C        0.55290    0.30340    0.69370    1.000
    C49      C        0.57420    0.24570    0.62650    1.000
    C50      C        0.45940    0.14180    0.59470    1.000
    C51      C        0.83720    0.53150    0.91560    1.000
    C52      C        0.97190    0.74870    0.66580    1.000
    N1       N        0.32660    0.59120    0.87270    1.000
    N2       N        0.67340    0.90880    0.37270    1.000
    N3       N        0.67340    0.40880    0.12730    1.000
    N4       N        0.32660    0.09120    0.62730    1.000
    O1       O        0.96810    0.09150    0.56146    1.000
    O2       O        0.73160    0.97600    0.54300    1.000
    O3       O        0.07730    0.33840    0.80580    1.000
    O4       O        0.93820    0.24890    0.90070    1.000
    O5       O        0.03190    0.40850    0.06146    1.000
    O6       O        0.26840    0.52400    0.04300    1.000
    O7       O        0.92270    0.16160    0.30580    1.000
    O8       O        0.06180    0.25110    0.40070    1.000
    O9       O        0.03190    0.90850    0.43854    1.000
    O10      O        0.26840    0.02400    0.45700    1.000
    O11      O        0.92270    0.66160    0.19420    1.000
    O12      O        0.06180    0.75110    0.09930    1.000
    O13      O        0.96810    0.59150    0.93854    1.000
    O14      O        0.73160    0.47600    0.95700    1.000
    O15      O        0.07730    0.83840    0.69420    1.000
    O16      O        0.93820    0.74890    0.59930    1.000
