# CIF file generated by openbabel 3.1.0, see https://openbabel.org
data_I
_chemical_name_common 'image0'
_cell_length_a 26.6152
_cell_length_b 11.7449
_cell_length_c 29.5923
_cell_angle_alpha 90
_cell_angle_beta 90
_cell_angle_gamma 90
_space_group_name_H-M_alt 'P 1'
_space_group_name_Hall 'P 1'
loop_
    _symmetry_equiv_pos_as_xyz
    x,y,z
loop_
    _atom_site_label
    _atom_site_type_symbol
    _atom_site_fract_x
    _atom_site_fract_y
    _atom_site_fract_z
    _atom_site_occupancy
    Cd1      Cd       0.72096    0.77963    0.48138    1.000
    Cd2      Cd       0.49425    0.26071    0.62239    1.000
    O1       O        0.72034    0.93840    0.53786    1.000
    O2       O        0.67532    0.78590    0.54939    1.000
    O3       O        0.56829    0.75710    0.69157    1.000
    O4       O        0.54093    0.91990    0.71614    1.000
    O5       O        0.57779    0.28700    0.62106    1.000
    O6       O        0.55644    0.25220    0.69203    1.000
    O7       O        0.64248    0.60750    0.69482    1.000
    H1       H        0.62410    0.66550    0.69630    1.000
    O8       O        0.57754    0.49320    0.68578    1.000
    O9       O        0.45892    0.59710    0.71614    1.000
    O10      O        0.42733    0.76210    0.69902    1.000
    O11      O        0.27549    0.75030    0.58740    1.000
    O12      O        0.25963    0.58150    0.56005    1.000
    O13      O        0.35581    0.91140    0.70914    1.000
    H2       H        0.37390    0.85280    0.70900    1.000
    O14      O        0.41843    0.02240    0.68600    1.000
    O15      O        0.40876    0.23480    0.62355    1.000
    O16      O        0.44088    0.26320    0.69120    1.000
    C1       C        0.69008    0.88310    0.56112    1.000
    C2       C        0.66812    0.93590    0.60357    1.000
    C3       C        0.63314    0.87590    0.62880    1.000
    H3       H        0.62410    0.80240    0.62040    1.000
    C4       C        0.61156    0.92600    0.66672    1.000
    C5       C        0.62555    0.03580    0.67925    1.000
    H4       H        0.61040    0.06980    0.70420    1.000
    C6       C        0.66180    0.09560    0.65502    1.000
    C7       C        0.68351    0.04400    0.61679    1.000
    H5       H        0.70810    0.08220    0.60040    1.000
    C8       C        0.57145    0.86430    0.69321    1.000
    C9       C        0.67793    0.21290    0.66833    1.000
    C10      C        0.64280    0.30210    0.67455    1.000
    C11      C        0.65938    0.41100    0.68593    1.000
    C12      C        0.71063    0.43140    0.69267    1.000
    H6       H        0.72140    0.50350    0.70130    1.000
    C13      C        0.74514    0.34560    0.68659    1.000
    H7       H        0.77920    0.35960    0.69090    1.000
    C14      C        0.72886    0.23850    0.67395    1.000
    H8       H        0.75250    0.18160    0.66900    1.000
    C15      C        0.58835    0.27940    0.66308    1.000
    C16      C        0.62220    0.50640    0.68888    1.000
    C17      C        0.42464    0.65300    0.69889    1.000
    C18      C        0.38050    0.59360    0.67765    1.000
    C19      C        0.35092    0.64870    0.64537    1.000
    H9       H        0.35750    0.72390    0.63760    1.000
    C20      C        0.31136    0.59030    0.62473    1.000
    C21      C        0.30113    0.47740    0.63726    1.000
    H10      H        0.27500    0.43850    0.62320    1.000
    C22      C        0.32973    0.42200    0.67060    1.000
    C23      C        0.36973    0.48220    0.68970    1.000
    H11      H        0.38980    0.44630    0.71120    1.000
    C24      C        0.28031    0.64530    0.58886    1.000
    C25      C        0.31676    0.30480    0.68559    1.000
    C26      C        0.35270    0.21580    0.68551    1.000
    C27      C        0.33866    0.10710    0.70024    1.000
    C28      C        0.29018    0.08810    0.71603    1.000
    H12      H        0.28150    0.01690    0.72740    1.000
    C29      C        0.25445    0.17450    0.71504    1.000
    H13      H        0.22180    0.16100    0.72490    1.000
    C30      C        0.26810    0.28080    0.69920    1.000
    H14      H        0.24390    0.33780    0.69760    1.000
    C31      C        0.37503    0.01090    0.69740    1.000
    C32      C        0.40462    0.23850    0.66619    1.000
    Cd3      Cd       0.77904    0.72037    0.98138    1.000
    Cd4      Cd       0.00575    0.23929    0.12239    1.000
    O17      O        0.77966    0.56160    0.03786    1.000
    O18      O        0.82468    0.71410    0.04939    1.000
    O19      O        0.93171    0.74290    0.19157    1.000
    O20      O        0.95907    0.58010    0.21614    1.000
    O21      O        0.92221    0.21300    0.12106    1.000
    O22      O        0.94356    0.24780    0.19203    1.000
    O23      O        0.85752    0.89250    0.19482    1.000
    H15      H        0.87590    0.83450    0.19630    1.000
    O24      O        0.92246    0.00680    0.18578    1.000
    O25      O        0.04108    0.90290    0.21614    1.000
    O26      O        0.07267    0.73790    0.19902    1.000
    O27      O        0.22451    0.74970    0.08740    1.000
    O28      O        0.24037    0.91850    0.06005    1.000
    O29      O        0.14419    0.58860    0.20914    1.000
    H16      H        0.12610    0.64720    0.20900    1.000
    O30      O        0.08157    0.47760    0.18600    1.000
    O31      O        0.09124    0.26520    0.12355    1.000
    O32      O        0.05912    0.23680    0.19120    1.000
    C33      C        0.80992    0.61690    0.06112    1.000
    C34      C        0.83188    0.56410    0.10357    1.000
    C35      C        0.86686    0.62410    0.12880    1.000
    H17      H        0.87590    0.69760    0.12040    1.000
    C36      C        0.88844    0.57400    0.16672    1.000
    C37      C        0.87445    0.46420    0.17925    1.000
    H18      H        0.88960    0.43020    0.20420    1.000
    C38      C        0.83820    0.40440    0.15502    1.000
    C39      C        0.81649    0.45600    0.11679    1.000
    H19      H        0.79190    0.41780    0.10040    1.000
    C40      C        0.92855    0.63570    0.19321    1.000
    C41      C        0.82207    0.28710    0.16833    1.000
    C42      C        0.85720    0.19790    0.17455    1.000
    C43      C        0.84062    0.08900    0.18593    1.000
    C44      C        0.78937    0.06860    0.19267    1.000
    H20      H        0.77860    0.99650    0.20130    1.000
    C45      C        0.75486    0.15440    0.18659    1.000
    H21      H        0.72080    0.14040    0.19090    1.000
    C46      C        0.77114    0.26150    0.17395    1.000
    H22      H        0.74750    0.31840    0.16900    1.000
    C47      C        0.91165    0.22060    0.16308    1.000
    C48      C        0.87780    0.99360    0.18888    1.000
    C49      C        0.07536    0.84700    0.19889    1.000
    C50      C        0.11950    0.90640    0.17765    1.000
    C51      C        0.14908    0.85130    0.14537    1.000
    H23      H        0.14250    0.77610    0.13760    1.000
    C52      C        0.18864    0.90970    0.12473    1.000
    C53      C        0.19887    0.02260    0.13726    1.000
    H24      H        0.22500    0.06150    0.12320    1.000
    C54      C        0.17027    0.07800    0.17060    1.000
    C55      C        0.13027    0.01780    0.18970    1.000
    H25      H        0.11020    0.05370    0.21120    1.000
    C56      C        0.21969    0.85470    0.08886    1.000
    C57      C        0.18324    0.19520    0.18559    1.000
    C58      C        0.14730    0.28420    0.18551    1.000
    C59      C        0.16134    0.39290    0.20024    1.000
    C60      C        0.20982    0.41190    0.21603    1.000
    H26      H        0.21850    0.48310    0.22740    1.000
    C61      C        0.24555    0.32550    0.21504    1.000
    H27      H        0.27820    0.33900    0.22490    1.000
    C62      C        0.23190    0.21920    0.19920    1.000
    H28      H        0.25610    0.16220    0.19760    1.000
    C63      C        0.12497    0.48910    0.19740    1.000
    C64      C        0.09538    0.26150    0.16619    1.000
    Cd5      Cd       0.27904    0.77963    0.01862    1.000
    Cd6      Cd       0.50575    0.26071    0.87761    1.000
    O33      O        0.27966    0.93840    0.96214    1.000
    O34      O        0.32468    0.78590    0.95061    1.000
    O35      O        0.43171    0.75710    0.80843    1.000
    O36      O        0.45907    0.91990    0.78386    1.000
    O37      O        0.42221    0.28700    0.87894    1.000
    O38      O        0.44356    0.25220    0.80797    1.000
    O39      O        0.35752    0.60750    0.80518    1.000
    H29      H        0.37590    0.66550    0.80370    1.000
    O40      O        0.42246    0.49320    0.81422    1.000
    O41      O        0.54108    0.59710    0.78386    1.000
    O42      O        0.57267    0.76210    0.80098    1.000
    O43      O        0.72451    0.75030    0.91260    1.000
    O44      O        0.74037    0.58150    0.93995    1.000
    O45      O        0.64419    0.91140    0.79086    1.000
    H30      H        0.62610    0.85280    0.79100    1.000
    O46      O        0.58157    0.02240    0.81400    1.000
    O47      O        0.59124    0.23480    0.87645    1.000
    O48      O        0.55912    0.26320    0.80880    1.000
    C65      C        0.30992    0.88310    0.93888    1.000
    C66      C        0.33188    0.93590    0.89643    1.000
    C67      C        0.36686    0.87590    0.87120    1.000
    H31      H        0.37590    0.80240    0.87960    1.000
    C68      C        0.38844    0.92600    0.83328    1.000
    C69      C        0.37445    0.03580    0.82075    1.000
    H32      H        0.38960    0.06980    0.79580    1.000
    C70      C        0.33820    0.09560    0.84498    1.000
    C71      C        0.31649    0.04400    0.88321    1.000
    H33      H        0.29190    0.08220    0.89960    1.000
    C72      C        0.42855    0.86430    0.80679    1.000
    C73      C        0.32207    0.21290    0.83167    1.000
    C74      C        0.35720    0.30210    0.82545    1.000
    C75      C        0.34062    0.41100    0.81407    1.000
    C76      C        0.28937    0.43140    0.80733    1.000
    H34      H        0.27860    0.50350    0.79870    1.000
    C77      C        0.25486    0.34560    0.81341    1.000
    H35      H        0.22080    0.35960    0.80910    1.000
    C78      C        0.27114    0.23850    0.82605    1.000
    H36      H        0.24750    0.18160    0.83100    1.000
    C79      C        0.41165    0.27940    0.83692    1.000
    C80      C        0.37780    0.50640    0.81112    1.000
    C81      C        0.57536    0.65300    0.80111    1.000
    C82      C        0.61950    0.59360    0.82235    1.000
    C83      C        0.64908    0.64870    0.85463    1.000
    H37      H        0.64250    0.72390    0.86240    1.000
    C84      C        0.68864    0.59030    0.87527    1.000
    C85      C        0.69887    0.47740    0.86274    1.000
    H38      H        0.72500    0.43850    0.87680    1.000
    C86      C        0.67027    0.42200    0.82940    1.000
    C87      C        0.63027    0.48220    0.81030    1.000
    H39      H        0.61020    0.44630    0.78880    1.000
    C88      C        0.71969    0.64530    0.91114    1.000
    C89      C        0.68324    0.30480    0.81441    1.000
    C90      C        0.64730    0.21580    0.81449    1.000
    C91      C        0.66134    0.10710    0.79976    1.000
    C92      C        0.70982    0.08810    0.78397    1.000
    H40      H        0.71850    0.01690    0.77260    1.000
    C93      C        0.74555    0.17450    0.78496    1.000
    H41      H        0.77820    0.16100    0.77510    1.000
    C94      C        0.73190    0.28080    0.80080    1.000
    H42      H        0.75610    0.33780    0.80240    1.000
    C95      C        0.62497    0.01090    0.80260    1.000
    C96      C        0.59538    0.23850    0.83381    1.000
    Cd7      Cd       0.22096    0.72037    0.51862    1.000
    Cd8      Cd       0.99425    0.23929    0.37761    1.000
    O49      O        0.22034    0.56160    0.46214    1.000
    O50      O        0.17532    0.71410    0.45061    1.000
    O51      O        0.06829    0.74290    0.30843    1.000
    O52      O        0.04093    0.58010    0.28386    1.000
    O53      O        0.07779    0.21300    0.37894    1.000
    O54      O        0.05644    0.24780    0.30797    1.000
    O55      O        0.14248    0.89250    0.30518    1.000
    H43      H        0.12410    0.83450    0.30370    1.000
    O56      O        0.07754    0.00680    0.31422    1.000
    O57      O        0.95892    0.90290    0.28386    1.000
    O58      O        0.92733    0.73790    0.30098    1.000
    O59      O        0.77549    0.74970    0.41260    1.000
    O60      O        0.75963    0.91850    0.43995    1.000
    O61      O        0.85581    0.58860    0.29086    1.000
    H44      H        0.87390    0.64720    0.29100    1.000
    O62      O        0.91843    0.47760    0.31400    1.000
    O63      O        0.90876    0.26520    0.37645    1.000
    O64      O        0.94088    0.23680    0.30880    1.000
    C97      C        0.19008    0.61690    0.43888    1.000
    C98      C        0.16812    0.56410    0.39643    1.000
    C99      C        0.13314    0.62410    0.37120    1.000
    H45      H        0.12410    0.69760    0.37960    1.000
    C100     C        0.11156    0.57400    0.33328    1.000
    C101     C        0.12555    0.46420    0.32075    1.000
    H46      H        0.11040    0.43020    0.29580    1.000
    C102     C        0.16180    0.40440    0.34498    1.000
    C103     C        0.18351    0.45600    0.38321    1.000
    H47      H        0.20810    0.41780    0.39960    1.000
    C104     C        0.07145    0.63570    0.30679    1.000
    C105     C        0.17793    0.28710    0.33167    1.000
    C106     C        0.14280    0.19790    0.32545    1.000
    C107     C        0.15938    0.08900    0.31407    1.000
    C108     C        0.21063    0.06860    0.30733    1.000
    H48      H        0.22140    0.99650    0.29870    1.000
    C109     C        0.24514    0.15440    0.31341    1.000
    H49      H        0.27920    0.14040    0.30910    1.000
    C110     C        0.22886    0.26150    0.32605    1.000
    H50      H        0.25250    0.31840    0.33100    1.000
    C111     C        0.08835    0.22060    0.33692    1.000
    C112     C        0.12220    0.99360    0.31112    1.000
    C113     C        0.92464    0.84700    0.30111    1.000
    C114     C        0.88050    0.90640    0.32235    1.000
    C115     C        0.85092    0.85130    0.35463    1.000
    H51      H        0.85750    0.77610    0.36240    1.000
    C116     C        0.81136    0.90970    0.37527    1.000
    C117     C        0.80113    0.02260    0.36274    1.000
    H52      H        0.77500    0.06150    0.37680    1.000
    C118     C        0.82973    0.07800    0.32940    1.000
    C119     C        0.86973    0.01780    0.31030    1.000
    H53      H        0.88980    0.05370    0.28880    1.000
    C120     C        0.78031    0.85470    0.41114    1.000
    C121     C        0.81676    0.19520    0.31441    1.000
    C122     C        0.85270    0.28420    0.31449    1.000
    C123     C        0.83866    0.39290    0.29976    1.000
    C124     C        0.79018    0.41190    0.28397    1.000
    H54      H        0.78150    0.48310    0.27260    1.000
    C125     C        0.75445    0.32550    0.28496    1.000
    H55      H        0.72180    0.33900    0.27510    1.000
    C126     C        0.76810    0.21920    0.30080    1.000
    H56      H        0.74390    0.16220    0.30240    1.000
    C127     C        0.87503    0.48910    0.30260    1.000
    C128     C        0.90462    0.26150    0.33381    1.000
    Cd9      Cd       0.50000    0.76026    0.75000    1.000
    K1       K        0.50000    0.10980    0.75000    1.000
    K2       K        0.50000    0.40606    0.75000    1.000
    Cd10     Cd       0.00000    0.73974    0.25000    1.000
    K3       K        0.00000    0.39020    0.25000    1.000
    K4       K        0.00000    0.09394    0.25000    1.000
    Cd11     Cd       0.27904    0.22037    0.51862    1.000
    Cd12     Cd       0.50575    0.73929    0.37761    1.000
    O65      O        0.27966    0.06160    0.46214    1.000
    O66      O        0.32468    0.21410    0.45061    1.000
    O67      O        0.43171    0.24290    0.30843    1.000
    O68      O        0.45907    0.08010    0.28386    1.000
    O69      O        0.42221    0.71300    0.37894    1.000
    O70      O        0.44356    0.74780    0.30797    1.000
    O71      O        0.35752    0.39250    0.30518    1.000
    H57      H        0.37590    0.33450    0.30370    1.000
    O72      O        0.42246    0.50680    0.31422    1.000
    O73      O        0.54108    0.40290    0.28386    1.000
    O74      O        0.57267    0.23790    0.30098    1.000
    O75      O        0.72451    0.24970    0.41260    1.000
    O76      O        0.74037    0.41850    0.43995    1.000
    O77      O        0.64419    0.08860    0.29086    1.000
    H58      H        0.62610    0.14720    0.29100    1.000
    O78      O        0.58157    0.97760    0.31400    1.000
    O79      O        0.59124    0.76520    0.37645    1.000
    O80      O        0.55912    0.73680    0.30880    1.000
    C129     C        0.30992    0.11690    0.43888    1.000
    C130     C        0.33188    0.06410    0.39643    1.000
    C131     C        0.36686    0.12410    0.37120    1.000
    H59      H        0.37590    0.19760    0.37960    1.000
    C132     C        0.38844    0.07400    0.33328    1.000
    C133     C        0.37445    0.96420    0.32075    1.000
    H60      H        0.38960    0.93020    0.29580    1.000
    C134     C        0.33820    0.90440    0.34498    1.000
    C135     C        0.31649    0.95600    0.38321    1.000
    H61      H        0.29190    0.91780    0.39960    1.000
    C136     C        0.42855    0.13570    0.30679    1.000
    C137     C        0.32207    0.78710    0.33167    1.000
    C138     C        0.35720    0.69790    0.32545    1.000
    C139     C        0.34062    0.58900    0.31407    1.000
    C140     C        0.28937    0.56860    0.30733    1.000
    H62      H        0.27860    0.49650    0.29870    1.000
    C141     C        0.25486    0.65440    0.31341    1.000
    H63      H        0.22080    0.64040    0.30910    1.000
    C142     C        0.27114    0.76150    0.32605    1.000
    H64      H        0.24750    0.81840    0.33100    1.000
    C143     C        0.41165    0.72060    0.33692    1.000
    C144     C        0.37780    0.49360    0.31112    1.000
    C145     C        0.57536    0.34700    0.30111    1.000
    C146     C        0.61950    0.40640    0.32235    1.000
    C147     C        0.64908    0.35130    0.35463    1.000
    H65      H        0.64250    0.27610    0.36240    1.000
    C148     C        0.68864    0.40970    0.37527    1.000
    C149     C        0.69887    0.52260    0.36274    1.000
    H66      H        0.72500    0.56150    0.37680    1.000
    C150     C        0.67027    0.57800    0.32940    1.000
    C151     C        0.63027    0.51780    0.31030    1.000
    H67      H        0.61020    0.55370    0.28880    1.000
    C152     C        0.71969    0.35470    0.41114    1.000
    C153     C        0.68324    0.69520    0.31441    1.000
    C154     C        0.64730    0.78420    0.31449    1.000
    C155     C        0.66134    0.89290    0.29976    1.000
    C156     C        0.70982    0.91190    0.28397    1.000
    H68      H        0.71850    0.98310    0.27260    1.000
    C157     C        0.74555    0.82550    0.28496    1.000
    H69      H        0.77820    0.83900    0.27510    1.000
    C158     C        0.73190    0.71920    0.30080    1.000
    H70      H        0.75610    0.66220    0.30240    1.000
    C159     C        0.62497    0.98910    0.30260    1.000
    C160     C        0.59538    0.76150    0.33381    1.000
    Cd13     Cd       0.22096    0.27963    0.01862    1.000
    Cd14     Cd       0.99425    0.76071    0.87761    1.000
    O81      O        0.22034    0.43840    0.96214    1.000
    O82      O        0.17532    0.28590    0.95061    1.000
    O83      O        0.06829    0.25710    0.80843    1.000
    O84      O        0.04093    0.41990    0.78386    1.000
    O85      O        0.07779    0.78700    0.87894    1.000
    O86      O        0.05644    0.75220    0.80797    1.000
    O87      O        0.14248    0.10750    0.80518    1.000
    H71      H        0.12410    0.16550    0.80370    1.000
    O88      O        0.07754    0.99320    0.81422    1.000
    O89      O        0.95892    0.09710    0.78386    1.000
    O90      O        0.92733    0.26210    0.80098    1.000
    O91      O        0.77549    0.25030    0.91260    1.000
    O92      O        0.75963    0.08150    0.93995    1.000
    O93      O        0.85581    0.41140    0.79086    1.000
    H72      H        0.87390    0.35280    0.79100    1.000
    O94      O        0.91843    0.52240    0.81400    1.000
    O95      O        0.90876    0.73480    0.87645    1.000
    O96      O        0.94088    0.76320    0.80880    1.000
    C161     C        0.19008    0.38310    0.93888    1.000
    C162     C        0.16812    0.43590    0.89643    1.000
    C163     C        0.13314    0.37590    0.87120    1.000
    H73      H        0.12410    0.30240    0.87960    1.000
    C164     C        0.11156    0.42600    0.83328    1.000
    C165     C        0.12555    0.53580    0.82075    1.000
    H74      H        0.11040    0.56980    0.79580    1.000
    C166     C        0.16180    0.59560    0.84498    1.000
    C167     C        0.18351    0.54400    0.88321    1.000
    H75      H        0.20810    0.58220    0.89960    1.000
    C168     C        0.07145    0.36430    0.80679    1.000
    C169     C        0.17793    0.71290    0.83167    1.000
    C170     C        0.14280    0.80210    0.82545    1.000
    C171     C        0.15938    0.91100    0.81407    1.000
    C172     C        0.21063    0.93140    0.80733    1.000
    H76      H        0.22140    0.00350    0.79870    1.000
    C173     C        0.24514    0.84560    0.81341    1.000
    H77      H        0.27920    0.85960    0.80910    1.000
    C174     C        0.22886    0.73850    0.82605    1.000
    H78      H        0.25250    0.68160    0.83100    1.000
    C175     C        0.08835    0.77940    0.83692    1.000
    C176     C        0.12220    0.00640    0.81112    1.000
    C177     C        0.92464    0.15300    0.80111    1.000
    C178     C        0.88050    0.09360    0.82235    1.000
    C179     C        0.85092    0.14870    0.85463    1.000
    H79      H        0.85750    0.22390    0.86240    1.000
    C180     C        0.81136    0.09030    0.87527    1.000
    C181     C        0.80113    0.97740    0.86274    1.000
    H80      H        0.77500    0.93850    0.87680    1.000
    C182     C        0.82973    0.92200    0.82940    1.000
    C183     C        0.86973    0.98220    0.81030    1.000
    H81      H        0.88980    0.94630    0.78880    1.000
    C184     C        0.78031    0.14530    0.91114    1.000
    C185     C        0.81676    0.80480    0.81441    1.000
    C186     C        0.85270    0.71580    0.81449    1.000
    C187     C        0.83866    0.60710    0.79976    1.000
    C188     C        0.79018    0.58810    0.78397    1.000
    H82      H        0.78150    0.51690    0.77260    1.000
    C189     C        0.75445    0.67450    0.78496    1.000
    H83      H        0.72180    0.66100    0.77510    1.000
    C190     C        0.76810    0.78080    0.80080    1.000
    H84      H        0.74390    0.83780    0.80240    1.000
    C191     C        0.87503    0.51090    0.80260    1.000
    C192     C        0.90462    0.73850    0.83381    1.000
    Cd15     Cd       0.72096    0.22037    0.98138    1.000
    Cd16     Cd       0.49425    0.73929    0.12239    1.000
    O97      O        0.72034    0.06160    0.03786    1.000
    O98      O        0.67532    0.21410    0.04939    1.000
    O99      O        0.56829    0.24290    0.19157    1.000
    O100     O        0.54093    0.08010    0.21614    1.000
    O101     O        0.57779    0.71300    0.12106    1.000
    O102     O        0.55644    0.74780    0.19203    1.000
    O103     O        0.64248    0.39250    0.19482    1.000
    H85      H        0.62410    0.33450    0.19630    1.000
    O104     O        0.57754    0.50680    0.18578    1.000
    O105     O        0.45892    0.40290    0.21614    1.000
    O106     O        0.42733    0.23790    0.19902    1.000
    O107     O        0.27549    0.24970    0.08740    1.000
    O108     O        0.25963    0.41850    0.06005    1.000
    O109     O        0.35581    0.08860    0.20914    1.000
    H86      H        0.37390    0.14720    0.20900    1.000
    O110     O        0.41843    0.97760    0.18600    1.000
    O111     O        0.40876    0.76520    0.12355    1.000
    O112     O        0.44088    0.73680    0.19120    1.000
    C193     C        0.69008    0.11690    0.06112    1.000
    C194     C        0.66812    0.06410    0.10357    1.000
    C195     C        0.63314    0.12410    0.12880    1.000
    H87      H        0.62410    0.19760    0.12040    1.000
    C196     C        0.61156    0.07400    0.16672    1.000
    C197     C        0.62555    0.96420    0.17925    1.000
    H88      H        0.61040    0.93020    0.20420    1.000
    C198     C        0.66180    0.90440    0.15502    1.000
    C199     C        0.68351    0.95600    0.11679    1.000
    H89      H        0.70810    0.91780    0.10040    1.000
    C200     C        0.57145    0.13570    0.19321    1.000
    C201     C        0.67793    0.78710    0.16833    1.000
    C202     C        0.64280    0.69790    0.17455    1.000
    C203     C        0.65938    0.58900    0.18593    1.000
    C204     C        0.71063    0.56860    0.19267    1.000
    H90      H        0.72140    0.49650    0.20130    1.000
    C205     C        0.74514    0.65440    0.18659    1.000
    H91      H        0.77920    0.64040    0.19090    1.000
    C206     C        0.72886    0.76150    0.17395    1.000
    H92      H        0.75250    0.81840    0.16900    1.000
    C207     C        0.58835    0.72060    0.16308    1.000
    C208     C        0.62220    0.49360    0.18888    1.000
    C209     C        0.42464    0.34700    0.19889    1.000
    C210     C        0.38050    0.40640    0.17765    1.000
    C211     C        0.35092    0.35130    0.14537    1.000
    H93      H        0.35750    0.27610    0.13760    1.000
    C212     C        0.31136    0.40970    0.12473    1.000
    C213     C        0.30113    0.52260    0.13726    1.000
    H94      H        0.27500    0.56150    0.12320    1.000
    C214     C        0.32973    0.57800    0.17060    1.000
    C215     C        0.36973    0.51780    0.18970    1.000
    H95      H        0.38980    0.55370    0.21120    1.000
    C216     C        0.28031    0.35470    0.08886    1.000
    C217     C        0.31676    0.69520    0.18559    1.000
    C218     C        0.35270    0.78420    0.18551    1.000
    C219     C        0.33866    0.89290    0.20024    1.000
    C220     C        0.29018    0.91190    0.21603    1.000
    H96      H        0.28150    0.98310    0.22740    1.000
    C221     C        0.25445    0.82550    0.21504    1.000
    H97      H        0.22180    0.83900    0.22490    1.000
    C222     C        0.26810    0.71920    0.19920    1.000
    H98      H        0.24390    0.66220    0.19760    1.000
    C223     C        0.37503    0.98910    0.19740    1.000
    C224     C        0.40462    0.76150    0.16619    1.000
    Cd17     Cd       0.77904    0.27963    0.48138    1.000
    Cd18     Cd       0.00575    0.76071    0.62239    1.000
    O113     O        0.77966    0.43840    0.53786    1.000
    O114     O        0.82468    0.28590    0.54939    1.000
    O115     O        0.93171    0.25710    0.69157    1.000
    O116     O        0.95907    0.41990    0.71614    1.000
    O117     O        0.92221    0.78700    0.62106    1.000
    O118     O        0.94356    0.75220    0.69203    1.000
    O119     O        0.85752    0.10750    0.69482    1.000
    H99      H        0.87590    0.16550    0.69630    1.000
    O120     O        0.92246    0.99320    0.68578    1.000
    O121     O        0.04108    0.09710    0.71614    1.000
    O122     O        0.07267    0.26210    0.69902    1.000
    O123     O        0.22451    0.25030    0.58740    1.000
    O124     O        0.24037    0.08150    0.56005    1.000
    O125     O        0.14419    0.41140    0.70914    1.000
    H100     H        0.12610    0.35280    0.70900    1.000
    O126     O        0.08157    0.52240    0.68600    1.000
    O127     O        0.09124    0.73480    0.62355    1.000
    O128     O        0.05912    0.76320    0.69120    1.000
    C225     C        0.80992    0.38310    0.56112    1.000
    C226     C        0.83188    0.43590    0.60357    1.000
    C227     C        0.86686    0.37590    0.62880    1.000
    H101     H        0.87590    0.30240    0.62040    1.000
    C228     C        0.88844    0.42600    0.66672    1.000
    C229     C        0.87445    0.53580    0.67925    1.000
    H102     H        0.88960    0.56980    0.70420    1.000
    C230     C        0.83820    0.59560    0.65502    1.000
    C231     C        0.81649    0.54400    0.61679    1.000
    H103     H        0.79190    0.58220    0.60040    1.000
    C232     C        0.92855    0.36430    0.69321    1.000
    C233     C        0.82207    0.71290    0.66833    1.000
    C234     C        0.85720    0.80210    0.67455    1.000
    C235     C        0.84062    0.91100    0.68593    1.000
    C236     C        0.78937    0.93140    0.69267    1.000
    H104     H        0.77860    0.00350    0.70130    1.000
    C237     C        0.75486    0.84560    0.68659    1.000
    H105     H        0.72080    0.85960    0.69090    1.000
    C238     C        0.77114    0.73850    0.67395    1.000
    H106     H        0.74750    0.68160    0.66900    1.000
    C239     C        0.91165    0.77940    0.66308    1.000
    C240     C        0.87780    0.00640    0.68888    1.000
    C241     C        0.07536    0.15300    0.69889    1.000
    C242     C        0.11950    0.09360    0.67765    1.000
    C243     C        0.14908    0.14870    0.64537    1.000
    H107     H        0.14250    0.22390    0.63760    1.000
    C244     C        0.18864    0.09030    0.62473    1.000
    C245     C        0.19887    0.97740    0.63726    1.000
    H108     H        0.22500    0.93850    0.62320    1.000
    C246     C        0.17027    0.92200    0.67060    1.000
    C247     C        0.13027    0.98220    0.68970    1.000
    H109     H        0.11020    0.94630    0.71120    1.000
    C248     C        0.21969    0.14530    0.58886    1.000
    C249     C        0.18324    0.80480    0.68559    1.000
    C250     C        0.14730    0.71580    0.68551    1.000
    C251     C        0.16134    0.60710    0.70024    1.000
    C252     C        0.20982    0.58810    0.71603    1.000
    H110     H        0.21850    0.51690    0.72740    1.000
    C253     C        0.24555    0.67450    0.71504    1.000
    H111     H        0.27820    0.66100    0.72490    1.000
    C254     C        0.23190    0.78080    0.69920    1.000
    H112     H        0.25610    0.83780    0.69760    1.000
    C255     C        0.12497    0.51090    0.69740    1.000
    C256     C        0.09538    0.73850    0.66619    1.000
    Cd19     Cd       0.50000    0.23974    0.25000    1.000
    K5       K        0.50000    0.89020    0.25000    1.000
    K6       K        0.50000    0.59394    0.25000    1.000
    Cd20     Cd       0.00000    0.26026    0.75000    1.000
    K7       K        0.00000    0.60980    0.75000    1.000
    K8       K        0.00000    0.90606    0.75000    1.000
