data_functionalizedCrystal
_audit_creation_method	'EQeq! by Chris Wilmer'
_symmetry_space_group_name_H-M	'P1'
_symmetry_Int_Tables_number	1
_symmetry_cell_setting	triclinic
loop_
_symmetry_equiv_pos_as_xyz
  x,y,z
_cell_length_a	14.0756
_cell_length_b	14.0756
_cell_length_c	14.0756
_cell_angle_alpha	108.347
_cell_angle_beta	108.347
_cell_angle_gamma	108.347
loop_
_atom_site_label
_atom_site_type_symbol
_atom_site_fract_x
_atom_site_fract_y
_atom_site_fract_z
_atom_site_charge
Mof_Zn	Zn	-0	0	-0	1.163
Mof_H 	H 	0.268	0.1064	0.2007	0.033
Mof_H 	H 	0.3267	0.0542	0.3499	0.044
Mof_H 	H 	0.9951	0.8864	0.1728	0.014
Mof_H 	H 	0.2013	0.9411	0.4336	0.081
Mof_H 	H 	0.0725	0.8644	0.3496	0.086
Mof_H 	H 	0.1666	0.7529	0.3619	0.008
Mof_H 	H 	0.2437	0.8145	0.318	0.017
Mof_H 	H 	0.2162	0.6281	0.2682	0.133
Mof_H 	H 	0.2109	0.4625	0.1595	-0.013
Mof_H 	H 	0.9213	0.6487	0.0247	0.023
Mof_H 	H 	0.2007	0.268	0.1064	0.034
Mof_H 	H 	0.3499	0.3267	0.0542	0.045
Mof_H 	H 	0.1728	0.9951	0.8864	0.014
Mof_H 	H 	0.4336	0.2013	0.9411	0.081
Mof_H 	H 	0.3496	0.0725	0.8644	0.086
Mof_H 	H 	0.3619	0.1666	0.7529	0.008
Mof_H 	H 	0.318	0.2437	0.8145	0.017
Mof_H 	H 	0.2682	0.2162	0.6281	0.133
Mof_H 	H 	0.1595	0.2109	0.4625	-0.013
Mof_H 	H 	0.0247	0.9213	0.6487	0.023
Mof_H 	H 	0.1064	0.2007	0.268	0.034
Mof_H 	H 	0.0542	0.3499	0.3267	0.045
Mof_H 	H 	0.8864	0.1728	0.9951	0.014
Mof_H 	H 	0.9411	0.4336	0.2013	0.081
Mof_H 	H 	0.8644	0.3496	0.0725	0.086
Mof_H 	H 	0.7529	0.3619	0.1666	0.008
Mof_H 	H 	0.8145	0.318	0.2437	0.017
Mof_H 	H 	0.6281	0.2682	0.2162	0.133
Mof_H 	H 	0.4625	0.1595	0.2109	-0.013
Mof_H 	H 	0.6487	0.0247	0.9213	0.023
Mof_H 	H 	0.732	0.8936	0.7993	0.032
Mof_H 	H 	0.6733	0.9458	0.6501	0.045
Mof_H 	H 	0.0049	0.1136	0.8272	-0.014
Mof_H 	H 	0.7987	0.0589	0.5664	0.07
Mof_H 	H 	0.9275	0.1356	0.6504	0.084
Mof_H 	H 	0.8334	0.2471	0.6381	0.02
Mof_H 	H 	0.7563	0.1855	0.682	0.025
Mof_H 	H 	0.7838	0.3719	0.7318	0.068
Mof_H 	H 	0.7891	0.5375	0.8405	0.069
Mof_H 	H 	0.0787	0.3513	0.9753	0.136
Mof_H 	H 	0.7993	0.732	0.8936	0.032
Mof_H 	H 	0.6501	0.6733	0.9458	0.045
Mof_H 	H 	0.8272	0.0049	0.1136	-0.014
Mof_H 	H 	0.5664	0.7987	0.0589	0.07
Mof_H 	H 	0.6504	0.9275	0.1356	0.084
Mof_H 	H 	0.6381	0.8334	0.2471	0.02
Mof_H 	H 	0.682	0.7563	0.1855	0.025
Mof_H 	H 	0.7318	0.7838	0.3719	0.068
Mof_H 	H 	0.8405	0.7891	0.5375	0.069
Mof_H 	H 	0.9753	0.0787	0.3513	0.136
Mof_H 	H 	0.8936	0.7993	0.732	0.032
Mof_H 	H 	0.9458	0.6501	0.6733	0.045
Mof_H 	H 	0.1136	0.8272	0.0049	-0.014
Mof_H 	H 	0.0589	0.5664	0.7987	0.07
Mof_H 	H 	0.1356	0.6504	0.9275	0.084
Mof_H 	H 	0.2471	0.6381	0.8334	0.02
Mof_H 	H 	0.1855	0.682	0.7563	0.025
Mof_H 	H 	0.3719	0.7318	0.7838	0.068
Mof_H 	H 	0.5375	0.8405	0.7891	0.069
Mof_H 	H 	0.3513	0.9753	0.0787	0.136
Mof_C 	C 	0.22002	0.0555	0.21408	-0.005
Mof_C 	C 	0.25315	0.02745	0.2966	-0.012
Mof_C 	C 	0.07009	0.93538	0.19823	0.079
Mof_C 	C 	0.14745	0.89015	0.3551	-0.126
Mof_C 	C 	0.1698	0.79032	0.31498	0.084
Mof_C 	C 	0.08669	0.61853	0.14598	0.23
Mof_C 	C 	0.16246	0.58453	0.19301	-0.261
Mof_C 	C 	0.15837	0.48433	0.1275	0.16
Mof_C 	C 	0.00154	0.55145	0.03211	-0.151
Mof_C 	C 	0.92081	0.58247	0.98252	0.058
Mof_C 	C 	0.21408	0.22002	0.0555	-0.005
Mof_C 	C 	0.2966	0.25315	0.02745	-0.012
Mof_C 	C 	0.19823	0.07009	0.93538	0.079
Mof_C 	C 	0.3551	0.14745	0.89015	-0.126
Mof_C 	C 	0.31498	0.1698	0.79032	0.084
Mof_C 	C 	0.14598	0.08669	0.61853	0.23
Mof_C 	C 	0.19301	0.16246	0.58453	-0.261
Mof_C 	C 	0.1275	0.15837	0.48433	0.16
Mof_C 	C 	0.03211	0.00154	0.55145	-0.151
Mof_C 	C 	0.98252	0.92081	0.58247	0.058
Mof_C 	C 	0.0555	0.21408	0.22002	-0.005
Mof_C 	C 	0.02745	0.2966	0.25315	-0.012
Mof_C 	C 	0.93538	0.19823	0.07009	0.079
Mof_C 	C 	0.89015	0.3551	0.14745	-0.126
Mof_C 	C 	0.79032	0.31498	0.1698	0.084
Mof_C 	C 	0.61853	0.14598	0.08669	0.23
Mof_C 	C 	0.58453	0.19301	0.16246	-0.261
Mof_C 	C 	0.48433	0.1275	0.15837	0.16
Mof_C 	C 	0.55145	0.03211	0.00154	-0.151
Mof_C 	C 	0.58247	0.98252	0.92081	0.058
Mof_C 	C 	0.77998	0.9445	0.78592	0.014
Mof_C 	C 	0.74685	0.97255	0.7034	0.005
Mof_C 	C 	0.92991	0.06462	0.80177	0.114
Mof_C 	C 	0.85255	0.10985	0.6449	-0.11
Mof_C 	C 	0.8302	0.20968	0.68502	0.055
Mof_C 	C 	0.91331	0.38147	0.85402	0.078
Mof_C 	C 	0.83754	0.41547	0.80699	-0.074
Mof_C 	C 	0.84163	0.51567	0.8725	-0.066
Mof_C 	C 	0.99846	0.44855	0.96789	0.124
Mof_C 	C 	0.07919	0.41753	0.01748	-0.244
Mof_C 	C 	0.78592	0.77998	0.9445	0.014
Mof_C 	C 	0.7034	0.74685	0.97255	0.005
Mof_C 	C 	0.80177	0.92991	0.06462	0.114
Mof_C 	C 	0.6449	0.85255	0.10985	-0.11
Mof_C 	C 	0.68502	0.8302	0.20968	0.055
Mof_C 	C 	0.85402	0.91331	0.38147	0.078
Mof_C 	C 	0.80699	0.83754	0.41547	-0.074
Mof_C 	C 	0.8725	0.84163	0.51567	-0.066
Mof_C 	C 	0.96789	0.99846	0.44855	0.124
Mof_C 	C 	0.01748	0.07919	0.41753	-0.244
Mof_C 	C 	0.9445	0.78592	0.77998	0.014
Mof_C 	C 	0.97255	0.7034	0.74685	0.005
Mof_C 	C 	0.06462	0.80177	0.92991	0.114
Mof_C 	C 	0.10985	0.6449	0.85255	-0.11
Mof_C 	C 	0.20968	0.68502	0.8302	0.055
Mof_C 	C 	0.38147	0.85402	0.91331	0.078
Mof_C 	C 	0.41547	0.80699	0.83754	-0.074
Mof_C 	C 	0.51567	0.8725	0.84163	-0.066
Mof_C 	C 	0.44855	0.96789	0.99846	0.124
Mof_C 	C 	0.41753	0.01748	0.07919	-0.244
Mof_N 	N 	0.1041	0.99773	0.15161	-0.229
Mof_N 	N 	0.15683	0.95121	0.28676	-0.089
Mof_N 	N 	0.15161	0.1041	0.99773	-0.229
Mof_N 	N 	0.28676	0.15683	0.95121	-0.089
Mof_N 	N 	0.99773	0.15161	0.1041	-0.229
Mof_N 	N 	0.95121	0.28676	0.15683	-0.089
Mof_N 	N 	0.8959	0.00227	0.84839	-0.242
Mof_N 	N 	0.84317	0.04879	0.71324	-0.108
Mof_N 	N 	0.84839	0.8959	0.00227	-0.242
Mof_N 	N 	0.71324	0.84317	0.04879	-0.108
Mof_N 	N 	0.00227	0.84839	0.8959	-0.242
Mof_N 	N 	0.04879	0.71324	0.84317	-0.108
Mof_O 	O 	0.08445	0.71632	0.20205	-0.247
Mof_O 	O 	0.20205	0.08445	0.71632	-0.247
Mof_O 	O 	0.71632	0.20205	0.08445	-0.247
Mof_O 	O 	0.91555	0.28368	0.79795	-0.201
Mof_O 	O 	0.79795	0.91555	0.28368	-0.201
Mof_O 	O 	0.28368	0.79795	0.91555	-0.201
Mof_N 	N 	0.3823	0.3823	0.3823	0.052
Mof_O 	O 	0.4434	0.3531	0.3447	-0.11
Mof_O 	O 	0.3447	0.4434	0.3531	-0.11
Mof_O 	O 	0.3531	0.3447	0.4434	-0.11
Mof_N 	N 	0.6177	0.6177	0.6177	0.053
Mof_O 	O 	0.5566	0.6469	0.6553	-0.111
Mof_O 	O 	0.6553	0.5566	0.6469	-0.111
Mof_O 	O 	0.6469	0.6553	0.5566	-0.111
_end
