# CIF file generated by openbabel 3.1.0, see https://openbabel.org
data_I
_chemical_name_common 'image0'
_cell_length_a 8.978
_cell_length_b 8.978
_cell_length_c 11.934
_cell_angle_alpha 90
_cell_angle_beta 90
_cell_angle_gamma 90
_space_group_name_H-M_alt 'P 1'
_space_group_name_Hall 'P 1'
loop_
    _symmetry_equiv_pos_as_xyz
    x,y,z
loop_
    _atom_site_label
    _atom_site_type_symbol
    _atom_site_fract_x
    _atom_site_fract_y
    _atom_site_fract_z
    _atom_site_occupancy
    C1       C        0.26100    0.12200    0.12700    1.000
    C2       C        0.51400    0.26600    0.92400    1.000
    C3       C        0.73900    0.87800    0.62700    1.000
    C4       C        0.48600    0.73400    0.42400    1.000
    C5       C        0.37800    0.76100    0.37700    1.000
    C6       C        0.23400    0.01400    0.17400    1.000
    C7       C        0.62200    0.23900    0.87700    1.000
    C8       C        0.76600    0.98600    0.67400    1.000
    C9       C        0.23900    0.62200    0.12300    1.000
    C10      C        0.98600    0.76600    0.32600    1.000
    C11      C        0.76100    0.37800    0.62300    1.000
    C12      C        0.01400    0.23400    0.82600    1.000
    C13      C        0.12200    0.26100    0.87300    1.000
    C14      C        0.26600    0.51400    0.07600    1.000
    C15      C        0.87800    0.73900    0.37300    1.000
    C16      C        0.73400    0.48600    0.57600    1.000
    Cd1      Cd       0.29630    0.29630    0.00000    1.000
    Cd2      Cd       0.70370    0.70370    0.50000    1.000
    Cd3      Cd       0.20370    0.79630    0.25000    1.000
    Cd4      Cd       0.79630    0.20370    0.75000    1.000
