# CIF file generated by openbabel 3.1.0, see https://openbabel.org
data_I
_chemical_name_common 'image0'
_cell_length_a 12.0432
_cell_length_b 15.9322
_cell_length_c 16.642
_cell_angle_alpha 76.77
_cell_angle_beta 70.172
_cell_angle_gamma 85.481
_space_group_name_H-M_alt 'P 1'
_space_group_name_Hall 'P 1'
loop_
    _symmetry_equiv_pos_as_xyz
    x,y,z
loop_
    _atom_site_label
    _atom_site_type_symbol
    _atom_site_fract_x
    _atom_site_fract_y
    _atom_site_fract_z
    _atom_site_occupancy
    Zn1      Zn       0.67807    0.84075    0.36224    1.000
    C1       C        0.74980    0.13570    0.13700    1.000
    H1       H        0.76430    0.09590    0.18270    1.000
    C2       C        0.63670    0.14310    0.12670    1.000
    C3       C        0.61690    0.19500    0.05890    1.000
    C4       C        0.71010    0.24830    0.99920    1.000
    H2       H        0.69720    0.28650    0.95190    1.000
    C5       C        0.81900    0.24600    0.00820    1.000
    C6       C        0.83540    0.18910    0.07730    1.000
    C7       C        0.91980    0.30480    0.94360    1.000
    H3       H        0.99320    0.27130    0.93490    1.000
    C8       C        0.92960    0.38070    0.98880    1.000
    C9       C        0.92820    0.35980    0.08220    1.000
    C10      C        0.90640    0.33930    0.85590    1.000
    C11      C        0.87910    0.42500    0.82420    1.000
    H4       H        0.86220    0.46250    0.86220    1.000
    C12      C        0.87550    0.45690    0.74310    1.000
    C13      C        0.90060    0.39970    0.68510    1.000
    C14      C        0.92610    0.31490    0.71390    1.000
    H5       H        0.94180    0.27720    0.67620    1.000
    C15      C        0.92880    0.28480    0.79730    1.000
    C16      C        0.84800    0.55070    0.71140    1.000
    H6       H        0.89660    0.56600    0.64960    1.000
    C17      C        0.87970    0.61460    0.75460    1.000
    H7       H        0.85370    0.67140    0.73180    1.000
    H8       H        0.83660    0.59970    0.81680    1.000
    C18      C        0.01080    0.61900    0.74160    1.000
    H9       H        0.02310    0.66010    0.77190    1.000
    H10      H        0.05420    0.63630    0.68040    1.000
    H11      H        0.03760    0.56320    0.76450    1.000
    C19      C        0.72120    0.56720    0.71360    1.000
    C20      C        0.68380    0.64390    0.67010    1.000
    C21      C        0.56600    0.66130    0.67260    1.000
    H12      H        0.54470    0.71250    0.64140    1.000
    C22      C        0.48390    0.59780    0.72430    1.000
    C23      C        0.51330    0.52130    0.77000    1.000
    C24      C        0.63270    0.50690    0.76570    1.000
    H13      H        0.65280    0.45610    0.79820    1.000
    C25      C        0.41990    0.45590    0.83010    1.000
    H14      H        0.36690    0.45280    0.79730    1.000
    C26      C        0.34390    0.49110    0.91010    1.000
    C27      C        0.46670    0.36550    0.84950    1.000
    C28      C        0.46340    0.32040    0.93330    1.000
    H15      H        0.43350    0.35030    0.97810    1.000
    C29      C        0.49880    0.23860    0.95600    1.000
    C30      C        0.53960    0.19620    0.88870    1.000
    C31      C        0.54630    0.23520    0.80390    1.000
    H16      H        0.57560    0.20400    0.76020    1.000
    C32      C        0.51070    0.31880    0.78270    1.000
    C33      C        0.49450    0.20040    0.04620    1.000
    H17      H        0.47240    0.14010    0.05550    1.000
    C34      C        0.40330    0.23320    0.11910    1.000
    H18      H        0.41130    0.29510    0.10910    1.000
    H19      H        0.41630    0.20740    0.17400    1.000
    C35      C        0.27860    0.21200    0.12580    1.000
    H20      H        0.22220    0.23430    0.17250    1.000
    H21      H        0.26970    0.15060    0.13740    1.000
    H22      H        0.26540    0.23770    0.07170    1.000
    C36      C        0.53710    0.06600    0.27200    1.000
    H23      H        0.45380    0.06460    0.30620    1.000
    H24      H        0.57260    0.11220    0.28400    1.000
    C37      C        0.58890    0.98640    0.30210    1.000
    C38      C        0.97070    0.13570    0.15320    1.000
    H25      H        0.05270    0.13890    0.14660    1.000
    H26      H        0.95000    0.07680    0.16020    1.000
    H27      H        0.92350    0.15680    0.20380    1.000
    C39      C        0.96500    0.13770    0.77950    1.000
    H28      H        0.91000    0.15170    0.74730    1.000
    H29      H        0.94220    0.08190    0.81860    1.000
    C40      C        0.08200    0.12870    0.71700    1.000
    C41      C        0.93610    0.37380    0.54350    1.000
    H30      H        0.93370    0.40190    0.48650    1.000
    H31      H        0.88320    0.32550    0.56670    1.000
    H32      H        0.01490    0.35410    0.53900    1.000
    C42      C        0.74060    0.78820    0.60230    1.000
    H33      H        0.81190    0.81970    0.59120    1.000
    H34      H        0.68810    0.79620    0.65890    1.000
    C43      C        0.68430    0.84040    0.53740    1.000
    C44      C        0.34340    0.68670    0.68310    1.000
    H35      H        0.26070    0.68920    0.69040    1.000
    H36      H        0.38840    0.69140    0.62240    1.000
    H37      H        0.36350    0.73330    0.70330    1.000
    C45      C        0.58230    0.32560    0.63420    1.000
    H38      H        0.65410    0.30310    0.64540    1.000
    H39      H        0.60460    0.37130    0.58200    1.000
    C46      C        0.52270    0.25330    0.61650    1.000
    C47      C        0.61240    0.06090    0.84550    1.000
    H40      H        0.63380    0.00400    0.87000    1.000
    H41      H        0.67940    0.08820    0.79860    1.000
    H42      H        0.54930    0.05740    0.82350    1.000
    O1       O        0.54730    0.08680    0.18270    1.000
    O2       O        0.64050    0.94110    0.24960    1.000
    O3       O        0.58090    0.96360    0.37940    1.000
    O4       O        0.95050    0.18460    0.08060    1.000
    O5       O        0.95030    0.20010    0.83200    1.000
    O6       O        0.09560    0.08000    0.67010    1.000
    O7       O        0.16170    0.17830    0.71380    1.000
    O8       O        0.89920    0.43600    0.60280    1.000
    O9       O        0.77420    0.70100    0.61750    1.000
    O10      O        0.68670    0.80190    0.48370    1.000
    O11      O        0.64530    0.92280    0.53980    1.000
    O12      O        0.36880    0.60900    0.73100    1.000
    O13      O        0.51430    0.36000    0.70270    1.000
    O14      O        0.58700    0.20820    0.56960    1.000
    H43      H        0.54740    0.17210    0.56360    1.000
    O15      O        0.41330    0.24970    0.64750    1.000
    O16      O        0.57540    0.10990    0.91080    1.000
    Zn2      Zn       0.32193    0.15925    0.63776    1.000
    C48      C        0.25020    0.86430    0.86300    1.000
    H44      H        0.23570    0.90410    0.81730    1.000
    C49      C        0.36330    0.85690    0.87330    1.000
    C50      C        0.38310    0.80500    0.94110    1.000
    C51      C        0.28990    0.75170    0.00080    1.000
    H45      H        0.30280    0.71350    0.04810    1.000
    C52      C        0.18100    0.75400    0.99180    1.000
    C53      C        0.16460    0.81090    0.92270    1.000
    C54      C        0.08020    0.69520    0.05640    1.000
    H46      H        0.00680    0.72870    0.06510    1.000
    C55      C        0.07040    0.61930    0.01120    1.000
    C56      C        0.07180    0.64020    0.91780    1.000
    C57      C        0.09360    0.66070    0.14410    1.000
    C58      C        0.12090    0.57500    0.17580    1.000
    H47      H        0.13780    0.53750    0.13780    1.000
    C59      C        0.12450    0.54310    0.25690    1.000
    C60      C        0.09940    0.60030    0.31490    1.000
    C61      C        0.07390    0.68510    0.28610    1.000
    H48      H        0.05820    0.72280    0.32380    1.000
    C62      C        0.07120    0.71520    0.20270    1.000
    C63      C        0.15200    0.44930    0.28860    1.000
    H49      H        0.10340    0.43400    0.35040    1.000
    C64      C        0.12030    0.38540    0.24540    1.000
    H50      H        0.14630    0.32860    0.26820    1.000
    H51      H        0.16340    0.40030    0.18320    1.000
    C65      C        0.98920    0.38100    0.25840    1.000
    H52      H        0.97690    0.33990    0.22810    1.000
    H53      H        0.94580    0.36370    0.31960    1.000
    H54      H        0.96240    0.43680    0.23550    1.000
    C66      C        0.27880    0.43280    0.28640    1.000
    C67      C        0.31620    0.35610    0.32990    1.000
    C68      C        0.43400    0.33870    0.32740    1.000
    H55      H        0.45530    0.28750    0.35860    1.000
    C69      C        0.51610    0.40220    0.27570    1.000
    C70      C        0.48670    0.47870    0.23000    1.000
    C71      C        0.36730    0.49310    0.23430    1.000
    H56      H        0.34720    0.54390    0.20180    1.000
    C72      C        0.58010    0.54410    0.16990    1.000
    H57      H        0.63310    0.54720    0.20270    1.000
    C73      C        0.65610    0.50890    0.08990    1.000
    C74      C        0.53330    0.63450    0.15050    1.000
    C75      C        0.53660    0.67960    0.06670    1.000
    H58      H        0.56650    0.64970    0.02190    1.000
    C76      C        0.50120    0.76140    0.04400    1.000
    C77      C        0.46040    0.80380    0.11130    1.000
    C78      C        0.45370    0.76480    0.19610    1.000
    H59      H        0.42440    0.79600    0.23980    1.000
    C79      C        0.48930    0.68120    0.21730    1.000
    C80      C        0.50550    0.79960    0.95380    1.000
    H60      H        0.52760    0.85990    0.94450    1.000
    C81      C        0.59670    0.76680    0.88090    1.000
    H61      H        0.58870    0.70490    0.89090    1.000
    H62      H        0.58370    0.79260    0.82600    1.000
    C82      C        0.72140    0.78800    0.87420    1.000
    H63      H        0.77780    0.76570    0.82750    1.000
    H64      H        0.73030    0.84940    0.86260    1.000
    H65      H        0.73460    0.76230    0.92830    1.000
    C83      C        0.46290    0.93400    0.72800    1.000
    H66      H        0.54620    0.93540    0.69380    1.000
    H67      H        0.42740    0.88780    0.71600    1.000
    C84      C        0.41110    0.01360    0.69790    1.000
    C85      C        0.02930    0.86430    0.84680    1.000
    H68      H        0.94730    0.86110    0.85340    1.000
    H69      H        0.05000    0.92320    0.83980    1.000
    H70      H        0.07650    0.84320    0.79620    1.000
    C86      C        0.03500    0.86230    0.22050    1.000
    H71      H        0.09000    0.84830    0.25270    1.000
    H72      H        0.05780    0.91810    0.18140    1.000
    C87      C        0.91800    0.87130    0.28300    1.000
    C88      C        0.06390    0.62620    0.45650    1.000
    H73      H        0.06630    0.59810    0.51350    1.000
    H74      H        0.11680    0.67450    0.43330    1.000
    H75      H        0.98510    0.64590    0.46100    1.000
    C89      C        0.25940    0.21180    0.39770    1.000
    H76      H        0.18810    0.18030    0.40880    1.000
    H77      H        0.31190    0.20380    0.34110    1.000
    C90      C        0.31570    0.15960    0.46260    1.000
    C91      C        0.65660    0.31330    0.31690    1.000
    H78      H        0.73930    0.31080    0.30960    1.000
    H79      H        0.61160    0.30860    0.37760    1.000
    H80      H        0.63650    0.26670    0.29670    1.000
    C92      C        0.41770    0.67440    0.36580    1.000
    H81      H        0.34590    0.69690    0.35460    1.000
    H82      H        0.39540    0.62870    0.41800    1.000
    C93      C        0.47730    0.74670    0.38350    1.000
    C94      C        0.38760    0.93910    0.15450    1.000
    H83      H        0.36620    0.99600    0.13000    1.000
    H84      H        0.32060    0.91180    0.20140    1.000
    H85      H        0.45070    0.94260    0.17650    1.000
    O17      O        0.45270    0.91320    0.81730    1.000
    O18      O        0.35950    0.05890    0.75040    1.000
    O19      O        0.41910    0.03640    0.62060    1.000
    O20      O        0.04950    0.81540    0.91940    1.000
    O21      O        0.04970    0.79990    0.16800    1.000
    O22      O        0.90440    0.92000    0.32990    1.000
    O23      O        0.83830    0.82170    0.28620    1.000
    O24      O        0.10080    0.56400    0.39720    1.000
    O25      O        0.22580    0.29900    0.38250    1.000
    O26      O        0.31330    0.19810    0.51630    1.000
    O27      O        0.35470    0.07720    0.46020    1.000
    O28      O        0.63120    0.39100    0.26900    1.000
    O29      O        0.48570    0.64000    0.29730    1.000
    O30      O        0.41300    0.79180    0.43040    1.000
    H86      H        0.45260    0.82790    0.43640    1.000
    O31      O        0.58670    0.75030    0.35250    1.000
    O32      O        0.42460    0.89010    0.08920    1.000
    Zn3      Zn       0.50000    0.00000    0.50000    1.000
