data_functionalizedCrystal
_audit_creation_method	'EQeq! by Chris Wilmer'
_symmetry_space_group_name_H-M	'P1'
_symmetry_Int_Tables_number	1
_symmetry_cell_setting	triclinic
loop_
_symmetry_equiv_pos_as_xyz
  x,y,z
_cell_length_a	11.02
_cell_length_b	12.828
_cell_length_c	12.828
_cell_angle_alpha	90
_cell_angle_beta	90
_cell_angle_gamma	90
loop_
_atom_site_label
_atom_site_type_symbol
_atom_site_fract_x
_atom_site_fract_y
_atom_site_fract_z
_atom_site_charge
Mof_Ag	Ag	6.84361e-34	0.1568	0.1568	0.754
Mof_Ag	Ag	0.5	0.8432	0.8432	0.884
Mof_Ag	Ag	0.25	0.3432	0.6568	0.879
Mof_Ag	Ag	0.75	0.6568	0.3432	0.9
Mof_H 	H 	0.9442	0.4836	0.3952	0.136
Mof_H 	H 	0.7157	0.4949	0.1604	0.05
Mof_H 	H 	0.7809	0.3328	0.1061	0.105
Mof_H 	H 	0.4442	0.5164	0.6048	0.099
Mof_H 	H 	0.2157	0.5051	0.8396	0.042
Mof_H 	H 	0.2809	0.6672	0.8939	0.093
Mof_H 	H 	0.1942	0.1048	0.9836	0.104
Mof_H 	H 	0.9657	0.3396	0.9949	0.173
Mof_H 	H 	0.0309	0.3939	0.8328	0.052
Mof_H 	H 	0.6942	0.8952	0.0164	0.099
Mof_H 	H 	0.4657	0.6604	0.0051	0.047
Mof_H 	H 	0.5309	0.6061	0.1672	0.098
Mof_H 	H 	0.3058	0.0164	0.8952	0.094
Mof_H 	H 	0.5343	0.0051	0.6604	0.048
Mof_H 	H 	0.4691	0.1672	0.6061	0.103
Mof_H 	H 	0.8058	0.9836	0.1048	0.105
Mof_H 	H 	0.0343	0.9949	0.3396	-0.047
Mof_H 	H 	0.9691	0.8328	0.3939	0.138
Mof_H 	H 	0.0558	0.3952	0.4836	0.062
Mof_H 	H 	0.2843	0.1604	0.4949	0.044
Mof_H 	H 	0.2191	0.1061	0.3328	0.103
Mof_H 	H 	0.5558	0.6048	0.5164	0.098
Mof_H 	H 	0.7843	0.8396	0.5051	0.051
Mof_H 	H 	0.7191	0.8939	0.6672	0.103
Mof_C 	C 	0.9502	0.35717	0.30084	0.172
Mof_C 	C 	0.9093	0.45323	0.3347	-0.002
Mof_C 	C 	0.7766	0.4598	0.19932	0.083
Mof_C 	C 	0.8165	0.36309	0.1663	0.036
Mof_C 	C 	0.4502	0.64283	0.69916	0.068
Mof_C 	C 	0.4093	0.54677	0.6653	0.031
Mof_C 	C 	0.2766	0.5402	0.80068	0.081
Mof_C 	C 	0.3165	0.63691	0.8337	0.027
Mof_C 	C 	0.2002	0.19916	0.85717	0.075
Mof_C 	C 	0.1593	0.1653	0.95323	0.01
Mof_C 	C 	0.0266	0.30068	0.9598	-0.112
Mof_C 	C 	0.0665	0.3337	0.86309	0.106
Mof_C 	C 	0.7002	0.80084	0.14283	0.071
Mof_C 	C 	0.6593	0.8347	0.04677	0.035
Mof_C 	C 	0.5266	0.69932	0.0402	0.084
Mof_C 	C 	0.5665	0.6663	0.13691	0.029
Mof_C 	C 	0.2998	0.14283	0.80084	0.06
Mof_C 	C 	0.3407	0.04677	0.8347	0.038
Mof_C 	C 	0.4734	0.0402	0.69932	0.088
Mof_C 	C 	0.4335	0.13691	0.6663	0.025
Mof_C 	C 	0.7998	0.85717	0.19916	0.07
Mof_C 	C 	0.8407	0.95323	0.1653	0.037
Mof_C 	C 	0.9734	0.9598	0.30068	0.23
Mof_C 	C 	0.9335	0.86309	0.3337	-0.026
Mof_C 	C 	0.0498	0.30084	0.35717	-0.029
Mof_C 	C 	0.0907	0.3347	0.45323	0.064
Mof_C 	C 	0.2234	0.19932	0.4598	0.083
Mof_C 	C 	0.1835	0.1663	0.36309	0.019
Mof_C 	C 	0.5498	0.69916	0.64283	0.069
Mof_C 	C 	0.5907	0.6653	0.54677	0.032
Mof_C 	C 	0.7234	0.80068	0.5402	0.081
Mof_C 	C 	0.6835	0.8337	0.63691	0.03
Mof_N 	N 	0.90314	0.31123	0.2164	-0.139
Mof_N 	N 	0.8213	0.50447	0.28369	-0.144
Mof_N 	N 	0.40314	0.68877	0.7836	-0.153
Mof_N 	N 	0.3213	0.49553	0.71631	-0.153
Mof_N 	N 	0.15314	0.2836	0.81123	-0.173
Mof_N 	N 	0.0713	0.21631	0.00447	-0.12
Mof_N 	N 	0.65314	0.7164	0.18877	-0.153
Mof_N 	N 	0.5713	0.78369	0.99553	-0.155
Mof_N 	N 	0.34686	0.18877	0.7164	-0.15
Mof_N 	N 	0.4287	0.99553	0.78369	-0.162
Mof_N 	N 	0.84686	0.81123	0.2836	-0.138
Mof_N 	N 	0.9287	0.00447	0.21631	-0.138
Mof_N 	N 	0.09686	0.2164	0.31123	-0.138
Mof_N 	N 	0.1787	0.28369	0.50447	-0.164
Mof_N 	N 	0.59686	0.7836	0.68877	-0.152
Mof_N 	N 	0.6787	0.71631	0.49553	-0.155
Mof_P 	P 	9.64726e-33	0.61566	0.61566	1.035
Mof_F 	F 	0.8983	0.66651	0.68652	-0.316
Mof_F 	F 	0.9782	0.7015	0.5303	-0.356
Mof_F 	F 	0.89877	0.5452	0.56433	-0.349
Mof_F 	F 	0.1017	0.68652	0.66651	-0.375
Mof_F 	F 	0.0218	0.5303	0.7015	-0.418
Mof_F 	F 	0.10123	0.56433	0.5452	-0.406
Mof_P 	P 	0.5	0.38434	0.38434	1.139
Mof_F 	F 	0.3983	0.33349	0.31348	-0.364
Mof_F 	F 	0.4782	0.2985	0.4697	-0.402
Mof_F 	F 	0.39877	0.4548	0.43567	-0.399
Mof_F 	F 	0.6017	0.31348	0.33349	-0.359
Mof_F 	F 	0.5218	0.4697	0.2985	-0.406
Mof_F 	F 	0.60123	0.43567	0.4548	-0.392
Mof_P 	P 	0.25	0.88434	0.11566	1.14
Mof_F 	F 	0.1483	0.81348	0.16651	-0.385
Mof_F 	F 	0.2282	0.9697	0.2015	-0.409
Mof_F 	F 	0.14877	0.93567	0.0452	-0.408
Mof_F 	F 	0.3517	0.83349	0.18652	-0.367
Mof_F 	F 	0.2718	0.7985	0.0303	-0.409
Mof_F 	F 	0.35123	0.9548	0.06433	-0.396
Mof_P 	P 	0.75	0.11566	0.88434	1.139
Mof_F 	F 	0.6483	0.18652	0.83349	-0.358
Mof_F 	F 	0.7282	0.0303	0.7985	-0.394
Mof_F 	F 	0.64877	0.06433	0.9548	-0.391
Mof_F 	F 	0.8517	0.16651	0.81348	-0.335
Mof_F 	F 	0.7718	0.2015	0.9697	-0.387
Mof_F 	F 	0.85123	0.0452	0.93567	-0.367
_end
