# CIF file generated by openbabel 3.1.0, see https://openbabel.org
data_I
_chemical_name_common 'image0'
_cell_length_a 9.9199
_cell_length_b 10.4905
_cell_length_c 13.4316
_cell_angle_alpha 105.687
_cell_angle_beta 101.88
_cell_angle_gamma 94.436
_space_group_name_H-M_alt 'P 1'
_space_group_name_Hall 'P 1'
loop_
    _symmetry_equiv_pos_as_xyz
    x,y,z
loop_
    _atom_site_label
    _atom_site_type_symbol
    _atom_site_fract_x
    _atom_site_fract_y
    _atom_site_fract_z
    _atom_site_occupancy
    Tb1      Tb       0.74376    0.49442    0.47550    1.000
    O1       O        0.62870    0.66720    0.43800    1.000
    O2       O        0.42410    0.62050    0.47370    1.000
    O3       O        0.05370    0.35570    0.47080    1.000
    O4       O        0.82650    0.28950    0.42890    1.000
    O5       O        0.86810    0.47670    0.64680    1.000
    O6       O        0.72580    0.62850    0.65540    1.000
    N1       N        0.50020    0.98390    0.33260    1.000
    C1       C        0.50650    0.68640    0.43920    1.000
    C2       C        0.45170    0.79790    0.40020    1.000
    C3       C        0.54150    0.88100    0.37000    1.000
    H1       H        0.63550    0.86540    0.37570    1.000
    C4       C        0.36400    0.00730    0.32780    1.000
    H2       H        0.33280    0.07760    0.30100    1.000
    C5       C        0.27130    0.93060    0.36130    1.000
    C6       C        0.31750    0.82490    0.39500    1.000
    H3       H        0.25460    0.76930    0.41530    1.000
    C7       C        0.12970    0.96330    0.35920    1.000
    C8       C        0.01790    0.86430    0.32740    1.000
    H4       H        0.03300    0.77360    0.30580    1.000
    C9       C        0.88490    0.89250    0.32570    1.000
    H5       H        0.80850    0.82260    0.30070    1.000
    C10      C        0.86450    0.02090    0.36020    1.000
    H6       H        0.77310    0.04060    0.36260    1.000
    C11      C        0.97480    0.12560    0.39270    1.000
    C12      C        0.10970    0.09520    0.39310    1.000
    H7       H        0.18660    0.16460    0.41640    1.000
    C13      C        0.95080    0.26660    0.43430    1.000
    C14      C        0.81010    0.56610    0.69850    1.000
    C15      C        0.86600    0.61100    0.81570    1.000
    C16      C        0.83570    0.73110    0.87540    1.000
    H8       H        0.78010    0.78380    0.84110    1.000
    N2       N        0.88680    0.77410    0.98520    1.000
    C17      C        0.96820    0.69700    0.03530    1.000
    H9       H        0.00320    0.72640    0.11040    1.000
    C18      C        0.99860    0.57690    0.97570    1.000
    C19      C        0.94750    0.53390    0.86590    1.000
    H10      H        0.96820    0.45180    0.82510    1.000
    C20      C        0.08430    0.49010    0.03010    1.000
    C21      C        0.15440    0.40030    0.97070    1.000
    H11      H        0.14890    0.39510    0.89820    1.000
    C22      C        0.23270    0.31820    0.01720    1.000
    H12      H        0.28060    0.25680    0.97660    1.000
    C23      C        0.24080    0.32570    0.12330    1.000
    H13      H        0.29420    0.26960    0.15510    1.000
    C24      C        0.17060    0.41550    0.18280    1.000
    C25      C        0.09240    0.49770    0.13620    1.000
    H14      H        0.04450    0.55900    0.17680    1.000
    Tb2      Tb       0.25624    0.50558    0.52450    1.000
    O7       O        0.37130    0.33280    0.56200    1.000
    O8       O        0.57590    0.37950    0.52630    1.000
    O9       O        0.94630    0.64430    0.52920    1.000
    O10      O        0.17350    0.71050    0.57110    1.000
    O11      O        0.13190    0.52330    0.35320    1.000
    O12      O        0.27420    0.37150    0.34460    1.000
    N3       N        0.49980    0.01610    0.66740    1.000
    C26      C        0.49350    0.31360    0.56080    1.000
    C27      C        0.54830    0.20210    0.59980    1.000
    C28      C        0.45850    0.11900    0.63000    1.000
    H15      H        0.36450    0.13460    0.62430    1.000
    C29      C        0.63600    0.99270    0.67220    1.000
    H16      H        0.66720    0.92240    0.69900    1.000
    C30      C        0.72870    0.06940    0.63870    1.000
    C31      C        0.68250    0.17510    0.60500    1.000
    H17      H        0.74540    0.23070    0.58470    1.000
    C32      C        0.87030    0.03670    0.64080    1.000
    C33      C        0.98210    0.13570    0.67260    1.000
    H18      H        0.96700    0.22640    0.69420    1.000
    C34      C        0.11510    0.10750    0.67430    1.000
    H19      H        0.19150    0.17740    0.69930    1.000
    C35      C        0.13550    0.97910    0.63980    1.000
    H20      H        0.22690    0.95940    0.63740    1.000
    C36      C        0.02520    0.87440    0.60730    1.000
    C37      C        0.89030    0.90480    0.60690    1.000
    H21      H        0.81340    0.83540    0.58360    1.000
    C38      C        0.04920    0.73340    0.56570    1.000
    C39      C        0.18990    0.43390    0.30150    1.000
    C40      C        0.13400    0.38900    0.18430    1.000
    C41      C        0.16430    0.26890    0.12460    1.000
    H22      H        0.21990    0.21620    0.15890    1.000
    N4       N        0.11320    0.22590    0.01480    1.000
    C42      C        0.03180    0.30300    0.96470    1.000
    H23      H        0.99680    0.27360    0.88960    1.000
    C43      C        0.00140    0.42310    0.02430    1.000
    C44      C        0.05250    0.46610    0.13410    1.000
    H24      H        0.03180    0.54820    0.17490    1.000
    C45      C        0.91570    0.50990    0.96990    1.000
    C46      C        0.84560    0.59970    0.02930    1.000
    H25      H        0.85110    0.60490    0.10180    1.000
    C47      C        0.76730    0.68180    0.98280    1.000
    H26      H        0.71940    0.74320    0.02340    1.000
    C48      C        0.75920    0.67430    0.87670    1.000
    H27      H        0.70580    0.73040    0.84490    1.000
    C49      C        0.82940    0.58450    0.81720    1.000
    C50      C        0.90760    0.50230    0.86380    1.000
    H28      H        0.95550    0.44100    0.82320    1.000
