data_functionalizedCrystal
_audit_creation_method	'EQeq! by Chris Wilmer'
_symmetry_space_group_name_H-M	'P1'
_symmetry_Int_Tables_number	1
_symmetry_cell_setting	triclinic
loop_
_symmetry_equiv_pos_as_xyz
  x,y,z
_cell_length_a	8.246
_cell_length_b	9.705
_cell_length_c	19.408
_cell_angle_alpha	90
_cell_angle_beta	90
_cell_angle_gamma	101.79
loop_
_atom_site_label
_atom_site_type_symbol
_atom_site_fract_x
_atom_site_fract_y
_atom_site_fract_z
_atom_site_charge
Mof_Zn	Zn	0.28527	0.15785	0.48235	1.277
Mof_Zn	Zn	0.63807	0.05371	0.426	1.219
Mof_Zn	Zn	0.71473	0.84215	0.98235	1.274
Mof_Zn	Zn	0.36193	0.94629	0.926	1.215
Mof_H 	H 	0.0401	0.2	0.6021	-0.16
Mof_H 	H 	0.9523	0.3209	0.5776	-0.134
Mof_H 	H 	0.1401	0.4487	0.6406	0.618
Mof_H 	H 	0.2472	0.4522	0.5736	0.604
Mof_H 	H 	0.2625	0.3456	0.6327	0.602
Mof_H 	H 	0.2084	0.2485	0.4907	-0.168
Mof_H 	H 	0.9599	0.8	0.1021	-0.138
Mof_H 	H 	0.0477	0.6791	0.0776	-0.109
Mof_H 	H 	0.8599	0.5513	0.1406	0.604
Mof_H 	H 	0.7528	0.5478	0.0736	0.599
Mof_H 	H 	0.7375	0.6544	0.1327	0.591
Mof_H 	H 	0.7916	0.7515	0.9907	-0.215
Mof_C 	C 	0.0557	0.2878	0.5767	0.807
Mof_C 	C 	0.1878	0.3927	0.6087	-1.637
Mof_C 	C 	0.4801	0.027	0.57302	0.517
Mof_C 	C 	0.5294	0.984	0.64378	-0.21
Mof_C 	C 	0.4849	0.8476	0.66731	0.316
Mof_C 	C 	0.5314	0.809	0.73179	0.295
Mof_C 	C 	0.6242	0.9072	0.77576	-0.229
Mof_C 	C 	0.6681	0.0429	0.75227	0.287
Mof_C 	C 	0.6223	0.0813	0.68768	0.293
Mof_C 	C 	0.6758	0.8671	0.84649	0.47
Mof_C 	C 	0.6129	0.3557	0.46899	0.503
Mof_C 	C 	0.708	0.5081	0.47071	-0.203
Mof_C 	C 	0.7149	0.5904	0.52971	0.286
Mof_C 	C 	0.7943	0.7307	0.52908	0.3
Mof_C 	C 	0.8679	0.7945	0.47038	-0.253
Mof_C 	C 	0.8596	0.7133	0.41172	0.291
Mof_C 	C 	0.7822	0.5734	0.41211	0.285
Mof_C 	C 	0.9583	0.9485	0.47037	0.509
Mof_C 	C 	0.9443	0.7122	0.0767	0.755
Mof_C 	C 	0.8122	0.6073	0.1087	-1.586
Mof_C 	C 	0.5199	0.973	0.07302	0.521
Mof_C 	C 	0.4706	0.016	0.14378	-0.213
Mof_C 	C 	0.5151	0.1524	0.16731	0.318
Mof_C 	C 	0.4686	0.191	0.23179	0.296
Mof_C 	C 	0.3758	0.0928	0.27576	-0.23
Mof_C 	C 	0.3319	0.9571	0.25227	0.289
Mof_C 	C 	0.3777	0.9187	0.18768	0.298
Mof_C 	C 	0.3242	0.1329	0.34649	0.468
Mof_C 	C 	0.3871	0.6443	0.96899	0.512
Mof_C 	C 	0.292	0.4919	0.97071	-0.257
Mof_C 	C 	0.2851	0.4096	0.02971	0.33
Mof_C 	C 	0.2057	0.2693	0.02908	0.345
Mof_C 	C 	0.1321	0.2055	0.97038	-0.308
Mof_C 	C 	0.1404	0.2867	0.91172	0.297
Mof_C 	C 	0.2178	0.4266	0.91211	0.29
Mof_C 	C 	0.0417	0.0515	0.97037	0.517
Mof_O 	O 	0.5494	0.983	0.5231	-0.424
Mof_O 	O 	0.3731	0.0997	0.57214	-0.429
Mof_O 	O 	0.7818	0.7968	0.85217	-0.259
Mof_O 	O 	0.6057	0.9137	0.8982	-0.549
Mof_O 	O 	0.4613	0.3418	0.47945	-0.401
Mof_O 	O 	0.6955	0.2647	0.4567	-0.407
Mof_O 	O 	0.8771	0.0413	0.46035	-0.414
Mof_O 	O 	0.1095	0.9675	0.48133	-0.369
Mof_O 	O 	0.1026	0.2657	0.50567	-0.293
Mof_O 	O 	0.4506	0.017	0.0231	-0.401
Mof_O 	O 	0.6269	0.9003	0.07214	-0.408
Mof_O 	O 	0.2182	0.2032	0.35217	-0.255
Mof_O 	O 	0.3943	0.0863	0.3982	-0.543
Mof_O 	O 	0.5387	0.6582	0.97945	-0.421
Mof_O 	O 	0.3045	0.7353	0.9567	-0.425
Mof_O 	O 	0.1229	0.9587	0.96035	-0.432
Mof_O 	O 	0.8905	0.0325	0.98133	-0.392
Mof_O 	O 	0.8974	0.7343	0.00567	-0.221
Mof_F 	F 	0.3937	0.7488	0.62676	-0.386
Mof_F 	F 	0.4808	0.6753	0.75233	-0.361
Mof_F 	F 	0.764	0.1411	0.79156	-0.361
Mof_F 	F 	0.6704	0.2159	0.66721	-0.372
Mof_F 	F 	0.6456	0.5344	0.58844	-0.363
Mof_F 	F 	0.8001	0.8051	0.58811	-0.381
Mof_F 	F 	0.926	0.7715	0.35282	-0.371
Mof_F 	F 	0.7796	0.4994	0.3533	-0.361
Mof_F 	F 	0.6063	0.2512	0.12676	-0.381
Mof_F 	F 	0.5192	0.3247	0.25233	-0.359
Mof_F 	F 	0.236	0.8589	0.29156	-0.358
Mof_F 	F 	0.3296	0.7841	0.16721	-0.369
Mof_F 	F 	0.3544	0.4656	0.08844	-0.362
Mof_F 	F 	0.1999	0.1949	0.08811	-0.381
Mof_F 	F 	0.074	0.2285	0.85282	-0.375
Mof_F 	F 	0.2204	0.5006	0.8533	-0.364
_end
