data_functionalizedCrystal
_audit_creation_method	'EQeq! by Chris Wilmer'
_symmetry_space_group_name_H-M	'P1'
_symmetry_Int_Tables_number	1
_symmetry_cell_setting	triclinic
loop_
_symmetry_equiv_pos_as_xyz
  x,y,z
_cell_length_a	7.0328
_cell_length_b	18.158
_cell_length_c	24.66
_cell_angle_alpha	90
_cell_angle_beta	90
_cell_angle_gamma	99.54
loop_
_atom_site_label
_atom_site_type_symbol
_atom_site_fract_x
_atom_site_fract_y
_atom_site_fract_z
_atom_site_charge
Mof_Eu	Eu	0.21929	0.01571	0.40171	1.977
Mof_Eu	Eu	0.78071	0.98429	0.90171	1.926
Mof_Eu	Eu	0.78071	0.98429	0.59829	1.934
Mof_Eu	Eu	0.21929	0.01571	0.09829	1.973
Mof_Cu	Cu	0.7516	0.44615	0.3152	0.766
Mof_Cu	Cu	0.379	0.54442	0.49233	0.78
Mof_Cu	Cu	0.8256	0.55967	0.4193	0.792
Mof_Cu	Cu	0.2484	0.55385	0.8152	0.777
Mof_Cu	Cu	0.621	0.45558	0.99233	0.773
Mof_Cu	Cu	0.1744	0.44033	0.9193	0.802
Mof_Cu	Cu	0.2484	0.55385	0.6848	0.777
Mof_Cu	Cu	0.621	0.45558	0.50767	0.777
Mof_Cu	Cu	0.1744	0.44033	0.5807	0.804
Mof_Cu	Cu	0.7516	0.44615	0.1848	0.767
Mof_Cu	Cu	0.379	0.54442	0.00767	0.782
Mof_Cu	Cu	0.8256	0.55967	0.0807	0.793
Mof_Cu	Cu	0.7712	0.56582	0.25	0.747
Mof_Cu	Cu	0.2288	0.43418	0.75	0.76
Mof_H 	H 	0.2257	0.2805	0.3631	0.04
Mof_H 	H 	0.1132	0.3924	0.3464	0.036
Mof_H 	H 	0.5942	0.2812	0.3204	0.012
Mof_H 	H 	0.6947	0.1686	0.3389	0.017
Mof_H 	H 	0.3907	0.7613	0.3706	0.068
Mof_H 	H 	0.4218	0.6418	0.3947	-0.002
Mof_H 	H 	0.3184	0.6829	0.5487	-0.003
Mof_H 	H 	0.2914	0.803	0.5281	0.054
Mof_H 	H 	0.9055	0.8343	0.3785	0.011
Mof_H 	H 	0.9007	0.7087	0.3622	0.004
Mof_H 	H 	0.8013	0.6576	0.5163	-0.004
Mof_H 	H 	0.8067	0.7831	0.5371	0.03
Mof_H 	H 	0.7743	0.7195	0.8631	0.075
Mof_H 	H 	0.8868	0.6076	0.8464	0.028
Mof_H 	H 	0.4058	0.7188	0.8204	-0.002
Mof_H 	H 	0.3053	0.8314	0.8389	0.043
Mof_H 	H 	0.6093	0.2387	0.8706	0.069
Mof_H 	H 	0.5782	0.3582	0.8947	-0.003
Mof_H 	H 	0.6816	0.3171	0.0487	-0.015
Mof_H 	H 	0.7086	0.197	0.0281	0.065
Mof_H 	H 	0.0945	0.1657	0.8785	0.014
Mof_H 	H 	0.0993	0.2913	0.8622	0.015
Mof_H 	H 	0.1987	0.3424	0.0163	0.015
Mof_H 	H 	0.1933	0.2169	0.0371	0.023
Mof_H 	H 	0.7743	0.7195	0.6369	0.076
Mof_H 	H 	0.8868	0.6076	0.6536	0.028
Mof_H 	H 	0.4058	0.7188	0.6796	-0.003
Mof_H 	H 	0.3053	0.8314	0.6611	0.044
Mof_H 	H 	0.6093	0.2387	0.6294	0.065
Mof_H 	H 	0.5782	0.3582	0.6053	-0.001
Mof_H 	H 	0.6816	0.3171	0.4513	-0.006
Mof_H 	H 	0.7086	0.197	0.4719	0.049
Mof_H 	H 	0.0945	0.1657	0.6215	0.018
Mof_H 	H 	0.0993	0.2913	0.6378	0.013
Mof_H 	H 	0.1987	0.3424	0.4837	-0.001
Mof_H 	H 	0.1933	0.2169	0.4629	0.034
Mof_H 	H 	0.2257	0.2805	0.1369	0.04
Mof_H 	H 	0.1132	0.3924	0.1536	0.036
Mof_H 	H 	0.5942	0.2812	0.1796	0.012
Mof_H 	H 	0.6947	0.1686	0.1611	0.017
Mof_H 	H 	0.3907	0.7613	0.1294	0.062
Mof_H 	H 	0.4218	0.6418	0.1053	0.002
Mof_H 	H 	0.3184	0.6829	0.9513	0.013
Mof_H 	H 	0.2914	0.803	0.9719	0.025
Mof_H 	H 	0.9055	0.8343	0.1215	0.017
Mof_H 	H 	0.9007	0.7087	0.1378	0.001
Mof_H 	H 	0.8013	0.6576	0.9837	-0.027
Mof_H 	H 	0.8067	0.7831	0.9629	0.046
Mof_H 	H 	0.2227	0.7106	0.25	0.06
Mof_H 	H 	0.3794	0.6015	0.25	0.036
Mof_H 	H 	0.8862	0.7383	0.25	0.009
Mof_H 	H 	0.7439	0.8412	0.25	0.047
Mof_H 	H 	0.7773	0.2894	0.75	0.051
Mof_H 	H 	0.6206	0.3985	0.75	0.038
Mof_H 	H 	0.1138	0.2617	0.75	0.022
Mof_H 	H 	0.2561	0.1588	0.75	0.051
Mof_C 	C 	0.051	0.143	0.3627	0.363
Mof_C 	C 	0.976	0.2146	0.352	-0.122
Mof_C 	C 	0.094	0.2794	0.3545	0.016
Mof_C 	C 	0.025	0.3467	0.3444	-0.002
Mof_C 	C 	0.726	0.2822	0.3298	0.002
Mof_C 	C 	0.784	0.214	0.3401	-0.014
Mof_C 	C 	0.326	0.8767	0.4329	0.305
Mof_C 	C 	0.3458	0.798	0.4483	-0.029
Mof_C 	C 	0.379	0.7463	0.4075	-0.057
Mof_C 	C 	0.3945	0.6756	0.4219	0.026
Mof_C 	C 	0.3349	0.6993	0.5121	0.037
Mof_C 	C 	0.3202	0.7708	0.4999	-0.056
Mof_C 	C 	0.8591	0.9033	0.4736	0.493
Mof_C 	C 	0.8575	0.8207	0.4595	-0.133
Mof_C 	C 	0.8843	0.7991	0.4073	0.006
Mof_C 	C 	0.879	0.7238	0.3983	0.001
Mof_C 	C 	0.8218	0.6936	0.4881	-0.015
Mof_C 	C 	0.8256	0.7682	0.5008	0.004
Mof_C 	C 	0.949	0.857	0.8627	0.243
Mof_C 	C 	0.024	0.7854	0.852	0.022
Mof_C 	C 	0.906	0.7206	0.8545	-0.098
Mof_C 	C 	0.975	0.6533	0.8444	0.005
Mof_C 	C 	0.274	0.7178	0.8298	0.045
Mof_C 	C 	0.216	0.786	0.8401	-0.086
Mof_C 	C 	0.674	0.1233	0.9329	0.296
Mof_C 	C 	0.6542	0.202	0.9483	-0.021
Mof_C 	C 	0.621	0.2537	0.9075	-0.069
Mof_C 	C 	0.6055	0.3244	0.9219	0.027
Mof_C 	C 	0.6651	0.3007	0.0121	0.063
Mof_C 	C 	0.6798	0.2292	0.9999	-0.095
Mof_C 	C 	0.1409	0.0967	0.9736	0.494
Mof_C 	C 	0.1425	0.1793	0.9595	-0.145
Mof_C 	C 	0.1157	0.2009	0.9073	0.021
Mof_C 	C 	0.121	0.2762	0.8983	-0
Mof_C 	C 	0.1782	0.3064	0.9881	-0.045
Mof_C 	C 	0.1744	0.2318	0.0008	0.044
Mof_C 	C 	0.949	0.857	0.6373	0.242
Mof_C 	C 	0.024	0.7854	0.648	0.024
Mof_C 	C 	0.906	0.7206	0.6455	-0.1
Mof_C 	C 	0.975	0.6533	0.6556	0.005
Mof_C 	C 	0.274	0.7178	0.6702	0.046
Mof_C 	C 	0.216	0.786	0.6599	-0.087
Mof_C 	C 	0.674	0.1233	0.5671	0.303
Mof_C 	C 	0.6542	0.202	0.5517	-0.036
Mof_C 	C 	0.621	0.2537	0.5925	-0.058
Mof_C 	C 	0.6055	0.3244	0.5781	0.02
Mof_C 	C 	0.6651	0.3007	0.4879	0.031
Mof_C 	C 	0.6798	0.2292	0.5001	-0.057
Mof_C 	C 	0.1409	0.0967	0.5264	0.496
Mof_C 	C 	0.1425	0.1793	0.5405	-0.125
Mof_C 	C 	0.1157	0.2009	0.5927	0.008
Mof_C 	C 	0.121	0.2762	0.6017	0.008
Mof_C 	C 	0.1782	0.3064	0.5119	-0.009
Mof_C 	C 	0.1744	0.2318	0.4992	0.007
Mof_C 	C 	0.051	0.143	0.1373	0.364
Mof_C 	C 	0.976	0.2146	0.148	-0.123
Mof_C 	C 	0.094	0.2794	0.1455	0.016
Mof_C 	C 	0.025	0.3467	0.1556	-0.001
Mof_C 	C 	0.726	0.2822	0.1702	0.002
Mof_C 	C 	0.784	0.214	0.1599	-0.013
Mof_C 	C 	0.326	0.8767	0.0671	0.315
Mof_C 	C 	0.3458	0.798	0.0517	-0.056
Mof_C 	C 	0.379	0.7463	0.0925	-0.038
Mof_C 	C 	0.3945	0.6756	0.0781	0.014
Mof_C 	C 	0.3349	0.6993	0.9879	-0.018
Mof_C 	C 	0.3202	0.7708	0.0001	0.011
Mof_C 	C 	0.8591	0.9033	0.0264	0.498
Mof_C 	C 	0.8575	0.8207	0.0405	-0.104
Mof_C 	C 	0.8843	0.7991	0.0927	-0.012
Mof_C 	C 	0.879	0.7238	0.1017	0.012
Mof_C 	C 	0.8218	0.6936	0.0119	0.034
Mof_C 	C 	0.8256	0.7682	0.9992	-0.049
Mof_C 	C 	0.362	0.8533	0.25	0.29
Mof_C 	C 	0.472	0.7904	0.25	-0.049
Mof_C 	C 	0.359	0.7165	0.25	-0.035
Mof_C 	C 	0.453	0.6504	0.25	-0.008
Mof_C 	C 	0.749	0.7318	0.25	0.019
Mof_C 	C 	0.664	0.7936	0.25	-0.047
Mof_C 	C 	0.638	0.1467	0.75	0.295
Mof_C 	C 	0.528	0.2096	0.75	-0.055
Mof_C 	C 	0.641	0.2835	0.75	-0.03
Mof_C 	C 	0.547	0.3496	0.75	-0.01
Mof_C 	C 	0.251	0.2682	0.75	0.016
Mof_C 	C 	0.336	0.2064	0.75	-0.041
Mof_I 	I 	0.02427	0.5569	0.32978	-0.604
Mof_I 	I 	0.4896	0.47047	0.40983	-0.732
Mof_I 	I 	0.97573	0.4431	0.82978	-0.65
Mof_I 	I 	0.5104	0.52953	0.90983	-0.734
Mof_I 	I 	0.97573	0.4431	0.67022	-0.65
Mof_I 	I 	0.5104	0.52953	0.59017	-0.73
Mof_I 	I 	0.02427	0.5569	0.17022	-0.603
Mof_I 	I 	0.4896	0.47047	0.09017	-0.73
Mof_I 	I 	0.46789	0.44153	0.25	-0.596
Mof_I 	I 	0.53211	0.55847	0.75	-0.594
Mof_I 	I 	-1.88581e-17	0.5	0.5	-0.742
Mof_I 	I 	-0	0.5	-0	-0.731
Mof_N 	N 	0.8377	0.3488	0.332	-0.236
Mof_N 	N 	0.372	0.6512	0.4742	-0.231
Mof_N 	N 	0.8466	0.67	0.4363	-0.224
Mof_N 	N 	0.1623	0.6512	0.832	-0.229
Mof_N 	N 	0.628	0.3488	0.9742	-0.243
Mof_N 	N 	0.1534	0.33	0.9363	-0.213
Mof_N 	N 	0.1623	0.6512	0.668	-0.229
Mof_N 	N 	0.628	0.3488	0.5258	-0.233
Mof_N 	N 	0.1534	0.33	0.5637	-0.219
Mof_N 	N 	0.8377	0.3488	0.168	-0.236
Mof_N 	N 	0.372	0.6512	0.0258	-0.216
Mof_N 	N 	0.8466	0.67	0.0637	-0.233
Mof_N 	N 	0.65	0.6615	0.25	-0.225
Mof_N 	N 	0.35	0.3385	0.75	-0.22
Mof_O 	O 	0.2321	0.1469	0.3643	-0.459
Mof_O 	O 	0.938	0.0844	0.3715	-0.45
Mof_O 	O 	0.3313	0.8964	0.3845	-0.456
Mof_O 	O 	0.3031	0.923	0.4703	-0.414
Mof_O 	O 	0.926	0.9502	0.4371	-0.528
Mof_O 	O 	0.7921	0.9168	0.5183	-0.543
Mof_O 	O 	0.7679	0.8531	0.8643	-0.432
Mof_O 	O 	0.062	0.9156	0.8715	-0.386
Mof_O 	O 	0.6687	0.1036	0.8845	-0.457
Mof_O 	O 	0.6969	0.077	0.9703	-0.42
Mof_O 	O 	0.074	0.0498	0.9371	-0.511
Mof_O 	O 	0.2079	0.0832	0.0183	-0.538
Mof_O 	O 	0.7679	0.8531	0.6357	-0.431
Mof_O 	O 	0.062	0.9156	0.6285	-0.385
Mof_O 	O 	0.6687	0.1036	0.6155	-0.46
Mof_O 	O 	0.6969	0.077	0.5297	-0.421
Mof_O 	O 	0.074	0.0498	0.5629	-0.512
Mof_O 	O 	0.2079	0.0832	0.4817	-0.542
Mof_O 	O 	0.2321	0.1469	0.1357	-0.459
Mof_O 	O 	0.938	0.0844	0.1285	-0.451
Mof_O 	O 	0.3313	0.8964	0.1155	-0.457
Mof_O 	O 	0.3031	0.923	0.0297	-0.411
Mof_O 	O 	0.926	0.9502	0.0629	-0.526
Mof_O 	O 	0.7921	0.9168	0.9817	-0.553
Mof_O 	O 	0.473	0.9195	0.25	-0.28
Mof_O 	O 	0.1869	0.8474	0.25	-0.273
Mof_O 	O 	0.527	0.0805	0.75	-0.283
Mof_O 	O 	0.8131	0.1526	0.75	-0.291
_end
