data_functionalizedCrystal
_audit_creation_method	'EQeq! by Chris Wilmer'
_symmetry_space_group_name_H-M	'P1'
_symmetry_Int_Tables_number	1
_symmetry_cell_setting	triclinic
loop_
_symmetry_equiv_pos_as_xyz
  x,y,z
_cell_length_a	10.285
_cell_length_b	11.5717
_cell_length_c	13.5114
_cell_angle_alpha	85.581
_cell_angle_beta	69.209
_cell_angle_gamma	63.755
loop_
_atom_site_label
_atom_site_type_symbol
_atom_site_fract_x
_atom_site_fract_y
_atom_site_fract_z
_atom_site_charge
Mof_Tm	Tm	0.44461	0.72456	0.67969	1.565
Mof_Tm	Tm	0.46882	0.20302	0.6907	1.686
Mof_Tm	Tm	0.55539	0.27544	0.32031	1.565
Mof_Tm	Tm	0.53118	0.79698	0.3093	1.686
Mof_H 	H 	0.9895	0.8894	0.6022	0.028
Mof_H 	H 	0.6346	0.7961	0.9087	0.036
Mof_H 	H 	0.007	0.5833	0.3898	0.047
Mof_H 	H 	0.0105	0.1106	0.3978	0.028
Mof_H 	H 	0.3654	0.2039	0.0913	0.036
Mof_H 	H 	0.993	0.4167	0.6102	0.047
Mof_C 	C 	0.8618	0.7528	0.4813	-0.089
Mof_C 	C 	0.1345	0.7224	0.5079	-0.122
Mof_C 	C 	0.4433	0.9513	0.816	0.403
Mof_C 	C 	0.8572	0.8437	0.5478	-0.042
Mof_C 	C 	0.1397	0.6281	0.4457	-0.03
Mof_C 	C 	0.9933	0.828	0.5593	0.019
Mof_C 	C 	0.7222	0.7658	0.4611	0.444
Mof_C 	C 	0.472	0.9786	0.9108	-0.098
Mof_C 	C 	0.58	0.8777	0.946	0.016
Mof_C 	C 	0.0031	0.6452	0.4323	-0.002
Mof_C 	C 	0.2656	0.2166	0.9398	0.358
Mof_C 	C 	0.3932	0.1028	0.965	-0.085
Mof_C 	C 	0.2737	0.7217	0.522	0.486
Mof_C 	C 	0.2873	0.5081	0.3966	0.271
Mof_C 	C 	0.7119	0.9623	0.6046	0.297
Mof_C 	C 	0.1382	0.2472	0.5187	-0.089
Mof_C 	C 	0.8655	0.2776	0.4921	-0.122
Mof_C 	C 	0.5567	0.0487	0.184	0.403
Mof_C 	C 	0.1428	0.1563	0.4522	-0.042
Mof_C 	C 	0.8603	0.3719	0.5543	-0.03
Mof_C 	C 	0.0067	0.172	0.4407	0.019
Mof_C 	C 	0.2778	0.2342	0.5389	0.444
Mof_C 	C 	0.528	0.0214	0.0892	-0.098
Mof_C 	C 	0.42	0.1223	0.054	0.016
Mof_C 	C 	0.9969	0.3548	0.5677	-0.002
Mof_C 	C 	0.7344	0.7834	0.0602	0.358
Mof_C 	C 	0.6068	0.8972	0.035	-0.085
Mof_C 	C 	0.7263	0.2783	0.478	0.486
Mof_C 	C 	0.7127	0.4919	0.6034	0.271
Mof_C 	C 	0.2881	0.0377	0.3954	0.297
Mof_O 	O 	0.6071	0.0151	0.56473	-0.375
Mof_O 	O 	0.3804	0.0462	0.76827	-0.431
Mof_O 	O 	0.4007	0.4814	0.426	-0.393
Mof_O 	O 	0.2848	0.6976	0.6115	-0.51
Mof_O 	O 	0.2997	0.2797	0.86117	-0.468
Mof_O 	O 	0.2967	0.4332	0.328	-0.375
Mof_O 	O 	0.7284	0.7747	0.3655	-0.456
Mof_O 	O 	0.4856	0.835	0.788	-0.484
Mof_O 	O 	0.1318	0.2463	0.003	-0.271
Mof_O 	O 	0.6995	0.0124	0.6897	-0.4
Mof_O 	O 	0.3617	0.7546	0.4484	-0.539
Mof_O 	O 	0.6087	0.7644	0.5363	-0.486
Mof_O 	O 	0.3929	0.9849	0.43527	-0.375
Mof_O 	O 	0.6196	0.9538	0.23173	-0.431
Mof_O 	O 	0.5993	0.5186	0.574	-0.393
Mof_O 	O 	0.7152	0.3024	0.3885	-0.51
Mof_O 	O 	0.7003	0.7203	0.13883	-0.468
Mof_O 	O 	0.7033	0.5668	0.672	-0.375
Mof_O 	O 	0.2716	0.2253	0.6345	-0.456
Mof_O 	O 	0.5144	0.165	0.212	-0.484
Mof_O 	O 	0.8682	0.7537	0.997	-0.271
Mof_O 	O 	0.3005	0.9876	0.3103	-0.4
Mof_O 	O 	0.6383	0.2454	0.5516	-0.539
Mof_O 	O 	0.3913	0.2356	0.4637	-0.486
_end
