# CIF file generated by openbabel 3.1.0, see https://openbabel.org
data_I
_chemical_name_common 'image0'
_cell_length_a 14.7716
_cell_length_b 12.426
_cell_length_c 16.6277
_cell_angle_alpha 90
_cell_angle_beta 90
_cell_angle_gamma 90
_space_group_name_H-M_alt 'P 1'
_space_group_name_Hall 'P 1'
loop_
    _symmetry_equiv_pos_as_xyz
    x,y,z
loop_
    _atom_site_label
    _atom_site_type_symbol
    _atom_site_fract_x
    _atom_site_fract_y
    _atom_site_fract_z
    _atom_site_occupancy
    Mn1      Mn       0.60476    0.48355    0.57927    1.000
    O1       O        0.59329    0.34818    0.66732    1.000
    O2       O        0.67367    0.48897    0.70250    1.000
    O3       O        0.70911    0.48089    0.48541    1.000
    O4       O        0.69819    0.63237    0.55128    1.000
    O5       O        0.49845    0.58148    0.62566    1.000
    O6       O        0.52509    0.38039    0.50320    1.000
    C1       C        0.63627    0.40077    0.71923    1.000
    C2       C        0.64164    0.35903    0.80374    1.000
    C3       C        0.69506    0.41174    0.86066    1.000
    C4       C        0.59283    0.26833    0.82635    1.000
    H1       H        0.72560    0.47440    0.84660    1.000
    C5       C        0.70289    0.37115    0.93850    1.000
    H2       H        0.55750    0.23260    0.78850    1.000
    C6       C        0.59623    0.23029    0.90516    1.000
    C7       C        0.65274    0.28084    0.96068    1.000
    C8       C        0.76852    0.42228    0.99609    1.000
    C9       C        0.53783    0.13685    0.92947    1.000
    H3       H        0.65700    0.25420    0.01280    1.000
    Mn2      Mn       0.89524    0.51645    0.07927    1.000
    O7       O        0.90671    0.65182    0.16732    1.000
    O8       O        0.82633    0.51103    0.20250    1.000
    O9       O        0.79089    0.51911    0.98541    1.000
    O10      O        0.80181    0.36763    0.05128    1.000
    O11      O        0.00155    0.41852    0.12566    1.000
    O12      O        0.97491    0.61961    0.00320    1.000
    C10      C        0.86373    0.59923    0.21923    1.000
    C11      C        0.85836    0.64097    0.30374    1.000
    C12      C        0.80494    0.58826    0.36066    1.000
    C13      C        0.90717    0.73167    0.32635    1.000
    H4       H        0.77440    0.52560    0.34660    1.000
    C14      C        0.79711    0.62885    0.43850    1.000
    H5       H        0.94250    0.76740    0.28850    1.000
    C15      C        0.90377    0.76971    0.40516    1.000
    C16      C        0.84726    0.71916    0.46068    1.000
    C17      C        0.73148    0.57772    0.49609    1.000
    C18      C        0.96217    0.86315    0.42947    1.000
    H6       H        0.84300    0.74580    0.51280    1.000
    Mn3      Mn       0.39524    0.98355    0.92073    1.000
    O13      O        0.40671    0.84818    0.83268    1.000
    O14      O        0.32633    0.98897    0.79750    1.000
    O15      O        0.29089    0.98089    0.01459    1.000
    O16      O        0.30181    0.13237    0.94872    1.000
    O17      O        0.50155    0.08148    0.87434    1.000
    O18      O        0.47491    0.88039    0.99680    1.000
    C19      C        0.36373    0.90077    0.78077    1.000
    C20      C        0.35836    0.85903    0.69626    1.000
    C21      C        0.30494    0.91174    0.63934    1.000
    C22      C        0.40717    0.76833    0.67365    1.000
    H7       H        0.27440    0.97440    0.65340    1.000
    C23      C        0.29711    0.87115    0.56150    1.000
    H8       H        0.44250    0.73260    0.71150    1.000
    C24      C        0.40377    0.73029    0.59484    1.000
    C25      C        0.34726    0.78084    0.53932    1.000
    C26      C        0.23148    0.92228    0.50391    1.000
    C27      C        0.46217    0.63685    0.57053    1.000
    H9       H        0.34300    0.75420    0.48720    1.000
    Mn4      Mn       0.10476    0.01645    0.42073    1.000
    O19      O        0.09329    0.15182    0.33268    1.000
    O20      O        0.17367    0.01103    0.29750    1.000
    O21      O        0.20911    0.01911    0.51459    1.000
    O22      O        0.19819    0.86763    0.44872    1.000
    O23      O        0.99845    0.91852    0.37434    1.000
    O24      O        0.02509    0.11961    0.49680    1.000
    C28      C        0.13627    0.09923    0.28077    1.000
    C29      C        0.14164    0.14097    0.19626    1.000
    C30      C        0.19506    0.08826    0.13934    1.000
    C31      C        0.09283    0.23167    0.17365    1.000
    H10      H        0.22560    0.02560    0.15340    1.000
    C32      C        0.20289    0.12885    0.06150    1.000
    H11      H        0.05750    0.26740    0.21150    1.000
    C33      C        0.09623    0.26971    0.09484    1.000
    C34      C        0.15274    0.21916    0.03932    1.000
    C35      C        0.26852    0.07772    0.00391    1.000
    C36      C        0.03783    0.36315    0.07053    1.000
    H12      H        0.15700    0.24580    0.98720    1.000
    Mn5      Mn       0.39524    0.51645    0.42073    1.000
    O25      O        0.40671    0.65182    0.33268    1.000
    O26      O        0.32633    0.51103    0.29750    1.000
    O27      O        0.29089    0.51911    0.51459    1.000
    O28      O        0.30181    0.36763    0.44872    1.000
    O29      O        0.50155    0.41852    0.37434    1.000
    O30      O        0.47491    0.61961    0.49680    1.000
    C37      C        0.36373    0.59923    0.28077    1.000
    C38      C        0.35836    0.64097    0.19626    1.000
    C39      C        0.30494    0.58826    0.13934    1.000
    C40      C        0.40717    0.73167    0.17365    1.000
    H13      H        0.27440    0.52560    0.15340    1.000
    C41      C        0.29711    0.62885    0.06150    1.000
    H14      H        0.44250    0.76740    0.21150    1.000
    C42      C        0.40377    0.76971    0.09484    1.000
    C43      C        0.34726    0.71916    0.03932    1.000
    C44      C        0.23148    0.57772    0.00391    1.000
    C45      C        0.46217    0.86315    0.07053    1.000
    H15      H        0.34300    0.74580    0.98720    1.000
    Mn6      Mn       0.10476    0.48355    0.92073    1.000
    O31      O        0.09329    0.34818    0.83268    1.000
    O32      O        0.17367    0.48897    0.79750    1.000
    O33      O        0.20911    0.48089    0.01459    1.000
    O34      O        0.19819    0.63237    0.94872    1.000
    O35      O        0.99845    0.58148    0.87434    1.000
    O36      O        0.02509    0.38039    0.99680    1.000
    C46      C        0.13627    0.40077    0.78077    1.000
    C47      C        0.14164    0.35903    0.69626    1.000
    C48      C        0.19506    0.41174    0.63934    1.000
    C49      C        0.09283    0.26833    0.67365    1.000
    H16      H        0.22560    0.47440    0.65340    1.000
    C50      C        0.20289    0.37115    0.56150    1.000
    H17      H        0.05750    0.23260    0.71150    1.000
    C51      C        0.09623    0.23029    0.59484    1.000
    C52      C        0.15274    0.28084    0.53932    1.000
    C53      C        0.26852    0.42228    0.50391    1.000
    C54      C        0.03783    0.13685    0.57053    1.000
    H18      H        0.15700    0.25420    0.48720    1.000
    Mn7      Mn       0.60476    0.01645    0.07927    1.000
    O37      O        0.59329    0.15182    0.16732    1.000
    O38      O        0.67367    0.01103    0.20250    1.000
    O39      O        0.70911    0.01911    0.98541    1.000
    O40      O        0.69819    0.86763    0.05128    1.000
    O41      O        0.49845    0.91852    0.12566    1.000
    O42      O        0.52509    0.11961    0.00320    1.000
    C55      C        0.63627    0.09923    0.21923    1.000
    C56      C        0.64164    0.14097    0.30374    1.000
    C57      C        0.69506    0.08826    0.36066    1.000
    C58      C        0.59283    0.23167    0.32635    1.000
    H19      H        0.72560    0.02560    0.34660    1.000
    C59      C        0.70289    0.12885    0.43850    1.000
    H20      H        0.55750    0.26740    0.28850    1.000
    C60      C        0.59623    0.26971    0.40516    1.000
    C61      C        0.65274    0.21916    0.46068    1.000
    C62      C        0.76852    0.07772    0.49609    1.000
    C63      C        0.53783    0.36315    0.42947    1.000
    H21      H        0.65700    0.24580    0.51280    1.000
    Mn8      Mn       0.89524    0.98355    0.57927    1.000
    O43      O        0.90671    0.84818    0.66732    1.000
    O44      O        0.82633    0.98897    0.70250    1.000
    O45      O        0.79089    0.98089    0.48541    1.000
    O46      O        0.80181    0.13237    0.55128    1.000
    O47      O        0.00155    0.08148    0.62566    1.000
    O48      O        0.97491    0.88039    0.50320    1.000
    C64      C        0.86373    0.90077    0.71923    1.000
    C65      C        0.85836    0.85903    0.80374    1.000
    C66      C        0.80494    0.91174    0.86066    1.000
    C67      C        0.90717    0.76833    0.82635    1.000
    H22      H        0.77440    0.97440    0.84660    1.000
    C68      C        0.79711    0.87115    0.93850    1.000
    H23      H        0.94250    0.73260    0.78850    1.000
    C69      C        0.90377    0.73029    0.90516    1.000
    C70      C        0.84726    0.78084    0.96068    1.000
    C71      C        0.73148    0.92228    0.99609    1.000
    C72      C        0.96217    0.63685    0.92947    1.000
    H24      H        0.84300    0.75420    0.01280    1.000
