# CIF file generated by openbabel 3.1.0, see https://openbabel.org
data_I
_chemical_name_common 'image0'
_cell_length_a 13.895
_cell_length_b 26.9
_cell_length_c 7.613
_cell_angle_alpha 90
_cell_angle_beta 90
_cell_angle_gamma 91.06
_space_group_name_H-M_alt 'P 1'
_space_group_name_Hall 'P 1'
loop_
    _symmetry_equiv_pos_as_xyz
    x,y,z
loop_
    _atom_site_label
    _atom_site_type_symbol
    _atom_site_fract_x
    _atom_site_fract_y
    _atom_site_fract_z
    _atom_site_occupancy
    Cd1      Cd       0.26681    0.36989    0.38287    1.000
    Cd2      Cd       0.19060    0.63635    0.37897    1.000
    Ni1      Ni       0.19723    0.49967    0.87280    1.000
    Ni2      Ni       0.99598    0.23630    0.26640    1.000
    N1       N        0.22650    0.42210    0.14900    1.000
    N2       N        0.21060    0.42270    0.58680    1.000
    N3       N        0.13020    0.31940    0.38000    1.000
    N4       N        0.33460    0.31620    0.61200    1.000
    N5       N        0.32460    0.31170    0.17000    1.000
    N6       N        0.43070    0.39070    0.34700    1.000
    N7       N        0.20340    0.57520    0.16200    1.000
    N8       N        0.18650    0.58160    0.60500    1.000
    N9       N        0.85370    0.15840    0.14000    1.000
    N10      N        0.83370    0.29380    0.42700    1.000
    N11      N        0.16930    0.69290    0.14000    1.000
    N12      N        0.02250    0.63430    0.32260    1.000
    C1       C        0.21370    0.45090    0.04300    1.000
    C2       C        0.20100    0.45200    0.69600    1.000
    C3       C        0.07950    0.28780    0.33800    1.000
    C4       C        0.40040    0.29720    0.67100    1.000
    C5       C        0.19960    0.54700    0.05200    1.000
    C6       C        0.18780    0.55070    0.70500    1.000
    C7       C        0.90900    0.18730    0.18800    1.000
    C8       C        0.89330    0.27140    0.36200    1.000
    C9       C        0.42940    0.31660    0.16400    1.000
    C10      C        0.47030    0.36270    0.20000    1.000
    C11      C        0.58140    0.36590    0.18800    1.000
    C12      C        0.06800    0.69610    0.10600    1.000
    C13      C        0.99980    0.66930    0.18600    1.000
    C14      C        0.89570    0.67490    0.14000    1.000
    Cd3      Cd       0.23319    0.13011    0.88287    1.000
    Cd4      Cd       0.30940    0.86365    0.87897    1.000
    Ni3      Ni       0.30277    0.00033    0.37280    1.000
    Ni4      Ni       0.50402    0.26370    0.76640    1.000
    N13      N        0.27350    0.07790    0.64900    1.000
    N14      N        0.28940    0.07730    0.08680    1.000
    N15      N        0.36980    0.18060    0.88000    1.000
    N16      N        0.16540    0.18380    0.11200    1.000
    N17      N        0.17540    0.18830    0.67000    1.000
    N18      N        0.06930    0.10930    0.84700    1.000
    N19      N        0.29660    0.92480    0.66200    1.000
    N20      N        0.31350    0.91840    0.10500    1.000
    N21      N        0.64630    0.34160    0.64000    1.000
    N22      N        0.66630    0.20620    0.92700    1.000
    N23      N        0.33070    0.80710    0.64000    1.000
    N24      N        0.47750    0.86570    0.82260    1.000
    C15      C        0.28630    0.04910    0.54300    1.000
    C16      C        0.29900    0.04800    0.19600    1.000
    C17      C        0.42050    0.21220    0.83800    1.000
    C18      C        0.09960    0.20280    0.17100    1.000
    C19      C        0.30040    0.95300    0.55200    1.000
    C20      C        0.31220    0.94930    0.20500    1.000
    C21      C        0.59100    0.31270    0.68800    1.000
    C22      C        0.60670    0.22860    0.86200    1.000
    C23      C        0.07060    0.18340    0.66400    1.000
    C24      C        0.02970    0.13730    0.70000    1.000
    C25      C        0.91860    0.13410    0.68800    1.000
    C26      C        0.43200    0.80390    0.60600    1.000
    C27      C        0.50020    0.83070    0.68600    1.000
    C28      C        0.60430    0.82510    0.64000    1.000
    Cd5      Cd       0.73319    0.63011    0.61713    1.000
    Cd6      Cd       0.80940    0.36365    0.62103    1.000
    Ni5      Ni       0.80277    0.50033    0.12720    1.000
    Ni6      Ni       0.00402    0.76370    0.73360    1.000
    N25      N        0.77350    0.57790    0.85100    1.000
    N26      N        0.78940    0.57730    0.41320    1.000
    N27      N        0.86980    0.68060    0.62000    1.000
    N28      N        0.66540    0.68380    0.38800    1.000
    N29      N        0.67540    0.68830    0.83000    1.000
    N30      N        0.56930    0.60930    0.65300    1.000
    N31      N        0.79660    0.42480    0.83800    1.000
    N32      N        0.81350    0.41840    0.39500    1.000
    N33      N        0.14630    0.84160    0.86000    1.000
    N34      N        0.16630    0.70620    0.57300    1.000
    N35      N        0.83070    0.30710    0.86000    1.000
    N36      N        0.97750    0.36570    0.67740    1.000
    C29      C        0.78630    0.54910    0.95700    1.000
    C30      C        0.79900    0.54800    0.30400    1.000
    C31      C        0.92050    0.71220    0.66200    1.000
    C32      C        0.59960    0.70280    0.32900    1.000
    C33      C        0.80040    0.45300    0.94800    1.000
    C34      C        0.81220    0.44930    0.29500    1.000
    C35      C        0.09100    0.81270    0.81200    1.000
    C36      C        0.10670    0.72860    0.63800    1.000
    C37      C        0.57060    0.68340    0.83600    1.000
    C38      C        0.52970    0.63730    0.80000    1.000
    C39      C        0.41860    0.63410    0.81200    1.000
    C40      C        0.93200    0.30390    0.89400    1.000
    C41      C        0.00020    0.33070    0.81400    1.000
    C42      C        0.10430    0.32510    0.86000    1.000
    Cd7      Cd       0.76681    0.86989    0.11713    1.000
    Cd8      Cd       0.69060    0.13635    0.12103    1.000
    Ni7      Ni       0.69723    0.99967    0.62720    1.000
    Ni8      Ni       0.49598    0.73630    0.23360    1.000
    N37      N        0.72650    0.92210    0.35100    1.000
    N38      N        0.71060    0.92270    0.91320    1.000
    N39      N        0.63020    0.81940    0.12000    1.000
    N40      N        0.83460    0.81620    0.88800    1.000
    N41      N        0.82460    0.81170    0.33000    1.000
    N42      N        0.93070    0.89070    0.15300    1.000
    N43      N        0.70340    0.07520    0.33800    1.000
    N44      N        0.68650    0.08160    0.89500    1.000
    N45      N        0.35370    0.65840    0.36000    1.000
    N46      N        0.33370    0.79380    0.07300    1.000
    N47      N        0.66930    0.19290    0.36000    1.000
    N48      N        0.52250    0.13430    0.17740    1.000
    C43      C        0.71370    0.95090    0.45700    1.000
    C44      C        0.70100    0.95200    0.80400    1.000
    C45      C        0.57950    0.78780    0.16200    1.000
    C46      C        0.90040    0.79720    0.82900    1.000
    C47      C        0.69960    0.04700    0.44800    1.000
    C48      C        0.68780    0.05070    0.79500    1.000
    C49      C        0.40900    0.68730    0.31200    1.000
    C50      C        0.39330    0.77140    0.13800    1.000
    C51      C        0.92940    0.81660    0.33600    1.000
    C52      C        0.97030    0.86270    0.30000    1.000
    C53      C        0.08140    0.86590    0.31200    1.000
    C54      C        0.56800    0.19610    0.39400    1.000
    C55      C        0.49980    0.16930    0.31400    1.000
    C56      C        0.39570    0.17490    0.36000    1.000
