# CIF file generated by openbabel 3.1.0, see https://openbabel.org
data_I
_chemical_name_common 'OBEPER_clean'
_cell_length_a 9.689
_cell_length_b 11.211
_cell_length_c 12.851
_cell_angle_alpha 90
_cell_angle_beta 90
_cell_angle_gamma 111.726
_space_group_name_H-M_alt 'P 1'
_space_group_name_Hall 'P 1'
loop_
    _symmetry_equiv_pos_as_xyz
    x,y,z
loop_
    _atom_site_label
    _atom_site_type_symbol
    _atom_site_fract_x
    _atom_site_fract_y
    _atom_site_fract_z
    _atom_site_occupancy
    Tm1      Tm       0.14470    0.35770    0.34758    1.000
    Tm2      Tm       0.35530    0.64230    0.84758    1.000
    Tm3      Tm       0.85530    0.64230    0.65242    1.000
    Tm4      Tm       0.64470    0.35770    0.15242    1.000
    H1       H        0.84760    0.99900    0.42360    1.000
    H2       H        0.51580    0.95070    0.68620    1.000
    H3       H        0.56060    0.26210    0.51350    1.000
    H4       H        0.65240    0.00100    0.92360    1.000
    H5       H        0.98420    0.04930    0.18620    1.000
    H6       H        0.93940    0.73790    0.01350    1.000
    H7       H        0.15240    0.00100    0.57640    1.000
    H8       H        0.48420    0.04930    0.31380    1.000
    H9       H        0.43940    0.73790    0.48650    1.000
    H10      H        0.34760    0.99900    0.07640    1.000
    H11      H        0.01580    0.95070    0.81380    1.000
    H12      H        0.06060    0.26210    0.98650    1.000
    C1       C        0.34480    0.14400    0.53560    1.000
    C2       C        0.25520    0.02880    0.58240    1.000
    C3       C        0.31840    0.95550    0.63780    1.000
    C4       C        0.47200    0.99790    0.64820    1.000
    C5       C        0.55710    0.11060    0.60140    1.000
    C6       C        0.49900    0.18610    0.54460    1.000
    C7       C        0.27590    0.22210    0.47570    1.000
    C8       C        0.22280    0.83120    0.68790    1.000
    C9       C        0.94980    0.50560    0.45460    1.000
    C10      C        0.15520    0.85600    0.03560    1.000
    C11      C        0.24480    0.97120    0.08240    1.000
    C12      C        0.18160    0.04450    0.13780    1.000
    C13      C        0.02800    0.00210    0.14820    1.000
    C14      C        0.94290    0.88940    0.10140    1.000
    C15      C        0.00100    0.81390    0.04460    1.000
    C16      C        0.22410    0.77790    0.97570    1.000
    C17      C        0.27720    0.16880    0.18790    1.000
    C18      C        0.55020    0.49440    0.95460    1.000
    C19      C        0.65520    0.85600    0.46440    1.000
    C20      C        0.74480    0.97120    0.41760    1.000
    C21      C        0.68160    0.04450    0.36220    1.000
    C22      C        0.52800    0.00210    0.35180    1.000
    C23      C        0.44290    0.88940    0.39860    1.000
    C24      C        0.50100    0.81390    0.45540    1.000
    C25      C        0.72410    0.77790    0.52430    1.000
    C26      C        0.77720    0.16880    0.31210    1.000
    C27      C        0.05020    0.49440    0.54540    1.000
    C28      C        0.84480    0.14400    0.96440    1.000
    C29      C        0.75520    0.02880    0.91760    1.000
    C30      C        0.81840    0.95550    0.86220    1.000
    C31      C        0.97200    0.99790    0.85180    1.000
    C32      C        0.05710    0.11060    0.89860    1.000
    C33      C        0.99900    0.18610    0.95540    1.000
    C34      C        0.77590    0.22210    0.02430    1.000
    C35      C        0.72280    0.83120    0.81210    1.000
    C36      C        0.44980    0.50560    0.04540    1.000
    N1       N        0.72110    0.15580    0.61110    1.000
    N2       N        0.77890    0.84420    0.11110    1.000
    N3       N        0.27890    0.84420    0.38890    1.000
    N4       N        0.22110    0.15580    0.88890    1.000
    O1       O        0.36020    0.32820    0.43530    1.000
    O2       O        0.13810    0.18520    0.46770    1.000
    O3       O        0.91410    0.19950    0.31590    1.000
    O4       O        0.28740    0.76670    0.73140    1.000
    O5       O        0.77240    0.09020    0.66200    1.000
    O6       O        0.79540    0.25300    0.56690    1.000
    O7       O        0.85400    0.55170    0.47620    1.000
    O8       O        0.97430    0.46830    0.36810    1.000
    O9       O        0.13980    0.67180    0.93530    1.000
    O10      O        0.36190    0.81480    0.96770    1.000
    O11      O        0.58590    0.80050    0.81590    1.000
    O12      O        0.21260    0.23330    0.23140    1.000
    O13      O        0.72760    0.90980    0.16200    1.000
    O14      O        0.70460    0.74700    0.06690    1.000
    O15      O        0.64600    0.44830    0.97620    1.000
    O16      O        0.52570    0.53170    0.86810    1.000
    O17      O        0.63980    0.67180    0.56470    1.000
    O18      O        0.86190    0.81480    0.53230    1.000
    O19      O        0.08590    0.80050    0.68410    1.000
    O20      O        0.71260    0.23330    0.26860    1.000
    O21      O        0.22760    0.90980    0.33800    1.000
    O22      O        0.20460    0.74700    0.43310    1.000
    O23      O        0.14600    0.44830    0.52380    1.000
    O24      O        0.02570    0.53170    0.63190    1.000
    O25      O        0.86020    0.32820    0.06470    1.000
    O26      O        0.63810    0.18520    0.03230    1.000
    O27      O        0.41410    0.19950    0.18410    1.000
    O28      O        0.78740    0.76670    0.76860    1.000
    O29      O        0.27240    0.09020    0.83800    1.000
    O30      O        0.29540    0.25300    0.93310    1.000
    O31      O        0.35400    0.55170    0.02380    1.000
    O32      O        0.47430    0.46830    0.13190    1.000
