# CIF file generated by openbabel 3.1.0, see https://openbabel.org
data_I
_chemical_name_common 'QUPHUF_clean'
_cell_length_a 9.3046
_cell_length_b 13.7029
_cell_length_c 19.9111
_cell_angle_alpha 86.5705
_cell_angle_beta 79.8517
_cell_angle_gamma 70.1529
_space_group_name_H-M_alt 'P 1'
_space_group_name_Hall 'P 1'
loop_
    _symmetry_equiv_pos_as_xyz
    x,y,z
loop_
    _atom_site_label
    _atom_site_type_symbol
    _atom_site_fract_x
    _atom_site_fract_y
    _atom_site_fract_z
    _atom_site_occupancy
    Zn1      Zn       0.59666    0.74166    0.01193    1.000
    Zn2      Zn       0.16168    0.74166    0.48807    1.000
    Zn3      Zn       0.40334    0.25834    0.98807    1.000
    Zn4      Zn       0.83832    0.25834    0.51193    1.000
    H1       H        0.38710    0.63200    0.06670    1.000
    H2       H        0.37690    0.48620    0.12590    1.000
    H3       H        0.82770    0.41140    0.13130    1.000
    H4       H        0.82480    0.55720    0.07090    1.000
    H5       H        0.76270    0.31480    0.22320    1.000
    H6       H        0.78580    0.23760    0.16340    1.000
    H7       H        0.51490    0.11740    0.24270    1.000
    H8       H        0.52630    0.18720    0.17760    1.000
    H9       H        0.89160    0.88520    0.14540    1.000
    H10      H        0.85570    0.76400    0.08300    1.000
    H11      H        0.43770    0.94760    0.07040    1.000
    H12      H        0.47080    0.07420    0.12630    1.000
    H13      H        0.78740    0.82500    0.80670    1.000
    H14      H        0.95120    0.51440    0.80670    1.000
    H15      H        0.01950    0.85440    0.94100    1.000
    H16      H        0.20340    0.99180    0.05420    1.000
    H17      H        0.48090    0.63200    0.43330    1.000
    H18      H        0.63690    0.48620    0.37410    1.000
    H19      H        0.26090    0.41140    0.36870    1.000
    H20      H        0.11800    0.55720    0.42910    1.000
    H21      H        0.42250    0.31480    0.27680    1.000
    H22      H        0.47660    0.23760    0.33660    1.000
    H23      H        0.86770    0.11740    0.25730    1.000
    H24      H        0.78650    0.18720    0.32240    1.000
    H25      H        0.72320    0.88520    0.35460    1.000
    H26      H        0.88030    0.76400    0.41700    1.000
    H27      H        0.11470    0.94760    0.42960    1.000
    H28      H        0.95500    0.07420    0.37370    1.000
    H29      H        0.88760    0.82500    0.69330    1.000
    H30      H        0.03440    0.51440    0.69330    1.000
    H31      H        0.62610    0.85440    0.55900    1.000
    H32      H        0.30480    0.99180    0.44580    1.000
    H33      H        0.61290    0.36800    0.93330    1.000
    H34      H        0.62310    0.51380    0.87410    1.000
    H35      H        0.17230    0.58860    0.86870    1.000
    H36      H        0.17520    0.44280    0.92910    1.000
    H37      H        0.23730    0.68520    0.77680    1.000
    H38      H        0.21420    0.76240    0.83660    1.000
    H39      H        0.48510    0.88260    0.75730    1.000
    H40      H        0.47370    0.81280    0.82240    1.000
    H41      H        0.10840    0.11480    0.85460    1.000
    H42      H        0.14430    0.23600    0.91700    1.000
    H43      H        0.56230    0.05240    0.92960    1.000
    H44      H        0.52920    0.92580    0.87370    1.000
    H45      H        0.21260    0.17500    0.19330    1.000
    H46      H        0.04880    0.48560    0.19330    1.000
    H47      H        0.98050    0.14560    0.05900    1.000
    H48      H        0.79660    0.00820    0.94580    1.000
    H49      H        0.51910    0.36800    0.56670    1.000
    H50      H        0.36310    0.51380    0.62590    1.000
    H51      H        0.73910    0.58860    0.63130    1.000
    H52      H        0.88200    0.44280    0.57090    1.000
    H53      H        0.57750    0.68520    0.72320    1.000
    H54      H        0.52340    0.76240    0.66340    1.000
    H55      H        0.13230    0.88260    0.74270    1.000
    H56      H        0.21350    0.81280    0.67760    1.000
    H57      H        0.27680    0.11480    0.64540    1.000
    H58      H        0.11970    0.23600    0.58300    1.000
    H59      H        0.88530    0.05240    0.57040    1.000
    H60      H        0.04500    0.92580    0.62630    1.000
    H61      H        0.11240    0.17500    0.30670    1.000
    H62      H        0.96560    0.48560    0.30670    1.000
    H63      H        0.37390    0.14560    0.44100    1.000
    H64      H        0.69520    0.00820    0.55420    1.000
    C1       C        0.47730    0.58680    0.08000    1.000
    C2       C        0.46990    0.49960    0.11580    1.000
    C3       C        0.59990    0.43340    0.13640    1.000
    C4       C        0.73600    0.45560    0.11870    1.000
    C5       C        0.73270    0.54300    0.08270    1.000
    C6       C        0.71137    0.27906    0.20020    1.000
    C7       C        0.58374    0.14532    0.21140    1.000
    C8       C        0.68340    0.99360    0.14380    1.000
    C9       C        0.79820    0.89940    0.12970    1.000
    C10      C        0.77560    0.82640    0.09270    1.000
    C11      C        0.53210    0.93500    0.08490    1.000
    C12      C        0.54990    0.01060    0.11930    1.000
    C13      C        0.79750    0.66740    0.89490    1.000
    C14      C        0.85980    0.66940    0.81950    1.000
    C15      C        0.84020    0.76220    0.78400    1.000
    C16      C        0.93580    0.57720    0.78360    1.000
    C17      C        0.26880    0.81500    0.99340    1.000
    C18      C        0.12930    0.91080    0.99750    1.000
    C19      C        0.01220    0.91240    0.96520    1.000
    C20      C        0.12110    0.99800    0.03190    1.000
    C21      C        0.43590    0.58680    0.42000    1.000
    C22      C        0.53050    0.49960    0.38420    1.000
    C23      C        0.46670    0.43340    0.36360    1.000
    C24      C        0.30840    0.45560    0.38130    1.000
    C25      C        0.22430    0.54300    0.41730    1.000
    C26      C        0.50957    0.27906    0.29980    1.000
    C27      C        0.77094    0.14532    0.28860    1.000
    C28      C        0.82300    0.99360    0.35620    1.000
    C29      C        0.80240    0.89940    0.37030    1.000
    C30      C        0.89800    0.82640    0.40730    1.000
    C31      C        0.03290    0.93500    0.41510    1.000
    C32      C        0.93950    0.01060    0.38070    1.000
    C33      C        0.03510    0.66740    0.60510    1.000
    C34      C        0.97080    0.66940    0.68050    1.000
    C35      C        0.89760    0.76220    0.71600    1.000
    C36      C        0.98700    0.57720    0.71640    1.000
    C37      C        0.41620    0.81500    0.50660    1.000
    C38      C        0.45990    0.91080    0.50250    1.000
    C39      C        0.57540    0.91240    0.53480    1.000
    C40      C        0.38090    0.99800    0.46810    1.000
    C41      C        0.52270    0.41320    0.92000    1.000
    C42      C        0.53010    0.50040    0.88420    1.000
    C43      C        0.40010    0.56660    0.86360    1.000
    C44      C        0.26400    0.54440    0.88130    1.000
    C45      C        0.26730    0.45700    0.91730    1.000
    C46      C        0.28863    0.72094    0.79980    1.000
    C47      C        0.41626    0.85468    0.78860    1.000
    C48      C        0.31660    0.00640    0.85620    1.000
    C49      C        0.20180    0.10060    0.87030    1.000
    C50      C        0.22440    0.17360    0.90730    1.000
    C51      C        0.46790    0.06500    0.91510    1.000
    C52      C        0.45010    0.98940    0.88070    1.000
    C53      C        0.20250    0.33260    0.10510    1.000
    C54      C        0.14020    0.33060    0.18050    1.000
    C55      C        0.15980    0.23780    0.21600    1.000
    C56      C        0.06420    0.42280    0.21640    1.000
    C57      C        0.73120    0.18500    0.00660    1.000
    C58      C        0.87070    0.08920    0.00250    1.000
    C59      C        0.98780    0.08760    0.03480    1.000
    C60      C        0.87890    0.00200    0.96810    1.000
    C61      C        0.56410    0.41320    0.58000    1.000
    C62      C        0.46950    0.50040    0.61580    1.000
    C63      C        0.53330    0.56660    0.63640    1.000
    C64      C        0.69160    0.54440    0.61870    1.000
    C65      C        0.77570    0.45700    0.58270    1.000
    C66      C        0.49043    0.72094    0.70020    1.000
    C67      C        0.22906    0.85468    0.71140    1.000
    C68      C        0.17700    0.00640    0.64380    1.000
    C69      C        0.19760    0.10060    0.62970    1.000
    C70      C        0.10200    0.17360    0.59270    1.000
    C71      C        0.96710    0.06500    0.58490    1.000
    C72      C        0.06050    0.98940    0.61930    1.000
    C73      C        0.96490    0.33260    0.39490    1.000
    C74      C        0.02920    0.33060    0.31950    1.000
    C75      C        0.10240    0.23780    0.28400    1.000
    C76      C        0.01300    0.42280    0.28360    1.000
    C77      C        0.58380    0.18500    0.49340    1.000
    C78      C        0.54010    0.08920    0.49750    1.000
    C79      C        0.42460    0.08760    0.46520    1.000
    C80      C        0.61910    0.00200    0.53190    1.000
    C81      C        0.64450    0.21100    0.25000    1.000
    C82      C        0.35550    0.78900    0.75000    1.000
    N1       N        0.60556    0.61008    0.06310    1.000
    N2       N        0.64394    0.84132    0.07010    1.000
    N3       N        0.28436    0.61008    0.43690    1.000
    N4       N        0.01474    0.84132    0.42990    1.000
    N5       N        0.39444    0.38992    0.93690    1.000
    N6       N        0.35606    0.15868    0.92990    1.000
    N7       N        0.71564    0.38992    0.56310    1.000
    N8       N        0.98526    0.15868    0.57010    1.000
    O1       O        0.58191    0.35198    0.17420    1.000
    O2       O        0.71246    0.06308    0.17890    1.000
    O3       O        0.69555    0.75010    0.91940    1.000
    O4       O        0.84790    0.58900    0.92810    1.000
    O5       O        0.37761    0.82658    0.01700    1.000
    O6       O        0.26898    0.73404    0.97150    1.000
    O7       O        0.56611    0.35198    0.32580    1.000
    O8       O        0.72446    0.06308    0.32110    1.000
    O9       O        0.05435    0.75010    0.58060    1.000
    O10      O        0.06310    0.58900    0.57190    1.000
    O11      O        0.29581    0.82658    0.48300    1.000
    O12      O        0.49698    0.73404    0.52850    1.000
    O13      O        0.41809    0.64802    0.82580    1.000
    O14      O        0.28754    0.93692    0.82110    1.000
    O15      O        0.30445    0.24990    0.08060    1.000
    O16      O        0.15210    0.41100    0.07190    1.000
    O17      O        0.62239    0.17342    0.98300    1.000
    O18      O        0.73102    0.26596    0.02850    1.000
    O19      O        0.43389    0.64802    0.67420    1.000
    O20      O        0.27554    0.93692    0.67890    1.000
    O21      O        0.94565    0.24990    0.41940    1.000
    O22      O        0.93690    0.41100    0.42810    1.000
    O23      O        0.70419    0.17342    0.51700    1.000
    O24      O        0.50302    0.26596    0.47150    1.000
