data_functionalizedCrystal
_audit_creation_method	'EQeq! by Chris Wilmer'
_symmetry_space_group_name_H-M	'P1'
_symmetry_Int_Tables_number	1
_symmetry_cell_setting	triclinic
loop_
_symmetry_equiv_pos_as_xyz
  x,y,z
_cell_length_a	14.8344
_cell_length_b	19.0682
_cell_length_c	19.0682
_cell_angle_alpha	111.289
_cell_angle_beta	108.118
_cell_angle_gamma	71.8817
loop_
_atom_site_label
_atom_site_type_symbol
_atom_site_fract_x
_atom_site_fract_y
_atom_site_fract_z
_atom_site_charge
Mof_Fe	Fe	0.37589	0.39214	0.04858	0.76
Mof_Fe	Fe	0.62411	0.04858	0.39214	0.76
Mof_Fe	Fe	0.62411	0.60786	0.95142	0.797
Mof_Fe	Fe	0.37589	0.95142	0.60786	0.797
Mof_Fe	Fe	0.5	0.5	-0	0.716
Mof_Fe	Fe	0.5	0	0.5	0.717
Mof_H 	H 	0.3036	0.5697	0.8947	-0.009
Mof_H 	H 	0.1768	0.4487	0.9477	-0.024
Mof_H 	H 	0.121	0.4565	0.7611	0.185
Mof_H 	H 	0.1644	0.5213	0.7595	0.185
Mof_H 	H 	0.0994	0.6639	0.9297	0.188
Mof_H 	H 	0.1508	0.6493	0.8633	0.196
Mof_H 	H 	0.6495	0.3476	0.9324	-0.022
Mof_H 	H 	0.5238	0.2369	0.9995	-0.03
Mof_H 	H 	0.7459	0.1642	0.0268	0.162
Mof_H 	H 	0.651	0.1319	0.9859	0.178
Mof_H 	H 	0.8985	0.0241	0.9029	0.189
Mof_H 	H 	0.7475	0.2372	0.8802	0.191
Mof_H 	H 	0.8048	0.2283	0.9621	0.192
Mof_H 	H 	0.568	0.5906	0.1774	-0.029
Mof_H 	H 	0.4403	0.4677	0.2259	-0.013
Mof_H 	H 	0.4802	0.5295	0.3535	0.2
Mof_H 	H 	0.5782	0.4697	0.3395	0.192
Mof_H 	H 	0.7373	0.4909	0.4361	0.184
Mof_H 	H 	0.682	0.5894	0.2944	0.179
Mof_H 	H 	0.7026	0.5066	0.3032	0.179
Mof_H 	H 	0.8798	0.4348	0.8174	-0.017
Mof_H 	H 	0.7773	0.6555	0.9043	-0.025
Mof_H 	H 	0.92	0.6791	0.9031	0.188
Mof_H 	H 	0.855	0.6759	0.8195	0.189
Mof_H 	H 	0.9914	0.7249	0.8363	-0.114
Mof_H 	H 	0.0522	0.6369	0.7251	0.188
Mof_H 	H 	0.9386	0.6472	0.7068	0.188
Mof_H 	H 	0.0124	0.5185	0.6693	-0.125
Mof_H 	H 	0.9435	0.4694	0.7344	0.189
Mof_H 	H 	0.8686	0.5411	0.7115	0.195
Mof_H 	H 	0.039	0.4802	0.8668	0.185
Mof_H 	H 	0.0313	0.5597	0.9321	0.189
Mof_H 	H 	0.6964	0.8947	0.5697	-0.009
Mof_H 	H 	0.8232	0.9477	0.4487	-0.024
Mof_H 	H 	0.879	0.7611	0.4565	0.185
Mof_H 	H 	0.8356	0.7595	0.5213	0.185
Mof_H 	H 	0.9006	0.9297	0.6639	0.188
Mof_H 	H 	0.8492	0.8633	0.6493	0.196
Mof_H 	H 	0.3505	0.9324	0.3476	-0.022
Mof_H 	H 	0.4762	0.9995	0.2369	-0.03
Mof_H 	H 	0.2541	0.0268	0.1642	0.162
Mof_H 	H 	0.349	0.9859	0.1319	0.178
Mof_H 	H 	0.1015	0.9029	0.0241	0.189
Mof_H 	H 	0.2525	0.8802	0.2372	0.191
Mof_H 	H 	0.1952	0.9621	0.2283	0.192
Mof_H 	H 	0.432	0.1774	0.5906	-0.029
Mof_H 	H 	0.5597	0.2259	0.4677	-0.013
Mof_H 	H 	0.5198	0.3535	0.5295	0.2
Mof_H 	H 	0.4218	0.3395	0.4697	0.192
Mof_H 	H 	0.2627	0.4361	0.4909	0.184
Mof_H 	H 	0.318	0.2944	0.5894	0.179
Mof_H 	H 	0.2974	0.3032	0.5066	0.179
Mof_H 	H 	0.1202	0.8174	0.4348	-0.017
Mof_H 	H 	0.2227	0.9043	0.6555	-0.025
Mof_H 	H 	0.08	0.9031	0.6791	0.188
Mof_H 	H 	0.145	0.8195	0.6759	0.189
Mof_H 	H 	0.0086	0.8363	0.7249	-0.114
Mof_H 	H 	0.9478	0.7251	0.6369	0.188
Mof_H 	H 	0.0614	0.7068	0.6472	0.188
Mof_H 	H 	0.9876	0.6693	0.5185	-0.125
Mof_H 	H 	0.0565	0.7344	0.4694	0.189
Mof_H 	H 	0.1314	0.7115	0.5411	0.195
Mof_H 	H 	0.961	0.8668	0.4802	0.185
Mof_H 	H 	0.9687	0.9321	0.5597	0.189
Mof_H 	H 	0.6964	0.4303	0.1053	-0.012
Mof_H 	H 	0.8232	0.5513	0.0523	-0.031
Mof_H 	H 	0.879	0.5435	0.2389	0.182
Mof_H 	H 	0.8356	0.4787	0.2405	0.182
Mof_H 	H 	0.9006	0.3361	0.0703	0.176
Mof_H 	H 	0.8492	0.3507	0.1367	0.189
Mof_H 	H 	0.3505	0.6524	0.0676	-0.026
Mof_H 	H 	0.4762	0.7631	0.0005	-0.026
Mof_H 	H 	0.2541	0.8358	0.9732	0.211
Mof_H 	H 	0.349	0.8681	0.0141	0.193
Mof_H 	H 	0.1015	0.9759	0.0971	0.195
Mof_H 	H 	0.2525	0.7628	0.1198	0.19
Mof_H 	H 	0.1952	0.7717	0.0379	0.183
Mof_H 	H 	0.432	0.4094	0.8226	-0.028
Mof_H 	H 	0.5597	0.5323	0.7741	-0.014
Mof_H 	H 	0.5198	0.4705	0.6465	0.2
Mof_H 	H 	0.4218	0.5303	0.6605	0.192
Mof_H 	H 	0.2627	0.5091	0.5639	0.184
Mof_H 	H 	0.318	0.4106	0.7056	0.179
Mof_H 	H 	0.2974	0.4934	0.6968	0.179
Mof_H 	H 	0.1202	0.5652	0.1826	-0.018
Mof_H 	H 	0.2227	0.3445	0.0957	-0.03
Mof_H 	H 	0.08	0.3209	0.0969	0.179
Mof_H 	H 	0.145	0.3241	0.1805	0.184
Mof_H 	H 	0.0086	0.2751	0.1637	-0.116
Mof_H 	H 	0.9478	0.3631	0.2749	0.186
Mof_H 	H 	0.0614	0.3528	0.2932	0.185
Mof_H 	H 	0.9876	0.4815	0.3307	-0.123
Mof_H 	H 	0.0565	0.5306	0.2656	0.187
Mof_H 	H 	0.1314	0.4589	0.2885	0.192
Mof_H 	H 	0.961	0.5198	0.1332	0.18
Mof_H 	H 	0.9687	0.4403	0.0679	0.179
Mof_H 	H 	0.3036	0.1053	0.4303	-0.012
Mof_H 	H 	0.1768	0.0523	0.5513	-0.031
Mof_H 	H 	0.121	0.2389	0.5435	0.182
Mof_H 	H 	0.1644	0.2405	0.4787	0.182
Mof_H 	H 	0.0994	0.0703	0.3361	0.176
Mof_H 	H 	0.1508	0.1367	0.3507	0.189
Mof_H 	H 	0.6495	0.0676	0.6524	-0.026
Mof_H 	H 	0.5238	0.0005	0.7631	-0.026
Mof_H 	H 	0.7459	0.9732	0.8358	0.211
Mof_H 	H 	0.651	0.0141	0.8681	0.193
Mof_H 	H 	0.8985	0.0971	0.9759	0.195
Mof_H 	H 	0.7475	0.1198	0.7628	0.19
Mof_H 	H 	0.8048	0.0379	0.7717	0.183
Mof_H 	H 	0.568	0.8226	0.4094	-0.028
Mof_H 	H 	0.4403	0.7741	0.5323	-0.014
Mof_H 	H 	0.4802	0.6465	0.4705	0.2
Mof_H 	H 	0.5782	0.6605	0.5303	0.192
Mof_H 	H 	0.7373	0.5639	0.5091	0.184
Mof_H 	H 	0.682	0.7056	0.4106	0.179
Mof_H 	H 	0.7026	0.6968	0.4934	0.179
Mof_H 	H 	0.8798	0.1826	0.5652	-0.018
Mof_H 	H 	0.7773	0.0957	0.3445	-0.03
Mof_H 	H 	0.92	0.0969	0.3209	0.179
Mof_H 	H 	0.855	0.1805	0.3241	0.184
Mof_H 	H 	0.9914	0.1637	0.2751	-0.116
Mof_H 	H 	0.0522	0.2749	0.3631	0.186
Mof_H 	H 	0.9386	0.2932	0.3528	0.185
Mof_H 	H 	0.0124	0.3307	0.4815	-0.123
Mof_H 	H 	0.9435	0.2656	0.5306	0.187
Mof_H 	H 	0.8686	0.2885	0.4589	0.192
Mof_H 	H 	0.039	0.1332	0.5198	0.18
Mof_H 	H 	0.0313	0.0679	0.4403	0.179
Mof_H 	H 	0.7895	0.0279	0.9721	-0.121
Mof_H 	H 	0.8851	0.1334	0.8666	-0.126
Mof_H 	H 	0.5947	0.1865	0.8135	0.186
Mof_H 	H 	0.5575	0.1459	0.8541	0.186
Mof_H 	H 	0.2105	0.9721	0.0279	-0.121
Mof_H 	H 	0.1149	0.8666	0.1334	-0.126
Mof_H 	H 	0.4053	0.8135	0.1865	0.186
Mof_H 	H 	0.4425	0.8541	0.1459	0.186
Mof_H 	H 	0.5879	0.5253	0.4747	-0.105
Mof_H 	H 	0.7899	0.5852	0.4148	-0.117
Mof_H 	H 	0.5229	0.6849	0.3151	0.18
Mof_H 	H 	0.446	0.6614	0.3386	0.186
Mof_H 	H 	0.4121	0.4747	0.5253	-0.105
Mof_H 	H 	0.2101	0.4148	0.5852	-0.117
Mof_H 	H 	0.4771	0.3151	0.6849	0.18
Mof_H 	H 	0.554	0.3386	0.6614	0.186
Mof_Au	Au	0.67377	0.31481	0.30161	-0.001
Mof_Au	Au	0.32623	0.30161	0.31481	-0.001
Mof_Au	Au	0.32623	0.68519	0.6984	0.001
Mof_Au	Au	0.67377	0.6984	0.68519	0.001
Mof_Au	Au	0.28041	0.16549	0.83451	0.004
Mof_Au	Au	0.71959	0.83451	0.16549	0.004
Mof_Au	Au	0.5	0.22502	0.22502	0.009
Mof_Au	Au	0.5	0.77498	0.77498	0.022
Mof_C 	C 	0.293	0.53688	0.91592	0.114
Mof_C 	C 	0.2233	0.47048	0.94512	0.126
Mof_C 	C 	0.1122	0.5515	0.8575	0.413
Mof_C 	C 	0.1118	0.5118	0.7724	-0.555
Mof_C 	C 	0.0984	0.6387	0.8753	-0.554
Mof_C 	C 	0.6079	0.33651	0.95269	0.122
Mof_C 	C 	0.5385	0.27566	0.98914	0.147
Mof_C 	C 	0.6765	0.19107	0.92433	0.407
Mof_C 	C 	0.7079	0.13971	0.97729	-0.511
Mof_C 	C 	0.7666	0.20369	0.91271	-0.562
Mof_C 	C 	0.5331	0.55543	0.17217	0.121
Mof_C 	C 	0.4626	0.4883	0.1989	0.125
Mof_C 	C 	0.5492	0.524	0.3594	-0.548
Mof_C 	C 	0.6726	0.56073	0.32347	-0.537
Mof_C 	C 	0.5638	0.57011	0.31469	0.403
Mof_C 	C 	0.8427	0.4813	0.8421	0.106
Mof_C 	C 	0.7869	0.60196	0.88924	0.128
Mof_C 	C 	0.9324	0.5676	0.829	0.409
Mof_C 	C 	0.9177	0.6547	0.8483	-0.551
Mof_C 	C 	0.0003	0.6692	0.8262	0.422
Mof_C 	C 	0.9998	0.6274	0.7384	-0.584
Mof_C 	C 	0.0127	0.5445	0.7241	0.457
Mof_C 	C 	0.9313	0.5247	0.7435	-0.559
Mof_C 	C 	0.0303	0.53531	0.87749	-0.537
Mof_C 	C 	0.294	0.25716	0.92504	0.048
Mof_C 	C 	0.4562	0.29025	0.15575	0.055
Mof_C 	C 	0.6873	0.3268	0.2066	0.014
Mof_C 	C 	0.6649	0.30997	0.40183	0.023
Mof_C 	C 	0.707	0.91592	0.53688	0.114
Mof_C 	C 	0.7767	0.94512	0.47048	0.126
Mof_C 	C 	0.8878	0.8575	0.5515	0.413
Mof_C 	C 	0.8882	0.7724	0.5118	-0.555
Mof_C 	C 	0.9016	0.8753	0.6387	-0.554
Mof_C 	C 	0.3921	0.95269	0.33651	0.122
Mof_C 	C 	0.4615	0.98914	0.27566	0.147
Mof_C 	C 	0.3235	0.92433	0.19107	0.407
Mof_C 	C 	0.2921	0.97729	0.13971	-0.511
Mof_C 	C 	0.2334	0.91271	0.20369	-0.562
Mof_C 	C 	0.4669	0.17217	0.55543	0.121
Mof_C 	C 	0.5374	0.1989	0.4883	0.125
Mof_C 	C 	0.4508	0.3594	0.524	-0.548
Mof_C 	C 	0.3274	0.32347	0.56073	-0.537
Mof_C 	C 	0.4362	0.31469	0.57011	0.403
Mof_C 	C 	0.1573	0.8421	0.4813	0.106
Mof_C 	C 	0.2131	0.88924	0.60196	0.128
Mof_C 	C 	0.0676	0.829	0.5676	0.409
Mof_C 	C 	0.0823	0.8483	0.6547	-0.551
Mof_C 	C 	0.9997	0.8262	0.6692	0.422
Mof_C 	C 	0.0002	0.7384	0.6274	-0.584
Mof_C 	C 	0.9873	0.7241	0.5445	0.457
Mof_C 	C 	0.0687	0.7435	0.5247	-0.559
Mof_C 	C 	0.9697	0.87749	0.53531	-0.537
Mof_C 	C 	0.706	0.92504	0.25716	0.048
Mof_C 	C 	0.5438	0.15575	0.29025	0.055
Mof_C 	C 	0.3127	0.2066	0.3268	0.014
Mof_C 	C 	0.3351	0.40183	0.30997	0.023
Mof_C 	C 	0.707	0.46312	0.08408	0.109
Mof_C 	C 	0.7767	0.52952	0.05488	0.122
Mof_C 	C 	0.8878	0.4485	0.1425	0.404
Mof_C 	C 	0.8882	0.4882	0.2276	-0.548
Mof_C 	C 	0.9016	0.3613	0.1247	-0.541
Mof_C 	C 	0.3921	0.66349	0.04731	0.116
Mof_C 	C 	0.4615	0.72434	0.01086	0.108
Mof_C 	C 	0.3235	0.80893	0.07567	0.419
Mof_C 	C 	0.2921	0.86029	0.02271	-0.582
Mof_C 	C 	0.2334	0.79631	0.08729	-0.565
Mof_C 	C 	0.4669	0.44457	0.82783	0.121
Mof_C 	C 	0.5374	0.5117	0.8011	0.126
Mof_C 	C 	0.4508	0.476	0.6406	-0.548
Mof_C 	C 	0.3274	0.43927	0.67653	-0.537
Mof_C 	C 	0.4362	0.42989	0.68531	0.403
Mof_C 	C 	0.1573	0.5187	0.1579	0.103
Mof_C 	C 	0.2131	0.39804	0.11076	0.123
Mof_C 	C 	0.0676	0.4324	0.171	0.401
Mof_C 	C 	0.0823	0.3453	0.1517	-0.539
Mof_C 	C 	0.9997	0.3308	0.1738	0.412
Mof_C 	C 	0.0002	0.3726	0.2616	-0.576
Mof_C 	C 	0.9873	0.4555	0.2759	0.45
Mof_C 	C 	0.0687	0.4753	0.2565	-0.552
Mof_C 	C 	0.9697	0.46469	0.12251	-0.526
Mof_C 	C 	0.706	0.74284	0.07496	0.043
Mof_C 	C 	0.5438	0.70975	0.84425	0.062
Mof_C 	C 	0.3127	0.6732	0.7934	0.016
Mof_C 	C 	0.3351	0.69003	0.59817	0.022
Mof_C 	C 	0.293	0.08408	0.46312	0.109
Mof_C 	C 	0.2233	0.05488	0.52952	0.122
Mof_C 	C 	0.1122	0.1425	0.4485	0.404
Mof_C 	C 	0.1118	0.2276	0.4882	-0.548
Mof_C 	C 	0.0984	0.1247	0.3613	-0.541
Mof_C 	C 	0.6079	0.04731	0.66349	0.116
Mof_C 	C 	0.5385	0.01086	0.72434	0.108
Mof_C 	C 	0.6765	0.07567	0.80893	0.419
Mof_C 	C 	0.7079	0.02271	0.86029	-0.582
Mof_C 	C 	0.7666	0.08729	0.79631	-0.565
Mof_C 	C 	0.5331	0.82783	0.44457	0.121
Mof_C 	C 	0.4626	0.8011	0.5117	0.126
Mof_C 	C 	0.5492	0.6406	0.476	-0.548
Mof_C 	C 	0.6726	0.67653	0.43927	-0.537
Mof_C 	C 	0.5638	0.68531	0.42989	0.403
Mof_C 	C 	0.8427	0.1579	0.5187	0.103
Mof_C 	C 	0.7869	0.11076	0.39804	0.123
Mof_C 	C 	0.9324	0.171	0.4324	0.401
Mof_C 	C 	0.9177	0.1517	0.3453	-0.539
Mof_C 	C 	0.0003	0.1738	0.3308	0.412
Mof_C 	C 	0.9998	0.2616	0.3726	-0.576
Mof_C 	C 	0.0127	0.2759	0.4555	0.45
Mof_C 	C 	0.9313	0.2565	0.4753	-0.552
Mof_C 	C 	0.0303	0.12251	0.46469	-0.526
Mof_C 	C 	0.294	0.07496	0.74284	0.043
Mof_C 	C 	0.4562	0.84425	0.70975	0.062
Mof_C 	C 	0.6873	0.7934	0.6732	0.016
Mof_C 	C 	0.6649	0.59817	0.69003	0.022
Mof_C 	C 	0.7694	0.0613	0.9387	0.437
Mof_C 	C 	0.8594	0.0734	0.9266	-0.584
Mof_C 	C 	0.8274	0.1254	0.8746	0.452
Mof_C 	C 	0.6152	0.1534	0.8466	-0.541
Mof_C 	C 	0.2306	0.9387	0.0613	0.437
Mof_C 	C 	0.1406	0.9266	0.0734	-0.584
Mof_C 	C 	0.1726	0.8746	0.1254	0.452
Mof_C 	C 	0.3848	0.8466	0.1534	-0.541
Mof_C 	C 	0.5974	0.5545	0.4455	0.423
Mof_C 	C 	0.7068	0.5451	0.4549	-0.553
Mof_C 	C 	0.7203	0.5908	0.4092	0.423
Mof_C 	C 	0.515	0.6556	0.3444	-0.527
Mof_C 	C 	0.4026	0.4455	0.5545	0.423
Mof_C 	C 	0.2932	0.4549	0.5451	-0.553
Mof_C 	C 	0.2797	0.4092	0.5908	0.423
Mof_C 	C 	0.485	0.3444	0.6556	-0.527
Mof_N 	N 	0.3154	0.45697	0.97975	-0.172
Mof_N 	N 	0.4895	0.34776	0.00258	-0.194
Mof_N 	N 	0.4439	0.47085	0.12317	-0.175
Mof_N 	N 	0.7359	0.56434	0.90188	-0.176
Mof_N 	N 	0.3153	0.31086	0.97354	-0.203
Mof_N 	N 	0.4302	0.32821	0.11559	-0.213
Mof_N 	N 	0.3603	0.49907	0.96117	-0.167
Mof_N 	N 	0.206	0.52094	0.90486	-0.208
Mof_N 	N 	0.5343	0.3867	0.98062	-0.162
Mof_N 	N 	0.6135	0.26626	0.95808	-0.207
Mof_N 	N 	0.4901	0.51303	0.10575	-0.173
Mof_N 	N 	0.5191	0.54043	0.23139	-0.206
Mof_N 	N 	0.772	0.48689	0.87211	-0.103
Mof_N 	N 	0.8553	0.55168	0.85132	-0.203
Mof_N 	N 	0.693	0.33789	0.15291	-0.133
Mof_N 	N 	0.6641	0.30889	0.46091	-0.128
Mof_N 	N 	0.6846	0.97975	0.45697	-0.172
Mof_N 	N 	0.5105	0.00258	0.34776	-0.194
Mof_N 	N 	0.5561	0.12317	0.47085	-0.175
Mof_N 	N 	0.2641	0.90188	0.56434	-0.176
Mof_N 	N 	0.6847	0.97354	0.31086	-0.203
Mof_N 	N 	0.5698	0.11559	0.32821	-0.213
Mof_N 	N 	0.6397	0.96117	0.49907	-0.167
Mof_N 	N 	0.794	0.90486	0.52094	-0.208
Mof_N 	N 	0.4657	0.98062	0.3867	-0.162
Mof_N 	N 	0.3865	0.95808	0.26626	-0.207
Mof_N 	N 	0.5099	0.10575	0.51303	-0.173
Mof_N 	N 	0.4809	0.23139	0.54043	-0.206
Mof_N 	N 	0.228	0.87211	0.48689	-0.103
Mof_N 	N 	0.1447	0.85132	0.55168	-0.203
Mof_N 	N 	0.307	0.15291	0.33789	-0.133
Mof_N 	N 	0.3359	0.46091	0.30889	-0.128
Mof_N 	N 	0.6846	0.54303	0.02025	-0.187
Mof_N 	N 	0.5105	0.65224	0.99742	-0.162
Mof_N 	N 	0.5561	0.52915	0.87683	-0.175
Mof_N 	N 	0.2641	0.43566	0.09812	-0.178
Mof_N 	N 	0.6847	0.68914	0.02646	-0.219
Mof_N 	N 	0.5698	0.67179	0.88441	-0.212
Mof_N 	N 	0.6397	0.50093	0.03883	-0.176
Mof_N 	N 	0.794	0.47906	0.09514	-0.208
Mof_N 	N 	0.4657	0.6133	0.01938	-0.18
Mof_N 	N 	0.3865	0.73374	0.04192	-0.206
Mof_N 	N 	0.5099	0.48697	0.89425	-0.168
Mof_N 	N 	0.4809	0.45957	0.76861	-0.206
Mof_N 	N 	0.228	0.51311	0.12789	-0.107
Mof_N 	N 	0.1447	0.44832	0.14868	-0.202
Mof_N 	N 	0.307	0.66211	0.84709	-0.129
Mof_N 	N 	0.3359	0.69111	0.53909	-0.128
Mof_N 	N 	0.3154	0.02025	0.54303	-0.187
Mof_N 	N 	0.4895	0.99742	0.65224	-0.162
Mof_N 	N 	0.4439	0.87683	0.52915	-0.175
Mof_N 	N 	0.7359	0.09812	0.43566	-0.178
Mof_N 	N 	0.3153	0.02646	0.68914	-0.219
Mof_N 	N 	0.4302	0.88441	0.67179	-0.212
Mof_N 	N 	0.3603	0.03883	0.50093	-0.176
Mof_N 	N 	0.206	0.09514	0.47906	-0.208
Mof_N 	N 	0.5343	0.01938	0.6133	-0.18
Mof_N 	N 	0.6135	0.04192	0.73374	-0.206
Mof_N 	N 	0.4901	0.89425	0.48697	-0.168
Mof_N 	N 	0.5191	0.76861	0.45957	-0.206
Mof_N 	N 	0.772	0.12789	0.51311	-0.107
Mof_N 	N 	0.8553	0.14868	0.44832	-0.202
Mof_N 	N 	0.693	0.84709	0.66211	-0.129
Mof_N 	N 	0.6641	0.53909	0.69111	-0.128
_end
