data_functionalizedCrystal
_audit_creation_method	'EQeq! by Chris Wilmer'
_symmetry_space_group_name_H-M	'P1'
_symmetry_Int_Tables_number	1
_symmetry_cell_setting	triclinic
loop_
_symmetry_equiv_pos_as_xyz
  x,y,z
_cell_length_a	29.243
_cell_length_b	10.394
_cell_length_c	26.164
_cell_angle_alpha	90
_cell_angle_beta	114.57
_cell_angle_gamma	90
loop_
_atom_site_label
_atom_site_type_symbol
_atom_site_fract_x
_atom_site_fract_y
_atom_site_fract_z
_atom_site_charge
Mof_Zn	Zn	0.8209	0.62825	0.25307	1.172
Mof_K 	K 	0.77383	0.36425	0.31349	3.572
Mof_O 	O 	0.1082	0.792	0.2746	-0.226
Mof_O 	O 	0.1861	0.7333	0.3131	-0.769
Mof_O 	O 	0.0666	0.034	0.2863	-0.432
Mof_O 	O 	0.0326	0.908	0.3285	-0.277
Mof_O 	O 	0.2035	0.3892	0.6709	-0.912
Mof_O 	O 	0.196	0.2094	0.7085	-0.816
Mof_O 	O 	0.27901	0.02	0.7089	-0.703
Mof_O 	O 	0.2121	0.892	0.6788	-0.795
Mof_O 	O 	0.0061	0.203	0.3192	-0.463
Mof_O 	O 	0.9448	0.3358	0.2697	-0.291
Mof_O 	O 	0.8885	0.5708	0.3032	-0.486
Mof_O 	O 	0.8645	0.3698	0.3113	-0.719
Mof_C 	C 	0.1767	0.0001	0.4674	0.048
Mof_C 	C 	0.1308	0.0078	0.4208	-0.125
Mof_H 	H 	0.1057	0.0605	0.4225	0.074
Mof_C 	C 	0.1212	0.9395	0.3721	0.027
Mof_C 	C 	0.1583	0.8619	0.3683	-0.227
Mof_C 	C 	0.2045	0.8536	0.4146	0.075
Mof_H 	H 	0.2297	0.8021	0.4126	-0.125
Mof_C 	C 	0.2136	0.9208	0.4636	-0.178
Mof_H 	H 	0.2446	0.9129	0.4942	0.052
Mof_C 	C 	0.0694	0.9588	0.325	0.302
Mof_C 	C 	0.149	0.7819	0.3176	0.446
Mof_C 	C 	0.1853	0.0705	0.5197	0.004
Mof_C 	C 	0.2048	0.0053	0.5715	-0.033
Mof_H 	H 	0.2126	0.9184	0.5725	-0.026
Mof_C 	C 	0.2124	0.0683	0.6208	-0.063
Mof_C 	C 	0.1998	0.1984	0.6201	-0.23
Mof_C 	C 	0.1812	0.2632	0.5687	0.11
Mof_H 	H 	0.1736	0.3503	0.5675	-0.079
Mof_C 	C 	0.174	0.1997	0.5195	-0.152
Mof_H 	H 	0.1613	0.2447	0.4857	0.066
Mof_C 	C 	0.2338	0.9873	0.6735	0.425
Mof_C 	C 	0.2003	0.2687	0.6696	0.591
Mof_C 	C 	0.9967	0.47	0.4727	0.095
Mof_C 	C 	0.9531	0.4918	0.4237	-0.069
Mof_H 	H 	0.9281	0.5451	0.4253	0.02
Mof_C 	C 	0.9462	0.4353	0.3727	-0.073
Mof_C 	C 	0.9826	0.3553	0.3694	-0.029
Mof_C 	C 	0.0256	0.3363	0.4172	-0.021
Mof_H 	H 	0.0505	0.2837	0.4153	0.042
Mof_C 	C 	0.0334	0.3915	0.4679	-0.14
Mof_H 	H 	0.0634	0.3765	0.4992	0.059
Mof_C 	C 	0.8952	0.4591	0.3238	0.436
Mof_C 	C 	0.9767	0.2957	0.3146	0.359
Mof_O 	O 	0.1054	0.7404	0.2905	-0.114
Mof_Zn	Zn	0.3209	0.12825	0.25307	1.173
Mof_K 	K 	0.27383	0.86425	0.31349	3.566
Mof_O 	O 	0.6082	0.292	0.2746	-0.223
Mof_O 	O 	0.6861	0.2333	0.3131	-0.768
Mof_O 	O 	0.5666	0.534	0.2863	-0.428
Mof_O 	O 	0.5326	0.408	0.3285	-0.266
Mof_O 	O 	0.7035	0.8892	0.6709	-0.911
Mof_O 	O 	0.696	0.7094	0.7085	-0.815
Mof_O 	O 	0.77901	0.52	0.7089	-0.702
Mof_O 	O 	0.7121	0.392	0.6788	-0.794
Mof_O 	O 	0.5061	0.703	0.3192	-0.434
Mof_O 	O 	0.4448	0.8358	0.2697	-0.288
Mof_O 	O 	0.3885	0.0708	0.3032	-0.49
Mof_O 	O 	0.3645	0.8698	0.3113	-0.721
Mof_C 	C 	0.6767	0.5001	0.4674	0.049
Mof_C 	C 	0.6308	0.5078	0.4208	-0.127
Mof_H 	H 	0.6057	0.5605	0.4225	0.076
Mof_C 	C 	0.6212	0.4395	0.3721	0.03
Mof_C 	C 	0.6583	0.3619	0.3683	-0.227
Mof_C 	C 	0.7045	0.3536	0.4146	0.075
Mof_H 	H 	0.7297	0.3021	0.4126	-0.125
Mof_C 	C 	0.7136	0.4208	0.4636	-0.177
Mof_H 	H 	0.7446	0.4129	0.4942	0.052
Mof_C 	C 	0.5694	0.4588	0.325	0.301
Mof_C 	C 	0.649	0.2819	0.3176	0.446
Mof_C 	C 	0.6853	0.5705	0.5197	0.005
Mof_C 	C 	0.7048	0.5053	0.5715	-0.034
Mof_H 	H 	0.7126	0.4184	0.5725	-0.025
Mof_C 	C 	0.7124	0.5683	0.6208	-0.061
Mof_C 	C 	0.6998	0.6984	0.6201	-0.23
Mof_C 	C 	0.6812	0.7632	0.5687	0.111
Mof_H 	H 	0.6736	0.8503	0.5675	-0.079
Mof_C 	C 	0.674	0.6997	0.5195	-0.152
Mof_H 	H 	0.6613	0.7447	0.4857	0.067
Mof_C 	C 	0.7338	0.4873	0.6735	0.423
Mof_C 	C 	0.7003	0.7687	0.6696	0.592
Mof_C 	C 	0.4967	0.97	0.4727	-0.005
Mof_C 	C 	0.4531	0.9918	0.4237	-0.025
Mof_H 	H 	0.4281	0.0451	0.4253	0.001
Mof_C 	C 	0.4462	0.9353	0.3727	-0.095
Mof_C 	C 	0.4826	0.8553	0.3694	-0.033
Mof_C 	C 	0.5256	0.8363	0.4172	-0.026
Mof_H 	H 	0.5505	0.7837	0.4153	0.048
Mof_C 	C 	0.5334	0.8915	0.4679	-0.064
Mof_H 	H 	0.5634	0.8765	0.4992	0.035
Mof_C 	C 	0.3952	0.9591	0.3238	0.441
Mof_C 	C 	0.4767	0.7957	0.3146	0.325
Mof_O 	O 	0.6054	0.2404	0.2905	-0.111
Mof_Zn	Zn	0.1791	0.62825	0.24693	1.172
Mof_K 	K 	0.22617	0.36425	0.18651	3.568
Mof_O 	O 	0.8918	0.792	0.2254	-0.222
Mof_O 	O 	0.8139	0.7333	0.1869	-0.767
Mof_O 	O 	0.9334	0.034	0.2137	-0.417
Mof_O 	O 	0.9674	0.908	0.1715	-0.254
Mof_O 	O 	0.7965	0.3892	0.8291	-0.912
Mof_O 	O 	0.804	0.2094	0.7915	-0.814
Mof_O 	O 	0.72099	0.02	0.7911	-0.703
Mof_O 	O 	0.7879	0.892	0.8212	-0.794
Mof_O 	O 	0.9939	0.203	0.1808	-0.402
Mof_O 	O 	0.0552	0.3358	0.2303	-0.284
Mof_O 	O 	0.1115	0.5708	0.1968	-0.495
Mof_O 	O 	0.1355	0.3698	0.1887	-0.724
Mof_C 	C 	0.8233	0.0001	0.0326	0.056
Mof_C 	C 	0.8692	0.0078	0.0792	-0.128
Mof_H 	H 	0.8943	0.0605	0.0775	0.079
Mof_C 	C 	0.8788	0.9395	0.1279	0.033
Mof_C 	C 	0.8417	0.8619	0.1317	-0.227
Mof_C 	C 	0.7955	0.8536	0.0854	0.079
Mof_H 	H 	0.7703	0.8021	0.0874	-0.125
Mof_C 	C 	0.7864	0.9208	0.0364	-0.182
Mof_H 	H 	0.7554	0.9129	0.0058	0.054
Mof_C 	C 	0.9306	0.9588	0.175	0.296
Mof_C 	C 	0.851	0.7819	0.1824	0.446
Mof_C 	C 	0.8147	0.0705	0.9803	0.002
Mof_C 	C 	0.7952	0.0053	0.9285	-0.033
Mof_H 	H 	0.7874	0.9184	0.9275	-0.025
Mof_C 	C 	0.7876	0.0683	0.8792	-0.062
Mof_C 	C 	0.8002	0.1984	0.8799	-0.231
Mof_C 	C 	0.8188	0.2632	0.9313	0.114
Mof_H 	H 	0.8264	0.3503	0.9325	-0.08
Mof_C 	C 	0.826	0.1997	0.9805	-0.157
Mof_H 	H 	0.8387	0.2447	0.0143	0.071
Mof_C 	C 	0.7662	0.9873	0.8265	0.425
Mof_C 	C 	0.7997	0.2687	0.8304	0.592
Mof_C 	C 	0.0033	0.47	0.0273	-0.099
Mof_C 	C 	0.0469	0.4918	0.0763	0.018
Mof_H 	H 	0.0719	0.5451	0.0747	-0.017
Mof_C 	C 	0.0538	0.4353	0.1273	-0.116
Mof_C 	C 	0.0174	0.3553	0.1306	-0.038
Mof_C 	C 	0.9744	0.3363	0.0828	-0.03
Mof_H 	H 	0.9495	0.2837	0.0847	0.053
Mof_C 	C 	0.9666	0.3915	0.0321	0.009
Mof_H 	H 	0.9366	0.3765	0.0008	0.013
Mof_C 	C 	0.1048	0.4591	0.1762	0.449
Mof_C 	C 	0.0233	0.2957	0.1854	0.29
Mof_O 	O 	0.8946	0.7404	0.2095	-0.107
Mof_Zn	Zn	0.6791	0.12825	0.24693	1.173
Mof_K 	K 	0.72617	0.86425	0.18651	3.567
Mof_O 	O 	0.3918	0.292	0.2254	-0.223
Mof_O 	O 	0.3139	0.2333	0.1869	-0.767
Mof_O 	O 	0.4334	0.534	0.2137	-0.428
Mof_O 	O 	0.4674	0.408	0.1715	-0.265
Mof_O 	O 	0.2965	0.8892	0.8291	-0.911
Mof_O 	O 	0.304	0.7094	0.7915	-0.815
Mof_O 	O 	0.22099	0.52	0.7911	-0.702
Mof_O 	O 	0.2879	0.392	0.8212	-0.794
Mof_O 	O 	0.4939	0.703	0.1808	-0.434
Mof_O 	O 	0.5552	0.8358	0.2303	-0.288
Mof_O 	O 	0.6115	0.0708	0.1968	-0.49
Mof_O 	O 	0.6355	0.8698	0.1887	-0.721
Mof_C 	C 	0.3233	0.5001	0.0326	0.051
Mof_C 	C 	0.3692	0.5078	0.0792	-0.128
Mof_H 	H 	0.3943	0.5605	0.0775	0.077
Mof_C 	C 	0.3788	0.4395	0.1279	0.031
Mof_C 	C 	0.3417	0.3619	0.1317	-0.227
Mof_C 	C 	0.2955	0.3536	0.0854	0.077
Mof_H 	H 	0.2703	0.3021	0.0874	-0.125
Mof_C 	C 	0.2864	0.4208	0.0364	-0.178
Mof_H 	H 	0.2554	0.4129	0.0058	0.053
Mof_C 	C 	0.4306	0.4588	0.175	0.301
Mof_C 	C 	0.351	0.2819	0.1824	0.446
Mof_C 	C 	0.3147	0.5705	0.9803	0.003
Mof_C 	C 	0.2952	0.5053	0.9285	-0.034
Mof_H 	H 	0.2874	0.4184	0.9275	-0.026
Mof_C 	C 	0.2876	0.5683	0.8792	-0.062
Mof_C 	C 	0.3002	0.6984	0.8799	-0.231
Mof_C 	C 	0.3188	0.7632	0.9313	0.112
Mof_H 	H 	0.3264	0.8503	0.9325	-0.079
Mof_C 	C 	0.326	0.6997	0.9805	-0.155
Mof_H 	H 	0.3387	0.7447	0.0143	0.069
Mof_C 	C 	0.2662	0.4873	0.8265	0.423
Mof_C 	C 	0.2997	0.7687	0.8304	0.591
Mof_C 	C 	0.5033	0.97	0.0273	-0
Mof_C 	C 	0.5469	0.9918	0.0763	-0.03
Mof_H 	H 	0.5719	0.0451	0.0747	0.004
Mof_C 	C 	0.5538	0.9353	0.1273	-0.093
Mof_C 	C 	0.5174	0.8553	0.1306	-0.035
Mof_C 	C 	0.4744	0.8363	0.0828	-0.024
Mof_H 	H 	0.4495	0.7837	0.0847	0.047
Mof_C 	C 	0.4666	0.8915	0.0321	-0.067
Mof_H 	H 	0.4366	0.8765	0.0008	0.036
Mof_C 	C 	0.6048	0.9591	0.1762	0.44
Mof_C 	C 	0.5233	0.7957	0.1854	0.325
Mof_O 	O 	0.3946	0.2404	0.2095	-0.11
Mof_Zn	Zn	0.1791	0.37175	0.74693	1.172
Mof_K 	K 	0.22617	0.63575	0.68651	3.567
Mof_O 	O 	0.8918	0.208	0.7254	-0.222
Mof_O 	O 	0.8139	0.2667	0.6869	-0.767
Mof_O 	O 	0.9334	0.966	0.7137	-0.417
Mof_O 	O 	0.9674	0.092	0.6715	-0.254
Mof_O 	O 	0.7965	0.6108	0.3291	-0.912
Mof_O 	O 	0.804	0.7906	0.2915	-0.814
Mof_O 	O 	0.72099	0.98	0.2911	-0.703
Mof_O 	O 	0.7879	0.108	0.3212	-0.794
Mof_O 	O 	0.9939	0.797	0.6808	-0.402
Mof_O 	O 	0.0552	0.6642	0.7303	-0.284
Mof_O 	O 	0.1115	0.4292	0.6968	-0.496
Mof_O 	O 	0.1355	0.6302	0.6887	-0.724
Mof_C 	C 	0.8233	0.9999	0.5326	0.051
Mof_C 	C 	0.8692	0.9922	0.5792	-0.127
Mof_H 	H 	0.8943	0.9395	0.5775	0.078
Mof_C 	C 	0.8788	0.0605	0.6279	0.032
Mof_C 	C 	0.8417	0.1381	0.6317	-0.226
Mof_C 	C 	0.7955	0.1464	0.5854	0.076
Mof_H 	H 	0.7703	0.1979	0.5874	-0.125
Mof_C 	C 	0.7864	0.0792	0.5364	-0.179
Mof_H 	H 	0.7554	0.0871	0.5058	0.052
Mof_C 	C 	0.9306	0.0412	0.675	0.296
Mof_C 	C 	0.851	0.2181	0.6824	0.445
Mof_C 	C 	0.8147	0.9295	0.4803	0.004
Mof_C 	C 	0.7952	0.9947	0.4285	-0.032
Mof_H 	H 	0.7874	0.0816	0.4275	-0.025
Mof_C 	C 	0.7876	0.9317	0.3792	-0.062
Mof_C 	C 	0.8002	0.8016	0.3799	-0.23
Mof_C 	C 	0.8188	0.7368	0.4313	0.111
Mof_H 	H 	0.8264	0.6497	0.4325	-0.078
Mof_C 	C 	0.826	0.8003	0.4805	-0.151
Mof_H 	H 	0.8387	0.7553	0.5143	0.067
Mof_C 	C 	0.7662	0.0127	0.3265	0.425
Mof_C 	C 	0.7997	0.7313	0.3304	0.592
Mof_C 	C 	0.0033	0.53	0.5273	-0.107
Mof_C 	C 	0.0469	0.5082	0.5763	0.022
Mof_H 	H 	0.0719	0.4549	0.5747	-0.019
Mof_C 	C 	0.0538	0.5647	0.6273	-0.118
Mof_C 	C 	0.0174	0.6447	0.6306	-0.036
Mof_C 	C 	0.9744	0.6637	0.5828	-0.033
Mof_H 	H 	0.9495	0.7163	0.5847	0.054
Mof_C 	C 	0.9666	0.6085	0.5321	0.014
Mof_H 	H 	0.9366	0.6235	0.5008	0.01
Mof_C 	C 	0.1048	0.5409	0.6762	0.449
Mof_C 	C 	0.0233	0.7043	0.6854	0.289
Mof_O 	O 	0.8946	0.2596	0.7095	-0.107
Mof_Zn	Zn	0.6791	0.87175	0.74693	1.173
Mof_K 	K 	0.72617	0.13575	0.68651	3.568
Mof_O 	O 	0.3918	0.708	0.7254	-0.223
Mof_O 	O 	0.3139	0.7667	0.6869	-0.767
Mof_O 	O 	0.4334	0.466	0.7137	-0.428
Mof_O 	O 	0.4674	0.592	0.6715	-0.266
Mof_O 	O 	0.2965	0.1108	0.3291	-0.911
Mof_O 	O 	0.304	0.2906	0.2915	-0.815
Mof_O 	O 	0.22099	0.48	0.2911	-0.702
Mof_O 	O 	0.2879	0.608	0.3212	-0.794
Mof_O 	O 	0.4939	0.297	0.6808	-0.434
Mof_O 	O 	0.5552	0.1642	0.7303	-0.288
Mof_O 	O 	0.6115	0.9292	0.6968	-0.49
Mof_O 	O 	0.6355	0.1302	0.6887	-0.721
Mof_C 	C 	0.3233	0.4999	0.5326	0.048
Mof_C 	C 	0.3692	0.4922	0.5792	-0.127
Mof_H 	H 	0.3943	0.4395	0.5775	0.076
Mof_C 	C 	0.3788	0.5605	0.6279	0.03
Mof_C 	C 	0.3417	0.6381	0.6317	-0.226
Mof_C 	C 	0.2955	0.6464	0.5854	0.075
Mof_H 	H 	0.2703	0.6979	0.5874	-0.125
Mof_C 	C 	0.2864	0.5792	0.5364	-0.177
Mof_H 	H 	0.2554	0.5871	0.5058	0.052
Mof_C 	C 	0.4306	0.5412	0.675	0.302
Mof_C 	C 	0.351	0.7181	0.6824	0.446
Mof_C 	C 	0.3147	0.4295	0.4803	0.005
Mof_C 	C 	0.2952	0.4947	0.4285	-0.034
Mof_H 	H 	0.2874	0.5816	0.4275	-0.025
Mof_C 	C 	0.2876	0.4317	0.3792	-0.062
Mof_C 	C 	0.3002	0.3016	0.3799	-0.23
Mof_C 	C 	0.3188	0.2368	0.4313	0.111
Mof_H 	H 	0.3264	0.1497	0.4325	-0.078
Mof_C 	C 	0.326	0.3003	0.4805	-0.152
Mof_H 	H 	0.3387	0.2553	0.5143	0.067
Mof_C 	C 	0.2662	0.5127	0.3265	0.423
Mof_C 	C 	0.2997	0.2313	0.3304	0.591
Mof_C 	C 	0.5033	0.03	0.5273	-0.005
Mof_C 	C 	0.5469	0.0082	0.5763	-0.025
Mof_H 	H 	0.5719	0.9549	0.5747	0.001
Mof_C 	C 	0.5538	0.0647	0.6273	-0.095
Mof_C 	C 	0.5174	0.1447	0.6306	-0.033
Mof_C 	C 	0.4744	0.1637	0.5828	-0.026
Mof_H 	H 	0.4495	0.2163	0.5847	0.048
Mof_C 	C 	0.4666	0.1085	0.5321	-0.064
Mof_H 	H 	0.4366	0.1235	0.5008	0.035
Mof_C 	C 	0.6048	0.0409	0.6762	0.441
Mof_C 	C 	0.5233	0.2043	0.6854	0.325
Mof_O 	O 	0.3946	0.7596	0.7095	-0.111
Mof_Zn	Zn	0.8209	0.37175	0.75307	1.173
Mof_K 	K 	0.77383	0.63575	0.81349	3.572
Mof_O 	O 	0.1082	0.208	0.7746	-0.225
Mof_O 	O 	0.1861	0.2667	0.8131	-0.768
Mof_O 	O 	0.0666	0.966	0.7863	-0.432
Mof_O 	O 	0.0326	0.092	0.8285	-0.277
Mof_O 	O 	0.2035	0.6108	0.1709	-0.912
Mof_O 	O 	0.196	0.7906	0.2085	-0.816
Mof_O 	O 	0.27901	0.98	0.2089	-0.703
Mof_O 	O 	0.2121	0.108	0.1788	-0.795
Mof_O 	O 	0.0061	0.797	0.8192	-0.463
Mof_O 	O 	0.9448	0.6642	0.7697	-0.291
Mof_O 	O 	0.8885	0.4292	0.8032	-0.487
Mof_O 	O 	0.8645	0.6302	0.8113	-0.719
Mof_C 	C 	0.1767	0.9999	0.9674	0.048
Mof_C 	C 	0.1308	0.9922	0.9208	-0.123
Mof_H 	H 	0.1057	0.9395	0.9225	0.073
Mof_C 	C 	0.1212	0.0605	0.8721	0.025
Mof_C 	C 	0.1583	0.1381	0.8683	-0.226
Mof_C 	C 	0.2045	0.1464	0.9146	0.075
Mof_H 	H 	0.2297	0.1979	0.9126	-0.125
Mof_C 	C 	0.2136	0.0792	0.9636	-0.179
Mof_H 	H 	0.2446	0.0871	0.9942	0.051
Mof_C 	C 	0.0694	0.0412	0.825	0.302
Mof_C 	C 	0.149	0.2181	0.8176	0.446
Mof_C 	C 	0.1853	0.9295	0.0197	0.004
Mof_C 	C 	0.2048	0.9947	0.0715	-0.034
Mof_H 	H 	0.2126	0.0816	0.0725	-0.025
Mof_C 	C 	0.2124	0.9317	0.1208	-0.064
Mof_C 	C 	0.1998	0.8016	0.1201	-0.23
Mof_C 	C 	0.1812	0.7368	0.0687	0.108
Mof_H 	H 	0.1736	0.6497	0.0675	-0.078
Mof_C 	C 	0.174	0.8003	0.0195	-0.148
Mof_H 	H 	0.1613	0.7553	0.9857	0.063
Mof_C 	C 	0.2338	0.0127	0.1735	0.425
Mof_C 	C 	0.2003	0.7313	0.1696	0.591
Mof_C 	C 	0.9967	0.53	0.9727	0.087
Mof_C 	C 	0.9531	0.5082	0.9237	-0.065
Mof_H 	H 	0.9281	0.4549	0.9253	0.017
Mof_C 	C 	0.9462	0.5647	0.8727	-0.076
Mof_C 	C 	0.9826	0.6447	0.8694	-0.027
Mof_C 	C 	0.0256	0.6637	0.9172	-0.024
Mof_H 	H 	0.0505	0.7163	0.9153	0.043
Mof_C 	C 	0.0334	0.6085	0.9679	-0.135
Mof_H 	H 	0.0634	0.6235	0.9992	0.056
Mof_C 	C 	0.8952	0.5409	0.8238	0.436
Mof_C 	C 	0.9767	0.7043	0.8146	0.358
Mof_O 	O 	0.1054	0.2596	0.7905	-0.114
Mof_Zn	Zn	0.3209	0.87175	0.75307	1.173
Mof_K 	K 	0.27383	0.13575	0.81349	3.565
Mof_O 	O 	0.6082	0.708	0.7746	-0.223
Mof_O 	O 	0.6861	0.7667	0.8131	-0.768
Mof_O 	O 	0.5666	0.466	0.7863	-0.428
Mof_O 	O 	0.5326	0.592	0.8285	-0.266
Mof_O 	O 	0.7035	0.1108	0.1709	-0.911
Mof_O 	O 	0.696	0.2906	0.2085	-0.815
Mof_O 	O 	0.77901	0.48	0.2089	-0.702
Mof_O 	O 	0.7121	0.608	0.1788	-0.794
Mof_O 	O 	0.5061	0.297	0.8192	-0.434
Mof_O 	O 	0.4448	0.1642	0.7697	-0.288
Mof_O 	O 	0.3885	0.9292	0.8032	-0.49
Mof_O 	O 	0.3645	0.1302	0.8113	-0.721
Mof_C 	C 	0.6767	0.4999	0.9674	0.046
Mof_C 	C 	0.6308	0.4922	0.9208	-0.126
Mof_H 	H 	0.6057	0.4395	0.9225	0.075
Mof_C 	C 	0.6212	0.5605	0.8721	0.03
Mof_C 	C 	0.6583	0.6381	0.8683	-0.226
Mof_C 	C 	0.7045	0.6464	0.9146	0.074
Mof_H 	H 	0.7297	0.6979	0.9126	-0.124
Mof_C 	C 	0.7136	0.5792	0.9636	-0.176
Mof_H 	H 	0.7446	0.5871	0.9942	0.051
Mof_C 	C 	0.5694	0.5412	0.825	0.302
Mof_C 	C 	0.649	0.7181	0.8176	0.446
Mof_C 	C 	0.6853	0.4295	0.0197	0.005
Mof_C 	C 	0.7048	0.4947	0.0715	-0.033
Mof_H 	H 	0.7126	0.5816	0.0725	-0.025
Mof_C 	C 	0.7124	0.4317	0.1208	-0.062
Mof_C 	C 	0.6998	0.3016	0.1201	-0.229
Mof_C 	C 	0.6812	0.2368	0.0687	0.107
Mof_H 	H 	0.6736	0.1497	0.0675	-0.077
Mof_C 	C 	0.674	0.3003	0.0195	-0.145
Mof_H 	H 	0.6613	0.2553	0.9857	0.063
Mof_C 	C 	0.7338	0.5127	0.1735	0.423
Mof_C 	C 	0.7003	0.2313	0.1696	0.591
Mof_C 	C 	0.4967	0.03	0.9727	-0.01
Mof_C 	C 	0.4531	0.0082	0.9237	-0.025
Mof_H 	H 	0.4281	0.9549	0.9253	0.001
Mof_C 	C 	0.4462	0.0647	0.8727	-0.096
Mof_C 	C 	0.4826	0.1447	0.8694	-0.032
Mof_C 	C 	0.5256	0.1637	0.9172	-0.028
Mof_H 	H 	0.5505	0.2163	0.9153	0.048
Mof_C 	C 	0.5334	0.1085	0.9679	-0.061
Mof_H 	H 	0.5634	0.1235	0.9992	0.032
Mof_C 	C 	0.3952	0.0409	0.8238	0.441
Mof_C 	C 	0.4767	0.2043	0.8146	0.324
Mof_O 	O 	0.6054	0.7596	0.7905	-0.111
Mof_Zn	Zn	1.57188e-17	0.11617	0.25	1.234
Mof_Zn	Zn	0.5	0.61617	0.25	1.242
Mof_Zn	Zn	-3.14377e-17	0.88383	0.75	1.234
Mof_Zn	Zn	0.5	0.38383	0.75	1.242
_end
