data_functionalizedCrystal
_audit_creation_method	'EQeq! by Chris Wilmer'
_symmetry_space_group_name_H-M	'P1'
_symmetry_Int_Tables_number	1
_symmetry_cell_setting	triclinic
loop_
_symmetry_equiv_pos_as_xyz
  x,y,z
_cell_length_a	15.0956
_cell_length_b	15.5069
_cell_length_c	25.7271
_cell_angle_alpha	81.8967
_cell_angle_beta	73.1662
_cell_angle_gamma	60.8735
loop_
_atom_site_label
_atom_site_type_symbol
_atom_site_fract_x
_atom_site_fract_y
_atom_site_fract_z
_atom_site_charge
Mof_Zn	Zn	0.39406	0.4218	0.82973	1.219
Mof_Zn	Zn	0.18414	0.4218	0.67027	1.219
Mof_Zn	Zn	0.28443	0.08146	0.83878	1.22
Mof_Zn	Zn	0.71557	0.91854	0.16122	1.22
Mof_Zn	Zn	0.63411	0.08146	0.66122	1.22
Mof_Zn	Zn	0.36589	0.91854	0.33878	1.22
Mof_Zn	Zn	0.60594	0.5782	0.17027	1.219
Mof_Zn	Zn	0.81586	0.5782	0.32973	1.219
Mof_Mo	Mo	0.58429	0.81934	0.11238	1.041
Mof_Mo	Mo	0.15342	0.50628	0.79872	1.298
Mof_Mo	Mo	0.41571	0.18066	0.88762	1.041
Mof_Mo	Mo	0.55856	0.00208	0.29181	1.287
Mof_Mo	Mo	0.84658	0.49372	0.20128	1.298
Mof_Mo	Mo	0.45733	0.3183	0.60879	1.035
Mof_Mo	Mo	0.40363	0.18066	0.61238	1.04
Mof_Mo	Mo	0.09151	0.32226	0.79539	1.027
Mof_Mo	Mo	0.18988	0.18496	0.72139	1.029
Mof_Mo	Mo	0.54267	0.6817	0.39121	1.035
Mof_Mo	Mo	0.77563	0.6817	0.10879	1.035
Mof_Mo	Mo	0.59637	0.81934	0.38762	1.04
Mof_Mo	Mo	0.22437	0.3183	0.89121	1.035
Mof_Mo	Mo	0.90849	0.67774	0.20461	1.027
Mof_Mo	Mo	0.56064	0.99792	0.79181	1.283
Mof_Mo	Mo	0.3403	0.50628	0.70128	1.298
Mof_Mo	Mo	0.41377	0.67774	0.29539	1.027
Mof_Mo	Mo	0.81012	0.81504	0.27861	1.029
Mof_Mo	Mo	0.58623	0.32226	0.70461	1.027
Mof_Mo	Mo	0.62516	0.18496	0.77861	1.029
Mof_Mo	Mo	0.37484	0.81504	0.22139	1.029
Mof_Mo	Mo	0.6597	0.49372	0.29872	1.298
Mof_Mo	Mo	0.43936	0.00208	0.20819	1.283
Mof_Mo	Mo	0.44144	0.99792	0.70819	1.287
Mof_H 	H 	0.6049	0.3358	0.9754	0.036
Mof_H 	H 	0.0426	0.1032	0.4355	0.028
Mof_H 	H 	0.0437	0.8356	0.9962	0.034
Mof_H 	H 	0.6245	0.3974	0.0462	0.031
Mof_H 	H 	0.1458	0.8968	0.9355	0.029
Mof_H 	H 	0.9563	0.1644	0.0038	0.034
Mof_H 	H 	0.0219	0.6026	0.5462	0.031
Mof_H 	H 	0.1207	0.8356	0.5038	0.033
Mof_H 	H 	0.9574	0.8968	0.5645	0.028
Mof_H 	H 	0.8542	0.1032	0.0645	0.029
Mof_H 	H 	0.9407	0.6642	0.4754	0.036
Mof_H 	H 	0.0593	0.3358	0.5246	0.036
Mof_H 	H 	0.3951	0.6642	0.0246	0.036
Mof_H 	H 	0.8793	0.1644	0.4962	0.033
Mof_H 	H 	0.3755	0.6026	0.9538	0.031
Mof_H 	H 	0.9781	0.3974	0.4538	0.031
Mof_C 	C 	0.97389	0.09822	0.00223	-0.042
Mof_C 	C 	0.4372	0.598	0.01505	-0.037
Mof_C 	C 	0.02575	0.0615	0.46134	-0.032
Mof_C 	C 	0.20362	0.91896	0.42281	0.31
Mof_C 	C 	0.92789	0.09822	0.49777	-0.036
Mof_C 	C 	0.51056	0.53648	0.04331	-0.085
Mof_C 	C 	0.0129	0.561	0.52792	-0.032
Mof_C 	C 	0.06179	0.03662	0.96318	-0.073
Mof_C 	C 	0.9871	0.439	0.47208	-0.032
Mof_C 	C 	0.04704	0.46352	0.54331	-0.086
Mof_C 	C 	0.9005	0.5788	0.41119	0.317
Mof_C 	C 	0.93821	0.96338	0.03682	-0.073
Mof_C 	C 	0.5739	0.439	0.02792	-0.032
Mof_C 	C 	0.4793	0.4212	0.91119	0.316
Mof_C 	C 	0.4261	0.561	0.97208	-0.032
Mof_C 	C 	0.90159	0.03662	0.53682	-0.081
Mof_C 	C 	0.79638	0.08104	0.57719	0.31
Mof_C 	C 	0.5628	0.402	0.98495	-0.037
Mof_C 	C 	0.09841	0.96338	0.46318	-0.081
Mof_C 	C 	0.02611	0.90178	0.99777	-0.042
Mof_C 	C 	0.0995	0.4212	0.58881	0.317
Mof_C 	C 	0.07211	0.90178	0.50223	-0.036
Mof_C 	C 	0.0352	0.402	0.51505	-0.038
Mof_C 	C 	0.97425	0.9385	0.53866	-0.032
Mof_C 	C 	0.48944	0.46352	0.95669	-0.085
Mof_C 	C 	0.12258	0.08104	0.92281	0.308
Mof_C 	C 	0.91275	0.0615	0.03866	-0.036
Mof_C 	C 	0.5207	0.5788	0.08881	0.316
Mof_C 	C 	0.87742	0.91896	0.07719	0.308
Mof_C 	C 	0.95296	0.53648	0.45669	-0.086
Mof_C 	C 	0.08725	0.9385	0.96134	-0.036
Mof_C 	C 	0.9648	0.598	0.48495	-0.038
Mof_O 	O 	0.46312	0.04076	0.63862	-0.65
Mof_O 	O 	0.57788	0.98844	0.21254	-0.773
Mof_O 	O 	0.16571	0.45978	0.86663	-0.65
Mof_O 	O 	0.79358	0.97884	0.11109	-0.479
Mof_O 	O 	0.43368	0.98844	0.28746	-0.773
Mof_O 	O 	0.3203	0.3233	0.62556	-0.72
Mof_O 	O 	0.29827	0.493	0.78269	-0.78
Mof_O 	O 	0.34416	0.95628	0.22197	-0.648
Mof_O 	O 	0.79127	0.507	0.28269	-0.78
Mof_O 	O 	0.70173	0.507	0.21731	-0.78
Mof_O 	O 	0.6797	0.6767	0.37444	-0.72
Mof_O 	O 	0.44309	0.81782	0.14017	-0.479
Mof_O 	O 	0.93654	0.53678	0.20623	-0.65
Mof_O 	O 	0.77242	0.02116	0.61109	-0.48
Mof_O 	O 	0.10472	0.48176	0.61572	-0.483
Mof_O 	O 	0.62549	0.54022	0.36663	-0.65
Mof_O 	O 	0.50388	0.95924	0.13862	-0.648
Mof_O 	O 	0.52988	0.3282	0.78347	-0.725
Mof_O 	O 	0.47332	0.46322	0.70623	-0.65
Mof_O 	O 	0.73909	0.81782	0.35983	-0.479
Mof_O 	O 	0.42212	0.01156	0.78746	-0.773
Mof_O 	O 	0.6436	0.6767	0.12556	-0.72
Mof_O 	O 	0.37451	0.45978	0.63337	-0.65
Mof_O 	O 	0.08868	0.17084	0.92485	-0.318
Mof_O 	O 	0.55691	0.18218	0.85983	-0.479
Mof_O 	O 	0.29445	0.17548	0.87862	-0.725
Mof_O 	O 	0.49612	0.04076	0.86138	-0.648
Mof_O 	O 	0.56632	0.01156	0.71254	-0.773
Mof_O 	O 	0.89528	0.51824	0.38428	-0.483
Mof_O 	O 	0.46993	0.82452	0.37862	-0.725
Mof_O 	O 	0.41352	0.48176	0.88428	-0.483
Mof_O 	O 	0.25952	0.82916	0.42485	-0.319
Mof_O 	O 	0.46495	0.6677	0.09696	-0.322
Mof_O 	O 	0.20873	0.493	0.71731	-0.78
Mof_O 	O 	0.86735	0.6677	0.40304	-0.322
Mof_O 	O 	0.36136	0.82072	0.29853	-0.721
Mof_O 	O 	0.41915	0.68034	0.37365	-0.48
Mof_O 	O 	0.83429	0.54022	0.13337	-0.65
Mof_O 	O 	0.06346	0.46322	0.79377	-0.65
Mof_O 	O 	0.09949	0.31966	0.87365	-0.479
Mof_O 	O 	0.26091	0.18218	0.64017	-0.479
Mof_O 	O 	0.91132	0.82916	0.07515	-0.318
Mof_O 	O 	0.20642	0.02116	0.88891	-0.479
Mof_O 	O 	0.53505	0.3323	0.90304	-0.322
Mof_O 	O 	0.81792	0.82072	0.20147	-0.721
Mof_O 	O 	0.90051	0.68034	0.12635	-0.479
Mof_O 	O 	0.3564	0.3233	0.87444	-0.72
Mof_O 	O 	0.18208	0.17928	0.79853	-0.721
Mof_O 	O 	0.22758	0.97884	0.38891	-0.48
Mof_O 	O 	0.65584	0.04372	0.77803	-0.648
Mof_O 	O 	0.69956	0.95628	0.27803	-0.649
Mof_O 	O 	0.53007	0.17548	0.62138	-0.725
Mof_O 	O 	0.85808	0.6718	0.28347	-0.725
Mof_O 	O 	0.58085	0.31966	0.62635	-0.48
Mof_O 	O 	0.70555	0.82452	0.12138	-0.725
Mof_O 	O 	0.63864	0.17928	0.70147	-0.721
Mof_O 	O 	0.58648	0.51824	0.11572	-0.483
Mof_O 	O 	0.74048	0.17084	0.57515	-0.319
Mof_O 	O 	0.14192	0.3282	0.71653	-0.725
Mof_O 	O 	0.30044	0.04372	0.72197	-0.649
Mof_O 	O 	0.52668	0.53678	0.29377	-0.65
Mof_O 	O 	0.47012	0.6718	0.21653	-0.725
Mof_O 	O 	0.13265	0.3323	0.59696	-0.322
Mof_O 	O 	0.53688	0.95924	0.36138	-0.65
_end
