# CIF file generated by openbabel 3.1.0, see https://openbabel.org
data_I
_chemical_name_common 'image0'
_cell_length_a 19.0899
_cell_length_b 11.1224
_cell_length_c 6.1748
_cell_angle_alpha 90
_cell_angle_beta 94.074
_cell_angle_gamma 90
_space_group_name_H-M_alt 'P 1'
_space_group_name_Hall 'P 1'
loop_
    _symmetry_equiv_pos_as_xyz
    x,y,z
loop_
    _atom_site_label
    _atom_site_type_symbol
    _atom_site_fract_x
    _atom_site_fract_y
    _atom_site_fract_z
    _atom_site_occupancy
    Cu1      Cu       0.34337    0.14552    0.36457    1.000
    Cu2      Cu       0.99688    0.85561    0.21138    1.000
    Cl1      Cl       0.34939    0.34214    0.48934    1.000
    Cl2      Cl       0.98773    0.84009    0.84092    1.000
    S1       S        0.18002    0.99055    0.20507    1.000
    S2       S        0.25495    0.90265    0.66125    1.000
    S3       S        0.18167    0.16574    0.62447    1.000
    P1       P        0.24895    0.05559    0.45936    1.000
    P2       P        0.09749    0.92861    0.37932    1.000
    P3       P        0.14904    0.86315    0.69660    1.000
    P4       P        0.09917    0.04763    0.66685    1.000
    N1       N        0.43705    0.06110    0.44780    1.000
    C1       C        0.46120    0.97530    0.31960    1.000
    C2       C        0.47670    0.08520    0.62810    1.000
    H1       H        0.43470    0.95550    0.18840    1.000
    H2       H        0.46190    0.14570    0.72360    1.000
    C3       C        0.48760    0.05340    0.31000    1.000
    C4       C        0.45030    0.00800    0.63900    1.000
    H3       H        0.48080    0.09140    0.17280    1.000
    H4       H        0.41630    0.01230    0.74390    1.000
    Cu3      Cu       0.65663    0.64552    0.13543    1.000
    Cu4      Cu       0.00312    0.35561    0.28862    1.000
    Cl3      Cl       0.65061    0.84214    0.01066    1.000
    Cl4      Cl       0.01227    0.34009    0.65908    1.000
    S4       S        0.81998    0.49055    0.29493    1.000
    S5       S        0.74505    0.40265    0.83875    1.000
    S6       S        0.81833    0.66574    0.87553    1.000
    P5       P        0.75105    0.55559    0.04064    1.000
    P6       P        0.90251    0.42861    0.12068    1.000
    P7       P        0.85096    0.36315    0.80340    1.000
    P8       P        0.90083    0.54763    0.83315    1.000
    N2       N        0.56295    0.56110    0.05220    1.000
    C5       C        0.53880    0.47530    0.18040    1.000
    C6       C        0.52330    0.58520    0.87190    1.000
    H5       H        0.56530    0.45550    0.31160    1.000
    H6       H        0.53810    0.64570    0.77640    1.000
    C7       C        0.51240    0.55340    0.19000    1.000
    C8       C        0.54970    0.50800    0.86100    1.000
    H7       H        0.51920    0.59140    0.32720    1.000
    H8       H        0.58370    0.51230    0.75610    1.000
    Cu5      Cu       0.65663    0.85448    0.63543    1.000
    Cu6      Cu       0.00312    0.14439    0.78862    1.000
    Cl5      Cl       0.65061    0.65786    0.51066    1.000
    Cl6      Cl       0.01227    0.15991    0.15908    1.000
    S7       S        0.81998    0.00945    0.79493    1.000
    S8       S        0.74505    0.09735    0.33875    1.000
    S9       S        0.81833    0.83426    0.37553    1.000
    P9       P        0.75105    0.94441    0.54064    1.000
    P10      P        0.90251    0.07139    0.62068    1.000
    P11      P        0.85096    0.13685    0.30340    1.000
    P12      P        0.90083    0.95237    0.33315    1.000
    N3       N        0.56295    0.93890    0.55220    1.000
    C9       C        0.53880    0.02470    0.68040    1.000
    C10      C        0.52330    0.91480    0.37190    1.000
    H9       H        0.56530    0.04450    0.81160    1.000
    H10      H        0.53810    0.85430    0.27640    1.000
    C11      C        0.51240    0.94660    0.69000    1.000
    C12      C        0.54970    0.99200    0.36100    1.000
    H11      H        0.51920    0.90860    0.82720    1.000
    H12      H        0.58370    0.98770    0.25610    1.000
    Cu7      Cu       0.34337    0.35448    0.86457    1.000
    Cu8      Cu       0.99688    0.64439    0.71138    1.000
    Cl7      Cl       0.34939    0.15786    0.98934    1.000
    Cl8      Cl       0.98773    0.65991    0.34092    1.000
    S10      S        0.18002    0.50945    0.70507    1.000
    S11      S        0.25495    0.59735    0.16125    1.000
    S12      S        0.18167    0.33426    0.12447    1.000
    P13      P        0.24895    0.44441    0.95936    1.000
    P14      P        0.09749    0.57139    0.87932    1.000
    P15      P        0.14904    0.63685    0.19660    1.000
    P16      P        0.09917    0.45237    0.16685    1.000
    N4       N        0.43705    0.43890    0.94780    1.000
    C13      C        0.46120    0.52470    0.81960    1.000
    C14      C        0.47670    0.41480    0.12810    1.000
    H13      H        0.43470    0.54450    0.68840    1.000
    H14      H        0.46190    0.35430    0.22360    1.000
    C15      C        0.48760    0.44660    0.81000    1.000
    C16      C        0.45030    0.49200    0.13900    1.000
    H15      H        0.48080    0.40860    0.67280    1.000
    H16      H        0.41630    0.48770    0.24390    1.000
