# CIF file generated by openbabel 3.1.0, see https://openbabel.org
data_I
_chemical_name_common 'SERJOP_clean'
_cell_length_a 8.438
_cell_length_b 15.934
_cell_length_c 27.795
_cell_angle_alpha 90
_cell_angle_beta 90
_cell_angle_gamma 90
_space_group_name_H-M_alt 'P 1'
_space_group_name_Hall 'P 1'
loop_
    _symmetry_equiv_pos_as_xyz
    x,y,z
loop_
    _atom_site_label
    _atom_site_type_symbol
    _atom_site_fract_x
    _atom_site_fract_y
    _atom_site_fract_z
    _atom_site_occupancy
    Er1      Er       0.52312    0.69889    0.91868    1.000
    Er2      Er       0.97688    0.19889    0.08132    1.000
    Er3      Er       0.47688    0.30111    0.41868    1.000
    Er4      Er       0.02312    0.80111    0.58132    1.000
    Er5      Er       0.47688    0.30111    0.08132    1.000
    Er6      Er       0.02312    0.80111    0.91868    1.000
    Er7      Er       0.52312    0.69889    0.58132    1.000
    Er8      Er       0.97688    0.19889    0.41868    1.000
    H1       H        0.59520    0.81700    0.04400    1.000
    H2       H        0.22670    0.97480    0.02300    1.000
    H3       H        0.60030    0.03830    0.10580    1.000
    H4       H        0.18400    0.90630    0.82080    1.000
    H5       H        0.90480    0.31700    0.95600    1.000
    H6       H        0.27330    0.47480    0.97700    1.000
    H7       H        0.89970    0.53830    0.89420    1.000
    H8       H        0.31600    0.40630    0.17920    1.000
    H9       H        0.40480    0.18300    0.54400    1.000
    H10      H        0.77330    0.02520    0.52300    1.000
    H11      H        0.39970    0.96170    0.60580    1.000
    H12      H        0.81600    0.09370    0.32080    1.000
    H13      H        0.09520    0.68300    0.45600    1.000
    H14      H        0.72670    0.52520    0.47700    1.000
    H15      H        0.10030    0.46170    0.39420    1.000
    H16      H        0.68400    0.59370    0.67920    1.000
    H17      H        0.40480    0.18300    0.95600    1.000
    H18      H        0.77330    0.02520    0.97700    1.000
    H19      H        0.39970    0.96170    0.89420    1.000
    H20      H        0.81600    0.09370    0.17920    1.000
    H21      H        0.09520    0.68300    0.04400    1.000
    H22      H        0.72670    0.52520    0.02300    1.000
    H23      H        0.10030    0.46170    0.10580    1.000
    H24      H        0.68400    0.59370    0.82080    1.000
    H25      H        0.59520    0.81700    0.45600    1.000
    H26      H        0.22670    0.97480    0.47700    1.000
    H27      H        0.60030    0.03830    0.39420    1.000
    H28      H        0.18400    0.90630    0.67920    1.000
    H29      H        0.90480    0.31700    0.54400    1.000
    H30      H        0.27330    0.47480    0.52300    1.000
    H31      H        0.89970    0.53830    0.60580    1.000
    H32      H        0.31600    0.40630    0.32080    1.000
    H33      H        0.38920    0.71570    0.75000    1.000
    H34      H        0.11080    0.21570    0.25000    1.000
    H35      H        0.61080    0.28430    0.25000    1.000
    H36      H        0.88920    0.78430    0.75000    1.000
    C1       C        0.54570    0.86960    0.04970    1.000
    C2       C        0.40000    0.88620    0.02760    1.000
    C3       C        0.32720    0.96240    0.03660    1.000
    C4       C        0.40300    0.02060    0.06600    1.000
    C5       C        0.54800    0.99850    0.08590    1.000
    C6       C        0.32790    0.82420    0.99480    1.000
    C7       C        0.33310    0.10590    0.07410    1.000
    C8       C        0.21160    0.88020    0.79120    1.000
    C9       C        0.28960    0.80320    0.79280    1.000
    C10      C        0.33100    0.76580    0.83980    1.000
    C11      C        0.95430    0.36960    0.95030    1.000
    C12      C        0.10000    0.38620    0.97240    1.000
    C13      C        0.17280    0.46240    0.96340    1.000
    C14      C        0.09700    0.52060    0.93400    1.000
    C15      C        0.95200    0.49850    0.91410    1.000
    C16      C        0.17210    0.32420    0.00520    1.000
    C17      C        0.16690    0.60590    0.92590    1.000
    C18      C        0.28840    0.38020    0.20880    1.000
    C19      C        0.21040    0.30320    0.20720    1.000
    C20      C        0.16900    0.26580    0.16020    1.000
    C21      C        0.45430    0.13040    0.54970    1.000
    C22      C        0.60000    0.11380    0.52760    1.000
    C23      C        0.67280    0.03760    0.53660    1.000
    C24      C        0.59700    0.97940    0.56600    1.000
    C25      C        0.45200    0.00150    0.58590    1.000
    C26      C        0.67210    0.17580    0.49480    1.000
    C27      C        0.66690    0.89410    0.57410    1.000
    C28      C        0.78840    0.11980    0.29120    1.000
    C29      C        0.71040    0.19680    0.29280    1.000
    C30      C        0.66900    0.23420    0.33980    1.000
    C31      C        0.04570    0.63040    0.45030    1.000
    C32      C        0.90000    0.61380    0.47240    1.000
    C33      C        0.82720    0.53760    0.46340    1.000
    C34      C        0.90300    0.47940    0.43400    1.000
    C35      C        0.04800    0.50150    0.41410    1.000
    C36      C        0.82790    0.67580    0.50520    1.000
    C37      C        0.83310    0.39410    0.42590    1.000
    C38      C        0.71160    0.61980    0.70880    1.000
    C39      C        0.78960    0.69680    0.70720    1.000
    C40      C        0.83100    0.73420    0.66020    1.000
    C41      C        0.45430    0.13040    0.95030    1.000
    C42      C        0.60000    0.11380    0.97240    1.000
    C43      C        0.67280    0.03760    0.96340    1.000
    C44      C        0.59700    0.97940    0.93400    1.000
    C45      C        0.45200    0.00150    0.91410    1.000
    C46      C        0.67210    0.17580    0.00520    1.000
    C47      C        0.66690    0.89410    0.92590    1.000
    C48      C        0.78840    0.11980    0.20880    1.000
    C49      C        0.71040    0.19680    0.20720    1.000
    C50      C        0.66900    0.23420    0.16020    1.000
    C51      C        0.04570    0.63040    0.04970    1.000
    C52      C        0.90000    0.61380    0.02760    1.000
    C53      C        0.82720    0.53760    0.03660    1.000
    C54      C        0.90300    0.47940    0.06600    1.000
    C55      C        0.04800    0.50150    0.08590    1.000
    C56      C        0.82790    0.67580    0.99480    1.000
    C57      C        0.83310    0.39410    0.07410    1.000
    C58      C        0.71160    0.61980    0.79120    1.000
    C59      C        0.78960    0.69680    0.79280    1.000
    C60      C        0.83100    0.73420    0.83980    1.000
    C61      C        0.54570    0.86960    0.45030    1.000
    C62      C        0.40000    0.88620    0.47240    1.000
    C63      C        0.32720    0.96240    0.46340    1.000
    C64      C        0.40300    0.02060    0.43400    1.000
    C65      C        0.54800    0.99850    0.41410    1.000
    C66      C        0.32790    0.82420    0.50520    1.000
    C67      C        0.33310    0.10590    0.42590    1.000
    C68      C        0.21160    0.88020    0.70880    1.000
    C69      C        0.28960    0.80320    0.70720    1.000
    C70      C        0.33100    0.76580    0.66020    1.000
    C71      C        0.95430    0.36960    0.54970    1.000
    C72      C        0.10000    0.38620    0.52760    1.000
    C73      C        0.17280    0.46240    0.53660    1.000
    C74      C        0.09700    0.52060    0.56600    1.000
    C75      C        0.95200    0.49850    0.58590    1.000
    C76      C        0.17210    0.32420    0.49480    1.000
    C77      C        0.16690    0.60590    0.57410    1.000
    C78      C        0.28840    0.38020    0.29120    1.000
    C79      C        0.21040    0.30320    0.29280    1.000
    C80      C        0.16900    0.26580    0.33980    1.000
    C81      C        0.33110    0.76680    0.75000    1.000
    C82      C        0.16890    0.26680    0.25000    1.000
    C83      C        0.66890    0.23320    0.25000    1.000
    C84      C        0.83110    0.73320    0.75000    1.000
    N1       N        0.61800    0.92470    0.07850    1.000
    N2       N        0.88200    0.42470    0.92150    1.000
    N3       N        0.38200    0.07530    0.57850    1.000
    N4       N        0.11800    0.57530    0.42150    1.000
    N5       N        0.38200    0.07530    0.92150    1.000
    N6       N        0.11800    0.57530    0.07850    1.000
    N7       N        0.61800    0.92470    0.42150    1.000
    N8       N        0.88200    0.42470    0.57850    1.000
    N9       N        0.17300    0.91980    0.75000    1.000
    N10      N        0.32700    0.41980    0.25000    1.000
    N11      N        0.82700    0.08020    0.25000    1.000
    N12      N        0.67300    0.58020    0.75000    1.000
    O1       O        0.40800    0.75960    0.98460    1.000
    O2       O        0.19240    0.83880    0.97820    1.000
    O3       O        0.42380    0.16200    0.09000    1.000
    O4       O        0.18990    0.11530    0.06380    1.000
    O5       O        0.43510    0.70850    0.84090    1.000
    O6       O        0.26750    0.79210    0.87845    1.000
    O7       O        0.09200    0.25960    0.01540    1.000
    O8       O        0.30760    0.33880    0.02180    1.000
    O9       O        0.07620    0.66200    0.91000    1.000
    O10      O        0.31010    0.61530    0.93620    1.000
    O11      O        0.06490    0.20850    0.15910    1.000
    O12      O        0.23250    0.29210    0.12155    1.000
    O13      O        0.59200    0.24040    0.48460    1.000
    O14      O        0.80760    0.16120    0.47820    1.000
    O15      O        0.57620    0.83800    0.59000    1.000
    O16      O        0.81010    0.88470    0.56380    1.000
    O17      O        0.56490    0.29150    0.34090    1.000
    O18      O        0.73250    0.20790    0.37845    1.000
    O19      O        0.90800    0.74040    0.51540    1.000
    O20      O        0.69240    0.66120    0.52180    1.000
    O21      O        0.92380    0.33800    0.41000    1.000
    O22      O        0.68990    0.38470    0.43620    1.000
    O23      O        0.93510    0.79150    0.65910    1.000
    O24      O        0.76750    0.70790    0.62155    1.000
    O25      O        0.59200    0.24040    0.01540    1.000
    O26      O        0.80760    0.16120    0.02180    1.000
    O27      O        0.57620    0.83800    0.91000    1.000
    O28      O        0.81010    0.88470    0.93620    1.000
    O29      O        0.56490    0.29150    0.15910    1.000
    O30      O        0.73250    0.20790    0.12155    1.000
    O31      O        0.90800    0.74040    0.98460    1.000
    O32      O        0.69240    0.66120    0.97820    1.000
    O33      O        0.92380    0.33800    0.09000    1.000
    O34      O        0.68990    0.38470    0.06380    1.000
    O35      O        0.93510    0.79150    0.84090    1.000
    O36      O        0.76750    0.70790    0.87845    1.000
    O37      O        0.40800    0.75960    0.51540    1.000
    O38      O        0.19240    0.83880    0.52180    1.000
    O39      O        0.42380    0.16200    0.41000    1.000
    O40      O        0.18990    0.11530    0.43620    1.000
    O41      O        0.43510    0.70850    0.65910    1.000
    O42      O        0.26750    0.79210    0.62155    1.000
    O43      O        0.09200    0.25960    0.48460    1.000
    O44      O        0.30760    0.33880    0.47820    1.000
    O45      O        0.07620    0.66200    0.59000    1.000
    O46      O        0.31010    0.61530    0.56380    1.000
    O47      O        0.06490    0.20850    0.34090    1.000
    O48      O        0.23250    0.29210    0.37845    1.000
