# CIF file generated by openbabel 3.1.0, see https://openbabel.org
data_I
_chemical_name_common 'ja500618z_si_004_clean'
_cell_length_a 8.5303
_cell_length_b 9.0531
_cell_length_c 11.9918
_cell_angle_alpha 90
_cell_angle_beta 90
_cell_angle_gamma 90
_space_group_name_H-M_alt 'P 1'
_space_group_name_Hall 'P 1'
loop_
    _symmetry_equiv_pos_as_xyz
    x,y,z
loop_
    _atom_site_label
    _atom_site_type_symbol
    _atom_site_fract_x
    _atom_site_fract_y
    _atom_site_fract_z
    _atom_site_occupancy
    Mn1      Mn       0.24916    0.25000    0.75000    1.000
    Mn2      Mn       0.25084    0.25000    0.25000    1.000
    Mn3      Mn       0.75084    0.75000    0.25000    1.000
    Mn4      Mn       0.74916    0.75000    0.75000    1.000
    H1       H        0.41780    0.56450    0.76800    1.000
    H2       H        0.08220    0.93550    0.26800    1.000
    H3       H        0.08220    0.56450    0.23200    1.000
    H4       H        0.25000    0.29260    0.50000    1.000
    H5       H        0.75000    0.70740    0.50000    1.000
    H6       H        0.91780    0.06450    0.73200    1.000
    H7       H        0.41780    0.93550    0.73200    1.000
    H8       H        0.58220    0.06450    0.26800    1.000
    H9       H        0.91780    0.43550    0.76800    1.000
    H10      H        0.25000    0.20740    0.00000    1.000
    H11      H        0.75000    0.79260    0.00000    1.000
    H12      H        0.58220    0.43550    0.23200    1.000
    C1       C        0.75000    0.68990    0.00000    1.000
    C2       C        0.98122    0.01555    0.78312    1.000
    C3       C        0.51878    0.01555    0.21688    1.000
    C4       C        0.25000    0.31010    0.00000    1.000
    C5       C        0.51878    0.48445    0.28312    1.000
    C6       C        0.01878    0.98445    0.21688    1.000
    C7       C        0.98122    0.48445    0.71688    1.000
    C8       C        0.01878    0.51555    0.28312    1.000
    C9       C        0.75000    0.81010    0.50000    1.000
    C10      C        0.25000    0.18990    0.50000    1.000
    C11      C        0.48122    0.51555    0.71688    1.000
    C12      C        0.48122    0.98445    0.78312    1.000
    O1       O        0.75545    0.87083    0.40768    1.000
    O2       O        0.74455    0.87083    0.59232    1.000
    O3       O        0.59623    0.58387    0.68019    1.000
    O4       O        0.90377    0.58387    0.31981    1.000
    O5       O        0.90377    0.91613    0.18019    1.000
    O6       O        0.09623    0.41613    0.68019    1.000
    O7       O        0.55652    0.61210    0.30856    1.000
    O8       O        0.09623    0.08387    0.81981    1.000
    O9       O        0.24455    0.12917    0.59232    1.000
    O10      O        0.44348    0.11210    0.80856    1.000
    O11      O        0.25545    0.37083    0.09232    1.000
    O12      O        0.24455    0.37083    0.90768    1.000
    O13      O        0.05652    0.11210    0.19144    1.000
    O14      O        0.94348    0.61210    0.69144    1.000
    O15      O        0.44348    0.38790    0.69144    1.000
    O16      O        0.05652    0.38790    0.30856    1.000
    O17      O        0.55652    0.88790    0.19144    1.000
    O18      O        0.74455    0.62917    0.90768    1.000
    O19      O        0.94348    0.88790    0.80856    1.000
    O20      O        0.59623    0.91613    0.81981    1.000
    O21      O        0.40377    0.08387    0.18019    1.000
    O22      O        0.25545    0.12917    0.40768    1.000
    O23      O        0.40377    0.41613    0.31981    1.000
    O24      O        0.75545    0.62917    0.09232    1.000
