data_functionalizedCrystal
_audit_creation_method	'EQeq! by Chris Wilmer'
_symmetry_space_group_name_H-M	'P1'
_symmetry_Int_Tables_number	1
_symmetry_cell_setting	triclinic
loop_
_symmetry_equiv_pos_as_xyz
  x,y,z
_cell_length_a	9.0167
_cell_length_b	15.1313
_cell_length_c	16.8284
_cell_angle_alpha	90
_cell_angle_beta	90
_cell_angle_gamma	103.841
loop_
_atom_site_label
_atom_site_type_symbol
_atom_site_fract_x
_atom_site_fract_y
_atom_site_fract_z
_atom_site_charge
Mof_Pr	Pr	0.43271	0.03854	0.89087	2.671
Mof_Pr	Pr	0.06729	0.96146	0.39087	2.656
Mof_Pr	Pr	0.56729	0.96146	0.10913	2.671
Mof_Pr	Pr	0.93271	0.03854	0.60913	2.656
Mof_H 	H 	0.9956	0.8615	0.9912	0.135
Mof_H 	H 	0.9669	0.9119	0.069	0.145
Mof_H 	H 	0.1463	0.7837	0.9467	0.027
Mof_H 	H 	0.2423	0.6656	0.9	0.082
Mof_H 	H 	0.1346	0.5322	0.1051	0.067
Mof_H 	H 	0.0348	0.6487	0.151	0.061
Mof_H 	H 	0.1512	0.4205	0.0436	-0.01
Mof_H 	H 	0.6516	0.3657	0.76	0.1
Mof_H 	H 	0.5682	0.4927	0.7917	0.019
Mof_H 	H 	0.4503	0.2696	0.0531	0.132
Mof_H 	H 	0.2886	0.2018	0.0584	0.115
Mof_H 	H 	0.6521	0.2402	0.7216	0.117
Mof_H 	H 	0.7781	0.2255	0.7812	0.115
Mof_H 	H 	0.5044	0.1385	0.4912	0.107
Mof_H 	H 	0.5331	0.0881	0.569	0.123
Mof_H 	H 	0.3537	0.2163	0.4467	0.038
Mof_H 	H 	0.2577	0.3344	0.4	0.074
Mof_H 	H 	0.3654	0.4678	0.6051	0.059
Mof_H 	H 	0.4652	0.3513	0.651	0.071
Mof_H 	H 	0.3488	0.5795	0.5436	-0.008
Mof_H 	H 	0.8484	0.6343	0.26	0.104
Mof_H 	H 	0.9318	0.5073	0.2917	0.016
Mof_H 	H 	0.0497	0.7304	0.5531	0.132
Mof_H 	H 	0.2114	0.7982	0.5584	0.116
Mof_H 	H 	0.8479	0.7598	0.2216	0.118
Mof_H 	H 	0.7219	0.7745	0.2812	0.117
Mof_H 	H 	0.0044	0.1385	0.0088	0.135
Mof_H 	H 	0.0331	0.0881	0.931	0.145
Mof_H 	H 	0.8537	0.2163	0.0533	0.027
Mof_H 	H 	0.7577	0.3344	0.1	0.082
Mof_H 	H 	0.8654	0.4678	0.8949	0.067
Mof_H 	H 	0.9652	0.3513	0.849	0.061
Mof_H 	H 	0.8488	0.5795	0.9564	-0.01
Mof_H 	H 	0.3484	0.6343	0.24	0.1
Mof_H 	H 	0.4318	0.5073	0.2083	0.019
Mof_H 	H 	0.5497	0.7304	0.9469	0.132
Mof_H 	H 	0.7114	0.7982	0.9416	0.115
Mof_H 	H 	0.3479	0.7598	0.2784	0.117
Mof_H 	H 	0.2219	0.7745	0.2188	0.115
Mof_H 	H 	0.4956	0.8615	0.5088	0.107
Mof_H 	H 	0.4669	0.9119	0.431	0.123
Mof_H 	H 	0.6463	0.7837	0.5533	0.038
Mof_H 	H 	0.7423	0.6656	0.6	0.074
Mof_H 	H 	0.6346	0.5322	0.3949	0.059
Mof_H 	H 	0.5348	0.6487	0.349	0.071
Mof_H 	H 	0.6512	0.4205	0.4564	-0.008
Mof_H 	H 	0.1516	0.3657	0.74	0.104
Mof_H 	H 	0.0682	0.4927	0.7083	0.016
Mof_H 	H 	0.9503	0.2696	0.4469	0.132
Mof_H 	H 	0.7886	0.2018	0.4416	0.116
Mof_H 	H 	0.1521	0.2402	0.7784	0.118
Mof_H 	H 	0.2781	0.2255	0.7188	0.117
Mof_C 	C 	0.194	0.9377	0.0397	0.529
Mof_C 	C 	0.0328	0.8774	0.0447	-0.316
Mof_C 	C 	0.0829	0.7296	0.0546	0.108
Mof_C 	C 	0.1441	0.7334	0.9789	-0.044
Mof_C 	C 	0.2021	0.6621	0.9511	-0.1
Mof_C 	C 	0.2022	0.5856	0.9969	0.099
Mof_C 	C 	0.1377	0.5824	0.0728	-0.087
Mof_C 	C 	0.0784	0.6528	0.1006	-0.074
Mof_C 	C 	0.3777	0.5205	0.9039	0.222
Mof_C 	C 	0.2664	0.5091	0.9684	-0.149
Mof_C 	C 	0.2232	0.4268	0.0031	0.162
Mof_C 	C 	0.3778	0.3577	0.9248	0.156
Mof_C 	C 	0.4319	0.2801	0.9089	-0.002
Mof_C 	C 	0.5304	0.2831	0.8449	0.166
Mof_C 	C 	0.5828	0.3637	0.8015	-0.196
Mof_C 	C 	0.5323	0.4394	0.8205	0.078
Mof_C 	C 	0.4285	0.4384	0.8817	-0.139
Mof_C 	C 	0.3917	0.2094	0.0382	-0.233
Mof_C 	C 	0.4637	0.1377	0.0737	0.474
Mof_C 	C 	0.6735	0.2017	0.7641	-0.256
Mof_C 	C 	0.6546	0.1059	0.7337	0.576
Mof_C 	C 	0.306	0.0623	0.5397	0.532
Mof_C 	C 	0.4672	0.1226	0.5447	-0.255
Mof_C 	C 	0.4171	0.2704	0.5546	0.14
Mof_C 	C 	0.3559	0.2666	0.4789	-0.078
Mof_C 	C 	0.2979	0.3379	0.4511	-0.076
Mof_C 	C 	0.2978	0.4144	0.4969	0.078
Mof_C 	C 	0.3623	0.4176	0.5728	-0.06
Mof_C 	C 	0.4216	0.3472	0.6006	-0.098
Mof_C 	C 	0.1223	0.4795	0.4039	0.221
Mof_C 	C 	0.2336	0.4909	0.4684	-0.142
Mof_C 	C 	0.2768	0.5732	0.5031	0.159
Mof_C 	C 	0.1222	0.6423	0.4248	0.16
Mof_C 	C 	0.0681	0.7199	0.4089	-0.011
Mof_C 	C 	0.9696	0.7169	0.3449	0.175
Mof_C 	C 	0.9172	0.6363	0.3015	-0.203
Mof_C 	C 	0.9677	0.5606	0.3205	0.088
Mof_C 	C 	0.0715	0.5616	0.3817	-0.146
Mof_C 	C 	0.1083	0.7906	0.5382	-0.239
Mof_C 	C 	0.0363	0.8623	0.5737	0.465
Mof_C 	C 	0.8265	0.7983	0.2641	-0.257
Mof_C 	C 	0.8454	0.8941	0.2337	0.576
Mof_C 	C 	0.806	0.0623	0.9603	0.529
Mof_C 	C 	0.9672	0.1226	0.9553	-0.316
Mof_C 	C 	0.9171	0.2704	0.9454	0.108
Mof_C 	C 	0.8559	0.2666	0.0211	-0.044
Mof_C 	C 	0.7979	0.3379	0.0489	-0.1
Mof_C 	C 	0.7978	0.4144	0.0031	0.099
Mof_C 	C 	0.8623	0.4176	0.9272	-0.087
Mof_C 	C 	0.9216	0.3472	0.8994	-0.074
Mof_C 	C 	0.6223	0.4795	0.0961	0.222
Mof_C 	C 	0.7336	0.4909	0.0316	-0.149
Mof_C 	C 	0.7768	0.5732	0.9969	0.162
Mof_C 	C 	0.6222	0.6423	0.0752	0.156
Mof_C 	C 	0.5681	0.7199	0.0911	-0.002
Mof_C 	C 	0.4696	0.7169	0.1551	0.166
Mof_C 	C 	0.4172	0.6363	0.1985	-0.196
Mof_C 	C 	0.4677	0.5606	0.1795	0.078
Mof_C 	C 	0.5715	0.5616	0.1183	-0.139
Mof_C 	C 	0.6083	0.7906	0.9618	-0.233
Mof_C 	C 	0.5363	0.8623	0.9263	0.474
Mof_C 	C 	0.3265	0.7983	0.2359	-0.256
Mof_C 	C 	0.3454	0.8941	0.2663	0.576
Mof_C 	C 	0.694	0.9377	0.4603	0.532
Mof_C 	C 	0.5328	0.8774	0.4553	-0.255
Mof_C 	C 	0.5829	0.7296	0.4454	0.14
Mof_C 	C 	0.6441	0.7334	0.5211	-0.078
Mof_C 	C 	0.7021	0.6621	0.5489	-0.076
Mof_C 	C 	0.7022	0.5856	0.5031	0.078
Mof_C 	C 	0.6377	0.5824	0.4272	-0.06
Mof_C 	C 	0.5784	0.6528	0.3994	-0.098
Mof_C 	C 	0.8777	0.5205	0.5961	0.221
Mof_C 	C 	0.7664	0.5091	0.5316	-0.142
Mof_C 	C 	0.7232	0.4268	0.4969	0.159
Mof_C 	C 	0.8778	0.3577	0.5752	0.16
Mof_C 	C 	0.9319	0.2801	0.5911	-0.011
Mof_C 	C 	0.0304	0.2831	0.6551	0.175
Mof_C 	C 	0.0828	0.3637	0.6985	-0.203
Mof_C 	C 	0.0323	0.4394	0.6795	0.088
Mof_C 	C 	0.9285	0.4384	0.6183	-0.146
Mof_C 	C 	0.8917	0.2094	0.4618	-0.239
Mof_C 	C 	0.9637	0.1377	0.4263	0.465
Mof_C 	C 	0.1735	0.2017	0.7359	-0.257
Mof_C 	C 	0.1546	0.1059	0.7663	0.576
Mof_O 	O 	0.2182	0.9927	0.9829	-0.598
Mof_O 	O 	0.2867	0.9301	0.0933	-0.566
Mof_O 	O 	0.0221	0.7953	0.08925	-0.15
Mof_O 	O 	0.4296	0.5929	0.8691	-0.236
Mof_O 	O 	0.2746	0.352	0.98453	-0.241
Mof_O 	O 	0.388	0.2008	0.9514	-0.257
Mof_O 	O 	0.463	0.1293	0.1456	-0.431
Mof_O 	O 	0.5221	0.0904	0.0273	-0.742
Mof_O 	O 	0.5721	0.20345	0.82935	-0.315
Mof_O 	O 	0.748	0.0989	0.6804	-0.618
Mof_O 	O 	0.5482	0.0442	0.75841	-0.601
Mof_O 	O 	0.2818	0.0073	0.4829	-0.602
Mof_O 	O 	0.2133	0.0699	0.5933	-0.558
Mof_O 	O 	0.4779	0.2047	0.58925	-0.162
Mof_O 	O 	0.0704	0.4071	0.3691	-0.236
Mof_O 	O 	0.2254	0.648	0.48453	-0.241
Mof_O 	O 	0.112	0.7992	0.4514	-0.251
Mof_O 	O 	0.037	0.8707	0.6456	-0.433
Mof_O 	O 	0.9779	0.9096	0.5273	-0.738
Mof_O 	O 	0.9279	0.79655	0.32935	-0.314
Mof_O 	O 	0.752	0.9011	0.1804	-0.618
Mof_O 	O 	0.9518	0.9558	0.25841	-0.594
Mof_O 	O 	0.7818	0.0073	0.0171	-0.598
Mof_O 	O 	0.7133	0.0699	0.9067	-0.566
Mof_O 	O 	0.9779	0.2047	0.91075	-0.15
Mof_O 	O 	0.5704	0.4071	0.1309	-0.236
Mof_O 	O 	0.7254	0.648	0.01547	-0.241
Mof_O 	O 	0.612	0.7992	0.0486	-0.257
Mof_O 	O 	0.537	0.8707	0.8544	-0.431
Mof_O 	O 	0.4779	0.9096	0.9727	-0.742
Mof_O 	O 	0.4279	0.79655	0.17065	-0.315
Mof_O 	O 	0.252	0.9011	0.3196	-0.618
Mof_O 	O 	0.4518	0.9558	0.24159	-0.601
Mof_O 	O 	0.7182	0.9927	0.5171	-0.602
Mof_O 	O 	0.7867	0.9301	0.4067	-0.558
Mof_O 	O 	0.5221	0.7953	0.41075	-0.162
Mof_O 	O 	0.9296	0.5929	0.6309	-0.236
Mof_O 	O 	0.7746	0.352	0.51547	-0.241
Mof_O 	O 	0.888	0.2008	0.5486	-0.251
Mof_O 	O 	0.963	0.1293	0.3544	-0.433
Mof_O 	O 	0.0221	0.0904	0.4727	-0.738
Mof_O 	O 	0.0721	0.20345	0.67065	-0.314
Mof_O 	O 	0.248	0.0989	0.8196	-0.618
Mof_O 	O 	0.0482	0.0442	0.74159	-0.594
_end
