# CIF file generated by openbabel 3.1.0, see https://openbabel.org
data_I
_chemical_name_common 'image0'
_cell_length_a 35.196
_cell_length_b 11.6472
_cell_length_c 17.2404
_cell_angle_alpha 90
_cell_angle_beta 99.003
_cell_angle_gamma 90
_space_group_name_H-M_alt 'P 1'
_space_group_name_Hall 'P 1'
loop_
    _symmetry_equiv_pos_as_xyz
    x,y,z
loop_
    _atom_site_label
    _atom_site_type_symbol
    _atom_site_fract_x
    _atom_site_fract_y
    _atom_site_fract_z
    _atom_site_occupancy
    Y1       Y        0.57615    0.06327    0.07810    1.000
    O1       O        0.54968    0.05090    0.94980    1.000
    O2       O        0.63320    0.15020    0.05190    1.000
    O3       O        0.51297    0.08000    0.09180    1.000
    O4       O        0.58400    0.15970    0.20110    1.000
    O5       O        0.62930    0.02900    0.21180    1.000
    O6       O        0.61480    0.91870    0.04080    1.000
    O7       O        0.56010    0.89780    0.13910    1.000
    C1       C        0.52160    0.09590    0.90330    1.000
    C2       C        0.66760    0.11730    0.06330    1.000
    Y2       Y        0.66837    0.88167    0.17583    1.000
    C3       C        0.53180    0.17420    0.84140    1.000
    O8       O        0.68300    0.03820    0.10840    1.000
    C4       C        0.69560    0.17810    0.02010    1.000
    O9       O        0.72980    0.85400    0.15480    1.000
    O10      O        0.65720    0.77880    0.05510    1.000
    O11      O        0.61050    0.80060    0.19950    1.000
    O12      O        0.69760    0.90540    0.29930    1.000
    S1       S        0.57844    0.19710    0.83008    1.000
    C5       C        0.50650    0.23950    0.78820    1.000
    S2       S        0.68058    0.27150    0.94379    1.000
    C6       C        0.73510    0.16080    0.03090    1.000
    C7       C        0.56480    0.29240    0.75410    1.000
    H1       H        0.47930    0.24000    0.78570    1.000
    C8       C        0.52660    0.30440    0.73890    1.000
    C9       C        0.72770    0.28900    0.92670    1.000
    C10      C        0.75260    0.22260    0.97570    1.000
    H2       H        0.74870    0.11320    0.07070    1.000
    C11      C        0.59500    0.34610    0.71450    1.000
    H3       H        0.51410    0.35260    0.69830    1.000
    C12      C        0.73570    0.35780    0.85960    1.000
    H4       H        0.77930    0.21820    0.97290    1.000
    O13      O        0.58370    0.41780    0.65960    1.000
    O14      O        0.62940    0.32150    0.73860    1.000
    O15      O        0.70900    0.40780    0.81780    1.000
    Y3       Y        0.57710    0.55108    0.56236    1.000
    Y4       Y        0.67939    0.41306    0.69098    1.000
    O16      O        0.60030    0.39160    0.50870    1.000
    O17      O        0.60240    0.65660    0.67110    1.000
    O18      O        0.54490    0.53230    0.43950    1.000
    O19      O        0.62960    0.62550    0.51760    1.000
    O20      O        0.51790    0.54780    0.59820    1.000
    O21      O        0.65430    0.32100    0.57490    1.000
    O22      O        0.65110    0.56600    0.74680    1.000
    O23      O        0.67810    0.55900    0.60420    1.000
    O24      O        0.73850    0.41010    0.65620    1.000
    C13      C        0.62890    0.32400    0.51760    1.000
    C14      C        0.62580    0.64070    0.73330    1.000
    C15      C        0.51570    0.57230    0.39530    1.000
    C16      C        0.66420    0.61990    0.54620    1.000
    C17      C        0.63180    0.24310    0.45180    1.000
    C18      C        0.62270    0.72360    0.79930    1.000
    C19      C        0.52250    0.64440    0.32730    1.000
    C20      C        0.69180    0.68770    0.50760    1.000
    S3       S        0.60038    0.25330    0.36401    1.000
    C21      C        0.65750    0.16130    0.44890    1.000
    S4       S        0.64822    0.70000    0.89081    1.000
    C22      C        0.59710    0.81220    0.79960    1.000
    S5       S        0.56784    0.68350    0.31365    1.000
    C23      C        0.49420    0.68680    0.26900    1.000
    S6       S        0.67497    0.76580    0.42433    1.000
    C24      C        0.73150    0.69840    0.52640    1.000
    C25      C        0.62430    0.14350    0.32450    1.000
    H5       H        0.67680    0.14390    0.49240    1.000
    C26      C        0.65450    0.10100    0.37670    1.000
    C27      C        0.62420    0.81150    0.92920    1.000
    H6       H        0.58010    0.83640    0.75420    1.000
    C28      C        0.59830    0.86310    0.87280    1.000
    C29      C        0.54910    0.75960    0.23050    1.000
    H7       H        0.46760    0.66940    0.26520    1.000
    C30      C        0.50990    0.75950    0.21550    1.000
    C31      C        0.72100    0.80920    0.41430    1.000
    H8       H        0.74610    0.66580    0.57210    1.000
    C32      C        0.74750    0.76100    0.47240    1.000
    C33      C        0.61250    0.10950    0.24120    1.000
    H9       H        0.67090    0.04020    0.36610    1.000
    C34      C        0.63280    0.83680    0.01430    1.000
    H10      H        0.58290    0.92680    0.88250    1.000
    C35      C        0.57580    0.82440    0.18650    1.000
    H11      H        0.49500    0.80240    0.17480    1.000
    C36      C        0.72660    0.87890    0.34650    1.000
    H12      H        0.77450    0.76960    0.47480    1.000
    Y5       Y        0.07615    0.56327    0.07810    1.000
    O25      O        0.04968    0.55090    0.94980    1.000
    O26      O        0.13320    0.65020    0.05190    1.000
    O27      O        0.01297    0.58000    0.09180    1.000
    O28      O        0.08400    0.65970    0.20110    1.000
    O29      O        0.12930    0.52900    0.21180    1.000
    O30      O        0.11480    0.41870    0.04080    1.000
    O31      O        0.06010    0.39780    0.13910    1.000
    C37      C        0.02160    0.59590    0.90330    1.000
    C38      C        0.16760    0.61730    0.06330    1.000
    Y6       Y        0.16837    0.38167    0.17583    1.000
    C39      C        0.03180    0.67420    0.84140    1.000
    O32      O        0.18300    0.53820    0.10840    1.000
    C40      C        0.19560    0.67810    0.02010    1.000
    O33      O        0.22980    0.35400    0.15480    1.000
    O34      O        0.15720    0.27880    0.05510    1.000
    O35      O        0.11050    0.30060    0.19950    1.000
    O36      O        0.19760    0.40540    0.29930    1.000
    S7       S        0.07844    0.69710    0.83008    1.000
    C41      C        0.00650    0.73950    0.78820    1.000
    S8       S        0.18058    0.77150    0.94379    1.000
    C42      C        0.23510    0.66080    0.03090    1.000
    C43      C        0.06480    0.79240    0.75410    1.000
    H13      H        0.97930    0.74000    0.78570    1.000
    C44      C        0.02660    0.80440    0.73890    1.000
    C45      C        0.22770    0.78900    0.92670    1.000
    C46      C        0.25260    0.72260    0.97570    1.000
    H14      H        0.24870    0.61320    0.07070    1.000
    C47      C        0.09500    0.84610    0.71450    1.000
    H15      H        0.01410    0.85260    0.69830    1.000
    C48      C        0.23570    0.85780    0.85960    1.000
    H16      H        0.27930    0.71820    0.97290    1.000
    O37      O        0.08370    0.91780    0.65960    1.000
    O38      O        0.12940    0.82150    0.73860    1.000
    O39      O        0.20900    0.90780    0.81780    1.000
    Y7       Y        0.07710    0.05108    0.56236    1.000
    Y8       Y        0.17939    0.91306    0.69098    1.000
    O40      O        0.10030    0.89160    0.50870    1.000
    O41      O        0.10240    0.15660    0.67110    1.000
    O42      O        0.04490    0.03230    0.43950    1.000
    O43      O        0.12960    0.12550    0.51760    1.000
    O44      O        0.01790    0.04780    0.59820    1.000
    O45      O        0.15430    0.82100    0.57490    1.000
    O46      O        0.15110    0.06600    0.74680    1.000
    O47      O        0.17810    0.05900    0.60420    1.000
    O48      O        0.23850    0.91010    0.65620    1.000
    C49      C        0.12890    0.82400    0.51760    1.000
    C50      C        0.12580    0.14070    0.73330    1.000
    C51      C        0.01570    0.07230    0.39530    1.000
    C52      C        0.16420    0.11990    0.54620    1.000
    C53      C        0.13180    0.74310    0.45180    1.000
    C54      C        0.12270    0.22360    0.79930    1.000
    C55      C        0.02250    0.14440    0.32730    1.000
    C56      C        0.19180    0.18770    0.50760    1.000
    S9       S        0.10038    0.75330    0.36401    1.000
    C57      C        0.15750    0.66130    0.44890    1.000
    S10      S        0.14822    0.20000    0.89081    1.000
    C58      C        0.09710    0.31220    0.79960    1.000
    S11      S        0.06784    0.18350    0.31365    1.000
    C59      C        0.99420    0.18680    0.26900    1.000
    S12      S        0.17497    0.26580    0.42433    1.000
    C60      C        0.23150    0.19840    0.52640    1.000
    C61      C        0.12430    0.64350    0.32450    1.000
    H17      H        0.17680    0.64390    0.49240    1.000
    C62      C        0.15450    0.60100    0.37670    1.000
    C63      C        0.12420    0.31150    0.92920    1.000
    H18      H        0.08010    0.33640    0.75420    1.000
    C64      C        0.09830    0.36310    0.87280    1.000
    C65      C        0.04910    0.25960    0.23050    1.000
    H19      H        0.96760    0.16940    0.26520    1.000
    C66      C        0.00990    0.25950    0.21550    1.000
    C67      C        0.22100    0.30920    0.41430    1.000
    H20      H        0.24610    0.16580    0.57210    1.000
    C68      C        0.24750    0.26100    0.47240    1.000
    C69      C        0.11250    0.60950    0.24120    1.000
    H21      H        0.17090    0.54020    0.36610    1.000
    C70      C        0.13280    0.33680    0.01430    1.000
    H22      H        0.08290    0.42680    0.88250    1.000
    C71      C        0.07580    0.32440    0.18650    1.000
    H23      H        0.99500    0.30240    0.17480    1.000
    C72      C        0.22660    0.37890    0.34650    1.000
    H24      H        0.27450    0.26960    0.47480    1.000
    Y9       Y        0.42385    0.06327    0.92190    1.000
    O49      O        0.45032    0.05090    0.05020    1.000
    O50      O        0.36680    0.15020    0.94810    1.000
    O51      O        0.48703    0.08000    0.90820    1.000
    O52      O        0.41600    0.15970    0.79890    1.000
    O53      O        0.37070    0.02900    0.78820    1.000
    O54      O        0.38520    0.91870    0.95920    1.000
    O55      O        0.43990    0.89780    0.86090    1.000
    C73      C        0.47840    0.09590    0.09670    1.000
    C74      C        0.33240    0.11730    0.93670    1.000
    Y10      Y        0.33163    0.88167    0.82417    1.000
    C75      C        0.46820    0.17420    0.15860    1.000
    O56      O        0.31700    0.03820    0.89160    1.000
    C76      C        0.30440    0.17810    0.97990    1.000
    O57      O        0.27020    0.85400    0.84520    1.000
    O58      O        0.34280    0.77880    0.94490    1.000
    O59      O        0.38950    0.80060    0.80050    1.000
    O60      O        0.30240    0.90540    0.70070    1.000
    S13      S        0.42156    0.19710    0.16992    1.000
    C77      C        0.49350    0.23950    0.21180    1.000
    S14      S        0.31942    0.27150    0.05621    1.000
    C78      C        0.26490    0.16080    0.96910    1.000
    C79      C        0.43520    0.29240    0.24590    1.000
    H25      H        0.52070    0.24000    0.21430    1.000
    C80      C        0.47340    0.30440    0.26110    1.000
    C81      C        0.27230    0.28900    0.07330    1.000
    C82      C        0.24740    0.22260    0.02430    1.000
    H26      H        0.25130    0.11320    0.92930    1.000
    C83      C        0.40500    0.34610    0.28550    1.000
    H27      H        0.48590    0.35260    0.30170    1.000
    C84      C        0.26430    0.35780    0.14040    1.000
    H28      H        0.22070    0.21820    0.02710    1.000
    O61      O        0.41630    0.41780    0.34040    1.000
    O62      O        0.37060    0.32150    0.26140    1.000
    O63      O        0.29100    0.40780    0.18220    1.000
    Y11      Y        0.42290    0.55108    0.43764    1.000
    Y12      Y        0.32061    0.41306    0.30902    1.000
    O64      O        0.39970    0.39160    0.49130    1.000
    O65      O        0.39760    0.65660    0.32890    1.000
    O66      O        0.45510    0.53230    0.56050    1.000
    O67      O        0.37040    0.62550    0.48240    1.000
    O68      O        0.48210    0.54780    0.40180    1.000
    O69      O        0.34570    0.32100    0.42510    1.000
    O70      O        0.34890    0.56600    0.25320    1.000
    O71      O        0.32190    0.55900    0.39580    1.000
    O72      O        0.26150    0.41010    0.34380    1.000
    C85      C        0.37110    0.32400    0.48240    1.000
    C86      C        0.37420    0.64070    0.26670    1.000
    C87      C        0.48430    0.57230    0.60470    1.000
    C88      C        0.33580    0.61990    0.45380    1.000
    C89      C        0.36820    0.24310    0.54820    1.000
    C90      C        0.37730    0.72360    0.20070    1.000
    C91      C        0.47750    0.64440    0.67270    1.000
    C92      C        0.30820    0.68770    0.49240    1.000
    S15      S        0.39962    0.25330    0.63599    1.000
    C93      C        0.34250    0.16130    0.55110    1.000
    S16      S        0.35178    0.70000    0.10919    1.000
    C94      C        0.40290    0.81220    0.20040    1.000
    S17      S        0.43216    0.68350    0.68635    1.000
    C95      C        0.50580    0.68680    0.73100    1.000
    S18      S        0.32503    0.76580    0.57567    1.000
    C96      C        0.26850    0.69840    0.47360    1.000
    C97      C        0.37570    0.14350    0.67550    1.000
    H29      H        0.32320    0.14390    0.50760    1.000
    C98      C        0.34550    0.10100    0.62330    1.000
    C99      C        0.37580    0.81150    0.07080    1.000
    H30      H        0.41990    0.83640    0.24580    1.000
    C100     C        0.40170    0.86310    0.12720    1.000
    C101     C        0.45090    0.75960    0.76950    1.000
    H31      H        0.53240    0.66940    0.73480    1.000
    C102     C        0.49010    0.75950    0.78450    1.000
    C103     C        0.27900    0.80920    0.58570    1.000
    H32      H        0.25390    0.66580    0.42790    1.000
    C104     C        0.25250    0.76100    0.52760    1.000
    C105     C        0.38750    0.10950    0.75880    1.000
    H33      H        0.32910    0.04020    0.63390    1.000
    C106     C        0.36720    0.83680    0.98570    1.000
    H34      H        0.41710    0.92680    0.11750    1.000
    C107     C        0.42420    0.82440    0.81350    1.000
    H35      H        0.50500    0.80240    0.82520    1.000
    C108     C        0.27340    0.87890    0.65350    1.000
    H36      H        0.22550    0.76960    0.52520    1.000
    Y13      Y        0.92385    0.56327    0.92190    1.000
    O73      O        0.95032    0.55090    0.05020    1.000
    O74      O        0.86680    0.65020    0.94810    1.000
    O75      O        0.98703    0.58000    0.90820    1.000
    O76      O        0.91600    0.65970    0.79890    1.000
    O77      O        0.87070    0.52900    0.78820    1.000
    O78      O        0.88520    0.41870    0.95920    1.000
    O79      O        0.93990    0.39780    0.86090    1.000
    C109     C        0.97840    0.59590    0.09670    1.000
    C110     C        0.83240    0.61730    0.93670    1.000
    Y14      Y        0.83163    0.38167    0.82417    1.000
    C111     C        0.96820    0.67420    0.15860    1.000
    O80      O        0.81700    0.53820    0.89160    1.000
    C112     C        0.80440    0.67810    0.97990    1.000
    O81      O        0.77020    0.35400    0.84520    1.000
    O82      O        0.84280    0.27880    0.94490    1.000
    O83      O        0.88950    0.30060    0.80050    1.000
    O84      O        0.80240    0.40540    0.70070    1.000
    S19      S        0.92156    0.69710    0.16992    1.000
    C113     C        0.99350    0.73950    0.21180    1.000
    S20      S        0.81942    0.77150    0.05621    1.000
    C114     C        0.76490    0.66080    0.96910    1.000
    C115     C        0.93520    0.79240    0.24590    1.000
    H37      H        0.02070    0.74000    0.21430    1.000
    C116     C        0.97340    0.80440    0.26110    1.000
    C117     C        0.77230    0.78900    0.07330    1.000
    C118     C        0.74740    0.72260    0.02430    1.000
    H38      H        0.75130    0.61320    0.92930    1.000
    C119     C        0.90500    0.84610    0.28550    1.000
    H39      H        0.98590    0.85260    0.30170    1.000
    C120     C        0.76430    0.85780    0.14040    1.000
    H40      H        0.72070    0.71820    0.02710    1.000
    O85      O        0.91630    0.91780    0.34040    1.000
    O86      O        0.87060    0.82150    0.26140    1.000
    O87      O        0.79100    0.90780    0.18220    1.000
    Y15      Y        0.92290    0.05108    0.43764    1.000
    Y16      Y        0.82061    0.91306    0.30902    1.000
    O88      O        0.89970    0.89160    0.49130    1.000
    O89      O        0.89760    0.15660    0.32890    1.000
    O90      O        0.95510    0.03230    0.56050    1.000
    O91      O        0.87040    0.12550    0.48240    1.000
    O92      O        0.98210    0.04780    0.40180    1.000
    O93      O        0.84570    0.82100    0.42510    1.000
    O94      O        0.84890    0.06600    0.25320    1.000
    O95      O        0.82190    0.05900    0.39580    1.000
    O96      O        0.76150    0.91010    0.34380    1.000
    C121     C        0.87110    0.82400    0.48240    1.000
    C122     C        0.87420    0.14070    0.26670    1.000
    C123     C        0.98430    0.07230    0.60470    1.000
    C124     C        0.83580    0.11990    0.45380    1.000
    C125     C        0.86820    0.74310    0.54820    1.000
    C126     C        0.87730    0.22360    0.20070    1.000
    C127     C        0.97750    0.14440    0.67270    1.000
    C128     C        0.80820    0.18770    0.49240    1.000
    S21      S        0.89962    0.75330    0.63599    1.000
    C129     C        0.84250    0.66130    0.55110    1.000
    S22      S        0.85178    0.20000    0.10919    1.000
    C130     C        0.90290    0.31220    0.20040    1.000
    S23      S        0.93216    0.18350    0.68635    1.000
    C131     C        0.00580    0.18680    0.73100    1.000
    S24      S        0.82503    0.26580    0.57567    1.000
    C132     C        0.76850    0.19840    0.47360    1.000
    C133     C        0.87570    0.64350    0.67550    1.000
    H41      H        0.82320    0.64390    0.50760    1.000
    C134     C        0.84550    0.60100    0.62330    1.000
    C135     C        0.87580    0.31150    0.07080    1.000
    H42      H        0.91990    0.33640    0.24580    1.000
    C136     C        0.90170    0.36310    0.12720    1.000
    C137     C        0.95090    0.25960    0.76950    1.000
    H43      H        0.03240    0.16940    0.73480    1.000
    C138     C        0.99010    0.25950    0.78450    1.000
    C139     C        0.77900    0.30920    0.58570    1.000
    H44      H        0.75390    0.16580    0.42790    1.000
    C140     C        0.75250    0.26100    0.52760    1.000
    C141     C        0.88750    0.60950    0.75880    1.000
    H45      H        0.82910    0.54020    0.63390    1.000
    C142     C        0.86720    0.33680    0.98570    1.000
    H46      H        0.91710    0.42680    0.11750    1.000
    C143     C        0.92420    0.32440    0.81350    1.000
    H47      H        0.00500    0.30240    0.82520    1.000
    C144     C        0.77340    0.37890    0.65350    1.000
    H48      H        0.72550    0.26960    0.52520    1.000
