# CIF file generated by openbabel 3.1.0, see https://openbabel.org
data_I
_chemical_name_common 'ZAXQUM_charged'
_cell_length_a 14.639
_cell_length_b 14.639
_cell_length_c 20.056
_cell_angle_alpha 90
_cell_angle_beta 90
_cell_angle_gamma 90
_space_group_name_H-M_alt 'P 1'
_space_group_name_Hall 'P 1'
loop_
    _symmetry_equiv_pos_as_xyz
    x,y,z
loop_
    _atom_site_label
    _atom_site_type_symbol
    _atom_site_fract_x
    _atom_site_fract_y
    _atom_site_fract_z
    _atom_site_occupancy
    Cu1      Cu       0.50000    0.50000    0.00000    1.000
    Cu2      Cu       0.00000    0.00000    0.00000    1.000
    Cu3      Cu       0.00000    0.50000    0.50000    1.000
    Cu4      Cu       0.50000    0.00000    0.50000    1.000
    Cu5      Cu       0.75000    0.25000    0.75000    1.000
    Cu6      Cu       0.25000    0.75000    0.25000    1.000
    Cu7      Cu       0.25000    0.75000    0.75000    1.000
    Cu8      Cu       0.75000    0.25000    0.25000    1.000
    H1       H        0.55760    0.21060    0.21080    1.000
    H2       H        0.44680    0.25710    0.13690    1.000
    H3       H        0.69620    0.56430    0.02790    1.000
    H4       H        0.81340    0.52600    0.10170    1.000
    H5       H        0.79510    0.40710    0.17550    1.000
    H6       H        0.94240    0.28940    0.21080    1.000
    H7       H        0.05320    0.24290    0.13690    1.000
    H8       H        0.80380    0.93570    0.02790    1.000
    H9       H        0.68660    0.97400    0.10170    1.000
    H10      H        0.70490    0.09290    0.17550    1.000
    H11      H        0.28940    0.55760    0.71080    1.000
    H12      H        0.24290    0.44680    0.63690    1.000
    H13      H        0.93570    0.69620    0.52790    1.000
    H14      H        0.97400    0.81340    0.60170    1.000
    H15      H        0.09290    0.79510    0.67550    1.000
    H16      H        0.21060    0.94240    0.71080    1.000
    H17      H        0.25710    0.05320    0.63690    1.000
    H18      H        0.56430    0.80380    0.52790    1.000
    H19      H        0.52600    0.68660    0.60170    1.000
    H20      H        0.40710    0.70490    0.67550    1.000
    H21      H        0.44240    0.71060    0.28920    1.000
    H22      H        0.55320    0.75710    0.36310    1.000
    H23      H        0.30380    0.06430    0.47210    1.000
    H24      H        0.18660    0.02600    0.39830    1.000
    H25      H        0.20490    0.90710    0.32450    1.000
    H26      H        0.05760    0.78940    0.28920    1.000
    H27      H        0.94680    0.74290    0.36310    1.000
    H28      H        0.19620    0.43570    0.47210    1.000
    H29      H        0.31340    0.47400    0.39830    1.000
    H30      H        0.29510    0.59290    0.32450    1.000
    H31      H        0.71060    0.05760    0.78920    1.000
    H32      H        0.75710    0.94680    0.86310    1.000
    H33      H        0.06430    0.19620    0.97210    1.000
    H34      H        0.02600    0.31340    0.89830    1.000
    H35      H        0.90710    0.29510    0.82450    1.000
    H36      H        0.78940    0.44240    0.78920    1.000
    H37      H        0.74290    0.55320    0.86310    1.000
    H38      H        0.43570    0.30380    0.97210    1.000
    H39      H        0.47400    0.18660    0.89830    1.000
    H40      H        0.59290    0.20490    0.82450    1.000
    H41      H        0.44240    0.78940    0.78920    1.000
    H42      H        0.55320    0.74290    0.86310    1.000
    H43      H        0.30380    0.43570    0.97210    1.000
    H44      H        0.18660    0.47400    0.89830    1.000
    H45      H        0.20490    0.59290    0.82450    1.000
    H46      H        0.05760    0.71060    0.78920    1.000
    H47      H        0.94680    0.75710    0.86310    1.000
    H48      H        0.19620    0.06430    0.97210    1.000
    H49      H        0.31340    0.02600    0.89830    1.000
    H50      H        0.29510    0.90710    0.82450    1.000
    H51      H        0.71060    0.44240    0.28920    1.000
    H52      H        0.75710    0.55320    0.36310    1.000
    H53      H        0.06430    0.30380    0.47210    1.000
    H54      H        0.02600    0.18660    0.39830    1.000
    H55      H        0.90710    0.20490    0.32450    1.000
    H56      H        0.78940    0.05760    0.28920    1.000
    H57      H        0.74290    0.94680    0.36310    1.000
    H58      H        0.43570    0.19620    0.47210    1.000
    H59      H        0.47400    0.31340    0.39830    1.000
    H60      H        0.59290    0.29510    0.32450    1.000
    H61      H        0.55760    0.28940    0.71080    1.000
    H62      H        0.44680    0.24290    0.63690    1.000
    H63      H        0.69620    0.93570    0.52790    1.000
    H64      H        0.81340    0.97400    0.60170    1.000
    H65      H        0.79510    0.09290    0.67550    1.000
    H66      H        0.94240    0.21060    0.71080    1.000
    H67      H        0.05320    0.25710    0.63690    1.000
    H68      H        0.80380    0.56430    0.52790    1.000
    H69      H        0.68660    0.52600    0.60170    1.000
    H70      H        0.70490    0.40710    0.67550    1.000
    H71      H        0.28940    0.94240    0.21080    1.000
    H72      H        0.24290    0.05320    0.13690    1.000
    H73      H        0.93570    0.80380    0.02790    1.000
    H74      H        0.97400    0.68660    0.10170    1.000
    H75      H        0.09290    0.70490    0.17550    1.000
    H76      H        0.21060    0.55760    0.21080    1.000
    H77      H        0.25710    0.44680    0.13690    1.000
    H78      H        0.56430    0.69620    0.02790    1.000
    H79      H        0.52600    0.81340    0.10170    1.000
    H80      H        0.40710    0.79510    0.17550    1.000
    C1       C        0.57020    0.26110    0.18250    1.000
    C2       C        0.50310    0.28940    0.13790    1.000
    C3       C        0.68700    0.51570    0.05850    1.000
    C4       C        0.75780    0.49250    0.10240    1.000
    C5       C        0.74730    0.42270    0.14550    1.000
    C6       C        0.66550    0.37380    0.14570    1.000
    C7       C        0.59640    0.40160    0.10100    1.000
    C8       C        0.92980    0.23890    0.18250    1.000
    C9       C        0.99690    0.21060    0.13790    1.000
    C10      C        0.81300    0.98430    0.05850    1.000
    C11      C        0.74220    0.00750    0.10240    1.000
    C12      C        0.75270    0.07730    0.14550    1.000
    C13      C        0.83450    0.12620    0.14570    1.000
    C14      C        0.90360    0.09840    0.10100    1.000
    C15      C        0.23890    0.57020    0.68250    1.000
    C16      C        0.21060    0.50310    0.63790    1.000
    C17      C        0.98430    0.68700    0.55850    1.000
    C18      C        0.00750    0.75780    0.60240    1.000
    C19      C        0.07730    0.74730    0.64550    1.000
    C20      C        0.12620    0.66550    0.64570    1.000
    C21      C        0.09840    0.59640    0.60100    1.000
    C22      C        0.26110    0.92980    0.68250    1.000
    C23      C        0.28940    0.99690    0.63790    1.000
    C24      C        0.51570    0.81300    0.55850    1.000
    C25      C        0.49250    0.74220    0.60240    1.000
    C26      C        0.42270    0.75270    0.64550    1.000
    C27      C        0.37380    0.83450    0.64570    1.000
    C28      C        0.40160    0.90360    0.60100    1.000
    C29      C        0.42980    0.76110    0.31750    1.000
    C30      C        0.49690    0.78940    0.36210    1.000
    C31      C        0.31300    0.01570    0.44150    1.000
    C32      C        0.24220    0.99250    0.39760    1.000
    C33      C        0.25270    0.92270    0.35450    1.000
    C34      C        0.33450    0.87380    0.35430    1.000
    C35      C        0.40360    0.90160    0.39900    1.000
    C36      C        0.07020    0.73890    0.31750    1.000
    C37      C        0.00310    0.71060    0.36210    1.000
    C38      C        0.18700    0.48430    0.44150    1.000
    C39      C        0.25780    0.50750    0.39760    1.000
    C40      C        0.24730    0.57730    0.35450    1.000
    C41      C        0.16550    0.62620    0.35430    1.000
    C42      C        0.09640    0.59840    0.39900    1.000
    C43      C        0.76110    0.07020    0.81750    1.000
    C44      C        0.78940    0.00310    0.86210    1.000
    C45      C        0.01570    0.18700    0.94150    1.000
    C46      C        0.99250    0.25780    0.89760    1.000
    C47      C        0.92270    0.24730    0.85450    1.000
    C48      C        0.87380    0.16550    0.85430    1.000
    C49      C        0.90160    0.09640    0.89900    1.000
    C50      C        0.73890    0.42980    0.81750    1.000
    C51      C        0.71060    0.49690    0.86210    1.000
    C52      C        0.48430    0.31300    0.94150    1.000
    C53      C        0.50750    0.24220    0.89760    1.000
    C54      C        0.57730    0.25270    0.85450    1.000
    C55      C        0.62620    0.33450    0.85430    1.000
    C56      C        0.59840    0.40360    0.89900    1.000
    C57      C        0.42980    0.73890    0.81750    1.000
    C58      C        0.49690    0.71060    0.86210    1.000
    C59      C        0.31300    0.48430    0.94150    1.000
    C60      C        0.24220    0.50750    0.89760    1.000
    C61      C        0.25270    0.57730    0.85450    1.000
    C62      C        0.33450    0.62620    0.85430    1.000
    C63      C        0.40360    0.59840    0.89900    1.000
    C64      C        0.07020    0.76110    0.81750    1.000
    C65      C        0.00310    0.78940    0.86210    1.000
    C66      C        0.18700    0.01570    0.94150    1.000
    C67      C        0.25780    0.99250    0.89760    1.000
    C68      C        0.24730    0.92270    0.85450    1.000
    C69      C        0.16550    0.87380    0.85430    1.000
    C70      C        0.09640    0.90160    0.89900    1.000
    C71      C        0.76110    0.42980    0.31750    1.000
    C72      C        0.78940    0.49690    0.36210    1.000
    C73      C        0.01570    0.31300    0.44150    1.000
    C74      C        0.99250    0.24220    0.39760    1.000
    C75      C        0.92270    0.25270    0.35450    1.000
    C76      C        0.87380    0.33450    0.35430    1.000
    C77      C        0.90160    0.40360    0.39900    1.000
    C78      C        0.73890    0.07020    0.31750    1.000
    C79      C        0.71060    0.00310    0.36210    1.000
    C80      C        0.48430    0.18700    0.44150    1.000
    C81      C        0.50750    0.25780    0.39760    1.000
    C82      C        0.57730    0.24730    0.35450    1.000
    C83      C        0.62620    0.16550    0.35430    1.000
    C84      C        0.59840    0.09640    0.39900    1.000
    C85      C        0.57020    0.23890    0.68250    1.000
    C86      C        0.50310    0.21060    0.63790    1.000
    C87      C        0.68700    0.98430    0.55850    1.000
    C88      C        0.75780    0.00750    0.60240    1.000
    C89      C        0.74730    0.07730    0.64550    1.000
    C90      C        0.66550    0.12620    0.64570    1.000
    C91      C        0.59640    0.09840    0.60100    1.000
    C92      C        0.92980    0.26110    0.68250    1.000
    C93      C        0.99690    0.28940    0.63790    1.000
    C94      C        0.81300    0.51570    0.55850    1.000
    C95      C        0.74220    0.49250    0.60240    1.000
    C96      C        0.75270    0.42270    0.64550    1.000
    C97      C        0.83450    0.37380    0.64570    1.000
    C98      C        0.90360    0.40160    0.60100    1.000
    C99      C        0.23890    0.92980    0.18250    1.000
    C100     C        0.21060    0.99690    0.13790    1.000
    C101     C        0.98430    0.81300    0.05850    1.000
    C102     C        0.00750    0.74220    0.10240    1.000
    C103     C        0.07730    0.75270    0.14550    1.000
    C104     C        0.12620    0.83450    0.14570    1.000
    C105     C        0.09840    0.90360    0.10100    1.000
    C106     C        0.26110    0.57020    0.18250    1.000
    C107     C        0.28940    0.50310    0.13790    1.000
    C108     C        0.51570    0.68700    0.05850    1.000
    C109     C        0.49250    0.75780    0.10240    1.000
    C110     C        0.42270    0.74730    0.14550    1.000
    C111     C        0.37380    0.66550    0.14570    1.000
    C112     C        0.40160    0.59640    0.10100    1.000
    N1       N        0.65090    0.30160    0.18710    1.000
    N2       N        0.51420    0.35960    0.09680    1.000
    N3       N        0.60810    0.47250    0.05820    1.000
    N4       N        0.84910    0.19840    0.18710    1.000
    N5       N        0.98580    0.14040    0.09680    1.000
    N6       N        0.89190    0.02750    0.05820    1.000
    N7       N        0.19840    0.65090    0.68710    1.000
    N8       N        0.14040    0.51420    0.59680    1.000
    N9       N        0.02750    0.60810    0.55820    1.000
    N10      N        0.30160    0.84910    0.68710    1.000
    N11      N        0.35960    0.98580    0.59680    1.000
    N12      N        0.47250    0.89190    0.55820    1.000
    N13      N        0.34910    0.80160    0.31290    1.000
    N14      N        0.48580    0.85960    0.40320    1.000
    N15      N        0.39190    0.97250    0.44180    1.000
    N16      N        0.15090    0.69840    0.31290    1.000
    N17      N        0.01420    0.64040    0.40320    1.000
    N18      N        0.10810    0.52750    0.44180    1.000
    N19      N        0.80160    0.15090    0.81290    1.000
    N20      N        0.85960    0.01420    0.90320    1.000
    N21      N        0.97250    0.10810    0.94180    1.000
    N22      N        0.69840    0.34910    0.81290    1.000
    N23      N        0.64040    0.48580    0.90320    1.000
    N24      N        0.52750    0.39190    0.94180    1.000
    N25      N        0.34910    0.69840    0.81290    1.000
    N26      N        0.48580    0.64040    0.90320    1.000
    N27      N        0.39190    0.52750    0.94180    1.000
    N28      N        0.15090    0.80160    0.81290    1.000
    N29      N        0.01420    0.85960    0.90320    1.000
    N30      N        0.10810    0.97250    0.94180    1.000
    N31      N        0.80160    0.34910    0.31290    1.000
    N32      N        0.85960    0.48580    0.40320    1.000
    N33      N        0.97250    0.39190    0.44180    1.000
    N34      N        0.69840    0.15090    0.31290    1.000
    N35      N        0.64040    0.01420    0.40320    1.000
    N36      N        0.52750    0.10810    0.44180    1.000
    N37      N        0.65090    0.19840    0.68710    1.000
    N38      N        0.51420    0.14040    0.59680    1.000
    N39      N        0.60810    0.02750    0.55820    1.000
    N40      N        0.84910    0.30160    0.68710    1.000
    N41      N        0.98580    0.35960    0.59680    1.000
    N42      N        0.89190    0.47250    0.55820    1.000
    N43      N        0.19840    0.84910    0.18710    1.000
    N44      N        0.14040    0.98580    0.09680    1.000
    N45      N        0.02750    0.89190    0.05820    1.000
    N46      N        0.30160    0.65090    0.18710    1.000
    N47      N        0.35960    0.51420    0.09680    1.000
    N48      N        0.47250    0.60810    0.05820    1.000
    B1       B        0.75000    0.25000    0.00000    1.000
    F1       F        0.72820    0.17770    0.95570    1.000
    F2       F        0.77180    0.32230    0.95570    1.000
    F3       F        0.67770    0.22820    0.04430    1.000
    F4       F        0.82230    0.27180    0.04430    1.000
    B2       B        0.25000    0.75000    0.50000    1.000
    F5       F        0.32230    0.72820    0.45570    1.000
    F6       F        0.17770    0.77180    0.45570    1.000
    F7       F        0.27180    0.67770    0.54430    1.000
    F8       F        0.22820    0.82230    0.54430    1.000
    B3       B        0.25000    0.75000    0.00000    1.000
    F9       F        0.27180    0.82230    0.04430    1.000
    F10      F        0.22820    0.67770    0.04430    1.000
    F11      F        0.32230    0.77180    0.95570    1.000
    F12      F        0.17770    0.72820    0.95570    1.000
    B4       B        0.75000    0.25000    0.50000    1.000
    F13      F        0.67770    0.27180    0.54430    1.000
    F14      F        0.82230    0.22820    0.54430    1.000
    F15      F        0.72820    0.32230    0.45570    1.000
    F16      F        0.77180    0.17770    0.45570    1.000
    B5       B        0.52230    0.52230    0.27380    1.000
    F17      F        0.43470    0.54430    0.26950    1.000
    F18      F        0.54430    0.43470    0.26950    1.000
    F19      F        0.57350    0.57350    0.31780    1.000
    F20      F        0.55250    0.55250    0.21140    1.000
    B6       B        0.97770    0.97770    0.27380    1.000
    F21      F        0.06530    0.95570    0.26950    1.000
    F22      F        0.95570    0.06530    0.26950    1.000
    F23      F        0.92650    0.92650    0.31780    1.000
    F24      F        0.94750    0.94750    0.21140    1.000
    B7       B        0.97770    0.52230    0.77380    1.000
    F25      F        0.95570    0.43470    0.76950    1.000
    F26      F        0.06530    0.54430    0.76950    1.000
    F27      F        0.92650    0.57350    0.81780    1.000
    F28      F        0.94750    0.55250    0.71140    1.000
    B8       B        0.52230    0.97770    0.77380    1.000
    F29      F        0.54430    0.06530    0.76950    1.000
    F30      F        0.43470    0.95570    0.76950    1.000
    F31      F        0.57350    0.92650    0.81780    1.000
    F32      F        0.55250    0.94750    0.71140    1.000
    B9       B        0.47770    0.02230    0.22620    1.000
    F33      F        0.56530    0.04430    0.23050    1.000
    F34      F        0.45570    0.93470    0.23050    1.000
    F35      F        0.42650    0.07350    0.18220    1.000
    F36      F        0.44750    0.05250    0.28860    1.000
    B10      B        0.02230    0.47770    0.22620    1.000
    F37      F        0.93470    0.45570    0.23050    1.000
    F38      F        0.04430    0.56530    0.23050    1.000
    F39      F        0.07350    0.42650    0.18220    1.000
    F40      F        0.05250    0.44750    0.28860    1.000
    B11      B        0.02230    0.02230    0.72620    1.000
    F41      F        0.04430    0.93470    0.73050    1.000
    F42      F        0.93470    0.04430    0.73050    1.000
    F43      F        0.07350    0.07350    0.68220    1.000
    F44      F        0.05250    0.05250    0.78860    1.000
    B12      B        0.47770    0.47770    0.72620    1.000
    F45      F        0.45570    0.56530    0.73050    1.000
    F46      F        0.56530    0.45570    0.73050    1.000
    F47      F        0.42650    0.42650    0.68220    1.000
    F48      F        0.44750    0.44750    0.78860    1.000
