# CIF file generated by openbabel 3.1.0, see https://openbabel.org
data_I
_chemical_name_common 'image0'
_cell_length_a 9.9983
_cell_length_b 11.0159
_cell_length_c 12.3746
_cell_angle_alpha 90.955
_cell_angle_beta 110.694
_cell_angle_gamma 95.116
_space_group_name_H-M_alt 'P 1'
_space_group_name_Hall 'P 1'
loop_
    _symmetry_equiv_pos_as_xyz
    x,y,z
loop_
    _atom_site_label
    _atom_site_type_symbol
    _atom_site_fract_x
    _atom_site_fract_y
    _atom_site_fract_z
    _atom_site_occupancy
    Cu1      Cu       0.67535    0.87699    0.50347    1.000
    O1       O        0.69390    0.71430    0.43810    1.000
    O2       O        0.91990    0.79390    0.51760    1.000
    O3       O        0.24550    0.96670    0.41100    1.000
    O4       O        0.43270    0.86670    0.41710    1.000
    O5       O        0.69050    0.13030    0.99790    1.000
    O6       O        0.78940    0.71920    0.05990    1.000
    N1       N        0.66170    0.80490    0.64760    1.000
    N2       N        0.69850    0.94780    0.36080    1.000
    N3       N        0.90410    0.05090    0.04480    1.000
    N4       N        0.57740    0.60890    0.99100    1.000
    C1       C        0.82910    0.71360    0.45630    1.000
    C2       C        0.87020    0.61020    0.39820    1.000
    C3       C        0.98210    0.62700    0.35350    1.000
    C4       C        0.00810    0.52710    0.29570    1.000
    H1       H        0.07910    0.53720    0.26110    1.000
    C5       C        0.93320    0.41430    0.28760    1.000
    H2       H        0.95250    0.34800    0.24710    1.000
    C6       C        0.83060    0.39680    0.33750    1.000
    H3       H        0.78290    0.31770    0.33560    1.000
    C7       C        0.79730    0.49490    0.39070    1.000
    H4       H        0.72370    0.48360    0.42250    1.000
    C8       C        0.07240    0.74350    0.36780    1.000
    H5       H        0.02850    0.81670    0.36660    1.000
    C9       C        0.30500    0.86990    0.40540    1.000
    C10      C        0.81430    0.02460    0.37160    1.000
    H6       H        0.87580    0.05420    0.44700    1.000
    C11      C        0.84830    0.06280    0.27790    1.000
    H7       H        0.93260    0.11630    0.28930    1.000
    C12      C        0.75880    0.02250    0.16730    1.000
    C13      C        0.63750    0.94340    0.15510    1.000
    H8       H        0.57270    0.91440    0.08070    1.000
    C14      C        0.61310    0.90800    0.25350    1.000
    H9       H        0.53130    0.85230    0.24480    1.000
    C15      C        0.78320    0.07130    0.06270    1.000
    C16      C        0.01800    0.98290    0.11970    1.000
    H10      H        0.98370    0.93980    0.17600    1.000
    H11      H        0.10260    0.04050    0.16350    1.000
    C17      C        0.93880    0.10850    0.95110    1.000
    H12      H        0.01840    0.17410    0.98410    1.000
    H13      H        0.85410    0.14620    0.90020    1.000
    C18      C        0.43970    0.56840    0.89830    1.000
    H14      H        0.44310    0.59380    0.82290    1.000
    H15      H        0.36110    0.60700    0.91220    1.000
    C19      C        0.58880    0.56610    0.10470    1.000
    H16      H        0.51900    0.60410    0.13130    1.000
    H17      H        0.68640    0.59160    0.16080    1.000
    C20      C        0.68100    0.68340    0.97870    1.000
    C21      C        0.66510    0.72270    0.85990    1.000
    C22      C        0.59070    0.81950    0.81110    1.000
    H18      H        0.53810    0.85910    0.84950    1.000
    C23      C        0.59300    0.85840    0.70700    1.000
    H19      H        0.54330    0.92660    0.67580    1.000
    C24      C        0.73390    0.71170    0.69510    1.000
    H20      H        0.78400    0.67250    0.65420    1.000
    C25      C        0.73950    0.66940    0.80000    1.000
    H21      H        0.79430    0.60380    0.83130    1.000
    C26      C        0.21100    0.75320    0.38230    1.000
    H22      H        0.25300    0.68020    0.37750    1.000
    Cu2      Cu       0.32465    0.12301    0.49653    1.000
    O7       O        0.30610    0.28570    0.56190    1.000
    O8       O        0.08010    0.20610    0.48240    1.000
    O9       O        0.75450    0.03330    0.58900    1.000
    O10      O        0.56730    0.13330    0.58290    1.000
    O11      O        0.30950    0.86970    0.00210    1.000
    O12      O        0.21060    0.28080    0.94010    1.000
    N5       N        0.33830    0.19510    0.35240    1.000
    N6       N        0.30150    0.05220    0.63920    1.000
    N7       N        0.09590    0.94910    0.95520    1.000
    N8       N        0.42260    0.39110    0.00900    1.000
    C27      C        0.17090    0.28640    0.54370    1.000
    C28      C        0.12980    0.38980    0.60180    1.000
    C29      C        0.01790    0.37300    0.64650    1.000
    C30      C        0.99190    0.47290    0.70430    1.000
    H23      H        0.92090    0.46280    0.73890    1.000
    C31      C        0.06680    0.58570    0.71240    1.000
    H24      H        0.04750    0.65200    0.75290    1.000
    C32      C        0.16940    0.60320    0.66250    1.000
    H25      H        0.21710    0.68230    0.66440    1.000
    C33      C        0.20270    0.50510    0.60930    1.000
    H26      H        0.27630    0.51640    0.57750    1.000
    C34      C        0.92760    0.25650    0.63220    1.000
    H27      H        0.97150    0.18330    0.63340    1.000
    C35      C        0.69500    0.13010    0.59460    1.000
    C36      C        0.18570    0.97540    0.62840    1.000
    H28      H        0.12420    0.94580    0.55300    1.000
    C37      C        0.15170    0.93720    0.72210    1.000
    H29      H        0.06740    0.88370    0.71070    1.000
    C38      C        0.24120    0.97750    0.83270    1.000
    C39      C        0.36250    0.05660    0.84490    1.000
    H30      H        0.42730    0.08560    0.91930    1.000
    C40      C        0.38690    0.09200    0.74650    1.000
    H31      H        0.46870    0.14770    0.75520    1.000
    C41      C        0.21680    0.92870    0.93730    1.000
    C42      C        0.98200    0.01710    0.88030    1.000
    H32      H        0.01630    0.06020    0.82400    1.000
    H33      H        0.89740    0.95950    0.83650    1.000
    C43      C        0.06120    0.89150    0.04890    1.000
    H34      H        0.98160    0.82590    0.01590    1.000
    H35      H        0.14590    0.85380    0.09980    1.000
    C44      C        0.56030    0.43160    0.10170    1.000
    H36      H        0.55690    0.40620    0.17710    1.000
    H37      H        0.63890    0.39300    0.08780    1.000
    C45      C        0.41120    0.43390    0.89530    1.000
    H38      H        0.48100    0.39590    0.86870    1.000
    H39      H        0.31360    0.40840    0.83920    1.000
    C46      C        0.31900    0.31660    0.02130    1.000
    C47      C        0.33490    0.27730    0.14010    1.000
    C48      C        0.40930    0.18050    0.18890    1.000
    H40      H        0.46190    0.14090    0.15050    1.000
    C49      C        0.40700    0.14160    0.29300    1.000
    H41      H        0.45670    0.07340    0.32420    1.000
    C50      C        0.26610    0.28830    0.30490    1.000
    H42      H        0.21600    0.32750    0.34580    1.000
    C51      C        0.26050    0.33060    0.20000    1.000
    H43      H        0.20570    0.39620    0.16870    1.000
    C52      C        0.78900    0.24680    0.61770    1.000
    H44      H        0.74700    0.31980    0.62250    1.000
