data_functionalizedCrystal
_audit_creation_method	'EQeq! by Chris Wilmer'
_symmetry_space_group_name_H-M	'P1'
_symmetry_Int_Tables_number	1
_symmetry_cell_setting	triclinic
loop_
_symmetry_equiv_pos_as_xyz
  x,y,z
_cell_length_a	15.8084
_cell_length_b	15.8084
_cell_length_c	16.5823
_cell_angle_alpha	90
_cell_angle_beta	90
_cell_angle_gamma	120
loop_
_atom_site_label
_atom_site_type_symbol
_atom_site_fract_x
_atom_site_fract_y
_atom_site_fract_z
_atom_site_charge
Mof_C 	C 	0.8707	0.4068	0.2402	0.267
Mof_C 	C 	0.9191	0.4852	0.299	-0.382
Mof_H 	H 	0.9791	0.5385	0.2851	0.135
Mof_C 	C 	0.8809	0.4854	0.3752	0.264
Mof_C 	C 	0.9475	0.56	0.4363	-0.097
Mof_C 	C 	0.911	0.5528	0.5138	0.03
Mof_H 	H 	0.8481	0.5025	0.5249	0.042
Mof_C 	C 	0.041	0.629	0.4223	0.03
Mof_H 	H 	0.0675	0.6315	0.3717	0.02
Mof_C 	C 	0.9629	0.6157	0.5741	-0.101
Mof_H 	H 	0.9358	0.6091	0.6251	0.096
Mof_C 	C 	0.0991	0.696	0.4796	-0.085
Mof_H 	H 	0.1631	0.7436	0.468	0.072
Mof_C 	C 	0.0576	0.6901	0.5579	0.022
Mof_C 	C 	0.117	0.7574	0.6211	0.11
Mof_C 	C 	0.9279	0.4072	0.1667	-0.138
Mof_C 	C 	0.8749	0.3527	0.1031	0.06
Mof_H 	H 	0.8071	0.3167	0.1063	0.01
Mof_C 	C 	0.0233	0.4552	0.1601	0.064
Mof_H 	H 	0.0608	0.4931	0.2031	0.025
Mof_C 	C 	0.923	0.351	0.0322	-0.139
Mof_H 	H 	0.8871	0.316	0.9875	0.095
Mof_C 	C 	0.0711	0.4507	0.0886	-0.137
Mof_H 	H 	0.1389	0.4848	0.0855	0.091
Mof_C 	C 	0.0212	0.4002	0.0295	0.081
Mof_C 	C 	0.0711	0.4026	0.9572	0.061
Mof_N 	N 	0.1058	0.3982	0.8955	-0.194
Mof_N 	N 	0.1613	0.8067	0.6691	-0.203
Mof_O 	O 	0.7857	0.3406	0.2447	-0.321
Mof_O 	O 	0.7976	0.4273	0.3988	-0.278
Mof_Ag	Ag	0.87169	0.59798	0.23505	0.734
Mof_O 	O 	0.0367	0.7343	0.2502	-0.426
Mof_O 	O 	0.2377	0.8721	0.2638	-0.366
Mof_O 	O 	0.1477	0.8224	0.1116	-0.371
Mof_Re	Re	0.15067	0.7837	0.20512	1.107
Mof_O 	O 	0.1766	0.6887	0.2006	-0.348
Mof_C 	C 	0.5932	0.4639	0.2402	0.268
Mof_C 	C 	0.5148	0.4339	0.299	-0.381
Mof_H 	H 	0.4615	0.4406	0.2851	0.135
Mof_C 	C 	0.5146	0.3955	0.3752	0.264
Mof_C 	C 	0.44	0.3875	0.4363	-0.097
Mof_C 	C 	0.4472	0.3582	0.5138	0.03
Mof_H 	H 	0.4975	0.3456	0.5249	0.042
Mof_C 	C 	0.371	0.412	0.4223	0.03
Mof_H 	H 	0.3685	0.436	0.3717	0.02
Mof_C 	C 	0.3843	0.3472	0.5741	-0.101
Mof_H 	H 	0.3909	0.3267	0.6251	0.096
Mof_C 	C 	0.304	0.4031	0.4796	-0.085
Mof_H 	H 	0.2564	0.4195	0.468	0.072
Mof_C 	C 	0.3099	0.3675	0.5579	0.022
Mof_C 	C 	0.2426	0.3596	0.6211	0.111
Mof_C 	C 	0.5928	0.5207	0.1667	-0.136
Mof_C 	C 	0.6473	0.5222	0.1031	0.059
Mof_H 	H 	0.6833	0.4904	0.1063	0.011
Mof_C 	C 	0.5448	0.5681	0.1601	0.063
Mof_H 	H 	0.5069	0.5677	0.2031	0.025
Mof_C 	C 	0.649	0.572	0.0322	-0.137
Mof_H 	H 	0.684	0.5711	0.9875	0.094
Mof_C 	C 	0.5493	0.6204	0.0886	-0.135
Mof_H 	H 	0.5152	0.6541	0.0855	0.09
Mof_C 	C 	0.5998	0.621	0.0295	0.078
Mof_C 	C 	0.5974	0.6685	0.9572	0.062
Mof_N 	N 	0.6018	0.7076	0.8955	-0.195
Mof_N 	N 	0.1933	0.3546	0.6691	-0.203
Mof_O 	O 	0.6594	0.4451	0.2447	-0.321
Mof_O 	O 	0.5727	0.3703	0.3988	-0.278
Mof_Ag	Ag	0.40202	0.27371	0.23505	0.734
Mof_O 	O 	0.2657	0.3024	0.2502	-0.426
Mof_O 	O 	0.1279	0.3656	0.2638	-0.366
Mof_O 	O 	0.1776	0.3253	0.1116	-0.371
Mof_Re	Re	0.2163	0.36697	0.20512	1.107
Mof_O 	O 	0.3113	0.4879	0.2006	-0.348
Mof_C 	C 	0.5361	0.1293	0.2402	0.268
Mof_C 	C 	0.5661	0.0809	0.299	-0.381
Mof_H 	H 	0.5594	0.0209	0.2851	0.135
Mof_C 	C 	0.6045	0.1191	0.3752	0.264
Mof_C 	C 	0.6125	0.0525	0.4363	-0.097
Mof_C 	C 	0.6418	0.089	0.5138	0.031
Mof_H 	H 	0.6544	0.1519	0.5249	0.042
Mof_C 	C 	0.588	0.959	0.4223	0.03
Mof_H 	H 	0.564	0.9325	0.3717	0.02
Mof_C 	C 	0.6528	0.0371	0.5741	-0.101
Mof_H 	H 	0.6733	0.0642	0.6251	0.096
Mof_C 	C 	0.5969	0.9009	0.4796	-0.085
Mof_H 	H 	0.5805	0.8369	0.468	0.072
Mof_C 	C 	0.6325	0.9424	0.5579	0.022
Mof_C 	C 	0.6404	0.883	0.6211	0.11
Mof_C 	C 	0.4793	0.0721	0.1667	-0.137
Mof_C 	C 	0.4778	0.1251	0.1031	0.06
Mof_H 	H 	0.5096	0.1929	0.1063	0.01
Mof_C 	C 	0.4319	0.9767	0.1601	0.064
Mof_H 	H 	0.4323	0.9392	0.2031	0.025
Mof_C 	C 	0.428	0.077	0.0322	-0.139
Mof_H 	H 	0.4289	0.1129	0.9875	0.095
Mof_C 	C 	0.3796	0.9289	0.0886	-0.137
Mof_H 	H 	0.3459	0.8611	0.0855	0.091
Mof_C 	C 	0.379	0.9788	0.0295	0.08
Mof_C 	C 	0.3315	0.9289	0.9572	0.061
Mof_N 	N 	0.2924	0.8942	0.8955	-0.194
Mof_N 	N 	0.6454	0.8387	0.6691	-0.203
Mof_O 	O 	0.5549	0.2143	0.2447	-0.321
Mof_O 	O 	0.6297	0.2024	0.3988	-0.278
Mof_Ag	Ag	0.72629	0.12831	0.23505	0.733
Mof_O 	O 	0.6976	0.9633	0.2502	-0.426
Mof_O 	O 	0.6344	0.7623	0.2638	-0.366
Mof_O 	O 	0.6747	0.8523	0.1116	-0.371
Mof_Re	Re	0.63303	0.84933	0.20512	1.107
Mof_O 	O 	0.5121	0.8234	0.2006	-0.348
Mof_C 	C 	0.1293	0.5932	0.7598	0.268
Mof_C 	C 	0.0809	0.5148	0.701	-0.381
Mof_H 	H 	0.0209	0.4615	0.7149	0.135
Mof_C 	C 	0.1191	0.5146	0.6248	0.264
Mof_C 	C 	0.0525	0.44	0.5637	-0.097
Mof_C 	C 	0.089	0.4472	0.4862	0.03
Mof_H 	H 	0.1519	0.4975	0.4751	0.042
Mof_C 	C 	0.959	0.371	0.5777	0.03
Mof_H 	H 	0.9325	0.3685	0.6283	0.02
Mof_C 	C 	0.0371	0.3843	0.4259	-0.101
Mof_H 	H 	0.0642	0.3909	0.3749	0.096
Mof_C 	C 	0.9009	0.304	0.5204	-0.085
Mof_H 	H 	0.8369	0.2564	0.532	0.072
Mof_C 	C 	0.9424	0.3099	0.4421	0.022
Mof_C 	C 	0.883	0.2426	0.3789	0.11
Mof_C 	C 	0.0721	0.5928	0.8333	-0.138
Mof_C 	C 	0.1251	0.6473	0.8969	0.06
Mof_H 	H 	0.1929	0.6833	0.8937	0.01
Mof_C 	C 	0.9767	0.5448	0.8399	0.064
Mof_H 	H 	0.9392	0.5069	0.7969	0.025
Mof_C 	C 	0.077	0.649	0.9678	-0.139
Mof_H 	H 	0.1129	0.684	0.0125	0.095
Mof_C 	C 	0.9289	0.5493	0.9114	-0.137
Mof_H 	H 	0.8611	0.5152	0.9145	0.091
Mof_C 	C 	0.9788	0.5998	0.9705	0.081
Mof_C 	C 	0.9289	0.5974	0.0428	0.061
Mof_N 	N 	0.8942	0.6018	0.1045	-0.194
Mof_N 	N 	0.8387	0.1933	0.3309	-0.203
Mof_O 	O 	0.2143	0.6594	0.7553	-0.321
Mof_O 	O 	0.2024	0.5727	0.6012	-0.278
Mof_Ag	Ag	0.12831	0.40202	0.76495	0.734
Mof_O 	O 	0.9633	0.2657	0.7498	-0.426
Mof_O 	O 	0.7623	0.1279	0.7362	-0.366
Mof_O 	O 	0.8523	0.1776	0.8884	-0.371
Mof_Re	Re	0.84933	0.2163	0.79488	1.107
Mof_O 	O 	0.8234	0.3113	0.7994	-0.348
Mof_C 	C 	0.4068	0.5361	0.7598	0.268
Mof_C 	C 	0.4852	0.5661	0.701	-0.381
Mof_H 	H 	0.5385	0.5594	0.7149	0.135
Mof_C 	C 	0.4854	0.6045	0.6248	0.264
Mof_C 	C 	0.56	0.6125	0.5637	-0.097
Mof_C 	C 	0.5528	0.6418	0.4862	0.03
Mof_H 	H 	0.5025	0.6544	0.4751	0.042
Mof_C 	C 	0.629	0.588	0.5777	0.03
Mof_H 	H 	0.6315	0.564	0.6283	0.02
Mof_C 	C 	0.6157	0.6528	0.4259	-0.101
Mof_H 	H 	0.6091	0.6733	0.3749	0.096
Mof_C 	C 	0.696	0.5969	0.5204	-0.085
Mof_H 	H 	0.7436	0.5805	0.532	0.072
Mof_C 	C 	0.6901	0.6325	0.4421	0.022
Mof_C 	C 	0.7574	0.6404	0.3789	0.111
Mof_C 	C 	0.4072	0.4793	0.8333	-0.136
Mof_C 	C 	0.3527	0.4778	0.8969	0.059
Mof_H 	H 	0.3167	0.5096	0.8937	0.011
Mof_C 	C 	0.4552	0.4319	0.8399	0.063
Mof_H 	H 	0.4931	0.4323	0.7969	0.025
Mof_C 	C 	0.351	0.428	0.9678	-0.137
Mof_H 	H 	0.316	0.4289	0.0125	0.094
Mof_C 	C 	0.4507	0.3796	0.9114	-0.135
Mof_H 	H 	0.4848	0.3459	0.9145	0.09
Mof_C 	C 	0.4002	0.379	0.9705	0.078
Mof_C 	C 	0.4026	0.3315	0.0428	0.062
Mof_N 	N 	0.3982	0.2924	0.1045	-0.195
Mof_N 	N 	0.8067	0.6454	0.3309	-0.203
Mof_O 	O 	0.3406	0.5549	0.7553	-0.321
Mof_O 	O 	0.4273	0.6297	0.6012	-0.278
Mof_Ag	Ag	0.59798	0.72629	0.76495	0.734
Mof_O 	O 	0.7343	0.6976	0.7498	-0.426
Mof_O 	O 	0.8721	0.6344	0.7362	-0.366
Mof_O 	O 	0.8224	0.6747	0.8884	-0.371
Mof_Re	Re	0.7837	0.63303	0.79488	1.107
Mof_O 	O 	0.6887	0.5121	0.7994	-0.348
Mof_C 	C 	0.4639	0.8707	0.7598	0.268
Mof_C 	C 	0.4339	0.9191	0.701	-0.381
Mof_H 	H 	0.4406	0.9791	0.7149	0.135
Mof_C 	C 	0.3955	0.8809	0.6248	0.264
Mof_C 	C 	0.3875	0.9475	0.5637	-0.097
Mof_C 	C 	0.3582	0.911	0.4862	0.031
Mof_H 	H 	0.3456	0.8481	0.4751	0.042
Mof_C 	C 	0.412	0.041	0.5777	0.03
Mof_H 	H 	0.436	0.0675	0.6283	0.02
Mof_C 	C 	0.3472	0.9629	0.4259	-0.101
Mof_H 	H 	0.3267	0.9358	0.3749	0.096
Mof_C 	C 	0.4031	0.0991	0.5204	-0.085
Mof_H 	H 	0.4195	0.1631	0.532	0.072
Mof_C 	C 	0.3675	0.0576	0.4421	0.022
Mof_C 	C 	0.3596	0.117	0.3789	0.11
Mof_C 	C 	0.5207	0.9279	0.8333	-0.137
Mof_C 	C 	0.5222	0.8749	0.8969	0.06
Mof_H 	H 	0.4904	0.8071	0.8937	0.01
Mof_C 	C 	0.5681	0.0233	0.8399	0.064
Mof_H 	H 	0.5677	0.0608	0.7969	0.025
Mof_C 	C 	0.572	0.923	0.9678	-0.139
Mof_H 	H 	0.5711	0.8871	0.0125	0.095
Mof_C 	C 	0.6204	0.0711	0.9114	-0.137
Mof_H 	H 	0.6541	0.1389	0.9145	0.091
Mof_C 	C 	0.621	0.0212	0.9705	0.08
Mof_C 	C 	0.6685	0.0711	0.0428	0.061
Mof_N 	N 	0.7076	0.1058	0.1045	-0.194
Mof_N 	N 	0.3546	0.1613	0.3309	-0.203
Mof_O 	O 	0.4451	0.7857	0.7553	-0.321
Mof_O 	O 	0.3703	0.7976	0.6012	-0.278
Mof_Ag	Ag	0.27371	0.87169	0.76495	0.733
Mof_O 	O 	0.3024	0.0367	0.7498	-0.426
Mof_O 	O 	0.3656	0.2377	0.7362	-0.366
Mof_O 	O 	0.3253	0.1477	0.8884	-0.371
Mof_Re	Re	0.36697	0.15067	0.79488	1.107
Mof_O 	O 	0.4879	0.1766	0.7994	-0.348
Mof_Cd	Cd	0.66667	0.33333	0.32406	0.504
Mof_Cd	Cd	0.33333	0.66667	0.67594	0.504
_end
