# CIF file generated by openbabel 3.1.0, see https://openbabel.org
data_I
_chemical_name_common 'image0'
_cell_length_a 30.651
_cell_length_b 25.1663
_cell_length_c 12.6824
_cell_angle_alpha 90
_cell_angle_beta 112.739
_cell_angle_gamma 90
_space_group_name_H-M_alt 'P 1'
_space_group_name_Hall 'P 1'
loop_
    _symmetry_equiv_pos_as_xyz
    x,y,z
loop_
    _atom_site_label
    _atom_site_type_symbol
    _atom_site_fract_x
    _atom_site_fract_y
    _atom_site_fract_z
    _atom_site_occupancy
    Ni1      Ni       0.06315    0.25456    0.06267    1.000
    O1       O        0.24169    0.44197    0.15654    1.000
    O2       O        0.24036    0.44020    0.33117    1.000
    O3       O        0.03920    0.30792    0.93212    1.000
    O4       O        0.96146    0.29767    0.83592    1.000
    N1       N        0.12407    0.30097    0.12473    1.000
    C1       C        0.00062    0.31805    0.85370    1.000
    C2       C        0.22831    0.42465    0.23120    1.000
    C3       C        0.19288    0.37981    0.19460    1.000
    C4       C        0.17678    0.35937    0.08520    1.000
    H1       H        0.18920    0.37210    0.03200    1.000
    C5       C        0.14290    0.32078    0.05400    1.000
    H2       H        0.13210    0.30730    0.97820    1.000
    C6       C        0.14096    0.31870    0.23130    1.000
    H3       H        0.12900    0.30390    0.28370    1.000
    C7       C        0.17517    0.35768    0.26970    1.000
    H4       H        0.18640    0.36920    0.34700    1.000
    O5       O        0.46734    0.65700    0.11790    1.000
    O6       O        0.40530    0.70780    0.01980    1.000
    C8       C        0.42540    0.66890    0.07910    1.000
    C9       C        0.39300    0.63190    0.10380    1.000
    C10      C        0.34370    0.63970    0.05800    1.000
    C11      C        0.31600    0.60050    0.07610    1.000
    N2       N        0.32690    0.56280    0.13900    1.000
    C12      C        0.37990    0.55180    0.18930    1.000
    C13      C        0.41150    0.58700    0.17500    1.000
    N3       N        0.00192    0.44054    0.61823    1.000
    C14      C        0.00095    0.36097    0.77050    1.000
    C15      C        0.03740    0.39700    0.79950    1.000
    C16      C        0.03670    0.43680    0.72170    1.000
    O7       O        0.36847    0.41962    0.45390    1.000
    O8       O        0.31610    0.44010    0.53420    1.000
    C17      C        0.34916    0.41400    0.52450    1.000
    C18      C        0.36910    0.37080    0.61640    1.000
    C19      C        0.41220    0.34700    0.63560    1.000
    C20      C        0.43026    0.31030    0.72290    1.000
    N4       N        0.40940    0.29210    0.79290    1.000
    C21      C        0.36580    0.32090    0.77250    1.000
    C22      C        0.34080    0.36440    0.65250    1.000
    C23      C        0.96650    0.40420    0.59010    1.000
    C24      C        0.96450    0.36480    0.66400    1.000
    O9       O        0.37410    0.58408    0.31540    1.000
    O10      O        0.33350    0.55410    0.13900    1.000
    C25      C        0.35850    0.58880    0.20890    1.000
    C26      C        0.37620    0.63330    0.15430    1.000
    C27      C        0.42000    0.65750    0.21180    1.000
    C28      C        0.43490    0.69370    0.15020    1.000
    N5       N        0.41270    0.70900    0.04400    1.000
    C29      C        0.36640    0.68540    0.99040    1.000
    C30      C        0.34830    0.64730    0.04100    1.000
    O11      O        0.46500    0.34950    0.82490    1.000
    O12      O        0.40540    0.30130    0.80970    1.000
    C31      C        0.42380    0.33720    0.78640    1.000
    C32      C        0.38930    0.37430    0.69930    1.000
    C33      C        0.40520    0.42020    0.66630    1.000
    C34      C        0.37288    0.45470    0.59110    1.000
    N6       N        0.32700    0.44590    0.54000    1.000
    C35      C        0.31090    0.39960    0.57430    1.000
    C36      C        0.34580    0.35640    0.68640    1.000
    C37      C        0.03780    0.40900    0.66600    1.000
    C38      C        0.03990    0.37110    0.74550    1.000
    C39      C        0.96550    0.43290    0.64690    1.000
    C40      C        0.96390    0.39310    0.72080    1.000
    Ni2      Ni       0.56315    0.75456    0.06267    1.000
    O13      O        0.74169    0.94197    0.15654    1.000
    O14      O        0.74036    0.94020    0.33117    1.000
    O15      O        0.53920    0.80792    0.93212    1.000
    O16      O        0.46146    0.79767    0.83592    1.000
    N7       N        0.62407    0.80097    0.12473    1.000
    C41      C        0.50062    0.81805    0.85370    1.000
    C42      C        0.72831    0.92465    0.23120    1.000
    C43      C        0.69288    0.87981    0.19460    1.000
    C44      C        0.67678    0.85937    0.08520    1.000
    H5       H        0.68920    0.87210    0.03200    1.000
    C45      C        0.64290    0.82078    0.05400    1.000
    H6       H        0.63210    0.80730    0.97820    1.000
    C46      C        0.64096    0.81870    0.23130    1.000
    H7       H        0.62900    0.80390    0.28370    1.000
    C47      C        0.67517    0.85768    0.26970    1.000
    H8       H        0.68640    0.86920    0.34700    1.000
    O17      O        0.96734    0.15700    0.11790    1.000
    O18      O        0.90530    0.20780    0.01980    1.000
    C48      C        0.92540    0.16890    0.07910    1.000
    C49      C        0.89300    0.13190    0.10380    1.000
    C50      C        0.84370    0.13970    0.05800    1.000
    C51      C        0.81600    0.10050    0.07610    1.000
    N8       N        0.82690    0.06280    0.13900    1.000
    C52      C        0.87990    0.05180    0.18930    1.000
    C53      C        0.91150    0.08700    0.17500    1.000
    N9       N        0.50192    0.94054    0.61823    1.000
    C54      C        0.50095    0.86097    0.77050    1.000
    C55      C        0.53740    0.89700    0.79950    1.000
    C56      C        0.53670    0.93680    0.72170    1.000
    O19      O        0.86847    0.91962    0.45390    1.000
    O20      O        0.81610    0.94010    0.53420    1.000
    C57      C        0.84916    0.91400    0.52450    1.000
    C58      C        0.86910    0.87080    0.61640    1.000
    C59      C        0.91220    0.84700    0.63560    1.000
    C60      C        0.93026    0.81030    0.72290    1.000
    N10      N        0.90940    0.79210    0.79290    1.000
    C61      C        0.86580    0.82090    0.77250    1.000
    C62      C        0.84080    0.86440    0.65250    1.000
    C63      C        0.46650    0.90420    0.59010    1.000
    C64      C        0.46450    0.86480    0.66400    1.000
    O21      O        0.87410    0.08408    0.31540    1.000
    O22      O        0.83350    0.05410    0.13900    1.000
    C65      C        0.85850    0.08880    0.20890    1.000
    C66      C        0.87620    0.13330    0.15430    1.000
    C67      C        0.92000    0.15750    0.21180    1.000
    C68      C        0.93490    0.19370    0.15020    1.000
    N11      N        0.91270    0.20900    0.04400    1.000
    C69      C        0.86640    0.18540    0.99040    1.000
    C70      C        0.84830    0.14730    0.04100    1.000
    O23      O        0.96500    0.84950    0.82490    1.000
    O24      O        0.90540    0.80130    0.80970    1.000
    C71      C        0.92380    0.83720    0.78640    1.000
    C72      C        0.88930    0.87430    0.69930    1.000
    C73      C        0.90520    0.92020    0.66630    1.000
    C74      C        0.87288    0.95470    0.59110    1.000
    N12      N        0.82700    0.94590    0.54000    1.000
    C75      C        0.81090    0.89960    0.57430    1.000
    C76      C        0.84580    0.85640    0.68640    1.000
    C77      C        0.53780    0.90900    0.66600    1.000
    C78      C        0.53990    0.87110    0.74550    1.000
    C79      C        0.46550    0.93290    0.64690    1.000
    C80      C        0.46390    0.89310    0.72080    1.000
    Ni3      Ni       0.93685    0.25456    0.93733    1.000
    O25      O        0.75831    0.44197    0.84346    1.000
    O26      O        0.75964    0.44020    0.66883    1.000
    O27      O        0.96080    0.30792    0.06788    1.000
    O28      O        0.03854    0.29767    0.16408    1.000
    N13      N        0.87593    0.30097    0.87527    1.000
    C81      C        0.99938    0.31805    0.14630    1.000
    C82      C        0.77169    0.42465    0.76880    1.000
    C83      C        0.80712    0.37981    0.80540    1.000
    C84      C        0.82322    0.35937    0.91480    1.000
    H9       H        0.81080    0.37210    0.96800    1.000
    C85      C        0.85710    0.32078    0.94600    1.000
    H10      H        0.86790    0.30730    0.02180    1.000
    C86      C        0.85904    0.31870    0.76870    1.000
    H11      H        0.87100    0.30390    0.71630    1.000
    C87      C        0.82483    0.35768    0.73030    1.000
    H12      H        0.81360    0.36920    0.65300    1.000
    O29      O        0.53266    0.65700    0.88210    1.000
    O30      O        0.59470    0.70780    0.98020    1.000
    C88      C        0.57460    0.66890    0.92090    1.000
    C89      C        0.60700    0.63190    0.89620    1.000
    C90      C        0.65630    0.63970    0.94200    1.000
    C91      C        0.68400    0.60050    0.92390    1.000
    N14      N        0.67310    0.56280    0.86100    1.000
    C92      C        0.62010    0.55180    0.81070    1.000
    C93      C        0.58850    0.58700    0.82500    1.000
    N15      N        0.99808    0.44054    0.38177    1.000
    C94      C        0.99905    0.36097    0.22950    1.000
    C95      C        0.96260    0.39700    0.20050    1.000
    C96      C        0.96330    0.43680    0.27830    1.000
    O31      O        0.63153    0.41962    0.54610    1.000
    O32      O        0.68390    0.44010    0.46580    1.000
    C97      C        0.65084    0.41400    0.47550    1.000
    C98      C        0.63090    0.37080    0.38360    1.000
    C99      C        0.58780    0.34700    0.36440    1.000
    C100     C        0.56974    0.31030    0.27710    1.000
    N16      N        0.59060    0.29210    0.20710    1.000
    C101     C        0.63420    0.32090    0.22750    1.000
    C102     C        0.65920    0.36440    0.34750    1.000
    C103     C        0.03350    0.40420    0.40990    1.000
    C104     C        0.03550    0.36480    0.33600    1.000
    O33      O        0.62590    0.58408    0.68460    1.000
    O34      O        0.66650    0.55410    0.86100    1.000
    C105     C        0.64150    0.58880    0.79110    1.000
    C106     C        0.62380    0.63330    0.84570    1.000
    C107     C        0.58000    0.65750    0.78820    1.000
    C108     C        0.56510    0.69370    0.84980    1.000
    N17      N        0.58730    0.70900    0.95600    1.000
    C109     C        0.63360    0.68540    0.00960    1.000
    C110     C        0.65170    0.64730    0.95900    1.000
    O35      O        0.53500    0.34950    0.17510    1.000
    O36      O        0.59460    0.30130    0.19030    1.000
    C111     C        0.57620    0.33720    0.21360    1.000
    C112     C        0.61070    0.37430    0.30070    1.000
    C113     C        0.59480    0.42020    0.33370    1.000
    C114     C        0.62712    0.45470    0.40890    1.000
    N18      N        0.67300    0.44590    0.46000    1.000
    C115     C        0.68910    0.39960    0.42570    1.000
    C116     C        0.65420    0.35640    0.31360    1.000
    C117     C        0.96220    0.40900    0.33400    1.000
    C118     C        0.96010    0.37110    0.25450    1.000
    C119     C        0.03450    0.43290    0.35310    1.000
    C120     C        0.03610    0.39310    0.27920    1.000
    Ni4      Ni       0.43685    0.75456    0.93733    1.000
    O37      O        0.25831    0.94197    0.84346    1.000
    O38      O        0.25964    0.94020    0.66883    1.000
    O39      O        0.46080    0.80792    0.06788    1.000
    O40      O        0.53854    0.79767    0.16408    1.000
    N19      N        0.37593    0.80097    0.87527    1.000
    C121     C        0.49938    0.81805    0.14630    1.000
    C122     C        0.27169    0.92465    0.76880    1.000
    C123     C        0.30712    0.87981    0.80540    1.000
    C124     C        0.32322    0.85937    0.91480    1.000
    H13      H        0.31080    0.87210    0.96800    1.000
    C125     C        0.35710    0.82078    0.94600    1.000
    H14      H        0.36790    0.80730    0.02180    1.000
    C126     C        0.35904    0.81870    0.76870    1.000
    H15      H        0.37100    0.80390    0.71630    1.000
    C127     C        0.32483    0.85768    0.73030    1.000
    H16      H        0.31360    0.86920    0.65300    1.000
    O41      O        0.03266    0.15700    0.88210    1.000
    O42      O        0.09470    0.20780    0.98020    1.000
    C128     C        0.07460    0.16890    0.92090    1.000
    C129     C        0.10700    0.13190    0.89620    1.000
    C130     C        0.15630    0.13970    0.94200    1.000
    C131     C        0.18400    0.10050    0.92390    1.000
    N20      N        0.17310    0.06280    0.86100    1.000
    C132     C        0.12010    0.05180    0.81070    1.000
    C133     C        0.08850    0.08700    0.82500    1.000
    N21      N        0.49808    0.94054    0.38177    1.000
    C134     C        0.49905    0.86097    0.22950    1.000
    C135     C        0.46260    0.89700    0.20050    1.000
    C136     C        0.46330    0.93680    0.27830    1.000
    O43      O        0.13153    0.91962    0.54610    1.000
    O44      O        0.18390    0.94010    0.46580    1.000
    C137     C        0.15084    0.91400    0.47550    1.000
    C138     C        0.13090    0.87080    0.38360    1.000
    C139     C        0.08780    0.84700    0.36440    1.000
    C140     C        0.06974    0.81030    0.27710    1.000
    N22      N        0.09060    0.79210    0.20710    1.000
    C141     C        0.13420    0.82090    0.22750    1.000
    C142     C        0.15920    0.86440    0.34750    1.000
    C143     C        0.53350    0.90420    0.40990    1.000
    C144     C        0.53550    0.86480    0.33600    1.000
    O45      O        0.12590    0.08408    0.68460    1.000
    O46      O        0.16650    0.05410    0.86100    1.000
    C145     C        0.14150    0.08880    0.79110    1.000
    C146     C        0.12380    0.13330    0.84570    1.000
    C147     C        0.08000    0.15750    0.78820    1.000
    C148     C        0.06510    0.19370    0.84980    1.000
    N23      N        0.08730    0.20900    0.95600    1.000
    C149     C        0.13360    0.18540    0.00960    1.000
    C150     C        0.15170    0.14730    0.95900    1.000
    O47      O        0.03500    0.84950    0.17510    1.000
    O48      O        0.09460    0.80130    0.19030    1.000
    C151     C        0.07620    0.83720    0.21360    1.000
    C152     C        0.11070    0.87430    0.30070    1.000
    C153     C        0.09480    0.92020    0.33370    1.000
    C154     C        0.12712    0.95470    0.40890    1.000
    N24      N        0.17300    0.94590    0.46000    1.000
    C155     C        0.18910    0.89960    0.42570    1.000
    C156     C        0.15420    0.85640    0.31360    1.000
    C157     C        0.46220    0.90900    0.33400    1.000
    C158     C        0.46010    0.87110    0.25450    1.000
    C159     C        0.53450    0.93290    0.35310    1.000
    C160     C        0.53610    0.89310    0.27920    1.000
    Ni5      Ni       0.93685    0.74544    0.93733    1.000
    O49      O        0.75831    0.55803    0.84346    1.000
    O50      O        0.75964    0.55980    0.66883    1.000
    O51      O        0.96080    0.69208    0.06788    1.000
    O52      O        0.03854    0.70233    0.16408    1.000
    N25      N        0.87593    0.69903    0.87527    1.000
    C161     C        0.99938    0.68195    0.14630    1.000
    C162     C        0.77169    0.57535    0.76880    1.000
    C163     C        0.80712    0.62019    0.80540    1.000
    C164     C        0.82322    0.64063    0.91480    1.000
    H17      H        0.81080    0.62790    0.96800    1.000
    C165     C        0.85710    0.67922    0.94600    1.000
    H18      H        0.86790    0.69270    0.02180    1.000
    C166     C        0.85904    0.68130    0.76870    1.000
    H19      H        0.87100    0.69610    0.71630    1.000
    C167     C        0.82483    0.64232    0.73030    1.000
    H20      H        0.81360    0.63080    0.65300    1.000
    O53      O        0.53266    0.34300    0.88210    1.000
    O54      O        0.59470    0.29220    0.98020    1.000
    C168     C        0.57460    0.33110    0.92090    1.000
    C169     C        0.60700    0.36810    0.89620    1.000
    C170     C        0.65630    0.36030    0.94200    1.000
    C171     C        0.68400    0.39950    0.92390    1.000
    N26      N        0.67310    0.43720    0.86100    1.000
    C172     C        0.62010    0.44820    0.81070    1.000
    C173     C        0.58850    0.41300    0.82500    1.000
    N27      N        0.99808    0.55946    0.38177    1.000
    C174     C        0.99905    0.63903    0.22950    1.000
    C175     C        0.96260    0.60300    0.20050    1.000
    C176     C        0.96330    0.56320    0.27830    1.000
    O55      O        0.63153    0.58038    0.54610    1.000
    O56      O        0.68390    0.55990    0.46580    1.000
    C177     C        0.65084    0.58600    0.47550    1.000
    C178     C        0.63090    0.62920    0.38360    1.000
    C179     C        0.58780    0.65300    0.36440    1.000
    C180     C        0.56974    0.68970    0.27710    1.000
    N28      N        0.59060    0.70790    0.20710    1.000
    C181     C        0.63420    0.67910    0.22750    1.000
    C182     C        0.65920    0.63560    0.34750    1.000
    C183     C        0.03350    0.59580    0.40990    1.000
    C184     C        0.03550    0.63520    0.33600    1.000
    O57      O        0.62590    0.41592    0.68460    1.000
    O58      O        0.66650    0.44590    0.86100    1.000
    C185     C        0.64150    0.41120    0.79110    1.000
    C186     C        0.62380    0.36670    0.84570    1.000
    C187     C        0.58000    0.34250    0.78820    1.000
    C188     C        0.56510    0.30630    0.84980    1.000
    N29      N        0.58730    0.29100    0.95600    1.000
    C189     C        0.63360    0.31460    0.00960    1.000
    C190     C        0.65170    0.35270    0.95900    1.000
    O59      O        0.53500    0.65050    0.17510    1.000
    O60      O        0.59460    0.69870    0.19030    1.000
    C191     C        0.57620    0.66280    0.21360    1.000
    C192     C        0.61070    0.62570    0.30070    1.000
    C193     C        0.59480    0.57980    0.33370    1.000
    C194     C        0.62712    0.54530    0.40890    1.000
    N30      N        0.67300    0.55410    0.46000    1.000
    C195     C        0.68910    0.60040    0.42570    1.000
    C196     C        0.65420    0.64360    0.31360    1.000
    C197     C        0.96220    0.59100    0.33400    1.000
    C198     C        0.96010    0.62890    0.25450    1.000
    C199     C        0.03450    0.56710    0.35310    1.000
    C200     C        0.03610    0.60690    0.27920    1.000
    Ni6      Ni       0.43685    0.24544    0.93733    1.000
    O61      O        0.25831    0.05803    0.84346    1.000
    O62      O        0.25964    0.05980    0.66883    1.000
    O63      O        0.46080    0.19208    0.06788    1.000
    O64      O        0.53854    0.20233    0.16408    1.000
    N31      N        0.37593    0.19903    0.87527    1.000
    C201     C        0.49938    0.18195    0.14630    1.000
    C202     C        0.27169    0.07535    0.76880    1.000
    C203     C        0.30712    0.12019    0.80540    1.000
    C204     C        0.32322    0.14063    0.91480    1.000
    H21      H        0.31080    0.12790    0.96800    1.000
    C205     C        0.35710    0.17922    0.94600    1.000
    H22      H        0.36790    0.19270    0.02180    1.000
    C206     C        0.35904    0.18130    0.76870    1.000
    H23      H        0.37100    0.19610    0.71630    1.000
    C207     C        0.32483    0.14232    0.73030    1.000
    H24      H        0.31360    0.13080    0.65300    1.000
    O65      O        0.03266    0.84300    0.88210    1.000
    O66      O        0.09470    0.79220    0.98020    1.000
    C208     C        0.07460    0.83110    0.92090    1.000
    C209     C        0.10700    0.86810    0.89620    1.000
    C210     C        0.15630    0.86030    0.94200    1.000
    C211     C        0.18400    0.89950    0.92390    1.000
    N32      N        0.17310    0.93720    0.86100    1.000
    C212     C        0.12010    0.94820    0.81070    1.000
    C213     C        0.08850    0.91300    0.82500    1.000
    N33      N        0.49808    0.05946    0.38177    1.000
    C214     C        0.49905    0.13903    0.22950    1.000
    C215     C        0.46260    0.10300    0.20050    1.000
    C216     C        0.46330    0.06320    0.27830    1.000
    O67      O        0.13153    0.08038    0.54610    1.000
    O68      O        0.18390    0.05990    0.46580    1.000
    C217     C        0.15084    0.08600    0.47550    1.000
    C218     C        0.13090    0.12920    0.38360    1.000
    C219     C        0.08780    0.15300    0.36440    1.000
    C220     C        0.06974    0.18970    0.27710    1.000
    N34      N        0.09060    0.20790    0.20710    1.000
    C221     C        0.13420    0.17910    0.22750    1.000
    C222     C        0.15920    0.13560    0.34750    1.000
    C223     C        0.53350    0.09580    0.40990    1.000
    C224     C        0.53550    0.13520    0.33600    1.000
    O69      O        0.12590    0.91592    0.68460    1.000
    O70      O        0.16650    0.94590    0.86100    1.000
    C225     C        0.14150    0.91120    0.79110    1.000
    C226     C        0.12380    0.86670    0.84570    1.000
    C227     C        0.08000    0.84250    0.78820    1.000
    C228     C        0.06510    0.80630    0.84980    1.000
    N35      N        0.08730    0.79100    0.95600    1.000
    C229     C        0.13360    0.81460    0.00960    1.000
    C230     C        0.15170    0.85270    0.95900    1.000
    O71      O        0.03500    0.15050    0.17510    1.000
    O72      O        0.09460    0.19870    0.19030    1.000
    C231     C        0.07620    0.16280    0.21360    1.000
    C232     C        0.11070    0.12570    0.30070    1.000
    C233     C        0.09480    0.07980    0.33370    1.000
    C234     C        0.12712    0.04530    0.40890    1.000
    N36      N        0.17300    0.05410    0.46000    1.000
    C235     C        0.18910    0.10040    0.42570    1.000
    C236     C        0.15420    0.14360    0.31360    1.000
    C237     C        0.46220    0.09100    0.33400    1.000
    C238     C        0.46010    0.12890    0.25450    1.000
    C239     C        0.53450    0.06710    0.35310    1.000
    C240     C        0.53610    0.10690    0.27920    1.000
    Ni7      Ni       0.06315    0.74544    0.06267    1.000
    O73      O        0.24169    0.55803    0.15654    1.000
    O74      O        0.24036    0.55980    0.33117    1.000
    O75      O        0.03920    0.69208    0.93212    1.000
    O76      O        0.96146    0.70233    0.83592    1.000
    N37      N        0.12407    0.69903    0.12473    1.000
    C241     C        0.00062    0.68195    0.85370    1.000
    C242     C        0.22831    0.57535    0.23120    1.000
    C243     C        0.19288    0.62019    0.19460    1.000
    C244     C        0.17678    0.64063    0.08520    1.000
    H25      H        0.18920    0.62790    0.03200    1.000
    C245     C        0.14290    0.67922    0.05400    1.000
    H26      H        0.13210    0.69270    0.97820    1.000
    C246     C        0.14096    0.68130    0.23130    1.000
    H27      H        0.12900    0.69610    0.28370    1.000
    C247     C        0.17517    0.64232    0.26970    1.000
    H28      H        0.18640    0.63080    0.34700    1.000
    O77      O        0.46734    0.34300    0.11790    1.000
    O78      O        0.40530    0.29220    0.01980    1.000
    C248     C        0.42540    0.33110    0.07910    1.000
    C249     C        0.39300    0.36810    0.10380    1.000
    C250     C        0.34370    0.36030    0.05800    1.000
    C251     C        0.31600    0.39950    0.07610    1.000
    N38      N        0.32690    0.43720    0.13900    1.000
    C252     C        0.37990    0.44820    0.18930    1.000
    C253     C        0.41150    0.41300    0.17500    1.000
    N39      N        0.00192    0.55946    0.61823    1.000
    C254     C        0.00095    0.63903    0.77050    1.000
    C255     C        0.03740    0.60300    0.79950    1.000
    C256     C        0.03670    0.56320    0.72170    1.000
    O79      O        0.36847    0.58038    0.45390    1.000
    O80      O        0.31610    0.55990    0.53420    1.000
    C257     C        0.34916    0.58600    0.52450    1.000
    C258     C        0.36910    0.62920    0.61640    1.000
    C259     C        0.41220    0.65300    0.63560    1.000
    C260     C        0.43026    0.68970    0.72290    1.000
    N40      N        0.40940    0.70790    0.79290    1.000
    C261     C        0.36580    0.67910    0.77250    1.000
    C262     C        0.34080    0.63560    0.65250    1.000
    C263     C        0.96650    0.59580    0.59010    1.000
    C264     C        0.96450    0.63520    0.66400    1.000
    O81      O        0.37410    0.41592    0.31540    1.000
    O82      O        0.33350    0.44590    0.13900    1.000
    C265     C        0.35850    0.41120    0.20890    1.000
    C266     C        0.37620    0.36670    0.15430    1.000
    C267     C        0.42000    0.34250    0.21180    1.000
    C268     C        0.43490    0.30630    0.15020    1.000
    N41      N        0.41270    0.29100    0.04400    1.000
    C269     C        0.36640    0.31460    0.99040    1.000
    C270     C        0.34830    0.35270    0.04100    1.000
    O83      O        0.46500    0.65050    0.82490    1.000
    O84      O        0.40540    0.69870    0.80970    1.000
    C271     C        0.42380    0.66280    0.78640    1.000
    C272     C        0.38930    0.62570    0.69930    1.000
    C273     C        0.40520    0.57980    0.66630    1.000
    C274     C        0.37288    0.54530    0.59110    1.000
    N42      N        0.32700    0.55410    0.54000    1.000
    C275     C        0.31090    0.60040    0.57430    1.000
    C276     C        0.34580    0.64360    0.68640    1.000
    C277     C        0.03780    0.59100    0.66600    1.000
    C278     C        0.03990    0.62890    0.74550    1.000
    C279     C        0.96550    0.56710    0.64690    1.000
    C280     C        0.96390    0.60690    0.72080    1.000
    Ni8      Ni       0.56315    0.24544    0.06267    1.000
    O85      O        0.74169    0.05803    0.15654    1.000
    O86      O        0.74036    0.05980    0.33117    1.000
    O87      O        0.53920    0.19208    0.93212    1.000
    O88      O        0.46146    0.20233    0.83592    1.000
    N43      N        0.62407    0.19903    0.12473    1.000
    C281     C        0.50062    0.18195    0.85370    1.000
    C282     C        0.72831    0.07535    0.23120    1.000
    C283     C        0.69288    0.12019    0.19460    1.000
    C284     C        0.67678    0.14063    0.08520    1.000
    H29      H        0.68920    0.12790    0.03200    1.000
    C285     C        0.64290    0.17922    0.05400    1.000
    H30      H        0.63210    0.19270    0.97820    1.000
    C286     C        0.64096    0.18130    0.23130    1.000
    H31      H        0.62900    0.19610    0.28370    1.000
    C287     C        0.67517    0.14232    0.26970    1.000
    H32      H        0.68640    0.13080    0.34700    1.000
    O89      O        0.96734    0.84300    0.11790    1.000
    O90      O        0.90530    0.79220    0.01980    1.000
    C288     C        0.92540    0.83110    0.07910    1.000
    C289     C        0.89300    0.86810    0.10380    1.000
    C290     C        0.84370    0.86030    0.05800    1.000
    C291     C        0.81600    0.89950    0.07610    1.000
    N44      N        0.82690    0.93720    0.13900    1.000
    C292     C        0.87990    0.94820    0.18930    1.000
    C293     C        0.91150    0.91300    0.17500    1.000
    N45      N        0.50192    0.05946    0.61823    1.000
    C294     C        0.50095    0.13903    0.77050    1.000
    C295     C        0.53740    0.10300    0.79950    1.000
    C296     C        0.53670    0.06320    0.72170    1.000
    O91      O        0.86847    0.08038    0.45390    1.000
    O92      O        0.81610    0.05990    0.53420    1.000
    C297     C        0.84916    0.08600    0.52450    1.000
    C298     C        0.86910    0.12920    0.61640    1.000
    C299     C        0.91220    0.15300    0.63560    1.000
    C300     C        0.93026    0.18970    0.72290    1.000
    N46      N        0.90940    0.20790    0.79290    1.000
    C301     C        0.86580    0.17910    0.77250    1.000
    C302     C        0.84080    0.13560    0.65250    1.000
    C303     C        0.46650    0.09580    0.59010    1.000
    C304     C        0.46450    0.13520    0.66400    1.000
    O93      O        0.87410    0.91592    0.31540    1.000
    O94      O        0.83350    0.94590    0.13900    1.000
    C305     C        0.85850    0.91120    0.20890    1.000
    C306     C        0.87620    0.86670    0.15430    1.000
    C307     C        0.92000    0.84250    0.21180    1.000
    C308     C        0.93490    0.80630    0.15020    1.000
    N47      N        0.91270    0.79100    0.04400    1.000
    C309     C        0.86640    0.81460    0.99040    1.000
    C310     C        0.84830    0.85270    0.04100    1.000
    O95      O        0.96500    0.15050    0.82490    1.000
    O96      O        0.90540    0.19870    0.80970    1.000
    C311     C        0.92380    0.16280    0.78640    1.000
    C312     C        0.88930    0.12570    0.69930    1.000
    C313     C        0.90520    0.07980    0.66630    1.000
    C314     C        0.87288    0.04530    0.59110    1.000
    N48      N        0.82700    0.05410    0.54000    1.000
    C315     C        0.81090    0.10040    0.57430    1.000
    C316     C        0.84580    0.14360    0.68640    1.000
    C317     C        0.53780    0.09100    0.66600    1.000
    C318     C        0.53990    0.12890    0.74550    1.000
    C319     C        0.46550    0.06710    0.64690    1.000
    C320     C        0.46390    0.10690    0.72080    1.000
    Ni9      Ni       0.28687    0.50000    0.15615    1.000
    Ni10     Ni       0.27989    0.50000    0.42880    1.000
    O97      O        0.32407    0.50000    0.33474    1.000
    O98      O        0.07431    0.50000    0.55140    1.000
    O99      O        0.12597    0.50000    0.72550    1.000
    N49      N        0.22987    0.50000    0.50600    1.000
    C321     C        0.11444    0.50000    0.62090    1.000
    C322     C        0.15582    0.50000    0.58120    1.000
    C323     C        0.14690    0.50000    0.46830    1.000
    H33      H        0.11520    0.50000    0.41390    1.000
    C324     C        0.18408    0.50000    0.43200    1.000
    H34      H        0.17720    0.50000    0.35230    1.000
    C325     C        0.23820    0.50000    0.61190    1.000
    H35      H        0.27010    0.50000    0.66530    1.000
    C326     C        0.20140    0.50000    0.65250    1.000
    H36      H        0.20920    0.50000    0.73260    1.000
    Ni11     Ni       0.78687    0.00000    0.15615    1.000
    Ni12     Ni       0.77989    0.00000    0.42880    1.000
    O100     O        0.82407    0.00000    0.33474    1.000
    O101     O        0.57431    0.00000    0.55140    1.000
    O102     O        0.62597    0.00000    0.72550    1.000
    N50      N        0.72987    0.00000    0.50600    1.000
    C327     C        0.61444    0.00000    0.62090    1.000
    C328     C        0.65582    0.00000    0.58120    1.000
    C329     C        0.64690    0.00000    0.46830    1.000
    H37      H        0.61520    0.00000    0.41390    1.000
    C330     C        0.68408    0.00000    0.43200    1.000
    H38      H        0.67720    0.00000    0.35230    1.000
    C331     C        0.73820    0.00000    0.61190    1.000
    H39      H        0.77010    0.00000    0.66530    1.000
    C332     C        0.70140    0.00000    0.65250    1.000
    H40      H        0.70920    0.00000    0.73260    1.000
    Ni13     Ni       0.71313    0.50000    0.84385    1.000
    Ni14     Ni       0.72011    0.50000    0.57120    1.000
    O103     O        0.67593    0.50000    0.66526    1.000
    O104     O        0.92569    0.50000    0.44860    1.000
    O105     O        0.87403    0.50000    0.27450    1.000
    N51      N        0.77013    0.50000    0.49400    1.000
    C333     C        0.88556    0.50000    0.37910    1.000
    C334     C        0.84418    0.50000    0.41880    1.000
    C335     C        0.85310    0.50000    0.53170    1.000
    H41      H        0.88480    0.50000    0.58610    1.000
    C336     C        0.81592    0.50000    0.56800    1.000
    H42      H        0.82280    0.50000    0.64770    1.000
    C337     C        0.76180    0.50000    0.38810    1.000
    H43      H        0.72990    0.50000    0.33470    1.000
    C338     C        0.79860    0.50000    0.34750    1.000
    H44      H        0.79080    0.50000    0.26740    1.000
    Ni15     Ni       0.21313    0.00000    0.84385    1.000
    Ni16     Ni       0.22011    0.00000    0.57120    1.000
    O106     O        0.17593    0.00000    0.66526    1.000
    O107     O        0.42569    0.00000    0.44860    1.000
    O108     O        0.37403    0.00000    0.27450    1.000
    N52      N        0.27013    0.00000    0.49400    1.000
    C339     C        0.38556    0.00000    0.37910    1.000
    C340     C        0.34418    0.00000    0.41880    1.000
    C341     C        0.35310    0.00000    0.53170    1.000
    H45      H        0.38480    0.00000    0.58610    1.000
    C342     C        0.31592    0.00000    0.56800    1.000
    H46      H        0.32280    0.00000    0.64770    1.000
    C343     C        0.26180    0.00000    0.38810    1.000
    H47      H        0.22990    0.00000    0.33470    1.000
    C344     C        0.29860    0.00000    0.34750    1.000
    H48      H        0.29080    0.00000    0.26740    1.000
    Ni17     Ni       0.00000    0.50000    0.50000    1.000
    Ni18     Ni       0.50000    0.00000    0.50000    1.000
    O109     O        0.00000    0.21114    0.00000    1.000
    O110     O        0.50000    0.71114    0.00000    1.000
    O111     O        0.00000    0.78886    0.00000    1.000
    O112     O        0.50000    0.28886    0.00000    1.000
