data_functionalizedCrystal
_audit_creation_method	'EQeq! by Chris Wilmer'
_symmetry_space_group_name_H-M	'P1'
_symmetry_Int_Tables_number	1
_symmetry_cell_setting	triclinic
loop_
_symmetry_equiv_pos_as_xyz
  x,y,z
_cell_length_a	8.721
_cell_length_b	11.026
_cell_length_c	13.54
_cell_angle_alpha	90
_cell_angle_beta	90
_cell_angle_gamma	90
loop_
_atom_site_label
_atom_site_type_symbol
_atom_site_fract_x
_atom_site_fract_y
_atom_site_fract_z
_atom_site_charge
Mof_Cd	Cd	9.69432e-33	0.76768	-0	0.34
Mof_Cd	Cd	0.5	0.23232	0.5	0.389
Mof_Cd	Cd	0.5	0.06947	0.10251	0.269
Mof_Cd	Cd	0.5	0.48663	0.86465	0.276
Mof_Cd	Cd	3.50734e-33	0.93053	0.60251	0.257
Mof_Cd	Cd	6.96987e-33	0.51337	0.36465	0.249
Mof_C 	C 	0.7085	0.9588	0.0656	0.009
Mof_C 	C 	0.7086	0.5818	0.9127	0.013
Mof_C 	C 	0.7915	0.0412	0.5656	0.028
Mof_C 	C 	0.7914	0.4182	0.4127	0.028
Mof_C 	C 	0.2085	0.0412	0.5656	-0.006
Mof_C 	C 	0.2086	0.4182	0.4127	-0.008
Mof_C 	C 	0.2915	0.9588	0.0656	-0.004
Mof_C 	C 	0.2914	0.5818	0.9127	0.001
Mof_C 	C 	-5.27369e-33	0.8811	0.7594	-0.01
Mof_C 	C 	-1.12545e-33	0.6161	0.223	-0.018
Mof_C 	C 	0.5	0.1189	0.2594	-0.003
Mof_C 	C 	0.5	0.3839	0.723	0.001
Mof_C 	C 	0.5	0.244	0.0179	-0.109
Mof_C 	C 	0.5	0.3259	0.9682	-0.01
Mof_C 	C 	3.01481e-33	0.756	0.5179	-0.071
Mof_C 	C 	2.7255e-33	0.6741	0.4682	-0.066
Mof_N 	N 	0.8093	0.8998	0.046	-0.122
Mof_N 	N 	0.8087	0.6347	0.9417	-0.108
Mof_N 	N 	0.6907	0.1002	0.546	-0.136
Mof_N 	N 	0.6913	0.3653	0.4417	-0.133
Mof_N 	N 	0.3093	0.1002	0.546	-0.134
Mof_N 	N 	0.3087	0.3653	0.4417	-0.131
Mof_N 	N 	0.1907	0.8998	0.046	-0.139
Mof_N 	N 	0.1913	0.6347	0.9417	-0.124
Mof_N 	N 	4.88109e-33	0.8507	0.8385	-0.127
Mof_N 	N 	1.29864e-32	0.6663	0.1492	-0.14
Mof_N 	N 	0.5	0.1493	0.3385	-0.13
Mof_N 	N 	0.5	0.3337	0.6492	-0.131
_end
