# CIF file generated by openbabel 3.1.0, see https://openbabel.org
data_I
_chemical_name_common 'image0'
_cell_length_a 8.7173
_cell_length_b 19.4288
_cell_length_c 9.6558
_cell_angle_alpha 90
_cell_angle_beta 97.17
_cell_angle_gamma 90
_space_group_name_H-M_alt 'P 1'
_space_group_name_Hall 'P 1'
loop_
    _symmetry_equiv_pos_as_xyz
    x,y,z
loop_
    _atom_site_label
    _atom_site_type_symbol
    _atom_site_fract_x
    _atom_site_fract_y
    _atom_site_fract_z
    _atom_site_occupancy
    C1       C        0.04130    0.93030    0.52280    1.000
    C2       C        0.90620    0.95560    0.57140    1.000
    C3       C        0.86890    0.02510    0.54730    1.000
    H1       H        0.77850    0.04270    0.58020    1.000
    C4       C        0.10290    0.85800    0.54970    1.000
    C5       C        0.57020    0.84380    0.77030    1.000
    C6       C        0.61270    0.82090    0.64300    1.000
    H2       H        0.56390    0.78160    0.59880    1.000
    C7       C        0.72460    0.85520    0.58130    1.000
    H3       H        0.75340    0.83860    0.49560    1.000
    C8       C        0.79710    0.91430    0.64300    1.000
    C9       C        0.75400    0.93660    0.76910    1.000
    H4       H        0.80050    0.97670    0.81240    1.000
    C10      C        0.64270    0.90080    0.83330    1.000
    H5       H        0.61690    0.91590    0.92110    1.000
    C11      C        0.45140    0.80450    0.84050    1.000
    Cd1      Cd       0.24810    0.73026    0.55894    1.000
    O1       O        0.19900    0.83660    0.47100    1.000
    O2       O        0.06190    0.82170    0.64490    1.000
    O3       O        0.43550    0.82210    0.96390    1.000
    O4       O        0.37570    0.75770    0.77530    1.000
    C12      C        0.95870    0.43030    0.97720    1.000
    C13      C        0.09380    0.45560    0.92860    1.000
    C14      C        0.13110    0.52510    0.95270    1.000
    H6       H        0.22150    0.54270    0.91980    1.000
    C15      C        0.89710    0.35800    0.95030    1.000
    C16      C        0.42980    0.34380    0.72970    1.000
    C17      C        0.38730    0.32090    0.85700    1.000
    H7       H        0.43610    0.28160    0.90120    1.000
    C18      C        0.27540    0.35520    0.91870    1.000
    H8       H        0.24660    0.33860    0.00440    1.000
    C19      C        0.20290    0.41430    0.85700    1.000
    C20      C        0.24600    0.43660    0.73090    1.000
    H9       H        0.19950    0.47670    0.68760    1.000
    C21      C        0.35730    0.40080    0.66670    1.000
    H10      H        0.38310    0.41590    0.57890    1.000
    C22      C        0.54860    0.30450    0.65950    1.000
    Cd2      Cd       0.75190    0.23026    0.94106    1.000
    O5       O        0.80100    0.33660    0.02900    1.000
    O6       O        0.93810    0.32170    0.85510    1.000
    O7       O        0.56450    0.32210    0.53610    1.000
    O8       O        0.62430    0.25770    0.72470    1.000
    C23      C        0.95870    0.06970    0.47720    1.000
    C24      C        0.09380    0.04440    0.42860    1.000
    C25      C        0.13110    0.97490    0.45270    1.000
    H11      H        0.22150    0.95730    0.41980    1.000
    C26      C        0.89710    0.14200    0.45030    1.000
    C27      C        0.42980    0.15620    0.22970    1.000
    C28      C        0.38730    0.17910    0.35700    1.000
    H12      H        0.43610    0.21840    0.40120    1.000
    C29      C        0.27540    0.14480    0.41870    1.000
    H13      H        0.24660    0.16140    0.50440    1.000
    C30      C        0.20290    0.08570    0.35700    1.000
    C31      C        0.24600    0.06340    0.23090    1.000
    H14      H        0.19950    0.02330    0.18760    1.000
    C32      C        0.35730    0.09920    0.16670    1.000
    H15      H        0.38310    0.08410    0.07890    1.000
    C33      C        0.54860    0.19550    0.15950    1.000
    Cd3      Cd       0.75190    0.26974    0.44106    1.000
    O9       O        0.80100    0.16340    0.52900    1.000
    O10      O        0.93810    0.17830    0.35510    1.000
    O11      O        0.56450    0.17790    0.03610    1.000
    O12      O        0.62430    0.24230    0.22470    1.000
    C34      C        0.04130    0.56970    0.02280    1.000
    C35      C        0.90620    0.54440    0.07140    1.000
    C36      C        0.86890    0.47490    0.04730    1.000
    H16      H        0.77850    0.45730    0.08020    1.000
    C37      C        0.10290    0.64200    0.04970    1.000
    C38      C        0.57020    0.65620    0.27030    1.000
    C39      C        0.61270    0.67910    0.14300    1.000
    H17      H        0.56390    0.71840    0.09880    1.000
    C40      C        0.72460    0.64480    0.08130    1.000
    H18      H        0.75340    0.66140    0.99560    1.000
    C41      C        0.79710    0.58570    0.14300    1.000
    C42      C        0.75400    0.56340    0.26910    1.000
    H19      H        0.80050    0.52330    0.31240    1.000
    C43      C        0.64270    0.59920    0.33330    1.000
    H20      H        0.61690    0.58410    0.42110    1.000
    C44      C        0.45140    0.69550    0.34050    1.000
    Cd4      Cd       0.24810    0.76974    0.05894    1.000
    O13      O        0.19900    0.66340    0.97100    1.000
    O14      O        0.06190    0.67830    0.14490    1.000
    O15      O        0.43550    0.67790    0.46390    1.000
    O16      O        0.37570    0.74230    0.27530    1.000
