# CIF file generated by openbabel 3.1.0, see https://openbabel.org
data_I
_chemical_name_common 'VEQBID_clean'
_cell_length_a 11.706
_cell_length_b 18.186
_cell_length_c 18.186
_cell_angle_alpha 90
_cell_angle_beta 90
_cell_angle_gamma 90
_space_group_name_H-M_alt 'P 1'
_space_group_name_Hall 'P 1'
loop_
    _symmetry_equiv_pos_as_xyz
    x,y,z
loop_
    _atom_site_label
    _atom_site_type_symbol
    _atom_site_fract_x
    _atom_site_fract_y
    _atom_site_fract_z
    _atom_site_occupancy
    Ni1      Ni       0.16090    0.54289    0.93940    1.000
    Ni2      Ni       0.93600    0.59310    0.87576    1.000
    Ni3      Ni       0.66090    0.45711    0.06060    1.000
    Ni4      Ni       0.43600    0.40690    0.12424    1.000
    Ni5      Ni       0.91090    0.56060    0.04289    1.000
    Ni6      Ni       0.68600    0.62424    0.09310    1.000
    Ni7      Ni       0.41090    0.43940    0.95711    1.000
    Ni8      Ni       0.18600    0.37576    0.90690    1.000
    Ni9      Ni       0.58910    0.95711    0.43940    1.000
    Ni10     Ni       0.81400    0.90690    0.37576    1.000
    Ni11     Ni       0.08910    0.04289    0.56060    1.000
    Ni12     Ni       0.31400    0.09310    0.62424    1.000
    Ni13     Ni       0.83910    0.93940    0.54289    1.000
    Ni14     Ni       0.06400    0.87576    0.59310    1.000
    Ni15     Ni       0.33910    0.06060    0.45711    1.000
    Ni16     Ni       0.56400    0.12424    0.40690    1.000
    Ni17     Ni       0.00000    0.74440    0.74440    1.000
    Ni18     Ni       0.50000    0.25560    0.25560    1.000
    Ni19     Ni       0.75000    0.75560    0.24440    1.000
    Ni20     Ni       0.25000    0.24440    0.75560    1.000
    H1       H        0.89110    0.55590    0.74590    1.000
    H2       H        0.78780    0.54350    0.78910    1.000
    H3       H        0.10900    0.82330    0.83330    1.000
    H4       H        0.16280    0.83270    0.76090    1.000
    H5       H        0.88920    0.43500    0.74680    1.000
    H6       H        0.81710    0.37220    0.85100    1.000
    H7       H        0.72830    0.43180    0.82660    1.000
    H8       H        0.26400    0.75460    0.84880    1.000
    H9       H        0.33390    0.76470    0.73670    1.000
    H10      H        0.34660    0.68340    0.76460    1.000
    H11      H        0.28490    0.47810    0.84460    1.000
    H12      H        0.39110    0.44410    0.25410    1.000
    H13      H        0.28780    0.45650    0.21090    1.000
    H14      H        0.60900    0.17670    0.16670    1.000
    H15      H        0.66280    0.16730    0.23910    1.000
    H16      H        0.38920    0.56500    0.25320    1.000
    H17      H        0.31710    0.62780    0.14900    1.000
    H18      H        0.22830    0.56820    0.17340    1.000
    H19      H        0.76400    0.24540    0.15120    1.000
    H20      H        0.83390    0.23530    0.26330    1.000
    H21      H        0.84660    0.31660    0.23540    1.000
    H22      H        0.78490    0.52190    0.15540    1.000
    H23      H        0.64110    0.75410    0.05590    1.000
    H24      H        0.53780    0.71090    0.04350    1.000
    H25      H        0.85900    0.66670    0.32330    1.000
    H26      H        0.91280    0.73910    0.33270    1.000
    H27      H        0.63920    0.75320    0.93500    1.000
    H28      H        0.56710    0.64900    0.87220    1.000
    H29      H        0.47830    0.67340    0.93180    1.000
    H30      H        0.01400    0.65120    0.25460    1.000
    H31      H        0.08390    0.76330    0.26470    1.000
    H32      H        0.09660    0.73540    0.18340    1.000
    H33      H        0.03490    0.65540    0.97810    1.000
    H34      H        0.14110    0.24590    0.94410    1.000
    H35      H        0.03780    0.28910    0.95650    1.000
    H36      H        0.35900    0.33330    0.67670    1.000
    H37      H        0.41280    0.26090    0.66730    1.000
    H38      H        0.13920    0.24680    0.06500    1.000
    H39      H        0.06710    0.35100    0.12780    1.000
    H40      H        0.97830    0.32660    0.06820    1.000
    H41      H        0.51400    0.34880    0.74540    1.000
    H42      H        0.58390    0.23670    0.73530    1.000
    H43      H        0.59660    0.26460    0.81660    1.000
    H44      H        0.53490    0.34460    0.02190    1.000
    H45      H        0.85890    0.94410    0.24590    1.000
    H46      H        0.96220    0.95650    0.28910    1.000
    H47      H        0.64100    0.67670    0.33330    1.000
    H48      H        0.58720    0.66730    0.26090    1.000
    H49      H        0.86080    0.06500    0.24680    1.000
    H50      H        0.93290    0.12780    0.35100    1.000
    H51      H        0.02170    0.06820    0.32660    1.000
    H52      H        0.48600    0.74540    0.34880    1.000
    H53      H        0.41610    0.73530    0.23670    1.000
    H54      H        0.40340    0.81660    0.26460    1.000
    H55      H        0.46510    0.02190    0.34460    1.000
    H56      H        0.35890    0.05590    0.75410    1.000
    H57      H        0.46220    0.04350    0.71090    1.000
    H58      H        0.14100    0.32330    0.66670    1.000
    H59      H        0.08720    0.33270    0.73910    1.000
    H60      H        0.36080    0.93500    0.75320    1.000
    H61      H        0.43290    0.87220    0.64900    1.000
    H62      H        0.52170    0.93180    0.67340    1.000
    H63      H        0.98600    0.25460    0.65120    1.000
    H64      H        0.91610    0.26470    0.76330    1.000
    H65      H        0.90340    0.18340    0.73540    1.000
    H66      H        0.96510    0.97810    0.65540    1.000
    H67      H        0.10890    0.74590    0.55590    1.000
    H68      H        0.21220    0.78910    0.54350    1.000
    H69      H        0.89100    0.83330    0.82330    1.000
    H70      H        0.83720    0.76090    0.83270    1.000
    H71      H        0.11080    0.74680    0.43500    1.000
    H72      H        0.18290    0.85100    0.37220    1.000
    H73      H        0.27170    0.82660    0.43180    1.000
    H74      H        0.73600    0.84880    0.75460    1.000
    H75      H        0.66610    0.73670    0.76470    1.000
    H76      H        0.65340    0.76460    0.68340    1.000
    H77      H        0.71510    0.84460    0.47810    1.000
    H78      H        0.60890    0.25410    0.44410    1.000
    H79      H        0.71220    0.21090    0.45650    1.000
    H80      H        0.39100    0.16670    0.17670    1.000
    H81      H        0.33720    0.23910    0.16730    1.000
    H82      H        0.61080    0.25320    0.56500    1.000
    H83      H        0.68290    0.14900    0.62780    1.000
    H84      H        0.77170    0.17340    0.56820    1.000
    H85      H        0.23600    0.15120    0.24540    1.000
    H86      H        0.16610    0.26330    0.23530    1.000
    H87      H        0.15340    0.23540    0.31660    1.000
    H88      H        0.21510    0.15540    0.52190    1.000
    C1       C        0.00900    0.44800    0.82700    1.000
    C2       C        0.89400    0.45870    0.79510    1.000
    C3       C        0.80400    0.42470    0.84770    1.000
    C4       C        0.80500    0.45680    0.92430    1.000
    C5       C        0.15000    0.67370    0.84060    1.000
    C6       C        0.21400    0.73670    0.80900    1.000
    C7       C        0.29200    0.71980    0.74520    1.000
    C8       C        0.22900    0.69500    0.68500    1.000
    C9       C        0.50900    0.55200    0.17300    1.000
    C10      C        0.39400    0.54130    0.20490    1.000
    C11      C        0.30400    0.57530    0.15230    1.000
    C12      C        0.30500    0.54320    0.07570    1.000
    C13      C        0.65000    0.32630    0.15940    1.000
    C14      C        0.71400    0.26330    0.19100    1.000
    C15      C        0.79200    0.28020    0.25480    1.000
    C16      C        0.72900    0.30500    0.31500    1.000
    C17      C        0.75900    0.67300    0.94800    1.000
    C18      C        0.64400    0.70490    0.95870    1.000
    C19      C        0.55400    0.65230    0.92470    1.000
    C20      C        0.55500    0.57570    0.95680    1.000
    C21      C        0.90000    0.65940    0.17370    1.000
    C22      C        0.96400    0.69100    0.23670    1.000
    C23      C        0.04200    0.75480    0.21980    1.000
    C24      C        0.97900    0.81500    0.19500    1.000
    C25      C        0.25900    0.32700    0.05200    1.000
    C26      C        0.14400    0.29510    0.04130    1.000
    C27      C        0.05400    0.34770    0.07530    1.000
    C28      C        0.05500    0.42430    0.04320    1.000
    C29      C        0.40000    0.34060    0.82630    1.000
    C30      C        0.46400    0.30900    0.76330    1.000
    C31      C        0.54200    0.24520    0.78020    1.000
    C32      C        0.47900    0.18500    0.80500    1.000
    C33      C        0.74100    0.05200    0.32700    1.000
    C34      C        0.85600    0.04130    0.29510    1.000
    C35      C        0.94600    0.07530    0.34770    1.000
    C36      C        0.94500    0.04320    0.42430    1.000
    C37      C        0.60000    0.82630    0.34060    1.000
    C38      C        0.53600    0.76330    0.30900    1.000
    C39      C        0.45800    0.78020    0.24520    1.000
    C40      C        0.52100    0.80500    0.18500    1.000
    C41      C        0.24100    0.94800    0.67300    1.000
    C42      C        0.35600    0.95870    0.70490    1.000
    C43      C        0.44600    0.92470    0.65230    1.000
    C44      C        0.44500    0.95680    0.57570    1.000
    C45      C        0.10000    0.17370    0.65940    1.000
    C46      C        0.03600    0.23670    0.69100    1.000
    C47      C        0.95800    0.21980    0.75480    1.000
    C48      C        0.02100    0.19500    0.81500    1.000
    C49      C        0.99100    0.82700    0.44800    1.000
    C50      C        0.10600    0.79510    0.45870    1.000
    C51      C        0.19600    0.84770    0.42470    1.000
    C52      C        0.19500    0.92430    0.45680    1.000
    C53      C        0.85000    0.84060    0.67370    1.000
    C54      C        0.78600    0.80900    0.73670    1.000
    C55      C        0.70800    0.74520    0.71980    1.000
    C56      C        0.77100    0.68500    0.69500    1.000
    C57      C        0.49100    0.17300    0.55200    1.000
    C58      C        0.60600    0.20490    0.54130    1.000
    C59      C        0.69600    0.15230    0.57530    1.000
    C60      C        0.69500    0.07570    0.54320    1.000
    C61      C        0.35000    0.15940    0.32630    1.000
    C62      C        0.28600    0.19100    0.26330    1.000
    C63      C        0.20800    0.25480    0.28020    1.000
    C64      C        0.27100    0.31500    0.30500    1.000
    N1       N        0.86410    0.53780    0.78860    1.000
    N2       N        0.13100    0.80000    0.79210    1.000
    N3       N        0.36410    0.46220    0.21140    1.000
    N4       N        0.63100    0.20000    0.20790    1.000
    N5       N        0.61410    0.71140    0.03780    1.000
    N6       N        0.88100    0.70790    0.30000    1.000
    N7       N        0.11410    0.28860    0.96220    1.000
    N8       N        0.38100    0.29210    0.70000    1.000
    N9       N        0.88590    0.96220    0.28860    1.000
    N10      N        0.61900    0.70000    0.29210    1.000
    N11      N        0.38590    0.03780    0.71140    1.000
    N12      N        0.11900    0.30000    0.70790    1.000
    N13      N        0.13590    0.78860    0.53780    1.000
    N14      N        0.86900    0.79210    0.80000    1.000
    N15      N        0.63590    0.21140    0.46220    1.000
    N16      N        0.36900    0.20790    0.20000    1.000
    O1       O        0.05460    0.51390    0.85140    1.000
    O2       O        0.05830    0.39120    0.83550    1.000
    O3       O        0.74830    0.41870    0.97210    1.000
    O4       O        0.85310    0.51500    0.94320    1.000
    O5       O        0.04390    0.67170    0.82450    1.000
    O6       O        0.20940    0.63110    0.87910    1.000
    O7       O        0.11860    0.69590    0.68010    1.000
    O8       O        0.28200    0.65500    0.63400    1.000
    O9       O        0.27320    0.47070    0.89770    1.000
    O10      O        0.55460    0.48610    0.14860    1.000
    O11      O        0.55830    0.60880    0.16450    1.000
    O12      O        0.24830    0.58130    0.02790    1.000
    O13      O        0.35310    0.48500    0.05680    1.000
    O14      O        0.54390    0.32830    0.17550    1.000
    O15      O        0.70940    0.36890    0.12090    1.000
    O16      O        0.61860    0.30410    0.31990    1.000
    O17      O        0.78200    0.34500    0.36600    1.000
    O18      O        0.77320    0.52930    0.10230    1.000
    O19      O        0.80460    0.64860    0.01390    1.000
    O20      O        0.80830    0.66450    0.89120    1.000
    O21      O        0.49830    0.52790    0.91870    1.000
    O22      O        0.60310    0.55680    0.01500    1.000
    O23      O        0.79390    0.67550    0.17170    1.000
    O24      O        0.95940    0.62090    0.13110    1.000
    O25      O        0.86860    0.81990    0.19590    1.000
    O26      O        0.03200    0.86600    0.15500    1.000
    O27      O        0.02320    0.60230    0.97070    1.000
    O28      O        0.30460    0.35140    0.98610    1.000
    O29      O        0.30830    0.33550    0.10880    1.000
    O30      O        0.99830    0.47210    0.08130    1.000
    O31      O        0.10310    0.44320    0.98500    1.000
    O32      O        0.29390    0.32450    0.82830    1.000
    O33      O        0.45940    0.37910    0.86890    1.000
    O34      O        0.36860    0.18010    0.80410    1.000
    O35      O        0.53200    0.13400    0.84500    1.000
    O36      O        0.52320    0.39770    0.02930    1.000
    O37      O        0.69540    0.98610    0.35140    1.000
    O38      O        0.69170    0.10880    0.33550    1.000
    O39      O        0.00170    0.08130    0.47210    1.000
    O40      O        0.89690    0.98500    0.44320    1.000
    O41      O        0.70610    0.82830    0.32450    1.000
    O42      O        0.54060    0.86890    0.37910    1.000
    O43      O        0.63140    0.80410    0.18010    1.000
    O44      O        0.46800    0.84500    0.13400    1.000
    O45      O        0.47680    0.02930    0.39770    1.000
    O46      O        0.19540    0.01390    0.64860    1.000
    O47      O        0.19170    0.89120    0.66450    1.000
    O48      O        0.50170    0.91870    0.52790    1.000
    O49      O        0.39690    0.01500    0.55680    1.000
    O50      O        0.20610    0.17170    0.67550    1.000
    O51      O        0.04060    0.13110    0.62090    1.000
    O52      O        0.13140    0.19590    0.81990    1.000
    O53      O        0.96800    0.15500    0.86600    1.000
    O54      O        0.97680    0.97070    0.60230    1.000
    O55      O        0.94540    0.85140    0.51390    1.000
    O56      O        0.94170    0.83550    0.39120    1.000
    O57      O        0.25170    0.97210    0.41870    1.000
    O58      O        0.14690    0.94320    0.51500    1.000
    O59      O        0.95610    0.82450    0.67170    1.000
    O60      O        0.79060    0.87910    0.63110    1.000
    O61      O        0.88140    0.68010    0.69590    1.000
    O62      O        0.71800    0.63400    0.65500    1.000
    O63      O        0.72680    0.89770    0.47070    1.000
    O64      O        0.44540    0.14860    0.48610    1.000
    O65      O        0.44170    0.16450    0.60880    1.000
    O66      O        0.75170    0.02790    0.58130    1.000
    O67      O        0.64690    0.05680    0.48500    1.000
    O68      O        0.45610    0.17550    0.32830    1.000
    O69      O        0.29060    0.12090    0.36890    1.000
    O70      O        0.38140    0.31990    0.30410    1.000
    O71      O        0.21800    0.36600    0.34500    1.000
    O72      O        0.22680    0.10230    0.52930    1.000
