# CIF file generated by openbabel 3.1.0, see https://openbabel.org
data_I
_chemical_name_common 'image0'
_cell_length_a 10.1383
_cell_length_b 10.1383
_cell_length_c 9.628
_cell_angle_alpha 90
_cell_angle_beta 90
_cell_angle_gamma 90
_space_group_name_H-M_alt 'P 1'
_space_group_name_Hall 'P 1'
loop_
    _symmetry_equiv_pos_as_xyz
    x,y,z
loop_
    _atom_site_label
    _atom_site_type_symbol
    _atom_site_fract_x
    _atom_site_fract_y
    _atom_site_fract_z
    _atom_site_occupancy
    O1       O        0.29900    0.52400    0.22300    1.000
    O2       O        0.79900    0.02400    0.72300    1.000
    O3       O        0.70100    0.47600    0.22300    1.000
    O4       O        0.20100    0.97600    0.72300    1.000
    O5       O        0.52400    0.70100    0.77700    1.000
    O6       O        0.02400    0.20100    0.27700    1.000
    O7       O        0.47600    0.29900    0.77700    1.000
    O8       O        0.97600    0.79900    0.27700    1.000
    O9       O        0.70100    0.52400    0.77700    1.000
    O10      O        0.20100    0.02400    0.27700    1.000
    O11      O        0.29900    0.47600    0.77700    1.000
    O12      O        0.79900    0.97600    0.27700    1.000
    O13      O        0.47600    0.70100    0.22300    1.000
    O14      O        0.97600    0.20100    0.72300    1.000
    O15      O        0.52400    0.29900    0.22300    1.000
    O16      O        0.02400    0.79900    0.72300    1.000
    O17      O        0.50000    0.50000    0.00000    1.000
    O18      O        0.00000    0.00000    0.50000    1.000
    O19      O        0.29600    0.70400    0.05200    1.000
    O20      O        0.24600    0.75400    0.31000    1.000
    P1       P        0.33110    0.66890    0.19610    1.000
    O21      O        0.79600    0.20400    0.55200    1.000
    O22      O        0.74600    0.25400    0.81000    1.000
    P2       P        0.83110    0.16890    0.69610    1.000
    O23      O        0.70400    0.29600    0.05200    1.000
    O24      O        0.75400    0.24600    0.31000    1.000
    P3       P        0.66890    0.33110    0.19610    1.000
    O25      O        0.20400    0.79600    0.55200    1.000
    O26      O        0.25400    0.74600    0.81000    1.000
    P4       P        0.16890    0.83110    0.69610    1.000
    O27      O        0.70400    0.70400    0.94800    1.000
    O28      O        0.75400    0.75400    0.69000    1.000
    P5       P        0.66890    0.66890    0.80390    1.000
    O29      O        0.20400    0.20400    0.44800    1.000
    O30      O        0.25400    0.25400    0.19000    1.000
    P6       P        0.16890    0.16890    0.30390    1.000
    O31      O        0.29600    0.29600    0.94800    1.000
    O32      O        0.24600    0.24600    0.69000    1.000
    P7       P        0.33110    0.33110    0.80390    1.000
    O33      O        0.79600    0.79600    0.44800    1.000
    O34      O        0.74600    0.74600    0.19000    1.000
    P8       P        0.83110    0.83110    0.30390    1.000
    Fe1      Fe       0.37360    0.37360    0.12120    1.000
    Fe2      Fe       0.87360    0.87360    0.62120    1.000
    Fe3      Fe       0.62640    0.62640    0.12120    1.000
    Fe4      Fe       0.12640    0.12640    0.62120    1.000
    Fe5      Fe       0.37360    0.62640    0.87880    1.000
    Fe6      Fe       0.87360    0.12640    0.37880    1.000
    Fe7      Fe       0.62640    0.37360    0.87880    1.000
    Fe8      Fe       0.12640    0.87360    0.37880    1.000
