data_functionalizedCrystal
_audit_creation_method	'EQeq! by Chris Wilmer'
_symmetry_space_group_name_H-M	'P1'
_symmetry_Int_Tables_number	1
_symmetry_cell_setting	triclinic
loop_
_symmetry_equiv_pos_as_xyz
  x,y,z
_cell_length_a	17.055
_cell_length_b	17.055
_cell_length_c	17.055
_cell_angle_alpha	90
_cell_angle_beta	90
_cell_angle_gamma	90
loop_
_atom_site_label
_atom_site_type_symbol
_atom_site_fract_x
_atom_site_fract_y
_atom_site_fract_z
_atom_site_charge
Mof_N 	N 	0.02707	0.68242	0.4088	-0.406
Mof_C 	C 	0.0954	0.6858	0.369	-0.025
Mof_H 	H 	0.1368	0.7217	0.3788	-0.01
Mof_H 	H 	0.9015	0.6077	0.4584	0.214
Mof_N 	N 	0.52707	0.18242	0.9088	-0.293
Mof_C 	C 	0.5954	0.1858	0.869	-0.008
Mof_H 	H 	0.6368	0.2217	0.8788	0.003
Mof_H 	H 	0.4015	0.1077	0.9584	0.168
Mof_N 	N 	0.97293	0.31758	0.4088	-0.216
Mof_C 	C 	0.9046	0.3142	0.369	-0.009
Mof_H 	H 	0.8632	0.2783	0.3788	-0.007
Mof_H 	H 	0.0985	0.3923	0.4584	0.091
Mof_N 	N 	0.47293	0.81758	0.9088	-0.298
Mof_C 	C 	0.4046	0.8142	0.869	-0.003
Mof_H 	H 	0.3632	0.7783	0.8788	0.005
Mof_H 	H 	0.5985	0.8923	0.9584	0.241
Mof_N 	N 	0.97293	0.68242	0.5912	-0.215
Mof_C 	C 	0.9046	0.6858	0.631	-0.004
Mof_H 	H 	0.8632	0.7217	0.6212	-0.004
Mof_H 	H 	0.0985	0.6077	0.5416	0.091
Mof_N 	N 	0.47293	0.18242	0.0912	-0.324
Mof_C 	C 	0.4046	0.1858	0.131	-0.03
Mof_H 	H 	0.3632	0.2217	0.1212	-0.025
Mof_H 	H 	0.5985	0.1077	0.0416	0.074
Mof_N 	N 	0.02707	0.31758	0.5912	-0.405
Mof_C 	C 	0.0954	0.3142	0.631	-0.025
Mof_H 	H 	0.1368	0.2783	0.6212	-0.009
Mof_H 	H 	0.9015	0.3923	0.5416	0.215
Mof_N 	N 	0.52707	0.81758	0.0912	-0.328
Mof_C 	C 	0.5954	0.8142	0.131	-0.023
Mof_H 	H 	0.6368	0.7783	0.1212	-0.013
Mof_H 	H 	0.4015	0.8923	0.0416	0.13
Mof_N 	N 	0.4088	0.02707	0.68242	-0.405
Mof_C 	C 	0.369	0.0954	0.6858	-0.024
Mof_H 	H 	0.3788	0.1368	0.7217	-0.009
Mof_H 	H 	0.4584	0.9015	0.6077	0.215
Mof_N 	N 	0.9088	0.52707	0.18242	-0.292
Mof_C 	C 	0.869	0.5954	0.1858	-0.007
Mof_H 	H 	0.8788	0.6368	0.2217	0.003
Mof_H 	H 	0.9584	0.4015	0.1077	0.168
Mof_N 	N 	0.4088	0.97293	0.31758	-0.216
Mof_C 	C 	0.369	0.9046	0.3142	-0.009
Mof_H 	H 	0.3788	0.8632	0.2783	-0.007
Mof_H 	H 	0.4584	0.0985	0.3923	0.091
Mof_N 	N 	0.9088	0.47293	0.81758	-0.298
Mof_C 	C 	0.869	0.4046	0.8142	-0.003
Mof_H 	H 	0.8788	0.3632	0.7783	0.005
Mof_H 	H 	0.9584	0.5985	0.8923	0.241
Mof_N 	N 	0.5912	0.97293	0.68242	-0.215
Mof_C 	C 	0.631	0.9046	0.6858	-0.004
Mof_H 	H 	0.6212	0.8632	0.7217	-0.004
Mof_H 	H 	0.5416	0.0985	0.6077	0.091
Mof_N 	N 	0.0912	0.47293	0.18242	-0.324
Mof_C 	C 	0.131	0.4046	0.1858	-0.03
Mof_H 	H 	0.1212	0.3632	0.2217	-0.025
Mof_H 	H 	0.0416	0.5985	0.1077	0.074
Mof_N 	N 	0.5912	0.02707	0.31758	-0.405
Mof_C 	C 	0.631	0.0954	0.3142	-0.025
Mof_H 	H 	0.6212	0.1368	0.2783	-0.009
Mof_H 	H 	0.5416	0.9015	0.3923	0.215
Mof_N 	N 	0.0912	0.52707	0.81758	-0.328
Mof_C 	C 	0.131	0.5954	0.8142	-0.023
Mof_H 	H 	0.1212	0.6368	0.7783	-0.013
Mof_H 	H 	0.0416	0.4015	0.8923	0.13
Mof_N 	N 	0.68242	0.4088	0.02707	-0.405
Mof_C 	C 	0.6858	0.369	0.0954	-0.024
Mof_H 	H 	0.7217	0.3788	0.1368	-0.009
Mof_H 	H 	0.6077	0.4584	0.9015	0.215
Mof_N 	N 	0.18242	0.9088	0.52707	-0.292
Mof_C 	C 	0.1858	0.869	0.5954	-0.007
Mof_H 	H 	0.2217	0.8788	0.6368	0.003
Mof_H 	H 	0.1077	0.9584	0.4015	0.168
Mof_N 	N 	0.31758	0.4088	0.97293	-0.216
Mof_C 	C 	0.3142	0.369	0.9046	-0.009
Mof_H 	H 	0.2783	0.3788	0.8632	-0.007
Mof_H 	H 	0.3923	0.4584	0.0985	0.091
Mof_N 	N 	0.81758	0.9088	0.47293	-0.298
Mof_C 	C 	0.8142	0.869	0.4046	-0.003
Mof_H 	H 	0.7783	0.8788	0.3632	0.005
Mof_H 	H 	0.8923	0.9584	0.5985	0.241
Mof_N 	N 	0.68242	0.5912	0.97293	-0.215
Mof_C 	C 	0.6858	0.631	0.9046	-0.004
Mof_H 	H 	0.7217	0.6212	0.8632	-0.004
Mof_H 	H 	0.6077	0.5416	0.0985	0.091
Mof_N 	N 	0.18242	0.0912	0.47293	-0.324
Mof_C 	C 	0.1858	0.131	0.4046	-0.03
Mof_H 	H 	0.2217	0.1212	0.3632	-0.025
Mof_H 	H 	0.1077	0.0416	0.5985	0.074
Mof_N 	N 	0.31758	0.5912	0.02707	-0.405
Mof_C 	C 	0.3142	0.631	0.0954	-0.025
Mof_H 	H 	0.2783	0.6212	0.1368	-0.009
Mof_H 	H 	0.3923	0.5416	0.9015	0.215
Mof_N 	N 	0.81758	0.0912	0.52707	-0.328
Mof_C 	C 	0.8142	0.131	0.5954	-0.023
Mof_H 	H 	0.7783	0.1212	0.6368	-0.013
Mof_H 	H 	0.8923	0.0416	0.4015	0.13
Mof_N 	N 	0.68242	0.02707	0.4088	-0.405
Mof_C 	C 	0.6858	0.0954	0.369	-0.024
Mof_H 	H 	0.7217	0.1368	0.3788	-0.009
Mof_H 	H 	0.6077	0.9015	0.4584	0.215
Mof_N 	N 	0.18242	0.52707	0.9088	-0.292
Mof_C 	C 	0.1858	0.5954	0.869	-0.007
Mof_H 	H 	0.2217	0.6368	0.8788	0.003
Mof_H 	H 	0.1077	0.4015	0.9584	0.168
Mof_N 	N 	0.31758	0.97293	0.4088	-0.216
Mof_C 	C 	0.3142	0.9046	0.369	-0.009
Mof_H 	H 	0.2783	0.8632	0.3788	-0.007
Mof_H 	H 	0.3923	0.0985	0.4584	0.091
Mof_N 	N 	0.81758	0.47293	0.9088	-0.298
Mof_C 	C 	0.8142	0.4046	0.869	-0.003
Mof_H 	H 	0.7783	0.3632	0.8788	0.005
Mof_H 	H 	0.8923	0.5985	0.9584	0.241
Mof_N 	N 	0.68242	0.97293	0.5912	-0.215
Mof_C 	C 	0.6858	0.9046	0.631	-0.004
Mof_H 	H 	0.7217	0.8632	0.6212	-0.004
Mof_H 	H 	0.6077	0.0985	0.5416	0.091
Mof_N 	N 	0.18242	0.47293	0.0912	-0.324
Mof_C 	C 	0.1858	0.4046	0.131	-0.03
Mof_H 	H 	0.2217	0.3632	0.1212	-0.025
Mof_H 	H 	0.1077	0.5985	0.0416	0.074
Mof_N 	N 	0.31758	0.02707	0.5912	-0.405
Mof_C 	C 	0.3142	0.0954	0.631	-0.025
Mof_H 	H 	0.2783	0.1368	0.6212	-0.009
Mof_H 	H 	0.3923	0.9015	0.5416	0.215
Mof_N 	N 	0.81758	0.52707	0.0912	-0.328
Mof_C 	C 	0.8142	0.5954	0.131	-0.023
Mof_H 	H 	0.7783	0.6368	0.1212	-0.013
Mof_H 	H 	0.8923	0.4015	0.0416	0.13
Mof_N 	N 	0.02707	0.4088	0.68242	-0.405
Mof_C 	C 	0.0954	0.369	0.6858	-0.024
Mof_H 	H 	0.1368	0.3788	0.7217	-0.009
Mof_H 	H 	0.9015	0.4584	0.6077	0.215
Mof_N 	N 	0.52707	0.9088	0.18242	-0.292
Mof_C 	C 	0.5954	0.869	0.1858	-0.007
Mof_H 	H 	0.6368	0.8788	0.2217	0.003
Mof_H 	H 	0.4015	0.9584	0.1077	0.168
Mof_N 	N 	0.97293	0.4088	0.31758	-0.216
Mof_C 	C 	0.9046	0.369	0.3142	-0.009
Mof_H 	H 	0.8632	0.3788	0.2783	-0.007
Mof_H 	H 	0.0985	0.4584	0.3923	0.091
Mof_N 	N 	0.47293	0.9088	0.81758	-0.298
Mof_C 	C 	0.4046	0.869	0.8142	-0.003
Mof_H 	H 	0.3632	0.8788	0.7783	0.005
Mof_H 	H 	0.5985	0.9584	0.8923	0.241
Mof_N 	N 	0.97293	0.5912	0.68242	-0.215
Mof_C 	C 	0.9046	0.631	0.6858	-0.004
Mof_H 	H 	0.8632	0.6212	0.7217	-0.004
Mof_H 	H 	0.0985	0.5416	0.6077	0.091
Mof_N 	N 	0.47293	0.0912	0.18242	-0.324
Mof_C 	C 	0.4046	0.131	0.1858	-0.03
Mof_H 	H 	0.3632	0.1212	0.2217	-0.025
Mof_H 	H 	0.5985	0.0416	0.1077	0.074
Mof_N 	N 	0.02707	0.5912	0.31758	-0.405
Mof_C 	C 	0.0954	0.631	0.3142	-0.025
Mof_H 	H 	0.1368	0.6212	0.2783	-0.009
Mof_H 	H 	0.9015	0.5416	0.3923	0.215
Mof_N 	N 	0.52707	0.0912	0.81758	-0.328
Mof_C 	C 	0.5954	0.131	0.8142	-0.023
Mof_H 	H 	0.6368	0.1212	0.7783	-0.013
Mof_H 	H 	0.4015	0.0416	0.8923	0.13
Mof_N 	N 	0.4088	0.68242	0.02707	-0.405
Mof_C 	C 	0.369	0.6858	0.0954	-0.024
Mof_H 	H 	0.3788	0.7217	0.1368	-0.009
Mof_H 	H 	0.4584	0.6077	0.9015	0.215
Mof_N 	N 	0.9088	0.18242	0.52707	-0.292
Mof_C 	C 	0.869	0.1858	0.5954	-0.007
Mof_H 	H 	0.8788	0.2217	0.6368	0.003
Mof_H 	H 	0.9584	0.1077	0.4015	0.168
Mof_N 	N 	0.4088	0.31758	0.97293	-0.216
Mof_C 	C 	0.369	0.3142	0.9046	-0.009
Mof_H 	H 	0.3788	0.2783	0.8632	-0.007
Mof_H 	H 	0.4584	0.3923	0.0985	0.091
Mof_N 	N 	0.9088	0.81758	0.47293	-0.298
Mof_C 	C 	0.869	0.8142	0.4046	-0.003
Mof_H 	H 	0.8788	0.7783	0.3632	0.005
Mof_H 	H 	0.9584	0.8923	0.5985	0.241
Mof_N 	N 	0.5912	0.68242	0.97293	-0.215
Mof_C 	C 	0.631	0.6858	0.9046	-0.004
Mof_H 	H 	0.6212	0.7217	0.8632	-0.004
Mof_H 	H 	0.5416	0.6077	0.0985	0.091
Mof_N 	N 	0.0912	0.18242	0.47293	-0.324
Mof_C 	C 	0.131	0.1858	0.4046	-0.03
Mof_H 	H 	0.1212	0.2217	0.3632	-0.025
Mof_H 	H 	0.0416	0.1077	0.5985	0.074
Mof_N 	N 	0.5912	0.31758	0.02707	-0.405
Mof_C 	C 	0.631	0.3142	0.0954	-0.025
Mof_H 	H 	0.6212	0.2783	0.1368	-0.009
Mof_H 	H 	0.5416	0.3923	0.9015	0.215
Mof_N 	N 	0.0912	0.81758	0.52707	-0.328
Mof_C 	C 	0.131	0.8142	0.5954	-0.023
Mof_H 	H 	0.1212	0.7783	0.6368	-0.013
Mof_H 	H 	0.0416	0.8923	0.4015	0.13
Mof_Zn	Zn	-3.21386e-33	0.75	0.5	1.138
Mof_Zn	Zn	1.8747e-33	0.25	0.5	1.137
Mof_Zn	Zn	0.5	0	0.75	1.138
Mof_Zn	Zn	0.5	-2.54428e-33	0.25	1.137
Mof_Zn	Zn	0.75	0.5	-0	1.138
Mof_Zn	Zn	0.25	0.5	-0	1.137
Mof_Zn	Zn	0.75	-5.08856e-33	0.5	1.138
Mof_Zn	Zn	0.25	-5.08856e-33	0.5	1.137
Mof_Zn	Zn	2.81205e-33	0.5	0.75	1.138
Mof_Zn	Zn	3.48163e-33	0.5	0.25	1.137
Mof_Zn	Zn	0.5	0.75	-0	1.138
Mof_Zn	Zn	0.5	0.25	-0	1.137
Mof_C 	C 	0.987	0.6252	0.3748	0.434
Mof_C 	C 	0.9069	0.5979	0.4021	-0.756
Mof_H 	H 	0.8661	0.6266	0.3734	0.217
Mof_C 	C 	0.487	0.1252	0.8748	0.211
Mof_C 	C 	0.4069	0.0979	0.9021	-0.579
Mof_H 	H 	0.3661	0.1266	0.8734	0.16
Mof_C 	C 	0.013	0.3748	0.3748	-0.009
Mof_C 	C 	0.0931	0.4021	0.4021	-0.415
Mof_H 	H 	0.1339	0.3734	0.3734	0.112
Mof_C 	C 	0.513	0.8748	0.8748	0.27
Mof_C 	C 	0.5931	0.9021	0.9021	-0.71
Mof_H 	H 	0.6339	0.8734	0.8734	0.223
Mof_C 	C 	0.013	0.6252	0.6252	-0.005
Mof_C 	C 	0.0931	0.5979	0.5979	-0.418
Mof_H 	H 	0.1339	0.6266	0.6266	0.114
Mof_C 	C 	0.513	0.1252	0.1252	0.161
Mof_C 	C 	0.5931	0.0979	0.0979	-0.48
Mof_H 	H 	0.6339	0.1266	0.1266	0.119
Mof_C 	C 	0.987	0.3748	0.6252	0.434
Mof_C 	C 	0.9069	0.4021	0.5979	-0.756
Mof_H 	H 	0.8661	0.3734	0.6266	0.217
Mof_C 	C 	0.487	0.8748	0.1252	0.211
Mof_C 	C 	0.4069	0.9021	0.0979	-0.579
Mof_H 	H 	0.3661	0.8734	0.1266	0.16
Mof_C 	C 	0.3748	0.987	0.6252	0.434
Mof_C 	C 	0.4021	0.9069	0.5979	-0.756
Mof_H 	H 	0.3734	0.8661	0.6266	0.217
Mof_C 	C 	0.8748	0.487	0.1252	0.211
Mof_C 	C 	0.9021	0.4069	0.0979	-0.579
Mof_H 	H 	0.8734	0.3661	0.1266	0.16
Mof_C 	C 	0.3748	0.013	0.3748	-0.009
Mof_C 	C 	0.4021	0.0931	0.4021	-0.415
Mof_H 	H 	0.3734	0.1339	0.3734	0.112
Mof_C 	C 	0.8748	0.513	0.8748	0.27
Mof_C 	C 	0.9021	0.5931	0.9021	-0.71
Mof_H 	H 	0.8734	0.6339	0.8734	0.223
Mof_C 	C 	0.6252	0.013	0.6252	-0.005
Mof_C 	C 	0.5979	0.0931	0.5979	-0.418
Mof_H 	H 	0.6266	0.1339	0.6266	0.114
Mof_C 	C 	0.1252	0.513	0.1252	0.161
Mof_C 	C 	0.0979	0.5931	0.0979	-0.48
Mof_H 	H 	0.1266	0.6339	0.1266	0.119
Mof_C 	C 	0.6252	0.987	0.3748	0.434
Mof_C 	C 	0.5979	0.9069	0.4021	-0.756
Mof_H 	H 	0.6266	0.8661	0.3734	0.217
Mof_C 	C 	0.1252	0.487	0.8748	0.211
Mof_C 	C 	0.0979	0.4069	0.9021	-0.579
Mof_H 	H 	0.1266	0.3661	0.8734	0.16
Mof_C 	C 	0.6252	0.3748	0.987	0.434
Mof_C 	C 	0.5979	0.4021	0.9069	-0.756
Mof_H 	H 	0.6266	0.3734	0.8661	0.217
Mof_C 	C 	0.1252	0.8748	0.487	0.211
Mof_C 	C 	0.0979	0.9021	0.4069	-0.579
Mof_H 	H 	0.1266	0.8734	0.3661	0.16
Mof_C 	C 	0.3748	0.3748	0.013	-0.009
Mof_C 	C 	0.4021	0.4021	0.0931	-0.415
Mof_H 	H 	0.3734	0.3734	0.1339	0.112
Mof_C 	C 	0.8748	0.8748	0.513	0.27
Mof_C 	C 	0.9021	0.9021	0.5931	-0.71
Mof_H 	H 	0.8734	0.8734	0.6339	0.223
Mof_C 	C 	0.6252	0.6252	0.013	-0.005
Mof_C 	C 	0.5979	0.5979	0.0931	-0.418
Mof_H 	H 	0.6266	0.6266	0.1339	0.114
Mof_C 	C 	0.1252	0.1252	0.513	0.161
Mof_C 	C 	0.0979	0.0979	0.5931	-0.48
Mof_H 	H 	0.1266	0.1266	0.6339	0.119
Mof_C 	C 	0.3748	0.6252	0.987	0.434
Mof_C 	C 	0.4021	0.5979	0.9069	-0.756
Mof_H 	H 	0.3734	0.6266	0.8661	0.217
Mof_C 	C 	0.8748	0.1252	0.487	0.211
Mof_C 	C 	0.9021	0.0979	0.4069	-0.579
Mof_H 	H 	0.8734	0.1266	0.3661	0.16
_end
