data_functionalizedCrystal
_audit_creation_method	'EQeq! by Chris Wilmer'
_symmetry_space_group_name_H-M	'P1'
_symmetry_Int_Tables_number	1
_symmetry_cell_setting	triclinic
loop_
_symmetry_equiv_pos_as_xyz
  x,y,z
_cell_length_a	12.234
_cell_length_b	12.234
_cell_length_c	12.373
_cell_angle_alpha	90
_cell_angle_beta	90
_cell_angle_gamma	90
loop_
_atom_site_label
_atom_site_type_symbol
_atom_site_fract_x
_atom_site_fract_y
_atom_site_fract_z
_atom_site_charge
Mof_Na	Na	0.4713	0.7218	0.5067	2.437
Mof_Na	Na	0.5287	0.2782	0.5067	2.402
Mof_Na	Na	0.7218	0.5287	0.4933	2.431
Mof_Na	Na	0.2782	0.4713	0.4933	2.394
Mof_Na	Na	0.5	-3.40783e-33	0.487	2.047
Mof_Na	Na	1.9453e-33	0.5	0.513	2.044
Mof_Gd	Gd	-0	0	-0	0.947
Mof_H 	H 	0.7199	0.8927	0.8772	0.081
Mof_H 	H 	0.6492	0.8843	0.7053	-0.009
Mof_H 	H 	0.9438	0.7798	0.5977	0.116
Mof_H 	H 	0.0197	0.6107	0.7344	-0.088
Mof_H 	H 	0.3247	0.6675	0.8408	0.01
Mof_H 	H 	0.2752	0.8445	0.8766	0.094
Mof_H 	H 	0.2801	0.1073	0.8772	0.062
Mof_H 	H 	0.3508	0.1157	0.7053	-0.084
Mof_H 	H 	0.0562	0.2202	0.5977	-0.069
Mof_H 	H 	0.9803	0.3893	0.7344	0.104
Mof_H 	H 	0.6753	0.3325	0.8408	0.037
Mof_H 	H 	0.7248	0.1555	0.8766	0.029
Mof_H 	H 	0.8927	0.2801	0.1228	0.08
Mof_H 	H 	0.8843	0.3508	0.2947	-0.039
Mof_H 	H 	0.7798	0.0562	0.4023	-0.053
Mof_H 	H 	0.6107	0.9803	0.2656	0.1
Mof_H 	H 	0.6675	0.6753	0.1592	0.024
Mof_H 	H 	0.8445	0.7248	0.1234	0.049
Mof_H 	H 	0.1073	0.7199	0.1228	0.014
Mof_H 	H 	0.1157	0.6492	0.2947	-0.06
Mof_H 	H 	0.2202	0.9438	0.4023	0.104
Mof_H 	H 	0.3893	0.0197	0.2656	-0.094
Mof_H 	H 	0.3325	0.3247	0.1592	-0.013
Mof_H 	H 	0.1555	0.2752	0.1234	0.034
Mof_C 	C 	0.7636	0.8683	0.8206	0.031
Mof_C 	C 	0.7212	0.8638	0.7183	0.03
Mof_C 	C 	0.7886	0.8275	0.633	-0.105
Mof_C 	C 	0.8973	0.8003	0.6536	-0.078
Mof_C 	C 	0.9347	0.8047	0.7591	0.265
Mof_C 	C 	0.0452	0.7636	0.7859	-0.141
Mof_C 	C 	0.0727	0.6576	0.7618	0.11
Mof_C 	C 	0.1785	0.6192	0.7776	-0.19
Mof_C 	C 	0.2543	0.6913	0.825	0.043
Mof_C 	C 	0.2239	0.7966	0.8477	-0.016
Mof_C 	C 	0.2364	0.1317	0.8206	-0.083
Mof_C 	C 	0.2788	0.1362	0.7183	0.103
Mof_C 	C 	0.2114	0.1725	0.633	-0.263
Mof_C 	C 	0.1027	0.1997	0.6536	0.117
Mof_C 	C 	0.0653	0.1953	0.7591	-0.169
Mof_C 	C 	0.9548	0.2364	0.7859	0.265
Mof_C 	C 	0.9273	0.3424	0.7618	-0.105
Mof_C 	C 	0.8215	0.3808	0.7776	-0.06
Mof_C 	C 	0.7457	0.3087	0.825	-0.049
Mof_C 	C 	0.7761	0.2034	0.8477	0.051
Mof_C 	C 	0.8683	0.2364	0.1794	-0.034
Mof_C 	C 	0.8638	0.2788	0.2817	0.106
Mof_C 	C 	0.8275	0.2114	0.367	-0.215
Mof_C 	C 	0.8003	0.1027	0.3464	0.121
Mof_C 	C 	0.8047	0.0653	0.2409	-0.14
Mof_C 	C 	0.7636	0.9548	0.2141	0.262
Mof_C 	C 	0.6576	0.9273	0.2382	-0.107
Mof_C 	C 	0.6192	0.8215	0.2224	-0.072
Mof_C 	C 	0.6913	0.7457	0.175	-0.048
Mof_C 	C 	0.7966	0.7761	0.1523	0.042
Mof_C 	C 	0.1317	0.7636	0.1794	-0.023
Mof_C 	C 	0.1362	0.7212	0.2817	0.019
Mof_C 	C 	0.1725	0.7886	0.367	-0.15
Mof_C 	C 	0.1997	0.8973	0.3464	-0.085
Mof_C 	C 	0.1953	0.9347	0.2409	0.242
Mof_C 	C 	0.2364	0.0452	0.2141	-0.167
Mof_C 	C 	0.3424	0.0727	0.2382	0.115
Mof_C 	C 	0.3808	0.1785	0.2224	-0.208
Mof_C 	C 	0.3087	0.2543	0.175	0.039
Mof_C 	C 	0.2034	0.2239	0.1523	-0.043
Mof_S 	S 	0.73415	0.81641	0.5002	0.722
Mof_S 	S 	0.21338	0.48424	0.74035	0.637
Mof_S 	S 	0.26585	0.18359	0.5002	0.777
Mof_S 	S 	0.78662	0.51576	0.74035	0.588
Mof_S 	S 	0.81641	0.26585	0.4998	0.76
Mof_S 	S 	0.48424	0.78662	0.25965	0.592
Mof_S 	S 	0.18359	0.73415	0.4998	0.737
Mof_S 	S 	0.51576	0.21338	0.25965	0.641
Mof_N 	N 	0.8682	0.8378	0.8408	-0.074
Mof_N 	N 	0.1225	0.8323	0.8292	-0.023
Mof_N 	N 	0.1318	0.1622	0.8408	-0.018
Mof_N 	N 	0.8775	0.1677	0.8292	-0.082
Mof_N 	N 	0.8378	0.1318	0.1592	-0.01
Mof_N 	N 	0.8323	0.8775	0.1708	-0.089
Mof_N 	N 	0.1622	0.8682	0.1592	-0.082
Mof_N 	N 	0.1677	0.1225	0.1708	-0.021
Mof_Cl	Cl	0.5	0.5	0.5	-1.525
Mof_O 	O 	0.9057	0.843	0.9409	-0.083
Mof_O 	O 	0.0968	0.9346	0.8463	-0.146
Mof_O 	O 	0.6689	0.914	0.4875	-0.593
Mof_O 	O 	0.6674	0.7163	0.5038	-0.935
Mof_O 	O 	0.826	0.8084	0.4278	-0.299
Mof_O 	O 	0.1437	0.46	0.6499	-0.781
Mof_O 	O 	0.1924	0.4173	0.8337	-0.305
Mof_O 	O 	0.3284	0.4882	0.7068	-0.522
Mof_O 	O 	0.4172	0.8822	0.6168	-0.618
Mof_O 	O 	0.0943	0.157	0.9409	-0.229
Mof_O 	O 	0.9032	0.0654	0.8463	-0.172
Mof_O 	O 	0.3311	0.086	0.4875	-0.718
Mof_O 	O 	0.3326	0.2837	0.5038	-0.938
Mof_O 	O 	0.174	0.1916	0.4278	-0.397
Mof_O 	O 	0.8563	0.54	0.6499	-0.705
Mof_O 	O 	0.8076	0.5827	0.8337	-0.249
Mof_O 	O 	0.6716	0.5118	0.7068	-0.517
Mof_O 	O 	0.5828	0.1178	0.6168	-0.709
Mof_O 	O 	0.843	0.0943	0.0591	-0.24
Mof_O 	O 	0.9346	0.9032	0.1537	-0.062
Mof_O 	O 	0.914	0.3311	0.5125	-0.604
Mof_O 	O 	0.7163	0.3326	0.4962	-0.941
Mof_O 	O 	0.8084	0.174	0.5722	-0.357
Mof_O 	O 	0.46	0.8563	0.3501	-0.704
Mof_O 	O 	0.4173	0.8076	0.1663	-0.274
Mof_O 	O 	0.4882	0.6716	0.2932	-0.527
Mof_O 	O 	0.8822	0.5828	0.3832	-0.62
Mof_O 	O 	0.157	0.9057	0.0591	-0.181
Mof_O 	O 	0.0654	0.0968	0.1537	-0.302
Mof_O 	O 	0.086	0.6689	0.5125	-0.705
Mof_O 	O 	0.2837	0.6674	0.4962	-0.934
Mof_O 	O 	0.1916	0.826	0.5722	-0.338
Mof_O 	O 	0.54	0.1437	0.3501	-0.785
Mof_O 	O 	0.5827	0.1924	0.1663	-0.335
Mof_O 	O 	0.5118	0.3284	0.2932	-0.532
Mof_O 	O 	0.1178	0.4172	0.3832	-0.714
_end
