# CIF file generated by openbabel 3.1.0, see https://openbabel.org
data_I
_chemical_name_common 'image0'
_cell_length_a 14.044
_cell_length_b 18.034
_cell_length_c 12.931
_cell_angle_alpha 90
_cell_angle_beta 111.47
_cell_angle_gamma 90
_space_group_name_H-M_alt 'P 1'
_space_group_name_Hall 'P 1'
loop_
    _symmetry_equiv_pos_as_xyz
    x,y,z
loop_
    _atom_site_label
    _atom_site_type_symbol
    _atom_site_fract_x
    _atom_site_fract_y
    _atom_site_fract_z
    _atom_site_occupancy
    Cd1      Cd       0.42565    0.36008    0.42064    1.000
    N1       N        0.17210    0.36880    0.31090    1.000
    C1       C        0.25870    0.36810    0.34470    1.000
    N2       N        0.00860    0.26900    0.38460    1.000
    C2       C        0.47370    0.27430    0.54880    1.000
    C3       C        0.48480    0.47010    0.48460    1.000
    C4       C        0.48790    0.34470    0.28710    1.000
    Cd2      Cd       0.92565    0.86008    0.42064    1.000
    N3       N        0.67210    0.86880    0.31090    1.000
    C5       C        0.75870    0.86810    0.34470    1.000
    N4       N        0.50860    0.76900    0.38460    1.000
    C6       C        0.97370    0.77430    0.54880    1.000
    C7       C        0.98480    0.97010    0.48460    1.000
    C8       C        0.98790    0.84470    0.28710    1.000
    Cd3      Cd       0.57435    0.36008    0.07936    1.000
    N5       N        0.82790    0.36880    0.18910    1.000
    C9       C        0.74130    0.36810    0.15530    1.000
    N6       N        0.99140    0.26900    0.11540    1.000
    C10      C        0.52630    0.27430    0.95120    1.000
    C11      C        0.51520    0.47010    0.01540    1.000
    C12      C        0.51210    0.34470    0.21290    1.000
    Cd4      Cd       0.07435    0.86008    0.07936    1.000
    N7       N        0.32790    0.86880    0.18910    1.000
    C13      C        0.24130    0.86810    0.15530    1.000
    N8       N        0.49140    0.76900    0.11540    1.000
    C14      C        0.02630    0.77430    0.95120    1.000
    C15      C        0.01520    0.97010    0.01540    1.000
    C16      C        0.01210    0.84470    0.21290    1.000
    Cd5      Cd       0.57435    0.63992    0.57936    1.000
    N9       N        0.82790    0.63120    0.68910    1.000
    C17      C        0.74130    0.63190    0.65530    1.000
    N10      N        0.99140    0.73100    0.61540    1.000
    C18      C        0.52630    0.72570    0.45120    1.000
    C19      C        0.51520    0.52990    0.51540    1.000
    C20      C        0.51210    0.65530    0.71290    1.000
    Cd6      Cd       0.07435    0.13992    0.57936    1.000
    N11      N        0.32790    0.13120    0.68910    1.000
    C21      C        0.24130    0.13190    0.65530    1.000
    N12      N        0.49140    0.23100    0.61540    1.000
    C22      C        0.02630    0.22570    0.45120    1.000
    C23      C        0.01520    0.02990    0.51540    1.000
    C24      C        0.01210    0.15530    0.71290    1.000
    Cd7      Cd       0.42565    0.63992    0.92064    1.000
    N13      N        0.17210    0.63120    0.81090    1.000
    C25      C        0.25870    0.63190    0.84470    1.000
    N14      N        0.00860    0.73100    0.88460    1.000
    C26      C        0.47370    0.72570    0.04880    1.000
    C27      C        0.48480    0.52990    0.98460    1.000
    C28      C        0.48790    0.65530    0.78710    1.000
    Cd8      Cd       0.92565    0.13992    0.92064    1.000
    N15      N        0.67210    0.13120    0.81090    1.000
    C29      C        0.75870    0.13190    0.84470    1.000
    N16      N        0.50860    0.23100    0.88460    1.000
    C30      C        0.97370    0.22570    0.04880    1.000
    C31      C        0.98480    0.02990    0.98460    1.000
    C32      C        0.98790    0.15530    0.78710    1.000
    Cd9      Cd       0.00000    0.35448    0.25000    1.000
    Cd10     Cd       0.50000    0.85448    0.25000    1.000
    Cd11     Cd       0.00000    0.64552    0.75000    1.000
    Cd12     Cd       0.50000    0.14552    0.75000    1.000
