# CIF file generated by openbabel 3.1.0, see https://openbabel.org
data_I
_chemical_name_common 'image0'
_cell_length_a 12.1858
_cell_length_b 21.5773
_cell_length_c 12.5587
_cell_angle_alpha 90
_cell_angle_beta 90.406
_cell_angle_gamma 90
_space_group_name_H-M_alt 'P 1'
_space_group_name_Hall 'P 1'
loop_
    _symmetry_equiv_pos_as_xyz
    x,y,z
loop_
    _atom_site_label
    _atom_site_type_symbol
    _atom_site_fract_x
    _atom_site_fract_y
    _atom_site_fract_z
    _atom_site_occupancy
    C1       C        0.64700    0.61240    0.65080    1.000
    H1       H        0.62520    0.63440    0.58480    1.000
    H2       H        0.64400    0.56730    0.63680    1.000
    C2       C        0.57000    0.62850    0.73780    1.000
    H3       H        0.57430    0.67340    0.75310    1.000
    H4       H        0.59050    0.60560    0.80330    1.000
    C3       C        0.78790    0.69530    0.64680    1.000
    H5       H        0.71950    0.71890    0.63370    1.000
    H6       H        0.83040    0.69420    0.57990    1.000
    C4       C        0.85410    0.72560    0.73340    1.000
    H7       H        0.91780    0.69910    0.75200    1.000
    H8       H        0.80850    0.73040    0.79780    1.000
    C5       C        0.84390    0.58580    0.65350    1.000
    H9       H        0.91500    0.60680    0.64140    1.000
    H10      H        0.82220    0.56410    0.58720    1.000
    C6       C        0.85440    0.54030    0.74340    1.000
    H11      H        0.78400    0.51830    0.75400    1.000
    H12      H        0.87400    0.56210    0.81020    1.000
    C7       C        0.74040    0.69410    0.34970    1.000
    H13      H        0.81170    0.71520    0.36080    1.000
    H14      H        0.69820    0.69690    0.41660    1.000
    C8       C        0.67750    0.72550    0.26050    1.000
    H15      H        0.71990    0.72220    0.19380    1.000
    H16      H        0.60660    0.70400    0.24950    1.000
    C9       C        0.86920    0.60660    0.34780    1.000
    H17      H        0.86730    0.56130    0.35980    1.000
    H18      H        0.89660    0.62670    0.41370    1.000
    C10      C        0.94480    0.62160    0.25550    1.000
    H19      H        0.94690    0.66700    0.24460    1.000
    H20      H        0.91560    0.60230    0.18960    1.000
    C11      C        0.67070    0.58750    0.35330    1.000
    H21      H        0.60290    0.61150    0.36670    1.000
    H22      H        0.69120    0.56540    0.41950    1.000
    C12      C        0.65050    0.54080    0.26350    1.000
    H23      H        0.63040    0.56330    0.19760    1.000
    H24      H        0.71900    0.51750    0.24990    1.000
    C13      C        0.38510    0.66990    0.68200    1.000
    H25      H        0.30840    0.65740    0.66740    1.000
    H26      H        0.38550    0.69720    0.74540    1.000
    C14      C        0.42920    0.70500    0.58780    1.000
    C15      C        0.48870    0.75750    0.60110    1.000
    H27      H        0.50350    0.77210    0.67110    1.000
    C16      C        0.52900    0.79110    0.51360    1.000
    H28      H        0.57360    0.82670    0.52420    1.000
    C17      C        0.50220    0.77100    0.41080    1.000
    C18      C        0.43820    0.71750    0.39670    1.000
    H29      H        0.41930    0.70380    0.32700    1.000
    C19      C        0.40250    0.68450    0.48530    1.000
    H30      H        0.35980    0.64800    0.47610    1.000
    C20      C        0.54290    0.80760    0.31530    1.000
    H31      H        0.49360    0.79920    0.25390    1.000
    H32      H        0.53790    0.85230    0.33170    1.000
    C21      C        0.01430    0.78930    0.67500    1.000
    H33      H        0.03820    0.83270    0.66490    1.000
    H34      H        0.05390    0.77260    0.73780    1.000
    C22      C        0.04550    0.75320    0.58080    1.000
    C23      C        0.08930    0.69490    0.59020    1.000
    H35      H        0.09980    0.67750    0.65900    1.000
    C24      C        0.11830    0.66100    0.50200    1.000
    H36      H        0.14690    0.62040    0.51070    1.000
    C25      C        0.10620    0.68560    0.40070    1.000
    C26      C        0.06490    0.74420    0.39010    1.000
    H37      H        0.05770    0.76210    0.32120    1.000
    C27      C        0.03340    0.77820    0.47960    1.000
    H38      H        0.00360    0.81860    0.47100    1.000
    C28      C        0.14020    0.65020    0.30290    1.000
    H39      H        0.21450    0.63270    0.31450    1.000
    H40      H        0.14380    0.67900    0.24160    1.000
    C29      C        0.89640    0.43030    0.68780    1.000
    H41      H        0.85290    0.41690    0.74990    1.000
    H42      H        0.95530    0.39940    0.67690    1.000
    C30      C        0.82250    0.43090    0.59020    1.000
    C31      C        0.86440    0.43280    0.48770    1.000
    H43      H        0.94150    0.43380    0.47730    1.000
    C32      C        0.79380    0.43330    0.40040    1.000
    H44      H        0.82290    0.43430    0.33050    1.000
    C33      C        0.67870    0.43230    0.41520    1.000
    C34      C        0.64040    0.42990    0.51810    1.000
    H45      H        0.56340    0.42910    0.52940    1.000
    C35      C        0.70990    0.42860    0.60550    1.000
    H46      H        0.68080    0.42610    0.67540    1.000
    C36      C        0.60460    0.43230    0.32120    1.000
    H47      H        0.54210    0.40430    0.33560    1.000
    H48      H        0.64490    0.41520    0.25960    1.000
    C37      C        0.39500    0.57560    0.79200    1.000
    H49      H        0.40800    0.59590    0.86160    1.000
    H50      H        0.31510    0.57650    0.77710    1.000
    C38      C        0.43190    0.51090    0.79770    1.000
    C39      C        0.86770    0.83660    0.78060    1.000
    H51      H        0.88760    0.81980    0.85150    1.000
    H52      H        0.91330    0.87380    0.76820    1.000
    C40      C        0.75020    0.85520    0.78130    1.000
    C41      C        0.02600    0.48340    0.80310    1.000
    H53      H        0.07020    0.44570    0.78990    1.000
    H54      H        0.98330    0.47640    0.86880    1.000
    C42      C        0.10350    0.53820    0.82090    1.000
    C43      C        0.68310    0.83330    0.18980    1.000
    H55      H        0.64770    0.81530    0.12570    1.000
    H56      H        0.65090    0.87490    0.20120    1.000
    C44      C        0.80250    0.84060    0.16900    1.000
    C45      C        0.10370    0.56520    0.17780    1.000
    H57      H        0.18440    0.56060    0.18300    1.000
    H58      H        0.08640    0.59020    0.11370    1.000
    C46      C        0.04940    0.50040    0.16810    1.000
    C47      C        0.48050    0.48720    0.19970    1.000
    H59      H        0.52240    0.47660    0.13500    1.000
    H60      H        0.43170    0.45180    0.21580    1.000
    C48      C        0.41070    0.54330    0.17670    1.000
    Eu1      Eu       0.25718    0.45812    0.00340    1.000
    N1       N        0.76140    0.63070    0.68210    1.000
    N2       N        0.45540    0.61170    0.70500    1.000
    H61      H        0.45810    0.58750    0.64370    1.000
    N3       N        0.89420    0.78880    0.69720    1.000
    H62      H        0.85700    0.79930    0.63490    1.000
    N4       N        0.94840    0.49230    0.71260    1.000
    H63      H        0.98610    0.50660    0.65340    1.000
    N5       N        0.75870    0.62920    0.32240    1.000
    N6       N        0.65620    0.79310    0.28430    1.000
    H64      H        0.70220    0.80480    0.34020    1.000
    N7       N        0.06060    0.59780    0.27690    1.000
    H65      H        0.05920    0.57000    0.33330    1.000
    N8       N        0.55990    0.49570    0.29120    1.000
    H66      H        0.52160    0.51140    0.34900    1.000
    O1       O        0.37540    0.47760    0.86370    1.000
    O2       O        0.50910    0.49250    0.74250    1.000
    O3       O        0.68730    0.83000    0.71800    1.000
    O4       O        0.72770    0.89900    0.84440    1.000
    O5       O        0.09460    0.58470    0.76530    1.000
    O6       O        0.16530    0.53270    0.90250    1.000
    O7       O        0.87140    0.81260    0.22410    1.000
    O8       O        0.82180    0.87730    0.09340    1.000
    O9       O        0.97960    0.48280    0.23050    1.000
    O10      O        0.08890    0.46950    0.09090    1.000
    O11      O        0.41950    0.59070    0.23160    1.000
    O12      O        0.34450    0.53630    0.09800    1.000
    C49      C        0.35300    0.11240    0.34920    1.000
    H67      H        0.37480    0.13440    0.41520    1.000
    H68      H        0.35600    0.06730    0.36320    1.000
    C50      C        0.43000    0.12850    0.26220    1.000
    H69      H        0.42570    0.17340    0.24690    1.000
    H70      H        0.40950    0.10560    0.19670    1.000
    C51      C        0.21210    0.19530    0.35320    1.000
    H71      H        0.28050    0.21890    0.36630    1.000
    H72      H        0.16960    0.19420    0.42010    1.000
    C52      C        0.14590    0.22560    0.26660    1.000
    H73      H        0.08220    0.19910    0.24800    1.000
    H74      H        0.19150    0.23040    0.20220    1.000
    C53      C        0.15610    0.08580    0.34650    1.000
    H75      H        0.08500    0.10680    0.35860    1.000
    H76      H        0.17780    0.06410    0.41280    1.000
    C54      C        0.14560    0.04030    0.25660    1.000
    H77      H        0.21600    0.01830    0.24600    1.000
    H78      H        0.12600    0.06210    0.18980    1.000
    C55      C        0.25960    0.19410    0.65030    1.000
    H79      H        0.18830    0.21520    0.63920    1.000
    H80      H        0.30180    0.19690    0.58340    1.000
    C56      C        0.32250    0.22550    0.73950    1.000
    H81      H        0.28010    0.22220    0.80620    1.000
    H82      H        0.39340    0.20400    0.75050    1.000
    C57      C        0.13080    0.10660    0.65220    1.000
    H83      H        0.13270    0.06130    0.64020    1.000
    H84      H        0.10340    0.12670    0.58630    1.000
    C58      C        0.05520    0.12160    0.74450    1.000
    H85      H        0.05310    0.16700    0.75540    1.000
    H86      H        0.08440    0.10230    0.81040    1.000
    C59      C        0.32930    0.08750    0.64670    1.000
    H87      H        0.39710    0.11150    0.63330    1.000
    H88      H        0.30880    0.06540    0.58050    1.000
    C60      C        0.34950    0.04080    0.73650    1.000
    H89      H        0.36960    0.06330    0.80240    1.000
    H90      H        0.28100    0.01750    0.75010    1.000
    C61      C        0.61490    0.16990    0.31800    1.000
    H91      H        0.69160    0.15740    0.33260    1.000
    H92      H        0.61450    0.19720    0.25460    1.000
    C62      C        0.57080    0.20500    0.41220    1.000
    C63      C        0.51130    0.25750    0.39890    1.000
    H93      H        0.49650    0.27210    0.32890    1.000
    C64      C        0.47100    0.29110    0.48640    1.000
    H94      H        0.42640    0.32670    0.47580    1.000
    C65      C        0.49780    0.27100    0.58920    1.000
    C66      C        0.56180    0.21750    0.60330    1.000
    H95      H        0.58070    0.20380    0.67300    1.000
    C67      C        0.59750    0.18450    0.51470    1.000
    H96      H        0.64020    0.14800    0.52390    1.000
    C68      C        0.45710    0.30760    0.68470    1.000
    H97      H        0.50640    0.29920    0.74610    1.000
    H98      H        0.46210    0.35230    0.66830    1.000
    C69      C        0.98570    0.28930    0.32500    1.000
    H99      H        0.96180    0.33270    0.33510    1.000
    H100     H        0.94610    0.27260    0.26220    1.000
    C70      C        0.95450    0.25320    0.41920    1.000
    C71      C        0.91070    0.19490    0.40980    1.000
    H101     H        0.90020    0.17750    0.34100    1.000
    C72      C        0.88170    0.16100    0.49800    1.000
    H102     H        0.85310    0.12040    0.48930    1.000
    C73      C        0.89380    0.18560    0.59930    1.000
    C74      C        0.93510    0.24420    0.60990    1.000
    H103     H        0.94230    0.26210    0.67880    1.000
    C75      C        0.96660    0.27820    0.52040    1.000
    H104     H        0.99640    0.31860    0.52900    1.000
    C76      C        0.85980    0.15020    0.69710    1.000
    H105     H        0.78550    0.13270    0.68550    1.000
    H106     H        0.85620    0.17900    0.75840    1.000
    C77      C        0.10360    0.93030    0.31220    1.000
    H107     H        0.14710    0.91690    0.25010    1.000
    H108     H        0.04470    0.89940    0.32310    1.000
    C78      C        0.17750    0.93090    0.40980    1.000
    C79      C        0.13560    0.93280    0.51230    1.000
    H109     H        0.05850    0.93380    0.52270    1.000
    C80      C        0.20620    0.93330    0.59960    1.000
    H110     H        0.17710    0.93430    0.66950    1.000
    C81      C        0.32130    0.93230    0.58480    1.000
    C82      C        0.35960    0.92990    0.48190    1.000
    H111     H        0.43660    0.92910    0.47060    1.000
    C83      C        0.29010    0.92860    0.39450    1.000
    H112     H        0.31920    0.92610    0.32460    1.000
    C84      C        0.39540    0.93230    0.67880    1.000
    H113     H        0.45790    0.90430    0.66440    1.000
    H114     H        0.35510    0.91520    0.74040    1.000
    C85      C        0.60500    0.07560    0.20800    1.000
    H115     H        0.59200    0.09590    0.13840    1.000
    H116     H        0.68490    0.07650    0.22290    1.000
    C86      C        0.56810    0.01090    0.20230    1.000
    C87      C        0.13230    0.33660    0.21940    1.000
    H117     H        0.11240    0.31980    0.14850    1.000
    H118     H        0.08670    0.37380    0.23180    1.000
    C88      C        0.24980    0.35520    0.21870    1.000
    C89      C        0.97400    0.98340    0.19690    1.000
    H119     H        0.92980    0.94570    0.21010    1.000
    H120     H        0.01670    0.97640    0.13120    1.000
    C90      C        0.89650    0.03820    0.17910    1.000
    C91      C        0.31690    0.33330    0.81020    1.000
    H121     H        0.35230    0.31530    0.87430    1.000
    H122     H        0.34910    0.37490    0.79880    1.000
    C92      C        0.19750    0.34060    0.83100    1.000
    C93      C        0.89630    0.06520    0.82220    1.000
    H123     H        0.81560    0.06060    0.81700    1.000
    H124     H        0.91360    0.09020    0.88630    1.000
    C94      C        0.95060    0.00040    0.83190    1.000
    C95      C        0.51950    0.98720    0.80030    1.000
    H125     H        0.47760    0.97660    0.86500    1.000
    H126     H        0.56830    0.95180    0.78420    1.000
    C96      C        0.58930    0.04330    0.82330    1.000
    Eu2      Eu       0.74282    0.95812    0.99660    1.000
    N9       N        0.23860    0.13070    0.31790    1.000
    N10      N        0.54460    0.11170    0.29500    1.000
    H127     H        0.54190    0.08750    0.35630    1.000
    N11      N        0.10580    0.28880    0.30280    1.000
    H128     H        0.14300    0.29930    0.36510    1.000
    N12      N        0.05160    0.99230    0.28740    1.000
    H129     H        0.01390    0.00660    0.34660    1.000
    N13      N        0.24130    0.12920    0.67760    1.000
    N14      N        0.34380    0.29310    0.71570    1.000
    H130     H        0.29780    0.30480    0.65980    1.000
    N15      N        0.93940    0.09780    0.72310    1.000
    H131     H        0.94080    0.07000    0.66670    1.000
    N16      N        0.44010    0.99570    0.70880    1.000
    H132     H        0.47840    0.01140    0.65100    1.000
    O13      O        0.62460    0.97760    0.13630    1.000
    O14      O        0.49090    0.99250    0.25750    1.000
    O15      O        0.31270    0.33000    0.28200    1.000
    O16      O        0.27230    0.39900    0.15560    1.000
    O17      O        0.90540    0.08470    0.23470    1.000
    O18      O        0.83470    0.03270    0.09750    1.000
    O19      O        0.12860    0.31260    0.77590    1.000
    O20      O        0.17820    0.37730    0.90660    1.000
    O21      O        0.02040    0.98280    0.76950    1.000
    O22      O        0.91110    0.96950    0.90910    1.000
    O23      O        0.58050    0.09070    0.76840    1.000
    O24      O        0.65550    0.03630    0.90200    1.000
