data_functionalizedCrystal
_audit_creation_method	'EQeq! by Chris Wilmer'
_symmetry_space_group_name_H-M	'P1'
_symmetry_Int_Tables_number	1
_symmetry_cell_setting	triclinic
loop_
_symmetry_equiv_pos_as_xyz
  x,y,z
_cell_length_a	17.201
_cell_length_b	23.81
_cell_length_c	13.601
_cell_angle_alpha	90
_cell_angle_beta	90
_cell_angle_gamma	90
loop_
_atom_site_label
_atom_site_type_symbol
_atom_site_fract_x
_atom_site_fract_y
_atom_site_fract_z
_atom_site_charge
Mof_Co	Co	0.35195	0.57257	0.51642	1.151
Mof_O 	O 	0.3571	0.49356	0.4656	-0.413
Mof_O 	O 	0.3092	0.54821	0.3489	-0.35
Mof_O 	O 	0.528	0.0946	0.0477	-0.383
Mof_O 	O 	0.6143	0.1581	0.0189	-0.423
Mof_O 	O 	0.3275	0.31364	0.1238	-0.331
Mof_N 	N 	0.4031	0.55496	0.6502	-0.238
Mof_N 	N 	0.4737	0.50403	0.7514	-0.101
Mof_N 	N 	0.6385	0.36994	0.8745	-0.107
Mof_N 	N 	0.7403	0.40645	0.9492	-0.248
Mof_C 	C 	0.3334	0.4516	0.3099	-0.207
Mof_C 	C 	0.2971	0.4536	0.2206	0.175
Mof_H 	H 	0.2717	0.4863	0.2016	-0.026
Mof_C 	C 	0.2974	0.4075	0.1574	-0.304
Mof_H 	H 	0.2721	0.4092	0.097	0.149
Mof_C 	C 	0.3356	0.3594	0.1859	0.321
Mof_C 	C 	0.3733	0.3567	0.2752	-0.312
Mof_H 	H 	0.3989	0.324	0.2941	0.142
Mof_C 	C 	0.3725	0.4029	0.3364	0.174
Mof_H 	H 	0.3986	0.4015	0.3962	-0.01
Mof_C 	C 	0.3322	0.5006	0.3769	0.336
Mof_C 	C 	0.3866	0.2745	0.1127	0.325
Mof_C 	C 	0.3633	0.2203	0.0966	-0.316
Mof_H 	H 	0.3105	0.2121	0.0988	0.167
Mof_C 	C 	0.4145	0.178	0.0775	0.176
Mof_H 	H 	0.3975	0.1412	0.0694	-0.012
Mof_C 	C 	0.492	0.1914	0.0705	-0.182
Mof_C 	C 	0.5185	0.2455	0.0874	0.141
Mof_H 	H 	0.5712	0.2538	0.083	-0.005
Mof_C 	C 	0.4635	0.2887	0.1117	-0.292
Mof_H 	H 	0.4797	0.3251	0.1263	0.134
Mof_C 	C 	0.5515	0.1427	0.0418	0.379
Mof_C 	C 	0.4429	0.5081	0.6616	0.08
Mof_H 	H 	0.4489	0.4811	0.6128	0.025
Mof_C 	C 	0.4537	0.5518	0.7999	-0.015
Mof_H 	H 	0.4673	0.5614	0.8639	0.037
Mof_C 	C 	0.4099	0.5832	0.7366	0.019
Mof_H 	H 	0.3883	0.6181	0.7505	0.012
Mof_C 	C 	0.5191	0.4574	0.7892	-0.113
Mof_H 	H 	0.5464	0.4694	0.8479	0.076
Mof_H 	H 	0.5577	0.4468	0.7406	0.084
Mof_C 	C 	0.4694	0.4059	0.8139	0.04
Mof_C 	C 	0.5049	0.3535	0.8189	0.026
Mof_C 	C 	0.4595	0.3067	0.8429	-0.068
Mof_H 	H 	0.4826	0.2714	0.846	0.056
Mof_C 	C 	0.3798	0.3121	0.8623	-0.027
Mof_H 	H 	0.3501	0.2805	0.8767	0.046
Mof_C 	C 	0.3459	0.3643	0.8601	-0.021
Mof_H 	H 	0.2935	0.3685	0.8752	0.046
Mof_C 	C 	0.391	0.4108	0.8349	-0.078
Mof_H 	H 	0.3678	0.446	0.8321	0.069
Mof_C 	C 	0.5902	0.3453	0.7976	-0.105
Mof_H 	H 	0.6012	0.3054	0.7926	0.07
Mof_H 	H 	0.6028	0.3625	0.7349	0.073
Mof_C 	C 	0.7092	0.3909	0.8647	0.092
Mof_H 	H 	0.7345	0.3943	0.8046	0.001
Mof_C 	C 	0.6847	0.3947	0.0157	0.017
Mof_H 	H 	0.6885	0.4015	0.0829	0.022
Mof_C 	C 	0.6221	0.3714	0.9706	-0.012
Mof_H 	H 	0.5767	0.3589	0.0006	0.04
Mof_Co	Co	0.14805	0.92743	0.51642	1.15
Mof_O 	O 	0.1429	0.00644	0.4656	-0.41
Mof_O 	O 	0.1908	0.95179	0.3489	-0.35
Mof_O 	O 	0.972	0.4054	0.0477	-0.383
Mof_O 	O 	0.8857	0.3419	0.0189	-0.424
Mof_O 	O 	0.1725	0.18636	0.1238	-0.332
Mof_N 	N 	0.0969	0.94504	0.6502	-0.238
Mof_N 	N 	0.0263	0.99597	0.7514	-0.097
Mof_N 	N 	0.8615	0.13006	0.8745	-0.107
Mof_N 	N 	0.7597	0.09355	0.9492	-0.25
Mof_C 	C 	0.1666	0.0484	0.3099	-0.202
Mof_C 	C 	0.2029	0.0464	0.2206	0.172
Mof_H 	H 	0.2283	0.0137	0.2016	-0.024
Mof_C 	C 	0.2026	0.0925	0.1574	-0.302
Mof_H 	H 	0.2279	0.0908	0.097	0.149
Mof_C 	C 	0.1644	0.1406	0.1859	0.32
Mof_C 	C 	0.1267	0.1433	0.2752	-0.31
Mof_H 	H 	0.1011	0.176	0.2941	0.141
Mof_C 	C 	0.1275	0.0971	0.3364	0.172
Mof_H 	H 	0.1014	0.0985	0.3962	-0.008
Mof_C 	C 	0.1678	0.9994	0.3769	0.331
Mof_C 	C 	0.1134	0.2255	0.1127	0.329
Mof_C 	C 	0.1367	0.2797	0.0966	-0.322
Mof_H 	H 	0.1895	0.2879	0.0988	0.169
Mof_C 	C 	0.0855	0.322	0.0775	0.183
Mof_H 	H 	0.1025	0.3588	0.0694	-0.015
Mof_C 	C 	0.008	0.3086	0.0705	-0.192
Mof_C 	C 	0.9815	0.2545	0.0874	0.151
Mof_H 	H 	0.9288	0.2462	0.083	-0.008
Mof_C 	C 	0.0365	0.2113	0.1117	-0.3
Mof_H 	H 	0.0203	0.1749	0.1263	0.136
Mof_C 	C 	0.9485	0.3573	0.0418	0.384
Mof_C 	C 	0.0571	0.9919	0.6616	0.075
Mof_H 	H 	0.0511	0.0189	0.6128	0.028
Mof_C 	C 	0.0463	0.9482	0.7999	-0.017
Mof_H 	H 	0.0327	0.9386	0.8639	0.037
Mof_C 	C 	0.0901	0.9168	0.7366	0.019
Mof_H 	H 	0.1117	0.8819	0.7505	0.012
Mof_C 	C 	0.9809	0.0426	0.7892	-0.129
Mof_H 	H 	0.9536	0.0306	0.8479	0.079
Mof_H 	H 	0.9423	0.0532	0.7406	0.088
Mof_C 	C 	0.0306	0.0941	0.8139	0.06
Mof_C 	C 	0.9951	0.1465	0.8189	0.006
Mof_C 	C 	0.0405	0.1933	0.8429	-0.049
Mof_H 	H 	0.0174	0.2286	0.846	0.051
Mof_C 	C 	0.1202	0.1879	0.8623	-0.043
Mof_H 	H 	0.1499	0.2195	0.8767	0.052
Mof_C 	C 	0.1541	0.1357	0.8601	-0.005
Mof_H 	H 	0.2065	0.1315	0.8752	0.04
Mof_C 	C 	0.109	0.0892	0.8349	-0.094
Mof_H 	H 	0.1322	0.054	0.8321	0.075
Mof_C 	C 	0.9098	0.1547	0.7976	-0.096
Mof_H 	H 	0.8988	0.1946	0.7926	0.067
Mof_H 	H 	0.8972	0.1375	0.7349	0.07
Mof_C 	C 	0.7908	0.1091	0.8647	0.092
Mof_H 	H 	0.7655	0.1057	0.8046	0.001
Mof_C 	C 	0.8153	0.1053	0.0157	0.026
Mof_H 	H 	0.8115	0.0985	0.0829	0.019
Mof_C 	C 	0.8779	0.1286	0.9706	-0.023
Mof_H 	H 	0.9233	0.1411	0.0006	0.046
Mof_Co	Co	0.64805	0.07257	0.98358	1.15
Mof_O 	O 	0.6429	0.99356	0.0344	-0.413
Mof_O 	O 	0.6908	0.04821	0.1511	-0.35
Mof_O 	O 	0.472	0.5946	0.4523	-0.384
Mof_O 	O 	0.3857	0.6581	0.4811	-0.425
Mof_O 	O 	0.6725	0.81364	0.3762	-0.331
Mof_N 	N 	0.5969	0.05496	0.8498	-0.238
Mof_N 	N 	0.5263	0.00403	0.7486	-0.101
Mof_N 	N 	0.3615	0.86994	0.6255	-0.108
Mof_N 	N 	0.2597	0.90645	0.5508	-0.246
Mof_C 	C 	0.6666	0.9516	0.1901	-0.208
Mof_C 	C 	0.7029	0.9536	0.2794	0.175
Mof_H 	H 	0.7283	0.9863	0.2984	-0.026
Mof_C 	C 	0.7026	0.9075	0.3426	-0.305
Mof_H 	H 	0.7279	0.9092	0.403	0.15
Mof_C 	C 	0.6644	0.8594	0.3141	0.322
Mof_C 	C 	0.6267	0.8567	0.2248	-0.312
Mof_H 	H 	0.6011	0.824	0.2059	0.142
Mof_C 	C 	0.6275	0.9029	0.1636	0.175
Mof_H 	H 	0.6014	0.9015	0.1038	-0.01
Mof_C 	C 	0.6678	0.0006	0.1231	0.337
Mof_C 	C 	0.6134	0.7745	0.3873	0.325
Mof_C 	C 	0.6367	0.7203	0.4034	-0.316
Mof_H 	H 	0.6895	0.7121	0.4012	0.167
Mof_C 	C 	0.5855	0.678	0.4225	0.176
Mof_H 	H 	0.6025	0.6412	0.4306	-0.012
Mof_C 	C 	0.508	0.6914	0.4295	-0.183
Mof_C 	C 	0.4815	0.7455	0.4126	0.141
Mof_H 	H 	0.4288	0.7538	0.417	-0.005
Mof_C 	C 	0.5365	0.7887	0.3883	-0.292
Mof_H 	H 	0.5203	0.8251	0.3737	0.134
Mof_C 	C 	0.4485	0.6427	0.4582	0.38
Mof_C 	C 	0.5571	0.0081	0.8384	0.077
Mof_H 	H 	0.5511	0.9811	0.8872	0.027
Mof_C 	C 	0.5463	0.0518	0.7001	-0.015
Mof_H 	H 	0.5327	0.0614	0.6361	0.037
Mof_C 	C 	0.5901	0.0832	0.7634	0.019
Mof_H 	H 	0.6117	0.1181	0.7495	0.012
Mof_C 	C 	0.4809	0.9574	0.7108	-0.112
Mof_H 	H 	0.4536	0.9694	0.6521	0.076
Mof_H 	H 	0.4423	0.9468	0.7594	0.084
Mof_C 	C 	0.5306	0.9059	0.6861	0.04
Mof_C 	C 	0.4951	0.8535	0.6811	0.026
Mof_C 	C 	0.5405	0.8067	0.6571	-0.068
Mof_H 	H 	0.5174	0.7714	0.654	0.057
Mof_C 	C 	0.6202	0.8121	0.6377	-0.027
Mof_H 	H 	0.6499	0.7805	0.6233	0.046
Mof_C 	C 	0.6541	0.8643	0.6399	-0.02
Mof_H 	H 	0.7065	0.8685	0.6248	0.046
Mof_C 	C 	0.609	0.9108	0.6651	-0.078
Mof_H 	H 	0.6322	0.946	0.6679	0.069
Mof_C 	C 	0.4098	0.8453	0.7024	-0.105
Mof_H 	H 	0.3988	0.8054	0.7074	0.07
Mof_H 	H 	0.3972	0.8625	0.7651	0.073
Mof_C 	C 	0.2908	0.8909	0.6353	0.092
Mof_H 	H 	0.2655	0.8943	0.6954	0.001
Mof_C 	C 	0.3153	0.8947	0.4843	0.011
Mof_H 	H 	0.3115	0.9015	0.4171	0.024
Mof_C 	C 	0.3779	0.8714	0.5294	-0.006
Mof_H 	H 	0.4233	0.8589	0.4994	0.037
Mof_Co	Co	0.85195	0.42743	0.98358	1.149
Mof_O 	O 	0.8571	0.50644	0.0344	-0.412
Mof_O 	O 	0.8092	0.45179	0.1511	-0.35
Mof_O 	O 	0.028	0.9054	0.4523	-0.385
Mof_O 	O 	0.1143	0.8419	0.4811	-0.424
Mof_O 	O 	0.8275	0.68636	0.3762	-0.33
Mof_N 	N 	0.9031	0.44504	0.8498	-0.239
Mof_N 	N 	0.9737	0.49597	0.7486	-0.102
Mof_N 	N 	0.1385	0.63006	0.6255	-0.108
Mof_N 	N 	0.2403	0.59355	0.5508	-0.246
Mof_C 	C 	0.8334	0.5484	0.1901	-0.206
Mof_C 	C 	0.7971	0.5464	0.2794	0.174
Mof_H 	H 	0.7717	0.5137	0.2984	-0.026
Mof_C 	C 	0.7974	0.5925	0.3426	-0.304
Mof_H 	H 	0.7721	0.5908	0.403	0.149
Mof_C 	C 	0.8356	0.6406	0.3141	0.321
Mof_C 	C 	0.8733	0.6433	0.2248	-0.311
Mof_H 	H 	0.8989	0.676	0.2059	0.142
Mof_C 	C 	0.8725	0.5971	0.1636	0.174
Mof_H 	H 	0.8986	0.5985	0.1038	-0.009
Mof_C 	C 	0.8322	0.4994	0.1231	0.336
Mof_C 	C 	0.8866	0.7255	0.3873	0.32
Mof_C 	C 	0.8633	0.7797	0.4034	-0.31
Mof_H 	H 	0.8105	0.7879	0.4012	0.165
Mof_C 	C 	0.9145	0.822	0.4225	0.17
Mof_H 	H 	0.8975	0.8588	0.4306	-0.01
Mof_C 	C 	0.992	0.8086	0.4295	-0.174
Mof_C 	C 	0.0185	0.7545	0.4126	0.131
Mof_H 	H 	0.0712	0.7462	0.417	-0.002
Mof_C 	C 	0.9635	0.7113	0.3883	-0.284
Mof_H 	H 	0.9797	0.6749	0.3737	0.132
Mof_C 	C 	0.0515	0.8573	0.4582	0.376
Mof_C 	C 	0.9429	0.4919	0.8384	0.08
Mof_H 	H 	0.9489	0.5189	0.8872	0.024
Mof_C 	C 	0.9537	0.4482	0.7001	-0.015
Mof_H 	H 	0.9673	0.4386	0.6361	0.036
Mof_C 	C 	0.9099	0.4168	0.7634	0.018
Mof_H 	H 	0.8883	0.3819	0.7495	0.012
Mof_C 	C 	0.0191	0.5426	0.7108	-0.109
Mof_H 	H 	0.0464	0.5306	0.6521	0.075
Mof_H 	H 	0.0577	0.5532	0.7594	0.083
Mof_C 	C 	0.9694	0.5941	0.6861	0.036
Mof_C 	C 	0.0049	0.6465	0.6811	0.029
Mof_C 	C 	0.9595	0.6933	0.6571	-0.071
Mof_H 	H 	0.9826	0.7286	0.654	0.058
Mof_C 	C 	0.8798	0.6879	0.6377	-0.025
Mof_H 	H 	0.8501	0.7195	0.6233	0.045
Mof_C 	C 	0.8459	0.6357	0.6399	-0.023
Mof_H 	H 	0.7935	0.6315	0.6248	0.047
Mof_C 	C 	0.891	0.5892	0.6651	-0.075
Mof_H 	H 	0.8678	0.554	0.6679	0.068
Mof_C 	C 	0.0902	0.6547	0.7024	-0.107
Mof_H 	H 	0.1012	0.6946	0.7074	0.07
Mof_H 	H 	0.1028	0.6375	0.7651	0.074
Mof_C 	C 	0.2092	0.6091	0.6353	0.092
Mof_H 	H 	0.2345	0.6057	0.6954	0.001
Mof_C 	C 	0.1847	0.6053	0.4843	0.011
Mof_H 	H 	0.1885	0.5985	0.4171	0.024
Mof_C 	C 	0.1221	0.6286	0.5294	-0.006
Mof_H 	H 	0.0767	0.6411	0.4994	0.037
Mof_Co	Co	0.64805	0.42743	0.48358	1.151
Mof_O 	O 	0.6429	0.50644	0.5344	-0.413
Mof_O 	O 	0.6908	0.45179	0.6511	-0.35
Mof_O 	O 	0.472	0.9054	0.9523	-0.383
Mof_O 	O 	0.3857	0.8419	0.9811	-0.423
Mof_O 	O 	0.6725	0.68636	0.8762	-0.331
Mof_N 	N 	0.5969	0.44504	0.3498	-0.238
Mof_N 	N 	0.5263	0.49597	0.2486	-0.101
Mof_N 	N 	0.3615	0.63006	0.1255	-0.107
Mof_N 	N 	0.2597	0.59355	0.0508	-0.248
Mof_C 	C 	0.6666	0.5484	0.6901	-0.207
Mof_C 	C 	0.7029	0.5464	0.7794	0.175
Mof_H 	H 	0.7283	0.5137	0.7984	-0.026
Mof_C 	C 	0.7026	0.5925	0.8426	-0.304
Mof_H 	H 	0.7279	0.5908	0.903	0.149
Mof_C 	C 	0.6644	0.6406	0.8141	0.321
Mof_C 	C 	0.6267	0.6433	0.7248	-0.312
Mof_H 	H 	0.6011	0.676	0.7059	0.142
Mof_C 	C 	0.6275	0.5971	0.6636	0.174
Mof_H 	H 	0.6014	0.5985	0.6038	-0.01
Mof_C 	C 	0.6678	0.4994	0.6231	0.336
Mof_C 	C 	0.6134	0.7255	0.8873	0.325
Mof_C 	C 	0.6367	0.7797	0.9034	-0.316
Mof_H 	H 	0.6895	0.7879	0.9012	0.167
Mof_C 	C 	0.5855	0.822	0.9225	0.176
Mof_H 	H 	0.6025	0.8588	0.9306	-0.012
Mof_C 	C 	0.508	0.8086	0.9295	-0.182
Mof_C 	C 	0.4815	0.7545	0.9126	0.141
Mof_H 	H 	0.4288	0.7462	0.917	-0.005
Mof_C 	C 	0.5365	0.7113	0.8883	-0.292
Mof_H 	H 	0.5203	0.6749	0.8737	0.134
Mof_C 	C 	0.4485	0.8573	0.9582	0.379
Mof_C 	C 	0.5571	0.4919	0.3384	0.08
Mof_H 	H 	0.5511	0.5189	0.3872	0.025
Mof_C 	C 	0.5463	0.4482	0.2001	-0.015
Mof_H 	H 	0.5327	0.4386	0.1361	0.037
Mof_C 	C 	0.5901	0.4168	0.2634	0.019
Mof_H 	H 	0.6117	0.3819	0.2495	0.012
Mof_C 	C 	0.4809	0.5426	0.2108	-0.113
Mof_H 	H 	0.4536	0.5306	0.1521	0.076
Mof_H 	H 	0.4423	0.5532	0.2594	0.084
Mof_C 	C 	0.5306	0.5941	0.1861	0.04
Mof_C 	C 	0.4951	0.6465	0.1811	0.026
Mof_C 	C 	0.5405	0.6933	0.1571	-0.068
Mof_H 	H 	0.5174	0.7286	0.154	0.056
Mof_C 	C 	0.6202	0.6879	0.1377	-0.027
Mof_H 	H 	0.6499	0.7195	0.1233	0.046
Mof_C 	C 	0.6541	0.6357	0.1399	-0.021
Mof_H 	H 	0.7065	0.6315	0.1248	0.046
Mof_C 	C 	0.609	0.5892	0.1651	-0.078
Mof_H 	H 	0.6322	0.554	0.1679	0.069
Mof_C 	C 	0.4098	0.6547	0.2024	-0.105
Mof_H 	H 	0.3988	0.6946	0.2074	0.07
Mof_H 	H 	0.3972	0.6375	0.2651	0.073
Mof_C 	C 	0.2908	0.6091	0.1353	0.092
Mof_H 	H 	0.2655	0.6057	0.1954	0.001
Mof_C 	C 	0.3153	0.6053	0.9843	0.017
Mof_H 	H 	0.3115	0.5985	0.9171	0.022
Mof_C 	C 	0.3779	0.6286	0.0294	-0.012
Mof_H 	H 	0.4233	0.6411	0.9994	0.04
Mof_Co	Co	0.85195	0.07257	0.48358	1.15
Mof_O 	O 	0.8571	0.99356	0.5344	-0.41
Mof_O 	O 	0.8092	0.04821	0.6511	-0.35
Mof_O 	O 	0.028	0.5946	0.9523	-0.383
Mof_O 	O 	0.1143	0.6581	0.9811	-0.424
Mof_O 	O 	0.8275	0.81364	0.8762	-0.332
Mof_N 	N 	0.9031	0.05496	0.3498	-0.238
Mof_N 	N 	0.9737	0.00403	0.2486	-0.097
Mof_N 	N 	0.1385	0.86994	0.1255	-0.107
Mof_N 	N 	0.2403	0.90645	0.0508	-0.25
Mof_C 	C 	0.8334	0.9516	0.6901	-0.202
Mof_C 	C 	0.7971	0.9536	0.7794	0.172
Mof_H 	H 	0.7717	0.9863	0.7984	-0.024
Mof_C 	C 	0.7974	0.9075	0.8426	-0.302
Mof_H 	H 	0.7721	0.9092	0.903	0.149
Mof_C 	C 	0.8356	0.8594	0.8141	0.32
Mof_C 	C 	0.8733	0.8567	0.7248	-0.31
Mof_H 	H 	0.8989	0.824	0.7059	0.141
Mof_C 	C 	0.8725	0.9029	0.6636	0.172
Mof_H 	H 	0.8986	0.9015	0.6038	-0.008
Mof_C 	C 	0.8322	0.0006	0.6231	0.331
Mof_C 	C 	0.8866	0.7745	0.8873	0.329
Mof_C 	C 	0.8633	0.7203	0.9034	-0.322
Mof_H 	H 	0.8105	0.7121	0.9012	0.169
Mof_C 	C 	0.9145	0.678	0.9225	0.183
Mof_H 	H 	0.8975	0.6412	0.9306	-0.015
Mof_C 	C 	0.992	0.6914	0.9295	-0.192
Mof_C 	C 	0.0185	0.7455	0.9126	0.151
Mof_H 	H 	0.0712	0.7538	0.917	-0.008
Mof_C 	C 	0.9635	0.7887	0.8883	-0.3
Mof_H 	H 	0.9797	0.8251	0.8737	0.136
Mof_C 	C 	0.0515	0.6427	0.9582	0.384
Mof_C 	C 	0.9429	0.0081	0.3384	0.075
Mof_H 	H 	0.9489	0.9811	0.3872	0.028
Mof_C 	C 	0.9537	0.0518	0.2001	-0.017
Mof_H 	H 	0.9673	0.0614	0.1361	0.037
Mof_C 	C 	0.9099	0.0832	0.2634	0.019
Mof_H 	H 	0.8883	0.1181	0.2495	0.012
Mof_C 	C 	0.0191	0.9574	0.2108	-0.129
Mof_H 	H 	0.0464	0.9694	0.1521	0.079
Mof_H 	H 	0.0577	0.9468	0.2594	0.088
Mof_C 	C 	0.9694	0.9059	0.1861	0.06
Mof_C 	C 	0.0049	0.8535	0.1811	0.006
Mof_C 	C 	0.9595	0.8067	0.1571	-0.049
Mof_H 	H 	0.9826	0.7714	0.154	0.051
Mof_C 	C 	0.8798	0.8121	0.1377	-0.043
Mof_H 	H 	0.8501	0.7805	0.1233	0.052
Mof_C 	C 	0.8459	0.8643	0.1399	-0.005
Mof_H 	H 	0.7935	0.8685	0.1248	0.04
Mof_C 	C 	0.891	0.9108	0.1651	-0.094
Mof_H 	H 	0.8678	0.946	0.1679	0.075
Mof_C 	C 	0.0902	0.8453	0.2024	-0.096
Mof_H 	H 	0.1012	0.8054	0.2074	0.067
Mof_H 	H 	0.1028	0.8625	0.2651	0.07
Mof_C 	C 	0.2092	0.8909	0.1353	0.092
Mof_H 	H 	0.2345	0.8943	0.1954	0.001
Mof_C 	C 	0.1847	0.8947	0.9843	0.026
Mof_H 	H 	0.1885	0.9015	0.9171	0.019
Mof_C 	C 	0.1221	0.8714	0.0294	-0.023
Mof_H 	H 	0.0767	0.8589	0.9994	0.046
Mof_Co	Co	0.35195	0.92743	0.01642	1.15
Mof_O 	O 	0.3571	0.00644	0.9656	-0.413
Mof_O 	O 	0.3092	0.95179	0.8489	-0.35
Mof_O 	O 	0.528	0.4054	0.5477	-0.384
Mof_O 	O 	0.6143	0.3419	0.5189	-0.425
Mof_O 	O 	0.3275	0.18636	0.6238	-0.331
Mof_N 	N 	0.4031	0.94504	0.1502	-0.238
Mof_N 	N 	0.4737	0.99597	0.2514	-0.101
Mof_N 	N 	0.6385	0.13006	0.3745	-0.108
Mof_N 	N 	0.7403	0.09355	0.4492	-0.246
Mof_C 	C 	0.3334	0.0484	0.8099	-0.208
Mof_C 	C 	0.2971	0.0464	0.7206	0.175
Mof_H 	H 	0.2717	0.0137	0.7016	-0.026
Mof_C 	C 	0.2974	0.0925	0.6574	-0.305
Mof_H 	H 	0.2721	0.0908	0.597	0.15
Mof_C 	C 	0.3356	0.1406	0.6859	0.322
Mof_C 	C 	0.3733	0.1433	0.7752	-0.312
Mof_H 	H 	0.3989	0.176	0.7941	0.142
Mof_C 	C 	0.3725	0.0971	0.8364	0.175
Mof_H 	H 	0.3986	0.0985	0.8962	-0.01
Mof_C 	C 	0.3322	0.9994	0.8769	0.337
Mof_C 	C 	0.3866	0.2255	0.6127	0.325
Mof_C 	C 	0.3633	0.2797	0.5966	-0.316
Mof_H 	H 	0.3105	0.2879	0.5988	0.167
Mof_C 	C 	0.4145	0.322	0.5775	0.176
Mof_H 	H 	0.3975	0.3588	0.5694	-0.012
Mof_C 	C 	0.492	0.3086	0.5705	-0.183
Mof_C 	C 	0.5185	0.2545	0.5874	0.141
Mof_H 	H 	0.5712	0.2462	0.583	-0.005
Mof_C 	C 	0.4635	0.2113	0.6117	-0.292
Mof_H 	H 	0.4797	0.1749	0.6263	0.134
Mof_C 	C 	0.5515	0.3573	0.5418	0.38
Mof_C 	C 	0.4429	0.9919	0.1616	0.077
Mof_H 	H 	0.4489	0.0189	0.1128	0.027
Mof_C 	C 	0.4537	0.9482	0.2999	-0.015
Mof_H 	H 	0.4673	0.9386	0.3639	0.037
Mof_C 	C 	0.4099	0.9168	0.2366	0.019
Mof_H 	H 	0.3883	0.8819	0.2505	0.012
Mof_C 	C 	0.5191	0.0426	0.2892	-0.112
Mof_H 	H 	0.5464	0.0306	0.3479	0.076
Mof_H 	H 	0.5577	0.0532	0.2406	0.084
Mof_C 	C 	0.4694	0.0941	0.3139	0.04
Mof_C 	C 	0.5049	0.1465	0.3189	0.026
Mof_C 	C 	0.4595	0.1933	0.3429	-0.068
Mof_H 	H 	0.4826	0.2286	0.346	0.057
Mof_C 	C 	0.3798	0.1879	0.3623	-0.027
Mof_H 	H 	0.3501	0.2195	0.3767	0.046
Mof_C 	C 	0.3459	0.1357	0.3601	-0.02
Mof_H 	H 	0.2935	0.1315	0.3752	0.046
Mof_C 	C 	0.391	0.0892	0.3349	-0.078
Mof_H 	H 	0.3678	0.054	0.3321	0.069
Mof_C 	C 	0.5902	0.1547	0.2976	-0.105
Mof_H 	H 	0.6012	0.1946	0.2926	0.07
Mof_H 	H 	0.6028	0.1375	0.2349	0.073
Mof_C 	C 	0.7092	0.1091	0.3647	0.092
Mof_H 	H 	0.7345	0.1057	0.3046	0.001
Mof_C 	C 	0.6847	0.1053	0.5157	0.011
Mof_H 	H 	0.6885	0.0985	0.5829	0.024
Mof_C 	C 	0.6221	0.1286	0.4706	-0.006
Mof_H 	H 	0.5767	0.1411	0.5006	0.037
Mof_Co	Co	0.14805	0.57257	0.01642	1.149
Mof_O 	O 	0.1429	0.49356	0.9656	-0.412
Mof_O 	O 	0.1908	0.54821	0.8489	-0.35
Mof_O 	O 	0.972	0.0946	0.5477	-0.385
Mof_O 	O 	0.8857	0.1581	0.5189	-0.424
Mof_O 	O 	0.1725	0.31364	0.6238	-0.33
Mof_N 	N 	0.0969	0.55496	0.1502	-0.239
Mof_N 	N 	0.0263	0.50403	0.2514	-0.102
Mof_N 	N 	0.8615	0.36994	0.3745	-0.108
Mof_N 	N 	0.7597	0.40645	0.4492	-0.246
Mof_C 	C 	0.1666	0.4516	0.8099	-0.206
Mof_C 	C 	0.2029	0.4536	0.7206	0.174
Mof_H 	H 	0.2283	0.4863	0.7016	-0.026
Mof_C 	C 	0.2026	0.4075	0.6574	-0.304
Mof_H 	H 	0.2279	0.4092	0.597	0.149
Mof_C 	C 	0.1644	0.3594	0.6859	0.321
Mof_C 	C 	0.1267	0.3567	0.7752	-0.311
Mof_H 	H 	0.1011	0.324	0.7941	0.142
Mof_C 	C 	0.1275	0.4029	0.8364	0.174
Mof_H 	H 	0.1014	0.4015	0.8962	-0.009
Mof_C 	C 	0.1678	0.5006	0.8769	0.336
Mof_C 	C 	0.1134	0.2745	0.6127	0.32
Mof_C 	C 	0.1367	0.2203	0.5966	-0.31
Mof_H 	H 	0.1895	0.2121	0.5988	0.165
Mof_C 	C 	0.0855	0.178	0.5775	0.17
Mof_H 	H 	0.1025	0.1412	0.5694	-0.01
Mof_C 	C 	0.008	0.1914	0.5705	-0.174
Mof_C 	C 	0.9815	0.2455	0.5874	0.131
Mof_H 	H 	0.9288	0.2538	0.583	-0.002
Mof_C 	C 	0.0365	0.2887	0.6117	-0.284
Mof_H 	H 	0.0203	0.3251	0.6263	0.132
Mof_C 	C 	0.9485	0.1427	0.5418	0.376
Mof_C 	C 	0.0571	0.5081	0.1616	0.08
Mof_H 	H 	0.0511	0.4811	0.1128	0.024
Mof_C 	C 	0.0463	0.5518	0.2999	-0.015
Mof_H 	H 	0.0327	0.5614	0.3639	0.036
Mof_C 	C 	0.0901	0.5832	0.2366	0.018
Mof_H 	H 	0.1117	0.6181	0.2505	0.012
Mof_C 	C 	0.9809	0.4574	0.2892	-0.109
Mof_H 	H 	0.9536	0.4694	0.3479	0.075
Mof_H 	H 	0.9423	0.4468	0.2406	0.083
Mof_C 	C 	0.0306	0.4059	0.3139	0.036
Mof_C 	C 	0.9951	0.3535	0.3189	0.029
Mof_C 	C 	0.0405	0.3067	0.3429	-0.071
Mof_H 	H 	0.0174	0.2714	0.346	0.058
Mof_C 	C 	0.1202	0.3121	0.3623	-0.025
Mof_H 	H 	0.1499	0.2805	0.3767	0.045
Mof_C 	C 	0.1541	0.3643	0.3601	-0.023
Mof_H 	H 	0.2065	0.3685	0.3752	0.047
Mof_C 	C 	0.109	0.4108	0.3349	-0.075
Mof_H 	H 	0.1322	0.446	0.3321	0.068
Mof_C 	C 	0.9098	0.3453	0.2976	-0.107
Mof_H 	H 	0.8988	0.3054	0.2926	0.07
Mof_H 	H 	0.8972	0.3625	0.2349	0.074
Mof_C 	C 	0.7908	0.3909	0.3647	0.092
Mof_H 	H 	0.7655	0.3943	0.3046	0.001
Mof_C 	C 	0.8153	0.3947	0.5157	0.011
Mof_H 	H 	0.8115	0.4015	0.5829	0.024
Mof_C 	C 	0.8779	0.3714	0.4706	-0.006
Mof_H 	H 	0.9233	0.3589	0.5006	0.037
_end
