data_functionalizedCrystal
_audit_creation_method	'EQeq! by Chris Wilmer'
_symmetry_space_group_name_H-M	'P1'
_symmetry_Int_Tables_number	1
_symmetry_cell_setting	triclinic
loop_
_symmetry_equiv_pos_as_xyz
  x,y,z
_cell_length_a	24.529
_cell_length_b	9.3582
_cell_length_c	10.3822
_cell_angle_alpha	90
_cell_angle_beta	97.236
_cell_angle_gamma	90
loop_
_atom_site_label
_atom_site_type_symbol
_atom_site_fract_x
_atom_site_fract_y
_atom_site_fract_z
_atom_site_charge
Mof_C 	C 	0.23282	0.2957	0.5368	0.054
Mof_C 	C 	0.17809	0.3212	0.4929	-0.034
Mof_H 	H 	0.1624	0.2823	0.4145	0.068
Mof_C 	C 	0.1469	0.4038	0.5649	-0.107
Mof_C 	C 	0.1718	0.4605	0.6802	-0.02
Mof_H 	H 	0.1519	0.5154	0.7325	0.042
Mof_C 	C 	0.2272	0.4335	0.7164	0.019
Mof_H 	H 	0.2442	0.4743	0.7928	0.039
Mof_C 	C 	0.08699	0.4304	0.5198	0.467
Mof_N 	N 	0.25749	0.3522	0.6474	-0.113
Mof_N 	N 	0.9841	0.1827	0.254	0.172
Mof_O 	O 	0.07093	0.4022	0.4046	-0.468
Mof_O 	O 	0.05825	0.4778	0.5986	-0.526
Mof_O 	O 	0.9711	0.2469	0.3184	-0.227
Mof_C 	C 	0.73282	0.7957	0.5368	0.048
Mof_C 	C 	0.67809	0.8212	0.4929	-0.025
Mof_H 	H 	0.6624	0.7823	0.4145	0.063
Mof_C 	C 	0.6469	0.9038	0.5649	-0.119
Mof_C 	C 	0.6718	0.9605	0.6802	-0.007
Mof_H 	H 	0.6519	0.0154	0.7325	0.035
Mof_C 	C 	0.7272	0.9335	0.7164	0.013
Mof_H 	H 	0.7442	0.9743	0.7928	0.045
Mof_C 	C 	0.58699	0.9304	0.5198	0.487
Mof_N 	N 	0.75749	0.8522	0.6474	-0.108
Mof_N 	N 	0.4841	0.6827	0.254	0.055
Mof_O 	O 	0.57093	0.9022	0.4046	-0.482
Mof_O 	O 	0.55825	0.9778	0.5986	-0.539
Mof_O 	O 	0.4711	0.7469	0.3184	-0.257
Mof_C 	C 	0.76718	0.2957	0.9632	0.045
Mof_C 	C 	0.82191	0.3212	0.0071	-0.027
Mof_H 	H 	0.8376	0.2823	0.0855	0.069
Mof_C 	C 	0.8531	0.4038	0.9351	-0.098
Mof_C 	C 	0.8282	0.4605	0.8198	-0.02
Mof_H 	H 	0.8481	0.5154	0.7675	0.047
Mof_C 	C 	0.7728	0.4335	0.7836	0.022
Mof_H 	H 	0.7558	0.4743	0.7072	0.039
Mof_C 	C 	0.91301	0.4304	0.9802	0.456
Mof_N 	N 	0.74251	0.3522	0.8526	-0.112
Mof_N 	N 	0.0159	0.1827	0.246	-0.04
Mof_O 	O 	0.92907	0.4022	0.0954	-0.42
Mof_O 	O 	0.94175	0.4778	0.9014	-0.465
Mof_O 	O 	0.0289	0.2469	0.1816	-0.239
Mof_C 	C 	0.26718	0.7957	0.9632	0.052
Mof_C 	C 	0.32191	0.8212	0.0071	-0.032
Mof_H 	H 	0.3376	0.7823	0.0855	0.065
Mof_C 	C 	0.3531	0.9038	0.9351	-0.116
Mof_C 	C 	0.3282	0.9605	0.8198	-0.009
Mof_H 	H 	0.3481	0.0154	0.7675	0.035
Mof_C 	C 	0.2728	0.9335	0.7836	0.014
Mof_H 	H 	0.2558	0.9743	0.7072	0.041
Mof_C 	C 	0.41301	0.9304	0.9802	0.488
Mof_N 	N 	0.24251	0.8522	0.8526	-0.112
Mof_N 	N 	0.5159	0.6827	0.246	0.056
Mof_O 	O 	0.42907	0.9022	0.0954	-0.484
Mof_O 	O 	0.44175	0.9778	0.9014	-0.539
Mof_O 	O 	0.5289	0.7469	0.1816	-0.258
Mof_C 	C 	0.76718	0.7043	0.4632	0.058
Mof_C 	C 	0.82191	0.6788	0.5071	-0.04
Mof_H 	H 	0.8376	0.7177	0.5855	0.074
Mof_C 	C 	0.8531	0.5962	0.4351	-0.09
Mof_C 	C 	0.8282	0.5395	0.3198	-0.025
Mof_H 	H 	0.8481	0.4846	0.2675	0.049
Mof_C 	C 	0.7728	0.5665	0.2836	0.025
Mof_H 	H 	0.7558	0.5257	0.2072	0.038
Mof_C 	C 	0.91301	0.5696	0.4802	0.458
Mof_N 	N 	0.74251	0.6478	0.3526	-0.114
Mof_N 	N 	0.0159	0.8173	0.746	-0.039
Mof_O 	O 	0.92907	0.5978	0.5954	-0.421
Mof_O 	O 	0.94175	0.5222	0.4014	-0.465
Mof_O 	O 	0.0289	0.7531	0.6816	-0.24
Mof_C 	C 	0.26718	0.2043	0.4632	0.048
Mof_C 	C 	0.32191	0.1788	0.5071	-0.026
Mof_H 	H 	0.3376	0.2177	0.5855	0.063
Mof_C 	C 	0.3531	0.0962	0.4351	-0.119
Mof_C 	C 	0.3282	0.0395	0.3198	-0.008
Mof_H 	H 	0.3481	0.9846	0.2675	0.035
Mof_C 	C 	0.2728	0.0665	0.2836	0.013
Mof_H 	H 	0.2558	0.0257	0.2072	0.042
Mof_C 	C 	0.41301	0.0696	0.4802	0.487
Mof_N 	N 	0.24251	0.1478	0.3526	-0.111
Mof_N 	N 	0.5159	0.3173	0.746	0.055
Mof_O 	O 	0.42907	0.0978	0.5954	-0.482
Mof_O 	O 	0.44175	0.0222	0.4014	-0.539
Mof_O 	O 	0.5289	0.2531	0.6816	-0.257
Mof_C 	C 	0.23282	0.7043	0.0368	0.05
Mof_C 	C 	0.17809	0.6788	0.9929	-0.033
Mof_H 	H 	0.1624	0.7177	0.9145	0.066
Mof_C 	C 	0.1469	0.5962	0.0649	-0.108
Mof_C 	C 	0.1718	0.5395	0.1802	-0.019
Mof_H 	H 	0.1519	0.4846	0.2325	0.042
Mof_C 	C 	0.2272	0.5665	0.2164	0.019
Mof_H 	H 	0.2442	0.5257	0.2928	0.039
Mof_C 	C 	0.08699	0.5696	0.0198	0.468
Mof_N 	N 	0.25749	0.6478	0.1474	-0.113
Mof_N 	N 	0.9841	0.8173	0.754	0.171
Mof_O 	O 	0.07093	0.5978	0.9046	-0.468
Mof_O 	O 	0.05825	0.5222	0.0986	-0.526
Mof_O 	O 	0.9711	0.7531	0.8184	-0.227
Mof_C 	C 	0.73282	0.2043	0.0368	0.061
Mof_C 	C 	0.67809	0.1788	0.9929	-0.043
Mof_H 	H 	0.6624	0.2177	0.9145	0.069
Mof_C 	C 	0.6469	0.0962	0.0649	-0.11
Mof_C 	C 	0.6718	0.0395	0.1802	-0.012
Mof_H 	H 	0.6519	0.9846	0.2325	0.036
Mof_C 	C 	0.7272	0.0665	0.2164	0.017
Mof_H 	H 	0.7442	0.0257	0.2928	0.044
Mof_C 	C 	0.58699	0.0696	0.0198	0.489
Mof_N 	N 	0.75749	0.1478	0.1474	-0.11
Mof_N 	N 	0.4841	0.3173	0.754	0.056
Mof_O 	O 	0.57093	0.0978	0.9046	-0.485
Mof_O 	O 	0.55825	0.0222	0.0986	-0.539
Mof_O 	O 	0.4711	0.2531	0.8184	-0.258
Mof_Gd	Gd	4.46717e-34	0.48629	0.25	1.542
Mof_O 	O 	1.5027e-18	0.0499	0.25	-0.18
Mof_Gd	Gd	0.5	0.98629	0.25	1.732
Mof_O 	O 	0.5	0.5499	0.25	-0.133
Mof_Gd	Gd	1.34015e-33	0.51371	0.75	1.542
Mof_O 	O 	1.34015e-33	0.9501	0.75	-0.18
Mof_Gd	Gd	0.5	0.01371	0.75	1.732
Mof_O 	O 	0.5	0.4501	0.75	-0.133
_end
