data_functionalizedCrystal
_audit_creation_method	'EQeq! by Chris Wilmer'
_symmetry_space_group_name_H-M	'P1'
_symmetry_Int_Tables_number	1
_symmetry_cell_setting	triclinic
loop_
_symmetry_equiv_pos_as_xyz
  x,y,z
_cell_length_a	25.466
_cell_length_b	14.961
_cell_length_c	26.14
_cell_angle_alpha	90
_cell_angle_beta	94.842
_cell_angle_gamma	90
loop_
_atom_site_label
_atom_site_type_symbol
_atom_site_fract_x
_atom_site_fract_y
_atom_site_fract_z
_atom_site_charge
Mof_Gd	Gd	0.34824	0.26371	0.00658	1.451
Mof_C 	C 	0.2432	0.3197	0.9201	0.433
Mof_C 	C 	0.2555	0.3515	0.8683	-0.076
Mof_C 	C 	0.2201	0.3387	0.8252	-0.036
Mof_H 	H 	0.1878	0.3114	0.8289	0.085
Mof_C 	C 	0.2322	0.3659	0.7773	0.092
Mof_C 	C 	0.278	0.4124	0.7685	0.016
Mof_C 	C 	0.3121	0.4249	0.8125	0.08
Mof_C 	C 	0.3039	0.3943	0.8616	-0.028
Mof_H 	H 	0.3294	0.4018	0.8889	0.063
Mof_C 	C 	0.2918	0.4413	0.7156	-0.012
Mof_C 	C 	0.2738	0.5245	0.6946	0.117
Mof_C 	C 	0.2873	0.5558	0.6488	-0.092
Mof_H 	H 	0.2754	0.6116	0.6371	0.103
Mof_C 	C 	0.3182	0.5061	0.6198	0.006
Mof_C 	C 	0.3371	0.4233	0.6386	-0.092
Mof_H 	H 	0.3589	0.389	0.6196	0.118
Mof_C 	C 	0.3232	0.3932	0.6855	0.118
Mof_C 	C 	0.3347	0.5384	0.5679	0.322
Mof_C 	C 	0.3691	0.1825	0.8874	0.361
Mof_C 	C 	0.4078	0.1913	0.8459	-0.01
Mof_C 	C 	0.4042	0.1361	0.8043	-0.077
Mof_H 	H 	0.378	0.0927	0.801	0.119
Mof_C 	C 	0.4393	0.1442	0.7668	0.112
Mof_C 	C 	0.4801	0.2065	0.7696	0
Mof_C 	C 	0.4825	0.2627	0.8131	0.11
Mof_C 	C 	0.447	0.2555	0.8507	-0.07
Mof_H 	H 	0.4497	0.2937	0.8789	0.092
Mof_N 	N 	0.3627	0.472	0.8082	-0.004
Mof_N 	N 	0.1927	0.3449	0.7347	-0.004
Mof_N 	N 	0.2398	0.5818	0.7241	-0.009
Mof_N 	N 	0.3432	0.3011	0.7008	-0.003
Mof_N 	N 	0.5248	0.3286	0.8228	-0.005
Mof_N 	N 	0.4317	0.0849	0.722	-0.008
Mof_O 	O 	0.2778	0.3201	0.9555	-0.471
Mof_O 	O 	0.1958	0.2919	0.9237	-0.444
Mof_O 	O 	0.401	0.4471	0.837	-0.096
Mof_O 	O 	0.3633	0.5336	0.7781	-0.08
Mof_O 	O 	0.1486	0.3207	0.7439	-0.082
Mof_O 	O 	0.2065	0.3454	0.6901	-0.08
Mof_O 	O 	0.3463	0.2875	0.7467	-0.082
Mof_O 	O 	0.3563	0.2508	0.6682	-0.075
Mof_O 	O 	0.2046	0.5462	0.7445	-0.081
Mof_O 	O 	0.2513	0.6624	0.7255	-0.082
Mof_O 	O 	0.3687	0.4923	0.5486	-0.256
Mof_O 	O 	0.3143	0.6088	0.5506	-0.39
Mof_O 	O 	0.3782	0.2304	0.926	-0.449
Mof_O 	O 	0.3321	0.1298	0.879	-0.264
Mof_O 	O 	0.5342	0.3569	0.8652	-0.097
Mof_O 	O 	0.5484	0.3526	0.7859	-0.07
Mof_O 	O 	0.4121	0.0121	0.7298	-0.082
Mof_O 	O 	0.4431	0.1116	0.6802	-0.088
Mof_Gd	Gd	0.84824	0.76371	0.00658	1.448
Mof_C 	C 	0.7432	0.8197	0.9201	0.432
Mof_C 	C 	0.7555	0.8515	0.8683	-0.076
Mof_C 	C 	0.7201	0.8387	0.8252	-0.036
Mof_H 	H 	0.6878	0.8114	0.8289	0.085
Mof_C 	C 	0.7322	0.8659	0.7773	0.092
Mof_C 	C 	0.778	0.9124	0.7685	0.016
Mof_C 	C 	0.8121	0.9249	0.8125	0.08
Mof_C 	C 	0.8039	0.8943	0.8616	-0.028
Mof_H 	H 	0.8294	0.9018	0.8889	0.063
Mof_C 	C 	0.7918	0.9413	0.7156	-0.011
Mof_C 	C 	0.7738	0.0245	0.6946	0.117
Mof_C 	C 	0.7873	0.0558	0.6488	-0.092
Mof_H 	H 	0.7754	0.1116	0.6371	0.103
Mof_C 	C 	0.8182	0.0061	0.6198	0.006
Mof_C 	C 	0.8371	0.9233	0.6386	-0.092
Mof_H 	H 	0.8589	0.889	0.6196	0.118
Mof_C 	C 	0.8232	0.8932	0.6855	0.118
Mof_C 	C 	0.8347	0.0384	0.5679	0.322
Mof_C 	C 	0.8691	0.6825	0.8874	0.361
Mof_C 	C 	0.9078	0.6913	0.8459	-0.01
Mof_C 	C 	0.9042	0.6361	0.8043	-0.077
Mof_H 	H 	0.878	0.5927	0.801	0.119
Mof_C 	C 	0.9393	0.6442	0.7668	0.112
Mof_C 	C 	0.9801	0.7065	0.7696	0
Mof_C 	C 	0.9825	0.7627	0.8131	0.11
Mof_C 	C 	0.947	0.7555	0.8507	-0.07
Mof_H 	H 	0.9497	0.7937	0.8789	0.092
Mof_N 	N 	0.8627	0.972	0.8082	-0.004
Mof_N 	N 	0.6927	0.8449	0.7347	-0.004
Mof_N 	N 	0.7398	0.0818	0.7241	-0.009
Mof_N 	N 	0.8432	0.8011	0.7008	-0.003
Mof_N 	N 	0.0248	0.8286	0.8228	-0.005
Mof_N 	N 	0.9317	0.5849	0.722	-0.008
Mof_O 	O 	0.7778	0.8201	0.9555	-0.471
Mof_O 	O 	0.6958	0.7919	0.9237	-0.444
Mof_O 	O 	0.901	0.9471	0.837	-0.096
Mof_O 	O 	0.8633	0.0336	0.7781	-0.08
Mof_O 	O 	0.6486	0.8207	0.7439	-0.082
Mof_O 	O 	0.7065	0.8454	0.6901	-0.08
Mof_O 	O 	0.8463	0.7875	0.7467	-0.082
Mof_O 	O 	0.8563	0.7508	0.6682	-0.075
Mof_O 	O 	0.7046	0.0462	0.7445	-0.081
Mof_O 	O 	0.7513	0.1624	0.7255	-0.082
Mof_O 	O 	0.8687	0.9923	0.5486	-0.256
Mof_O 	O 	0.8143	0.1088	0.5506	-0.39
Mof_O 	O 	0.8782	0.7304	0.926	-0.448
Mof_O 	O 	0.8321	0.6298	0.879	-0.264
Mof_O 	O 	0.0342	0.8569	0.8652	-0.097
Mof_O 	O 	0.0484	0.8526	0.7859	-0.07
Mof_O 	O 	0.9121	0.5121	0.7298	-0.082
Mof_O 	O 	0.9431	0.6116	0.6802	-0.088
Mof_Gd	Gd	0.65176	0.26371	0.49342	1.447
Mof_C 	C 	0.7568	0.3197	0.5799	0.432
Mof_C 	C 	0.7445	0.3515	0.6317	-0.076
Mof_C 	C 	0.7799	0.3387	0.6748	-0.036
Mof_H 	H 	0.8122	0.3114	0.6711	0.085
Mof_C 	C 	0.7678	0.3659	0.7227	0.092
Mof_C 	C 	0.722	0.4124	0.7315	0.016
Mof_C 	C 	0.6879	0.4249	0.6875	0.08
Mof_C 	C 	0.6961	0.3943	0.6384	-0.028
Mof_H 	H 	0.6706	0.4018	0.6111	0.063
Mof_C 	C 	0.7082	0.4413	0.7844	-0.012
Mof_C 	C 	0.7262	0.5245	0.8054	0.117
Mof_C 	C 	0.7127	0.5558	0.8512	-0.092
Mof_H 	H 	0.7246	0.6116	0.8629	0.103
Mof_C 	C 	0.6818	0.5061	0.8802	0.006
Mof_C 	C 	0.6629	0.4233	0.8614	-0.092
Mof_H 	H 	0.6411	0.389	0.8804	0.118
Mof_C 	C 	0.6768	0.3932	0.8145	0.118
Mof_C 	C 	0.6653	0.5384	0.9321	0.322
Mof_C 	C 	0.6309	0.1825	0.6126	0.361
Mof_C 	C 	0.5922	0.1913	0.6541	-0.01
Mof_C 	C 	0.5958	0.1361	0.6957	-0.077
Mof_H 	H 	0.622	0.0927	0.699	0.119
Mof_C 	C 	0.5607	0.1442	0.7332	0.112
Mof_C 	C 	0.5199	0.2065	0.7304	0
Mof_C 	C 	0.5175	0.2627	0.6869	0.11
Mof_C 	C 	0.553	0.2555	0.6493	-0.07
Mof_H 	H 	0.5503	0.2937	0.6211	0.092
Mof_N 	N 	0.6373	0.472	0.6918	-0.004
Mof_N 	N 	0.8073	0.3449	0.7653	-0.004
Mof_N 	N 	0.7602	0.5818	0.7759	-0.009
Mof_N 	N 	0.6568	0.3011	0.7992	-0.003
Mof_N 	N 	0.4752	0.3286	0.6772	-0.005
Mof_N 	N 	0.5683	0.0849	0.778	-0.008
Mof_O 	O 	0.7222	0.3201	0.5445	-0.471
Mof_O 	O 	0.8042	0.2919	0.5763	-0.444
Mof_O 	O 	0.599	0.4471	0.663	-0.096
Mof_O 	O 	0.6367	0.5336	0.7219	-0.08
Mof_O 	O 	0.8514	0.3207	0.7561	-0.082
Mof_O 	O 	0.7935	0.3454	0.8099	-0.08
Mof_O 	O 	0.6537	0.2875	0.7533	-0.082
Mof_O 	O 	0.6437	0.2508	0.8318	-0.075
Mof_O 	O 	0.7954	0.5462	0.7555	-0.081
Mof_O 	O 	0.7487	0.6624	0.7745	-0.082
Mof_O 	O 	0.6313	0.4923	0.9514	-0.255
Mof_O 	O 	0.6857	0.6088	0.9494	-0.39
Mof_O 	O 	0.6218	0.2304	0.574	-0.449
Mof_O 	O 	0.6679	0.1298	0.621	-0.264
Mof_O 	O 	0.4658	0.3569	0.6348	-0.098
Mof_O 	O 	0.4516	0.3526	0.7141	-0.07
Mof_O 	O 	0.5879	0.0121	0.7702	-0.082
Mof_O 	O 	0.5569	0.1116	0.8198	-0.088
Mof_Gd	Gd	0.15176	0.76371	0.49342	1.447
Mof_C 	C 	0.2568	0.8197	0.5799	0.432
Mof_C 	C 	0.2445	0.8515	0.6317	-0.076
Mof_C 	C 	0.2799	0.8387	0.6748	-0.036
Mof_H 	H 	0.3122	0.8114	0.6711	0.085
Mof_C 	C 	0.2678	0.8659	0.7227	0.092
Mof_C 	C 	0.222	0.9124	0.7315	0.016
Mof_C 	C 	0.1879	0.9249	0.6875	0.08
Mof_C 	C 	0.1961	0.8943	0.6384	-0.028
Mof_H 	H 	0.1706	0.9018	0.6111	0.063
Mof_C 	C 	0.2082	0.9413	0.7844	-0.011
Mof_C 	C 	0.2262	0.0245	0.8054	0.117
Mof_C 	C 	0.2127	0.0558	0.8512	-0.092
Mof_H 	H 	0.2246	0.1116	0.8629	0.103
Mof_C 	C 	0.1818	0.0061	0.8802	0.006
Mof_C 	C 	0.1629	0.9233	0.8614	-0.091
Mof_H 	H 	0.1411	0.889	0.8804	0.118
Mof_C 	C 	0.1768	0.8932	0.8145	0.118
Mof_C 	C 	0.1653	0.0384	0.9321	0.321
Mof_C 	C 	0.1309	0.6825	0.6126	0.361
Mof_C 	C 	0.0922	0.6913	0.6541	-0.01
Mof_C 	C 	0.0958	0.6361	0.6957	-0.077
Mof_H 	H 	0.122	0.5927	0.699	0.119
Mof_C 	C 	0.0607	0.6442	0.7332	0.112
Mof_C 	C 	0.0199	0.7065	0.7304	-0
Mof_C 	C 	0.0175	0.7627	0.6869	0.11
Mof_C 	C 	0.053	0.7555	0.6493	-0.07
Mof_H 	H 	0.0503	0.7937	0.6211	0.092
Mof_N 	N 	0.1373	0.972	0.6918	-0.004
Mof_N 	N 	0.3073	0.8449	0.7653	-0.004
Mof_N 	N 	0.2602	0.0818	0.7759	-0.009
Mof_N 	N 	0.1568	0.8011	0.7992	-0.003
Mof_N 	N 	0.9752	0.8286	0.6772	-0.005
Mof_N 	N 	0.0683	0.5849	0.778	-0.008
Mof_O 	O 	0.2222	0.8201	0.5445	-0.471
Mof_O 	O 	0.3042	0.7919	0.5763	-0.444
Mof_O 	O 	0.099	0.9471	0.663	-0.096
Mof_O 	O 	0.1367	0.0336	0.7219	-0.08
Mof_O 	O 	0.3514	0.8207	0.7561	-0.082
Mof_O 	O 	0.2935	0.8454	0.8099	-0.08
Mof_O 	O 	0.1537	0.7875	0.7533	-0.082
Mof_O 	O 	0.1437	0.7508	0.8318	-0.075
Mof_O 	O 	0.2954	0.0462	0.7555	-0.081
Mof_O 	O 	0.2487	0.1624	0.7745	-0.082
Mof_O 	O 	0.1313	0.9923	0.9514	-0.255
Mof_O 	O 	0.1857	0.1088	0.9494	-0.39
Mof_O 	O 	0.1218	0.7304	0.574	-0.449
Mof_O 	O 	0.1679	0.6298	0.621	-0.264
Mof_O 	O 	0.9658	0.8569	0.6348	-0.098
Mof_O 	O 	0.9516	0.8526	0.7141	-0.07
Mof_O 	O 	0.0879	0.5121	0.7702	-0.082
Mof_O 	O 	0.0569	0.6116	0.8198	-0.088
Mof_Gd	Gd	0.65176	0.73629	0.99342	1.45
Mof_C 	C 	0.7568	0.6803	0.0799	0.432
Mof_C 	C 	0.7445	0.6485	0.1317	-0.076
Mof_C 	C 	0.7799	0.6613	0.1748	-0.036
Mof_H 	H 	0.8122	0.6886	0.1711	0.085
Mof_C 	C 	0.7678	0.6341	0.2227	0.092
Mof_C 	C 	0.722	0.5876	0.2315	0.016
Mof_C 	C 	0.6879	0.5751	0.1875	0.08
Mof_C 	C 	0.6961	0.6057	0.1384	-0.028
Mof_H 	H 	0.6706	0.5982	0.1111	0.063
Mof_C 	C 	0.7082	0.5587	0.2844	-0.012
Mof_C 	C 	0.7262	0.4755	0.3054	0.117
Mof_C 	C 	0.7127	0.4442	0.3512	-0.092
Mof_H 	H 	0.7246	0.3884	0.3629	0.103
Mof_C 	C 	0.6818	0.4939	0.3802	0.006
Mof_C 	C 	0.6629	0.5767	0.3614	-0.092
Mof_H 	H 	0.6411	0.611	0.3804	0.118
Mof_C 	C 	0.6768	0.6068	0.3145	0.118
Mof_C 	C 	0.6653	0.4616	0.4321	0.322
Mof_C 	C 	0.6309	0.8175	0.1126	0.361
Mof_C 	C 	0.5922	0.8087	0.1541	-0.01
Mof_C 	C 	0.5958	0.8639	0.1957	-0.077
Mof_H 	H 	0.622	0.9073	0.199	0.119
Mof_C 	C 	0.5607	0.8558	0.2332	0.112
Mof_C 	C 	0.5199	0.7935	0.2304	0
Mof_C 	C 	0.5175	0.7373	0.1869	0.11
Mof_C 	C 	0.553	0.7445	0.1493	-0.07
Mof_H 	H 	0.5503	0.7063	0.1211	0.092
Mof_N 	N 	0.6373	0.528	0.1918	-0.004
Mof_N 	N 	0.8073	0.6551	0.2653	-0.004
Mof_N 	N 	0.7602	0.4182	0.2759	-0.009
Mof_N 	N 	0.6568	0.6989	0.2992	-0.003
Mof_N 	N 	0.4752	0.6714	0.1772	-0.005
Mof_N 	N 	0.5683	0.9151	0.278	-0.008
Mof_O 	O 	0.7222	0.6799	0.0445	-0.471
Mof_O 	O 	0.8042	0.7081	0.0763	-0.444
Mof_O 	O 	0.599	0.5529	0.163	-0.096
Mof_O 	O 	0.6367	0.4664	0.2219	-0.08
Mof_O 	O 	0.8514	0.6793	0.2561	-0.082
Mof_O 	O 	0.7935	0.6546	0.3099	-0.08
Mof_O 	O 	0.6537	0.7125	0.2533	-0.082
Mof_O 	O 	0.6437	0.7492	0.3318	-0.075
Mof_O 	O 	0.7954	0.4538	0.2555	-0.081
Mof_O 	O 	0.7487	0.3376	0.2745	-0.082
Mof_O 	O 	0.6313	0.5077	0.4514	-0.256
Mof_O 	O 	0.6857	0.3912	0.4494	-0.39
Mof_O 	O 	0.6218	0.7696	0.074	-0.449
Mof_O 	O 	0.6679	0.8702	0.121	-0.264
Mof_O 	O 	0.4658	0.6431	0.1348	-0.097
Mof_O 	O 	0.4516	0.6474	0.2141	-0.07
Mof_O 	O 	0.5879	0.9879	0.2702	-0.082
Mof_O 	O 	0.5569	0.8884	0.3198	-0.088
Mof_Gd	Gd	0.15176	0.23629	0.99342	1.448
Mof_C 	C 	0.2568	0.1803	0.0799	0.432
Mof_C 	C 	0.2445	0.1485	0.1317	-0.076
Mof_C 	C 	0.2799	0.1613	0.1748	-0.036
Mof_H 	H 	0.3122	0.1886	0.1711	0.085
Mof_C 	C 	0.2678	0.1341	0.2227	0.092
Mof_C 	C 	0.222	0.0876	0.2315	0.016
Mof_C 	C 	0.1879	0.0751	0.1875	0.08
Mof_C 	C 	0.1961	0.1057	0.1384	-0.028
Mof_H 	H 	0.1706	0.0982	0.1111	0.063
Mof_C 	C 	0.2082	0.0587	0.2844	-0.011
Mof_C 	C 	0.2262	0.9755	0.3054	0.117
Mof_C 	C 	0.2127	0.9442	0.3512	-0.092
Mof_H 	H 	0.2246	0.8884	0.3629	0.103
Mof_C 	C 	0.1818	0.9939	0.3802	0.006
Mof_C 	C 	0.1629	0.0767	0.3614	-0.092
Mof_H 	H 	0.1411	0.111	0.3804	0.118
Mof_C 	C 	0.1768	0.1068	0.3145	0.118
Mof_C 	C 	0.1653	0.9616	0.4321	0.322
Mof_C 	C 	0.1309	0.3175	0.1126	0.361
Mof_C 	C 	0.0922	0.3087	0.1541	-0.01
Mof_C 	C 	0.0958	0.3639	0.1957	-0.077
Mof_H 	H 	0.122	0.4073	0.199	0.119
Mof_C 	C 	0.0607	0.3558	0.2332	0.112
Mof_C 	C 	0.0199	0.2935	0.2304	0
Mof_C 	C 	0.0175	0.2373	0.1869	0.11
Mof_C 	C 	0.053	0.2445	0.1493	-0.07
Mof_H 	H 	0.0503	0.2063	0.1211	0.092
Mof_N 	N 	0.1373	0.028	0.1918	-0.004
Mof_N 	N 	0.3073	0.1551	0.2653	-0.004
Mof_N 	N 	0.2602	0.9182	0.2759	-0.009
Mof_N 	N 	0.1568	0.1989	0.2992	-0.003
Mof_N 	N 	0.9752	0.1714	0.1772	-0.005
Mof_N 	N 	0.0683	0.4151	0.278	-0.008
Mof_O 	O 	0.2222	0.1799	0.0445	-0.471
Mof_O 	O 	0.3042	0.2081	0.0763	-0.444
Mof_O 	O 	0.099	0.0529	0.163	-0.096
Mof_O 	O 	0.1367	0.9664	0.2219	-0.08
Mof_O 	O 	0.3514	0.1793	0.2561	-0.082
Mof_O 	O 	0.2935	0.1546	0.3099	-0.08
Mof_O 	O 	0.1537	0.2125	0.2533	-0.082
Mof_O 	O 	0.1437	0.2492	0.3318	-0.075
Mof_O 	O 	0.2954	0.9538	0.2555	-0.081
Mof_O 	O 	0.2487	0.8376	0.2745	-0.082
Mof_O 	O 	0.1313	0.0077	0.4514	-0.256
Mof_O 	O 	0.1857	0.8912	0.4494	-0.39
Mof_O 	O 	0.1218	0.2696	0.074	-0.448
Mof_O 	O 	0.1679	0.3702	0.121	-0.264
Mof_O 	O 	0.9658	0.1431	0.1348	-0.097
Mof_O 	O 	0.9516	0.1474	0.2141	-0.07
Mof_O 	O 	0.0879	0.4879	0.2702	-0.082
Mof_O 	O 	0.0569	0.3884	0.3198	-0.088
Mof_Gd	Gd	0.34824	0.73629	0.50658	1.447
Mof_C 	C 	0.2432	0.6803	0.4201	0.432
Mof_C 	C 	0.2555	0.6485	0.3683	-0.076
Mof_C 	C 	0.2201	0.6613	0.3252	-0.036
Mof_H 	H 	0.1878	0.6886	0.3289	0.085
Mof_C 	C 	0.2322	0.6341	0.2773	0.092
Mof_C 	C 	0.278	0.5876	0.2685	0.016
Mof_C 	C 	0.3121	0.5751	0.3125	0.08
Mof_C 	C 	0.3039	0.6057	0.3616	-0.028
Mof_H 	H 	0.3294	0.5982	0.3889	0.063
Mof_C 	C 	0.2918	0.5587	0.2156	-0.012
Mof_C 	C 	0.2738	0.4755	0.1946	0.117
Mof_C 	C 	0.2873	0.4442	0.1488	-0.092
Mof_H 	H 	0.2754	0.3884	0.1371	0.103
Mof_C 	C 	0.3182	0.4939	0.1198	0.006
Mof_C 	C 	0.3371	0.5767	0.1386	-0.092
Mof_H 	H 	0.3589	0.611	0.1196	0.118
Mof_C 	C 	0.3232	0.6068	0.1855	0.118
Mof_C 	C 	0.3347	0.4616	0.0679	0.322
Mof_C 	C 	0.3691	0.8175	0.3874	0.361
Mof_C 	C 	0.4078	0.8087	0.3459	-0.01
Mof_C 	C 	0.4042	0.8639	0.3043	-0.077
Mof_H 	H 	0.378	0.9073	0.301	0.119
Mof_C 	C 	0.4393	0.8558	0.2668	0.112
Mof_C 	C 	0.4801	0.7935	0.2696	0
Mof_C 	C 	0.4825	0.7373	0.3131	0.11
Mof_C 	C 	0.447	0.7445	0.3507	-0.07
Mof_H 	H 	0.4497	0.7063	0.3789	0.092
Mof_N 	N 	0.3627	0.528	0.3082	-0.004
Mof_N 	N 	0.1927	0.6551	0.2347	-0.004
Mof_N 	N 	0.2398	0.4182	0.2241	-0.009
Mof_N 	N 	0.3432	0.6989	0.2008	-0.003
Mof_N 	N 	0.5248	0.6714	0.3228	-0.005
Mof_N 	N 	0.4317	0.9151	0.222	-0.008
Mof_O 	O 	0.2778	0.6799	0.4555	-0.471
Mof_O 	O 	0.1958	0.7081	0.4237	-0.444
Mof_O 	O 	0.401	0.5529	0.337	-0.096
Mof_O 	O 	0.3633	0.4664	0.2781	-0.08
Mof_O 	O 	0.1486	0.6793	0.2439	-0.082
Mof_O 	O 	0.2065	0.6546	0.1901	-0.08
Mof_O 	O 	0.3463	0.7125	0.2467	-0.082
Mof_O 	O 	0.3563	0.7492	0.1682	-0.075
Mof_O 	O 	0.2046	0.4538	0.2445	-0.081
Mof_O 	O 	0.2513	0.3376	0.2255	-0.082
Mof_O 	O 	0.3687	0.5077	0.0486	-0.255
Mof_O 	O 	0.3143	0.3912	0.0506	-0.39
Mof_O 	O 	0.3782	0.7696	0.426	-0.449
Mof_O 	O 	0.3321	0.8702	0.379	-0.264
Mof_O 	O 	0.5342	0.6431	0.3652	-0.098
Mof_O 	O 	0.5484	0.6474	0.2859	-0.07
Mof_O 	O 	0.4121	0.9879	0.2298	-0.082
Mof_O 	O 	0.4431	0.8884	0.1802	-0.088
Mof_Gd	Gd	0.84824	0.23629	0.50658	1.447
Mof_C 	C 	0.7432	0.1803	0.4201	0.432
Mof_C 	C 	0.7555	0.1485	0.3683	-0.076
Mof_C 	C 	0.7201	0.1613	0.3252	-0.036
Mof_H 	H 	0.6878	0.1886	0.3289	0.085
Mof_C 	C 	0.7322	0.1341	0.2773	0.092
Mof_C 	C 	0.778	0.0876	0.2685	0.016
Mof_C 	C 	0.8121	0.0751	0.3125	0.08
Mof_C 	C 	0.8039	0.1057	0.3616	-0.028
Mof_H 	H 	0.8294	0.0982	0.3889	0.063
Mof_C 	C 	0.7918	0.0587	0.2156	-0.011
Mof_C 	C 	0.7738	0.9755	0.1946	0.117
Mof_C 	C 	0.7873	0.9442	0.1488	-0.092
Mof_H 	H 	0.7754	0.8884	0.1371	0.103
Mof_C 	C 	0.8182	0.9939	0.1198	0.006
Mof_C 	C 	0.8371	0.0767	0.1386	-0.091
Mof_H 	H 	0.8589	0.111	0.1196	0.118
Mof_C 	C 	0.8232	0.1068	0.1855	0.118
Mof_C 	C 	0.8347	0.9616	0.0679	0.321
Mof_C 	C 	0.8691	0.3175	0.3874	0.361
Mof_C 	C 	0.9078	0.3087	0.3459	-0.01
Mof_C 	C 	0.9042	0.3639	0.3043	-0.077
Mof_H 	H 	0.878	0.4073	0.301	0.119
Mof_C 	C 	0.9393	0.3558	0.2668	0.112
Mof_C 	C 	0.9801	0.2935	0.2696	-0
Mof_C 	C 	0.9825	0.2373	0.3131	0.11
Mof_C 	C 	0.947	0.2445	0.3507	-0.07
Mof_H 	H 	0.9497	0.2063	0.3789	0.092
Mof_N 	N 	0.8627	0.028	0.3082	-0.004
Mof_N 	N 	0.6927	0.1551	0.2347	-0.004
Mof_N 	N 	0.7398	0.9182	0.2241	-0.009
Mof_N 	N 	0.8432	0.1989	0.2008	-0.003
Mof_N 	N 	0.0248	0.1714	0.3228	-0.005
Mof_N 	N 	0.9317	0.4151	0.222	-0.008
Mof_O 	O 	0.7778	0.1799	0.4555	-0.471
Mof_O 	O 	0.6958	0.2081	0.4237	-0.444
Mof_O 	O 	0.901	0.0529	0.337	-0.096
Mof_O 	O 	0.8633	0.9664	0.2781	-0.08
Mof_O 	O 	0.6486	0.1793	0.2439	-0.082
Mof_O 	O 	0.7065	0.1546	0.1901	-0.08
Mof_O 	O 	0.8463	0.2125	0.2467	-0.082
Mof_O 	O 	0.8563	0.2492	0.1682	-0.075
Mof_O 	O 	0.7046	0.9538	0.2445	-0.081
Mof_O 	O 	0.7513	0.8376	0.2255	-0.082
Mof_O 	O 	0.8687	0.0077	0.0486	-0.255
Mof_O 	O 	0.8143	0.8912	0.0506	-0.39
Mof_O 	O 	0.8782	0.2696	0.426	-0.449
Mof_O 	O 	0.8321	0.3702	0.379	-0.264
Mof_O 	O 	0.0342	0.1431	0.3652	-0.098
Mof_O 	O 	0.0484	0.1474	0.2859	-0.07
Mof_O 	O 	0.9121	0.4879	0.2298	-0.082
Mof_O 	O 	0.9431	0.3884	0.1802	-0.088
_end
