data_functionalizedCrystal
_audit_creation_method	'EQeq! by Chris Wilmer'
_symmetry_space_group_name_H-M	'P1'
_symmetry_Int_Tables_number	1
_symmetry_cell_setting	triclinic
loop_
_symmetry_equiv_pos_as_xyz
  x,y,z
_cell_length_a	17.66
_cell_length_b	20.309
_cell_length_c	17.565
_cell_angle_alpha	90
_cell_angle_beta	115.926
_cell_angle_gamma	90
loop_
_atom_site_label
_atom_site_type_symbol
_atom_site_fract_x
_atom_site_fract_y
_atom_site_fract_z
_atom_site_charge
Mof_Ge	Ge	0.49707	0.71853	0.98554	1.468
Mof_Ge	Ge	0.62941	0.66531	0.16818	1.468
Mof_Ge	Ge	0.58144	0.55573	0.27231	1.492
Mof_Ge	Ge	0.39356	0.49379	0.18791	1.477
Mof_Ge	Ge	0.25971	0.54691	0.00613	1.49
Mof_Ge	Ge	0.30528	0.65906	0.90189	1.477
Mof_Ge	Ge	0.21585	0.60264	0.61896	0.998
Mof_Tb	Tb	0.41903	0.65208	0.12087	1.776
Mof_Tb	Tb	0.06368	0.49629	0.64092	1.151
Mof_Tb	Tb	0.28663	0.50272	0.81464	2.323
Mof_Tb	Tb	0.33159	0.38983	0.9983	2.13
Mof_Tb	Tb	0.54731	0.38551	0.18817	2.181
Mof_N 	N 	0.9893	0.444	0.7323	-0.155
Mof_O 	O 	0.5352	0.7072	0.0983	-0.867
Mof_O 	O 	0.5694	0.6345	0.223	-0.867
Mof_O 	O 	0.4705	0.5543	0.2416	-0.815
Mof_O 	O 	0.3287	0.5569	0.1169	-0.848
Mof_O 	O 	0.2914	0.6293	0.9914	-0.875
Mof_O 	O 	0.393	0.708	0.9721	-0.849
Mof_O 	O 	0.5336	0.6533	0.9471	-0.989
Mof_O 	O 	0.6446	0.5947	0.1203	-0.957
Mof_O 	O 	0.5993	0.4916	0.2164	-0.981
Mof_O 	O 	0.4203	0.4416	0.1259	-0.975
Mof_O 	O 	0.303	0.4986	0.9542	-0.961
Mof_O 	O 	0.3495	0.6041	0.8571	-0.991
Mof_O 	O 	0.41	0.7261	0.8114	-0.63
Mof_O 	O 	0.3908	0.8125	0.7281	-0.581
Mof_O 	O 	0.6803	0.7133	0.0744	-0.612
Mof_O 	O 	0.7695	0.7897	0.0794	-0.33
Mof_O 	O 	0.7308	0.5745	0.2989	-0.607
Mof_O 	O 	0.8512	0.5655	0.4159	-0.492
Mof_O 	O 	0.5423	0.3922	0.429	-0.349
Mof_O 	O 	0.5132	0.4221	0.3005	-0.603
Mof_O 	O 	0.2461	0.4402	0.0559	-0.64
Mof_O 	O 	0.1478	0.3815	0.0717	-0.337
Mof_O 	O 	0.1887	0.5836	0.8321	-0.606
Mof_O 	O 	0.0624	0.5921	0.7215	-0.525
Mof_O 	O 	0.0432	0.5645	0.5212	-0.626
Mof_O 	O 	0.9904	0.6155	0.4002	-0.429
Mof_O 	O 	0.1823	0.3846	0.8864	-0.529
Mof_O 	O 	0.1518	0.4473	0.772	-0.657
Mof_O 	O 	0.1953	0.5491	0.6826	-0.869
Mof_O 	O 	0.3257	0.6256	0.6703	-0.585
Mof_O 	O 	0.9222	0.5352	0.5813	-0.897
Mof_H 	H 	0.8981	0.5461	0.5294	0.375
Mof_H 	H 	0.8988	0.556	0.6074	0.364
Mof_C 	C 	0.5169	0.805	0.9532	-0.665
Mof_H 	H 	0.5298	0.8349	0.0003	0.201
Mof_H 	H 	0.5656	0.8033	0.9414	0.161
Mof_C 	C 	0.4415	0.8321	0.8752	-0.132
Mof_H 	H 	0.3947	0.8388	0.8893	0.045
Mof_H 	H 	0.4565	0.8745	0.8603	0.049
Mof_C 	C 	0.414	0.7866	0.7998	0.466
Mof_C 	C 	0.7183	0.7212	0.242	-0.692
Mof_H 	H 	0.7052	0.7366	0.2872	0.176
Mof_H 	H 	0.7701	0.6959	0.2675	0.203
Mof_C 	C 	0.7317	0.7804	0.1958	-0.064
Mof_H 	H 	0.6878	0.8127	0.1856	0.008
Mof_H 	H 	0.7855	0.8008	0.231	0.041
Mof_C 	C 	0.7301	0.7597	0.1121	0.38
Mof_C 	C 	0.6403	0.5594	0.3943	-0.683
Mof_H 	H 	0.6045	0.581	0.4157	0.196
Mof_H 	H 	0.6501	0.5148	0.4163	0.18
Mof_C 	C 	0.7253	0.596	0.428	-0.102
Mof_H 	H 	0.7153	0.6431	0.4241	0.029
Mof_H 	H 	0.7585	0.5849	0.4872	0.036
Mof_C 	C 	0.7735	0.5778	0.3786	0.405
Mof_C 	C 	0.3479	0.459	0.2616	-0.675
Mof_H 	H 	0.304	0.4883	0.2603	0.196
Mof_H 	H 	0.3222	0.4165	0.2399	0.173
Mof_C 	C 	0.4135	0.4506	0.3531	-0.078
Mof_H 	H 	0.3898	0.424	0.3832	0.029
Mof_H 	H 	0.4271	0.4934	0.3801	0.031
Mof_C 	C 	0.4948	0.4177	0.3599	0.386
Mof_C 	C 	0.1421	0.5441	0.9821	-0.673
Mof_H 	H 	0.124	0.5879	0.9887	0.195
Mof_H 	H 	0.1093	0.5309	0.9236	0.194
Mof_C 	C 	0.124	0.4959	0.0404	-0.085
Mof_H 	H 	0.1365	0.5174	0.0939	0.033
Mof_H 	H 	0.0647	0.4844	0.0143	0.05
Mof_C 	C 	0.1767	0.433	0.0568	0.403
Mof_C 	C 	0.2158	0.7181	0.8302	-0.652
Mof_H 	H 	0.2198	0.7587	0.8608	0.183
Mof_H 	H 	0.2239	0.7289	0.7804	0.168
Mof_C 	C 	0.1273	0.6891	0.8018	-0.114
Mof_H 	H 	0.1095	0.6956	0.8462	0.038
Mof_H 	H 	0.0882	0.7123	0.7518	0.051
Mof_C 	C 	0.1247	0.6163	0.782	0.423
Mof_C 	C 	0.1514	0.683	0.5897	-0.469
Mof_H 	H 	0.1457	0.6982	0.6393	0.121
Mof_H 	H 	0.1833	0.716	0.5763	0.115
Mof_C 	C 	0.067	0.6792	0.5188	-0.208
Mof_H 	H 	0.0282	0.6976	0.5387	0.075
Mof_H 	H 	0.0667	0.7087	0.4753	0.077
Mof_C 	C 	0.0308	0.6171	0.4772	0.441
Mof_C 	C 	0.1312	0.412	0.8218	0.461
Mof_C 	C 	0.0411	0.4084	0.8008	-0.088
Mof_C 	C 	0.0117	0.3704	0.8476	-0.023
Mof_H 	H 	0.0499	0.3477	0.8948	0.042
Mof_C 	C 	0.927	0.3656	0.8255	-0.026
Mof_H 	H 	0.9066	0.3398	0.8562	0.019
Mof_C 	C 	0.8731	0.4015	0.7542	-0.105
Mof_H 	H 	0.8152	0.4002	0.7364	0.041
Mof_C 	C 	0.9071	0.4393	0.7102	0.061
Mof_H 	H 	0.8703	0.4625	0.6628	-0.012
Mof_Tb	Tb	0.0757	0.5244	0.6308	0.83
Mof_Ge	Ge	0.50293	0.21853	0.51446	1.465
Mof_Ge	Ge	0.37059	0.16531	0.33182	1.467
Mof_Ge	Ge	0.41856	0.05573	0.22769	1.494
Mof_Ge	Ge	0.60644	0.99379	0.31209	1.478
Mof_Ge	Ge	0.74029	0.04691	0.49387	1.488
Mof_Ge	Ge	0.69472	0.15906	0.59811	1.476
Mof_Ge	Ge	0.78415	0.10264	0.88104	0.995
Mof_Tb	Tb	0.58097	0.15208	0.37913	1.776
Mof_Tb	Tb	0.93632	0.99629	0.85908	1.133
Mof_Tb	Tb	0.71337	0.00272	0.68536	2.32
Mof_Tb	Tb	0.66841	0.88983	0.5017	2.128
Mof_Tb	Tb	0.45269	0.88551	0.31183	2.18
Mof_N 	N 	0.0107	0.944	0.7677	-0.156
Mof_O 	O 	0.4648	0.2072	0.4017	-0.867
Mof_O 	O 	0.4306	0.1345	0.277	-0.867
Mof_O 	O 	0.5295	0.0543	0.2584	-0.815
Mof_O 	O 	0.6713	0.0569	0.3831	-0.848
Mof_O 	O 	0.7086	0.1293	0.5086	-0.876
Mof_O 	O 	0.607	0.208	0.5279	-0.849
Mof_O 	O 	0.4664	0.1533	0.5529	-0.989
Mof_O 	O 	0.3554	0.0947	0.3797	-0.956
Mof_O 	O 	0.4007	0.9916	0.2836	-0.981
Mof_O 	O 	0.5797	0.9416	0.3741	-0.976
Mof_O 	O 	0.697	0.9986	0.5458	-0.96
Mof_O 	O 	0.6505	0.1041	0.6429	-0.991
Mof_O 	O 	0.59	0.2261	0.6886	-0.63
Mof_O 	O 	0.6092	0.3125	0.7719	-0.581
Mof_O 	O 	0.3197	0.2133	0.4256	-0.612
Mof_O 	O 	0.2305	0.2897	0.4206	-0.33
Mof_O 	O 	0.2692	0.0745	0.2011	-0.606
Mof_O 	O 	0.1488	0.0655	0.0841	-0.49
Mof_O 	O 	0.4577	0.8922	0.071	-0.349
Mof_O 	O 	0.4868	0.9221	0.1995	-0.604
Mof_O 	O 	0.7539	0.9402	0.4441	-0.638
Mof_O 	O 	0.8522	0.8815	0.4283	-0.336
Mof_O 	O 	0.8113	0.0836	0.6679	-0.606
Mof_O 	O 	0.9376	0.0921	0.7785	-0.527
Mof_O 	O 	0.9568	0.0645	0.9788	-0.63
Mof_O 	O 	0.0096	0.1155	0.0998	-0.427
Mof_O 	O 	0.8177	0.8846	0.6136	-0.529
Mof_O 	O 	0.8482	0.9473	0.728	-0.655
Mof_O 	O 	0.8047	0.0491	0.8174	-0.871
Mof_O 	O 	0.6743	0.1256	0.8297	-0.584
Mof_O 	O 	0.0778	0.0352	0.9187	-0.896
Mof_H 	H 	0.1019	0.0461	0.9706	0.375
Mof_H 	H 	0.1012	0.056	0.8926	0.364
Mof_C 	C 	0.4831	0.305	0.5468	-0.667
Mof_H 	H 	0.4702	0.3349	0.4997	0.202
Mof_H 	H 	0.4344	0.3033	0.5586	0.161
Mof_C 	C 	0.5585	0.3321	0.6248	-0.131
Mof_H 	H 	0.6053	0.3388	0.6107	0.045
Mof_H 	H 	0.5435	0.3745	0.6397	0.049
Mof_C 	C 	0.586	0.2866	0.7002	0.465
Mof_C 	C 	0.2817	0.2212	0.258	-0.692
Mof_H 	H 	0.2948	0.2366	0.2128	0.176
Mof_H 	H 	0.2299	0.1959	0.2325	0.203
Mof_C 	C 	0.2683	0.2804	0.3042	-0.063
Mof_H 	H 	0.3122	0.3127	0.3144	0.008
Mof_H 	H 	0.2145	0.3008	0.269	0.041
Mof_C 	C 	0.2699	0.2597	0.3879	0.38
Mof_C 	C 	0.3597	0.0594	0.1057	-0.685
Mof_H 	H 	0.3955	0.081	0.0843	0.197
Mof_H 	H 	0.3499	0.0148	0.0837	0.182
Mof_C 	C 	0.2747	0.096	0.072	-0.101
Mof_H 	H 	0.2847	0.1431	0.0759	0.029
Mof_H 	H 	0.2415	0.0849	0.0128	0.036
Mof_C 	C 	0.2265	0.0778	0.1214	0.405
Mof_C 	C 	0.6521	0.959	0.2384	-0.677
Mof_H 	H 	0.696	0.9883	0.2397	0.197
Mof_H 	H 	0.6778	0.9165	0.2601	0.174
Mof_C 	C 	0.5865	0.9506	0.1469	-0.077
Mof_H 	H 	0.6102	0.924	0.1168	0.029
Mof_H 	H 	0.5729	0.9934	0.1199	0.032
Mof_C 	C 	0.5052	0.9177	0.1401	0.386
Mof_C 	C 	0.8579	0.0441	0.5179	-0.678
Mof_H 	H 	0.876	0.0879	0.5113	0.196
Mof_H 	H 	0.8907	0.0309	0.5764	0.195
Mof_C 	C 	0.876	0.9959	0.4596	-0.076
Mof_H 	H 	0.8635	0.0174	0.4061	0.03
Mof_H 	H 	0.9353	0.9844	0.4857	0.048
Mof_C 	C 	0.8233	0.933	0.4432	0.401
Mof_C 	C 	0.7842	0.2181	0.6698	-0.652
Mof_H 	H 	0.7802	0.2587	0.6392	0.183
Mof_H 	H 	0.7761	0.2289	0.7196	0.168
Mof_C 	C 	0.8727	0.1891	0.6982	-0.114
Mof_H 	H 	0.8905	0.1956	0.6538	0.038
Mof_H 	H 	0.9118	0.2123	0.7482	0.051
Mof_C 	C 	0.8753	0.1163	0.718	0.423
Mof_C 	C 	0.8486	0.183	0.9103	-0.466
Mof_H 	H 	0.8543	0.1982	0.8607	0.12
Mof_H 	H 	0.8167	0.216	0.9237	0.114
Mof_C 	C 	0.933	0.1792	0.9812	-0.213
Mof_H 	H 	0.9718	0.1976	0.9613	0.076
Mof_H 	H 	0.9333	0.2087	0.0247	0.079
Mof_C 	C 	0.9692	0.1171	0.0228	0.444
Mof_C 	C 	0.8688	0.912	0.6782	0.46
Mof_C 	C 	0.9589	0.9084	0.6992	-0.087
Mof_C 	C 	0.9883	0.8704	0.6524	-0.021
Mof_H 	H 	0.9501	0.8477	0.6052	0.042
Mof_C 	C 	0.073	0.8656	0.6745	-0.028
Mof_H 	H 	0.0934	0.8398	0.6438	0.02
Mof_C 	C 	0.1269	0.9015	0.7458	-0.103
Mof_H 	H 	0.1848	0.9002	0.7636	0.041
Mof_C 	C 	0.0929	0.9393	0.7898	0.06
Mof_H 	H 	0.1297	0.9625	0.8372	-0.011
Mof_Tb	Tb	0.9243	0.0244	0.8692	0.853
Mof_Ge	Ge	0.50293	0.28147	0.01446	1.467
Mof_Ge	Ge	0.37059	0.33469	0.83182	1.467
Mof_Ge	Ge	0.41856	0.44427	0.72769	1.491
Mof_Ge	Ge	0.60644	0.50621	0.81209	1.476
Mof_Ge	Ge	0.74029	0.45309	0.99387	1.489
Mof_Ge	Ge	0.69472	0.34094	0.09811	1.476
Mof_Ge	Ge	0.78415	0.39736	0.38104	0.997
Mof_Tb	Tb	0.58097	0.34792	0.87913	1.775
Mof_Tb	Tb	0.93632	0.50371	0.35908	1.15
Mof_Tb	Tb	0.71337	0.49728	0.18536	2.322
Mof_Tb	Tb	0.66841	0.61017	0.0017	2.129
Mof_Tb	Tb	0.45269	0.61449	0.81183	2.18
Mof_N 	N 	0.0107	0.556	0.2677	-0.155
Mof_O 	O 	0.4648	0.2928	0.9017	-0.867
Mof_O 	O 	0.4306	0.3655	0.777	-0.867
Mof_O 	O 	0.5295	0.4457	0.7584	-0.815
Mof_O 	O 	0.6713	0.4431	0.8831	-0.848
Mof_O 	O 	0.7086	0.3707	0.0086	-0.875
Mof_O 	O 	0.607	0.292	0.0279	-0.849
Mof_O 	O 	0.4664	0.3467	0.0529	-0.989
Mof_O 	O 	0.3554	0.4053	0.8797	-0.957
Mof_O 	O 	0.4007	0.5084	0.7836	-0.981
Mof_O 	O 	0.5797	0.5584	0.8741	-0.975
Mof_O 	O 	0.697	0.5014	0.0458	-0.961
Mof_O 	O 	0.6505	0.3959	0.1429	-0.991
Mof_O 	O 	0.59	0.2739	0.1886	-0.63
Mof_O 	O 	0.6092	0.1875	0.2719	-0.581
Mof_O 	O 	0.3197	0.2867	0.9256	-0.612
Mof_O 	O 	0.2305	0.2103	0.9206	-0.33
Mof_O 	O 	0.2692	0.4255	0.7011	-0.607
Mof_O 	O 	0.1488	0.4345	0.5841	-0.492
Mof_O 	O 	0.4577	0.6078	0.571	-0.349
Mof_O 	O 	0.4868	0.5779	0.6995	-0.603
Mof_O 	O 	0.7539	0.5598	0.9441	-0.64
Mof_O 	O 	0.8522	0.6185	0.9283	-0.337
Mof_O 	O 	0.8113	0.4164	0.1679	-0.606
Mof_O 	O 	0.9376	0.4079	0.2785	-0.525
Mof_O 	O 	0.9568	0.4355	0.4788	-0.626
Mof_O 	O 	0.0096	0.3845	0.5998	-0.429
Mof_O 	O 	0.8177	0.6154	0.1136	-0.529
Mof_O 	O 	0.8482	0.5527	0.228	-0.657
Mof_O 	O 	0.8047	0.4509	0.3174	-0.869
Mof_O 	O 	0.6743	0.3744	0.3297	-0.585
Mof_O 	O 	0.0778	0.4648	0.4187	-0.897
Mof_H 	H 	0.1019	0.4539	0.4706	0.375
Mof_H 	H 	0.1012	0.444	0.3926	0.364
Mof_C 	C 	0.4831	0.195	0.0468	-0.665
Mof_H 	H 	0.4702	0.1651	0.9997	0.201
Mof_H 	H 	0.4344	0.1967	0.0586	0.161
Mof_C 	C 	0.5585	0.1679	0.1248	-0.132
Mof_H 	H 	0.6053	0.1612	0.1107	0.045
Mof_H 	H 	0.5435	0.1255	0.1397	0.049
Mof_C 	C 	0.586	0.2134	0.2002	0.466
Mof_C 	C 	0.2817	0.2788	0.758	-0.692
Mof_H 	H 	0.2948	0.2634	0.7128	0.176
Mof_H 	H 	0.2299	0.3041	0.7325	0.203
Mof_C 	C 	0.2683	0.2196	0.8042	-0.064
Mof_H 	H 	0.3122	0.1873	0.8144	0.008
Mof_H 	H 	0.2145	0.1992	0.769	0.041
Mof_C 	C 	0.2699	0.2403	0.8879	0.38
Mof_C 	C 	0.3597	0.4406	0.6057	-0.683
Mof_H 	H 	0.3955	0.419	0.5843	0.196
Mof_H 	H 	0.3499	0.4852	0.5837	0.18
Mof_C 	C 	0.2747	0.404	0.572	-0.102
Mof_H 	H 	0.2847	0.3569	0.5759	0.029
Mof_H 	H 	0.2415	0.4151	0.5128	0.036
Mof_C 	C 	0.2265	0.4222	0.6214	0.405
Mof_C 	C 	0.6521	0.541	0.7384	-0.675
Mof_H 	H 	0.696	0.5117	0.7397	0.196
Mof_H 	H 	0.6778	0.5835	0.7601	0.173
Mof_C 	C 	0.5865	0.5494	0.6469	-0.078
Mof_H 	H 	0.6102	0.576	0.6168	0.029
Mof_H 	H 	0.5729	0.5066	0.6199	0.031
Mof_C 	C 	0.5052	0.5823	0.6401	0.386
Mof_C 	C 	0.8579	0.4559	0.0179	-0.673
Mof_H 	H 	0.876	0.4121	0.0113	0.195
Mof_H 	H 	0.8907	0.4691	0.0764	0.194
Mof_C 	C 	0.876	0.5041	0.9596	-0.085
Mof_H 	H 	0.8635	0.4826	0.9061	0.033
Mof_H 	H 	0.9353	0.5156	0.9857	0.05
Mof_C 	C 	0.8233	0.567	0.9432	0.403
Mof_C 	C 	0.7842	0.2819	0.1698	-0.652
Mof_H 	H 	0.7802	0.2413	0.1392	0.183
Mof_H 	H 	0.7761	0.2711	0.2196	0.168
Mof_C 	C 	0.8727	0.3109	0.1982	-0.114
Mof_H 	H 	0.8905	0.3044	0.1538	0.038
Mof_H 	H 	0.9118	0.2877	0.2482	0.051
Mof_C 	C 	0.8753	0.3837	0.218	0.423
Mof_C 	C 	0.8486	0.317	0.4103	-0.469
Mof_H 	H 	0.8543	0.3018	0.3607	0.121
Mof_H 	H 	0.8167	0.284	0.4237	0.115
Mof_C 	C 	0.933	0.3208	0.4812	-0.208
Mof_H 	H 	0.9718	0.3024	0.4613	0.075
Mof_H 	H 	0.9333	0.2913	0.5247	0.077
Mof_C 	C 	0.9692	0.3829	0.5228	0.441
Mof_C 	C 	0.8688	0.588	0.1782	0.461
Mof_C 	C 	0.9589	0.5916	0.1992	-0.088
Mof_C 	C 	0.9883	0.6296	0.1524	-0.023
Mof_H 	H 	0.9501	0.6523	0.1052	0.042
Mof_C 	C 	0.073	0.6344	0.1745	-0.026
Mof_H 	H 	0.0934	0.6602	0.1438	0.019
Mof_C 	C 	0.1269	0.5985	0.2458	-0.105
Mof_H 	H 	0.1848	0.5998	0.2636	0.041
Mof_C 	C 	0.0929	0.5607	0.2898	0.061
Mof_H 	H 	0.1297	0.5375	0.3372	-0.012
Mof_Tb	Tb	0.9243	0.4756	0.3692	0.83
Mof_Ge	Ge	0.49707	0.78147	0.48554	1.465
Mof_Ge	Ge	0.62941	0.83469	0.66818	1.467
Mof_Ge	Ge	0.58144	0.94427	0.77231	1.494
Mof_Ge	Ge	0.39356	0.00621	0.68791	1.478
Mof_Ge	Ge	0.25971	0.95309	0.50613	1.488
Mof_Ge	Ge	0.30528	0.84094	0.40189	1.476
Mof_Ge	Ge	0.21585	0.89736	0.11896	0.995
Mof_Tb	Tb	0.41903	0.84792	0.62087	1.776
Mof_Tb	Tb	0.06368	0.00371	0.14092	1.133
Mof_Tb	Tb	0.28663	0.99728	0.31464	2.32
Mof_Tb	Tb	0.33159	0.11017	0.4983	2.128
Mof_Tb	Tb	0.54731	0.11449	0.68817	2.18
Mof_N 	N 	0.9893	0.056	0.2323	-0.156
Mof_O 	O 	0.5352	0.7928	0.5983	-0.867
Mof_O 	O 	0.5694	0.8655	0.723	-0.867
Mof_O 	O 	0.4705	0.9457	0.7416	-0.815
Mof_O 	O 	0.3287	0.9431	0.6169	-0.848
Mof_O 	O 	0.2914	0.8707	0.4914	-0.876
Mof_O 	O 	0.393	0.792	0.4721	-0.849
Mof_O 	O 	0.5336	0.8467	0.4471	-0.989
Mof_O 	O 	0.6446	0.9053	0.6203	-0.956
Mof_O 	O 	0.5993	0.0084	0.7164	-0.981
Mof_O 	O 	0.4203	0.0584	0.6259	-0.976
Mof_O 	O 	0.303	0.0014	0.4542	-0.96
Mof_O 	O 	0.3495	0.8959	0.3571	-0.991
Mof_O 	O 	0.41	0.7739	0.3114	-0.63
Mof_O 	O 	0.3908	0.6875	0.2281	-0.581
Mof_O 	O 	0.6803	0.7867	0.5744	-0.612
Mof_O 	O 	0.7695	0.7103	0.5794	-0.33
Mof_O 	O 	0.7308	0.9255	0.7989	-0.606
Mof_O 	O 	0.8512	0.9345	0.9159	-0.49
Mof_O 	O 	0.5423	0.1078	0.929	-0.349
Mof_O 	O 	0.5132	0.0779	0.8005	-0.604
Mof_O 	O 	0.2461	0.0598	0.5559	-0.638
Mof_O 	O 	0.1478	0.1185	0.5717	-0.336
Mof_O 	O 	0.1887	0.9164	0.3321	-0.606
Mof_O 	O 	0.0624	0.9079	0.2215	-0.527
Mof_O 	O 	0.0432	0.9355	0.0212	-0.63
Mof_O 	O 	0.9904	0.8845	0.9002	-0.427
Mof_O 	O 	0.1823	0.1154	0.3864	-0.529
Mof_O 	O 	0.1518	0.0527	0.272	-0.655
Mof_O 	O 	0.1953	0.9509	0.1826	-0.871
Mof_O 	O 	0.3257	0.8744	0.1703	-0.584
Mof_O 	O 	0.9222	0.9648	0.0813	-0.896
Mof_H 	H 	0.8981	0.9539	0.0294	0.375
Mof_H 	H 	0.8988	0.944	0.1074	0.364
Mof_C 	C 	0.5169	0.695	0.4532	-0.667
Mof_H 	H 	0.5298	0.6651	0.5003	0.202
Mof_H 	H 	0.5656	0.6967	0.4414	0.161
Mof_C 	C 	0.4415	0.6679	0.3752	-0.131
Mof_H 	H 	0.3947	0.6612	0.3893	0.045
Mof_H 	H 	0.4565	0.6255	0.3603	0.049
Mof_C 	C 	0.414	0.7134	0.2998	0.465
Mof_C 	C 	0.7183	0.7788	0.742	-0.692
Mof_H 	H 	0.7052	0.7634	0.7872	0.176
Mof_H 	H 	0.7701	0.8041	0.7675	0.203
Mof_C 	C 	0.7317	0.7196	0.6958	-0.063
Mof_H 	H 	0.6878	0.6873	0.6856	0.008
Mof_H 	H 	0.7855	0.6992	0.731	0.041
Mof_C 	C 	0.7301	0.7403	0.6121	0.38
Mof_C 	C 	0.6403	0.9406	0.8943	-0.685
Mof_H 	H 	0.6045	0.919	0.9157	0.197
Mof_H 	H 	0.6501	0.9852	0.9163	0.182
Mof_C 	C 	0.7253	0.904	0.928	-0.101
Mof_H 	H 	0.7153	0.8569	0.9241	0.029
Mof_H 	H 	0.7585	0.9151	0.9872	0.036
Mof_C 	C 	0.7735	0.9222	0.8786	0.405
Mof_C 	C 	0.3479	0.041	0.7616	-0.677
Mof_H 	H 	0.304	0.0117	0.7603	0.197
Mof_H 	H 	0.3222	0.0835	0.7399	0.174
Mof_C 	C 	0.4135	0.0494	0.8531	-0.077
Mof_H 	H 	0.3898	0.076	0.8832	0.029
Mof_H 	H 	0.4271	0.0066	0.8801	0.032
Mof_C 	C 	0.4948	0.0823	0.8599	0.386
Mof_C 	C 	0.1421	0.9559	0.4821	-0.678
Mof_H 	H 	0.124	0.9121	0.4887	0.196
Mof_H 	H 	0.1093	0.9691	0.4236	0.195
Mof_C 	C 	0.124	0.0041	0.5404	-0.076
Mof_H 	H 	0.1365	0.9826	0.5939	0.03
Mof_H 	H 	0.0647	0.0156	0.5143	0.048
Mof_C 	C 	0.1767	0.067	0.5568	0.401
Mof_C 	C 	0.2158	0.7819	0.3302	-0.652
Mof_H 	H 	0.2198	0.7413	0.3608	0.183
Mof_H 	H 	0.2239	0.7711	0.2804	0.168
Mof_C 	C 	0.1273	0.8109	0.3018	-0.114
Mof_H 	H 	0.1095	0.8044	0.3462	0.038
Mof_H 	H 	0.0882	0.7877	0.2518	0.051
Mof_C 	C 	0.1247	0.8837	0.282	0.423
Mof_C 	C 	0.1514	0.817	0.0897	-0.466
Mof_H 	H 	0.1457	0.8018	0.1393	0.12
Mof_H 	H 	0.1833	0.784	0.0763	0.114
Mof_C 	C 	0.067	0.8208	0.0188	-0.213
Mof_H 	H 	0.0282	0.8024	0.0387	0.076
Mof_H 	H 	0.0667	0.7913	0.9753	0.079
Mof_C 	C 	0.0308	0.8829	0.9772	0.444
Mof_C 	C 	0.1312	0.088	0.3218	0.46
Mof_C 	C 	0.0411	0.0916	0.3008	-0.087
Mof_C 	C 	0.0117	0.1296	0.3476	-0.021
Mof_H 	H 	0.0499	0.1523	0.3948	0.042
Mof_C 	C 	0.927	0.1344	0.3255	-0.028
Mof_H 	H 	0.9066	0.1602	0.3562	0.02
Mof_C 	C 	0.8731	0.0985	0.2542	-0.103
Mof_H 	H 	0.8152	0.0998	0.2364	0.041
Mof_C 	C 	0.9071	0.0607	0.2102	0.06
Mof_H 	H 	0.8703	0.0375	0.1628	-0.011
Mof_Tb	Tb	0.0757	0.9756	0.1308	0.853
_end
