data_functionalizedCrystal
_audit_creation_method	'EQeq! by Chris Wilmer'
_symmetry_space_group_name_H-M	'P1'
_symmetry_Int_Tables_number	1
_symmetry_cell_setting	triclinic
loop_
_symmetry_equiv_pos_as_xyz
  x,y,z
_cell_length_a	14.6938
_cell_length_b	8.924
_cell_length_c	14.6901
_cell_angle_alpha	90
_cell_angle_beta	90
_cell_angle_gamma	90
loop_
_atom_site_label
_atom_site_type_symbol
_atom_site_fract_x
_atom_site_fract_y
_atom_site_fract_z
_atom_site_charge
Mof_Co	Co	0.51133	0.15614	0.11849	1.187
Mof_Co	Co	0.36869	0.34324	0.74144	1.181
Mof_P 	P 	0.48809	0.20162	0.89781	0.538
Mof_P 	P 	0.35377	0.29705	0.23912	0.54
Mof_O 	O 	0.50527	0.24706	0.9979	-0.398
Mof_O 	O 	0.42057	0.3198	0.86109	-0.433
Mof_O 	O 	0.36622	0.4527	0.19712	-0.468
Mof_O 	O 	0.57855	0.20645	0.84708	-0.445
Mof_O 	O 	0.2521	0.2533	0.2316	-0.218
Mof_O 	O 	0.2466	0.2605	0.7618	-0.17
Mof_O 	O 	0.39498	0.1795	0.17541	-0.441
Mof_O 	O 	0.44411	0.0465	0.89186	-0.466
Mof_O 	O 	0.39461	0.2866	0.33368	-0.443
Mof_Zn	Zn	0.48867	0.84386	0.88151	1.236
Mof_Zn	Zn	0.63131	0.65676	0.25856	1.232
Mof_Co	Co	0.98867	0.84386	0.11849	1.186
Mof_Co	Co	0.13131	0.65676	0.74144	1.181
Mof_P 	P 	0.01191	0.79838	0.89781	0.531
Mof_P 	P 	0.14623	0.70295	0.23912	0.54
Mof_O 	O 	0.99473	0.75294	0.9979	-0.391
Mof_O 	O 	0.07943	0.6802	0.86109	-0.433
Mof_O 	O 	0.13378	0.5473	0.19712	-0.467
Mof_O 	O 	0.92145	0.79355	0.84708	-0.441
Mof_O 	O 	0.2479	0.7467	0.2316	-0.218
Mof_O 	O 	0.2534	0.7395	0.7618	-0.17
Mof_O 	O 	0.10502	0.8205	0.17541	-0.439
Mof_O 	O 	0.05589	0.9535	0.89186	-0.467
Mof_O 	O 	0.10539	0.7134	0.33368	-0.442
Mof_Zn	Zn	0.01133	0.15614	0.88151	1.234
Mof_Zn	Zn	0.86869	0.34324	0.25856	1.232
Mof_Co	Co	0.48867	0.15614	0.38151	1.188
Mof_Co	Co	0.63131	0.34324	0.75856	1.182
Mof_P 	P 	0.51191	0.20162	0.60219	0.538
Mof_P 	P 	0.64623	0.29705	0.26088	0.54
Mof_O 	O 	0.49473	0.24706	0.5021	-0.396
Mof_O 	O 	0.57943	0.3198	0.63891	-0.432
Mof_O 	O 	0.63378	0.4527	0.30288	-0.468
Mof_O 	O 	0.42145	0.20645	0.65292	-0.445
Mof_O 	O 	0.7479	0.2533	0.2684	-0.218
Mof_O 	O 	0.7534	0.2605	0.7382	-0.171
Mof_O 	O 	0.60502	0.1795	0.32459	-0.442
Mof_O 	O 	0.55589	0.0465	0.60814	-0.465
Mof_O 	O 	0.60539	0.2866	0.16632	-0.442
Mof_Zn	Zn	0.51133	0.84386	0.61849	1.236
Mof_Zn	Zn	0.36869	0.65676	0.24144	1.232
Mof_Co	Co	0.01133	0.84386	0.38151	1.189
Mof_Co	Co	0.86869	0.65676	0.75856	1.182
Mof_P 	P 	0.98809	0.79838	0.60219	0.541
Mof_P 	P 	0.85377	0.70295	0.26088	0.54
Mof_O 	O 	0.00527	0.75294	0.5021	-0.396
Mof_O 	O 	0.92057	0.6802	0.63891	-0.431
Mof_O 	O 	0.86622	0.5473	0.30288	-0.468
Mof_O 	O 	0.07855	0.79355	0.65292	-0.446
Mof_O 	O 	0.7521	0.7467	0.2684	-0.218
Mof_O 	O 	0.7466	0.7395	0.7382	-0.171
Mof_O 	O 	0.89498	0.8205	0.32459	-0.442
Mof_O 	O 	0.94411	0.9535	0.60814	-0.465
Mof_O 	O 	0.89461	0.7134	0.16632	-0.444
Mof_Zn	Zn	0.98867	0.15614	0.61849	1.237
Mof_Zn	Zn	0.13131	0.34324	0.24144	1.232
Mof_P 	P 	0.51191	0.79838	0.10219	0.544
Mof_P 	P 	0.64623	0.70295	0.76088	0.54
Mof_O 	O 	0.49473	0.75294	0.0021	-0.409
Mof_O 	O 	0.57943	0.6802	0.13891	-0.449
Mof_O 	O 	0.63378	0.5473	0.80288	-0.453
Mof_O 	O 	0.42145	0.79355	0.15292	-0.459
Mof_O 	O 	0.7479	0.7467	0.7684	-0.209
Mof_O 	O 	0.7534	0.7395	0.2382	-0.176
Mof_O 	O 	0.60502	0.8205	0.82459	-0.459
Mof_O 	O 	0.55589	0.9535	0.10814	-0.452
Mof_O 	O 	0.60539	0.7134	0.66632	-0.456
Mof_P 	P 	0.98809	0.20162	0.10219	0.538
Mof_P 	P 	0.85377	0.29705	0.76088	0.54
Mof_O 	O 	0.00527	0.24706	0.0021	-0.402
Mof_O 	O 	0.92057	0.3198	0.13891	-0.449
Mof_O 	O 	0.86622	0.4527	0.80288	-0.452
Mof_O 	O 	0.07855	0.20645	0.15292	-0.455
Mof_O 	O 	0.7521	0.2533	0.7684	-0.209
Mof_O 	O 	0.7466	0.2605	0.2382	-0.176
Mof_O 	O 	0.89498	0.1795	0.82459	-0.457
Mof_O 	O 	0.94411	0.0465	0.10814	-0.452
Mof_O 	O 	0.89461	0.2866	0.66632	-0.455
Mof_P 	P 	0.48809	0.79838	0.39781	0.544
Mof_P 	P 	0.35377	0.70295	0.73912	0.54
Mof_O 	O 	0.50527	0.75294	0.4979	-0.41
Mof_O 	O 	0.42057	0.6802	0.36109	-0.449
Mof_O 	O 	0.36622	0.5473	0.69712	-0.453
Mof_O 	O 	0.57855	0.79355	0.34708	-0.46
Mof_O 	O 	0.2521	0.7467	0.7316	-0.21
Mof_O 	O 	0.2466	0.7395	0.2618	-0.175
Mof_O 	O 	0.39498	0.8205	0.67541	-0.458
Mof_O 	O 	0.44411	0.9535	0.39186	-0.452
Mof_O 	O 	0.39461	0.7134	0.83368	-0.457
Mof_P 	P 	0.01191	0.20162	0.39781	0.547
Mof_P 	P 	0.14623	0.29705	0.73912	0.54
Mof_O 	O 	0.99473	0.24706	0.4979	-0.41
Mof_O 	O 	0.07943	0.3198	0.36109	-0.448
Mof_O 	O 	0.13378	0.4527	0.69712	-0.453
Mof_O 	O 	0.92145	0.20645	0.34708	-0.461
Mof_O 	O 	0.2479	0.2533	0.7316	-0.21
Mof_O 	O 	0.2534	0.2605	0.2618	-0.175
Mof_O 	O 	0.10502	0.1795	0.67541	-0.459
Mof_O 	O 	0.05589	0.0465	0.39186	-0.451
Mof_O 	O 	0.10539	0.2866	0.83368	-0.458
_end
