data_functionalizedCrystal
_audit_creation_method	'EQeq! by Chris Wilmer'
_symmetry_space_group_name_H-M	'P1'
_symmetry_Int_Tables_number	1
_symmetry_cell_setting	triclinic
loop_
_symmetry_equiv_pos_as_xyz
  x,y,z
_cell_length_a	10.162
_cell_length_b	13.414
_cell_length_c	17.653
_cell_angle_alpha	90.21
_cell_angle_beta	90
_cell_angle_gamma	90
loop_
_atom_site_label
_atom_site_type_symbol
_atom_site_fract_x
_atom_site_fract_y
_atom_site_fract_z
_atom_site_charge
Mof_Mn	Mn	0.08158	0.38887	0.46798	0.882
Mof_Mn	Mn	0.92445	0.1535	0.48457	0.919
Mof_Mn	Mn	0.58158	0.61113	0.03202	0.882
Mof_Mn	Mn	0.42445	0.8465	0.01543	0.919
Mof_Mn	Mn	0.91842	0.61113	0.53202	0.882
Mof_Mn	Mn	0.07555	0.8465	0.51543	0.919
Mof_Mn	Mn	0.41842	0.38887	0.96798	0.882
Mof_Mn	Mn	0.57555	0.1535	0.98457	0.919
Mof_H 	H 	0.8778	0.2103	0.6682	0.036
Mof_H 	H 	0.8024	0.5084	0.6707	0.044
Mof_H 	H 	0.7798	0.196	0.7881	0.051
Mof_H 	H 	0.6901	0.491	0.7858	0.046
Mof_H 	H 	0.2961	0.3063	0.2589	0.049
Mof_H 	H 	0.1812	0.0361	0.3384	0.047
Mof_H 	H 	0.3828	0.2305	0.1507	0.044
Mof_H 	H 	0.2718	0.9603	0.2308	0.04
Mof_H 	H 	0.3778	0.7897	0.8318	0.036
Mof_H 	H 	0.3024	0.4916	0.8293	0.044
Mof_H 	H 	0.2798	0.804	0.7119	0.051
Mof_H 	H 	0.1901	0.509	0.7142	0.046
Mof_H 	H 	0.7961	0.6937	0.2411	0.048
Mof_H 	H 	0.6812	0.9639	0.1616	0.045
Mof_H 	H 	0.8828	0.7695	0.3493	0.045
Mof_H 	H 	0.7718	0.0397	0.2692	0.044
Mof_H 	H 	0.1222	0.7897	0.3318	0.036
Mof_H 	H 	0.1976	0.4916	0.3293	0.044
Mof_H 	H 	0.2202	0.804	0.2119	0.051
Mof_H 	H 	0.3099	0.509	0.2142	0.046
Mof_H 	H 	0.7039	0.6937	0.7411	0.049
Mof_H 	H 	0.8188	0.9639	0.6616	0.047
Mof_H 	H 	0.6172	0.7695	0.8493	0.044
Mof_H 	H 	0.7282	0.0397	0.7692	0.04
Mof_H 	H 	0.6222	0.2103	0.1682	0.036
Mof_H 	H 	0.6976	0.5084	0.1707	0.044
Mof_H 	H 	0.7202	0.196	0.2881	0.051
Mof_H 	H 	0.8099	0.491	0.2858	0.046
Mof_H 	H 	0.2039	0.3063	0.7589	0.048
Mof_H 	H 	0.3188	0.0361	0.8384	0.045
Mof_H 	H 	0.1172	0.2305	0.6507	0.045
Mof_H 	H 	0.2282	0.9603	0.7308	0.044
Mof_C 	C 	0.91136	0.37159	0.58272	0.361
Mof_C 	C 	0.84747	0.36057	0.65796	-0.102
Mof_C 	C 	0.84139	0.2672	0.69253	-0.009
Mof_C 	C 	0.79435	0.44465	0.69355	-0.006
Mof_C 	C 	0.78125	0.2586	0.76307	-0.024
Mof_C 	C 	0.72974	0.43463	0.76235	-0.021
Mof_C 	C 	0.72337	0.34132	0.79695	-0.075
Mof_C 	C 	0.64895	0.32949	0.8702	0.367
Mof_C 	C 	0.17617	0.22899	0.3787	0.356
Mof_C 	C 	0.23126	0.1789	0.30961	-0.075
Mof_C 	C 	0.29104	0.2359	0.25317	-0.02
Mof_C 	C 	0.22301	0.07548	0.30084	-0.024
Mof_C 	C 	0.34307	0.19092	0.18894	-0.013
Mof_C 	C 	0.27652	0.03066	0.23658	-0.004
Mof_C 	C 	0.33702	0.08761	0.18049	-0.092
Mof_C 	C 	0.39582	0.03844	0.11119	0.389
Mof_C 	C 	0.41136	0.62841	0.91728	0.361
Mof_C 	C 	0.34747	0.63943	0.84204	-0.102
Mof_C 	C 	0.34139	0.7328	0.80747	-0.009
Mof_C 	C 	0.29435	0.55535	0.80645	-0.006
Mof_C 	C 	0.28125	0.7414	0.73693	-0.023
Mof_C 	C 	0.22974	0.56537	0.73765	-0.021
Mof_C 	C 	0.22337	0.65868	0.70305	-0.075
Mof_C 	C 	0.14895	0.67051	0.6298	0.367
Mof_C 	C 	0.67617	0.77101	0.1213	0.356
Mof_C 	C 	0.73126	0.8211	0.19039	-0.078
Mof_C 	C 	0.79104	0.7641	0.24683	-0.018
Mof_C 	C 	0.72301	0.92452	0.19916	-0.02
Mof_C 	C 	0.84307	0.80908	0.31106	-0.015
Mof_C 	C 	0.77652	0.96934	0.26342	-0.011
Mof_C 	C 	0.83702	0.91239	0.31951	-0.089
Mof_C 	C 	0.89582	0.96156	0.38881	0.385
Mof_C 	C 	0.08864	0.62841	0.41728	0.361
Mof_C 	C 	0.15253	0.63943	0.34204	-0.102
Mof_C 	C 	0.15861	0.7328	0.30747	-0.009
Mof_C 	C 	0.20565	0.55535	0.30645	-0.006
Mof_C 	C 	0.21875	0.7414	0.23693	-0.024
Mof_C 	C 	0.27026	0.56537	0.23765	-0.021
Mof_C 	C 	0.27663	0.65868	0.20305	-0.075
Mof_C 	C 	0.35105	0.67051	0.1298	0.367
Mof_C 	C 	0.82383	0.77101	0.6213	0.356
Mof_C 	C 	0.76874	0.8211	0.69039	-0.075
Mof_C 	C 	0.70896	0.7641	0.74683	-0.02
Mof_C 	C 	0.77699	0.92452	0.69916	-0.024
Mof_C 	C 	0.65693	0.80908	0.81106	-0.013
Mof_C 	C 	0.72348	0.96934	0.76342	-0.004
Mof_C 	C 	0.66298	0.91239	0.81951	-0.092
Mof_C 	C 	0.60418	0.96156	0.88881	0.389
Mof_C 	C 	0.58864	0.37159	0.08272	0.361
Mof_C 	C 	0.65253	0.36057	0.15796	-0.102
Mof_C 	C 	0.65861	0.2672	0.19253	-0.009
Mof_C 	C 	0.70565	0.44465	0.19355	-0.006
Mof_C 	C 	0.71875	0.2586	0.26307	-0.023
Mof_C 	C 	0.77026	0.43463	0.26235	-0.021
Mof_C 	C 	0.77663	0.34132	0.29695	-0.075
Mof_C 	C 	0.85105	0.32949	0.3702	0.367
Mof_C 	C 	0.32383	0.22899	0.8787	0.356
Mof_C 	C 	0.26874	0.1789	0.80961	-0.078
Mof_C 	C 	0.20896	0.2359	0.75317	-0.018
Mof_C 	C 	0.27699	0.07548	0.80084	-0.02
Mof_C 	C 	0.15693	0.19092	0.68894	-0.015
Mof_C 	C 	0.22348	0.03066	0.73658	-0.011
Mof_C 	C 	0.16298	0.08761	0.68049	-0.089
Mof_C 	C 	0.10418	0.03844	0.61119	0.385
Mof_O 	O 	0.97675	0.3	0.55436	-0.43
Mof_O 	O 	0.9029	0.45344	0.54814	-0.422
Mof_O 	O 	0.55987	0.39203	0.88193	-0.382
Mof_O 	O 	0.6812	0.25882	0.91271	-0.373
Mof_O 	O 	0.20917	0.31893	0.39008	-0.377
Mof_O 	O 	0.10204	0.18064	0.42188	-0.391
Mof_O 	O 	0.35145	0.95427	0.0933	-0.384
Mof_O 	O 	0.48501	0.08457	0.07708	-0.406
Mof_O 	O 	0.47675	0.7	0.94564	-0.429
Mof_O 	O 	0.4029	0.54656	0.95186	-0.422
Mof_O 	O 	0.05987	0.60797	0.61807	-0.382
Mof_O 	O 	0.1812	0.74118	0.58729	-0.373
Mof_O 	O 	0.70917	0.68107	0.10992	-0.377
Mof_O 	O 	0.60204	0.81936	0.07812	-0.392
Mof_O 	O 	0.85145	0.04573	0.4067	-0.382
Mof_O 	O 	0.98501	0.91543	0.42292	-0.406
Mof_O 	O 	0.02325	0.7	0.44564	-0.43
Mof_O 	O 	0.0971	0.54656	0.45186	-0.422
Mof_O 	O 	0.44013	0.60797	0.11807	-0.382
Mof_O 	O 	0.3188	0.74118	0.08729	-0.373
Mof_O 	O 	0.79083	0.68107	0.60992	-0.377
Mof_O 	O 	0.89796	0.81936	0.57812	-0.391
Mof_O 	O 	0.64855	0.04573	0.9067	-0.384
Mof_O 	O 	0.51499	0.91543	0.92292	-0.406
Mof_O 	O 	0.52325	0.3	0.05436	-0.429
Mof_O 	O 	0.5971	0.45344	0.04814	-0.422
Mof_O 	O 	0.94013	0.39203	0.38193	-0.382
Mof_O 	O 	0.8188	0.25882	0.41271	-0.373
Mof_O 	O 	0.29083	0.31893	0.89008	-0.377
Mof_O 	O 	0.39796	0.18064	0.92188	-0.392
Mof_O 	O 	0.14855	0.95427	0.5933	-0.382
Mof_O 	O 	0.01499	0.08457	0.57708	-0.406
_end
