# CIF file generated by openbabel 3.1.0, see https://openbabel.org
data_I
_chemical_name_common 'image0'
_cell_length_a 16.4797
_cell_length_b 16.4797
_cell_length_c 8.8635
_cell_angle_alpha 90
_cell_angle_beta 90
_cell_angle_gamma 90
_space_group_name_H-M_alt 'P 1'
_space_group_name_Hall 'P 1'
loop_
    _symmetry_equiv_pos_as_xyz
    x,y,z
loop_
    _atom_site_label
    _atom_site_type_symbol
    _atom_site_fract_x
    _atom_site_fract_y
    _atom_site_fract_z
    _atom_site_occupancy
    Zn1      Zn       0.71631    0.41268    0.91888    1.000
    P1       P        0.66299    0.42876    0.58850    1.000
    P2       P        0.90889    0.39651    0.92360    1.000
    O1       O        0.95980    0.40980    0.06160    1.000
    O2       O        0.91190    0.46490    0.81220    1.000
    O3       O        0.82330    0.37320    0.96770    1.000
    O4       O        0.68770    0.36550    0.71600    1.000
    O5       O        0.65260    0.37040    0.44990    1.000
    O6       O        0.68350    0.48100    0.44660    1.000
    O7       O        0.71820    0.53410    0.21580    1.000
    O8       O        0.65240    0.66270    0.56370    1.000
    O9       O        0.71950    0.48860    0.55970    1.000
    H1       H        0.58960    0.45160    0.63070    1.000
    H2       H        0.93790    0.33240    0.85060    1.000
    Zn2      Zn       0.28369    0.58732    0.91888    1.000
    P3       P        0.33701    0.57124    0.58850    1.000
    P4       P        0.09111    0.60349    0.92360    1.000
    O10      O        0.04020    0.59020    0.06160    1.000
    O11      O        0.08810    0.53510    0.81220    1.000
    O12      O        0.17670    0.62680    0.96770    1.000
    O13      O        0.31230    0.63450    0.71600    1.000
    O14      O        0.34740    0.62960    0.44990    1.000
    O15      O        0.31650    0.51900    0.44660    1.000
    O16      O        0.28180    0.46590    0.21580    1.000
    O17      O        0.34760    0.33730    0.56370    1.000
    O18      O        0.28050    0.51140    0.55970    1.000
    H3       H        0.41040    0.54840    0.63070    1.000
    H4       H        0.06210    0.66760    0.85060    1.000
    Zn3      Zn       0.58732    0.71631    0.91888    1.000
    P5       P        0.57124    0.66299    0.58850    1.000
    P6       P        0.60349    0.90889    0.92360    1.000
    O19      O        0.59020    0.95980    0.06160    1.000
    O20      O        0.53510    0.91190    0.81220    1.000
    O21      O        0.62680    0.82330    0.96770    1.000
    O22      O        0.63450    0.68770    0.71600    1.000
    O23      O        0.62960    0.65260    0.44990    1.000
    O24      O        0.51900    0.68350    0.44660    1.000
    O25      O        0.46590    0.71820    0.21580    1.000
    O26      O        0.33730    0.65240    0.56370    1.000
    O27      O        0.51140    0.71950    0.55970    1.000
    H5       H        0.54840    0.58960    0.63070    1.000
    H6       H        0.66760    0.93790    0.85060    1.000
    Zn4      Zn       0.41268    0.28369    0.91888    1.000
    P7       P        0.42876    0.33701    0.58850    1.000
    P8       P        0.39651    0.09111    0.92360    1.000
    O28      O        0.40980    0.04020    0.06160    1.000
    O29      O        0.46490    0.08810    0.81220    1.000
    O30      O        0.37320    0.17670    0.96770    1.000
    O31      O        0.36550    0.31230    0.71600    1.000
    O32      O        0.37040    0.34740    0.44990    1.000
    O33      O        0.48100    0.31650    0.44660    1.000
    O34      O        0.53410    0.28180    0.21580    1.000
    O35      O        0.66270    0.34760    0.56370    1.000
    O36      O        0.48860    0.28050    0.55970    1.000
    H7       H        0.45160    0.41040    0.63070    1.000
    H8       H        0.33240    0.06210    0.85060    1.000
    Zn5      Zn       0.71631    0.58732    0.41888    1.000
    P9       P        0.66299    0.57124    0.08850    1.000
    P10      P        0.90889    0.60349    0.42360    1.000
    O37      O        0.95980    0.59020    0.56160    1.000
    O38      O        0.91190    0.53510    0.31220    1.000
    O39      O        0.82330    0.62680    0.46770    1.000
    O40      O        0.68770    0.63450    0.21600    1.000
    O41      O        0.65260    0.62960    0.94990    1.000
    O42      O        0.68350    0.51900    0.94660    1.000
    O43      O        0.71820    0.46590    0.71580    1.000
    O44      O        0.65240    0.33730    0.06370    1.000
    O45      O        0.71950    0.51140    0.05970    1.000
    H9       H        0.58960    0.54840    0.13070    1.000
    H10      H        0.93790    0.66760    0.35060    1.000
    Zn6      Zn       0.28369    0.41268    0.41888    1.000
    P11      P        0.33701    0.42876    0.08850    1.000
    P12      P        0.09111    0.39651    0.42360    1.000
    O46      O        0.04020    0.40980    0.56160    1.000
    O47      O        0.08810    0.46490    0.31220    1.000
    O48      O        0.17670    0.37320    0.46770    1.000
    O49      O        0.31230    0.36550    0.21600    1.000
    O50      O        0.34740    0.37040    0.94990    1.000
    O51      O        0.31650    0.48100    0.94660    1.000
    O52      O        0.28180    0.53410    0.71580    1.000
    O53      O        0.34760    0.66270    0.06370    1.000
    O54      O        0.28050    0.48860    0.05970    1.000
    H11      H        0.41040    0.45160    0.13070    1.000
    H12      H        0.06210    0.33240    0.35060    1.000
    Zn7      Zn       0.58732    0.28369    0.41888    1.000
    P13      P        0.57124    0.33701    0.08850    1.000
    P14      P        0.60349    0.09111    0.42360    1.000
    O55      O        0.59020    0.04020    0.56160    1.000
    O56      O        0.53510    0.08810    0.31220    1.000
    O57      O        0.62680    0.17670    0.46770    1.000
    O58      O        0.63450    0.31230    0.21600    1.000
    O59      O        0.62960    0.34740    0.94990    1.000
    O60      O        0.51900    0.31650    0.94660    1.000
    O61      O        0.46590    0.28180    0.71580    1.000
    O62      O        0.33730    0.34760    0.06370    1.000
    O63      O        0.51140    0.28050    0.05970    1.000
    H13      H        0.54840    0.41040    0.13070    1.000
    H14      H        0.66760    0.06210    0.35060    1.000
    Zn8      Zn       0.41268    0.71631    0.41888    1.000
    P15      P        0.42876    0.66299    0.08850    1.000
    P16      P        0.39651    0.90889    0.42360    1.000
    O64      O        0.40980    0.95980    0.56160    1.000
    O65      O        0.46490    0.91190    0.31220    1.000
    O66      O        0.37320    0.82330    0.46770    1.000
    O67      O        0.36550    0.68770    0.21600    1.000
    O68      O        0.37040    0.65260    0.94990    1.000
    O69      O        0.48100    0.68350    0.94660    1.000
    O70      O        0.53410    0.71820    0.71580    1.000
    O71      O        0.66270    0.65240    0.06370    1.000
    O72      O        0.48860    0.71950    0.05970    1.000
    H15      H        0.45160    0.58960    0.13070    1.000
    H16      H        0.33240    0.93790    0.35060    1.000
    Zn9      Zn       0.00000    0.50000    0.17750    1.000
    Zn10     Zn       0.50000    0.00000    0.17750    1.000
    Zn11     Zn       0.00000    0.50000    0.67750    1.000
    Zn12     Zn       0.50000    0.00000    0.67750    1.000
