# CIF file generated by openbabel 3.1.0, see https://openbabel.org
data_I
_chemical_name_common 'image0'
_cell_length_a 14.4115
_cell_length_b 16.0984
_cell_length_c 9.6856
_cell_angle_alpha 90
_cell_angle_beta 90
_cell_angle_gamma 90
_space_group_name_H-M_alt 'P 1'
_space_group_name_Hall 'P 1'
loop_
    _symmetry_equiv_pos_as_xyz
    x,y,z
loop_
    _atom_site_label
    _atom_site_type_symbol
    _atom_site_fract_x
    _atom_site_fract_y
    _atom_site_fract_z
    _atom_site_occupancy
    Zn1      Zn       0.39762    0.17260    0.39645    1.000
    Zn2      Zn       0.11778    0.16572    0.46527    1.000
    Zn3      Zn       0.24451    0.00813    0.93349    1.000
    P1       P        0.23436    0.13726    0.18621    1.000
    P2       P        0.61558    0.14137    0.41445    1.000
    P3       P        0.40580    0.36925    0.45211    1.000
    P4       P        0.28244    0.13147    0.67363    1.000
    O1       O        0.16030    0.16900    0.27510    1.000
    O2       O        0.32600    0.11950    0.25400    1.000
    O3       O        0.20790    0.07380    0.08460    1.000
    O4       O        0.61690    0.21800    0.50280    1.000
    O5       O        0.65794    0.06809    0.48830    1.000
    O6       O        0.51834    0.11961    0.36510    1.000
    O7       O        0.36082    0.44120    0.37310    1.000
    O8       O        0.40270    0.29078    0.36670    1.000
    O9       O        0.50260    0.39220    0.49790    1.000
    O10      O        0.36360    0.13900    0.58220    1.000
    O11      O        0.19350    0.10880    0.60220    1.000
    O12      O        0.30530    0.07110    0.78880    1.000
    H1       H        0.23600    0.20300    0.09900    1.000
    H2       H        0.66800    0.15900    0.28600    1.000
    H3       H        0.35400    0.35800    0.56000    1.000
    H4       H        0.27100    0.21000    0.73200    1.000
    O13      O        0.15450    0.12320    0.29610    1.000
    Zn4      Zn       0.60238    0.82740    0.89645    1.000
    Zn5      Zn       0.88222    0.83428    0.96527    1.000
    Zn6      Zn       0.75549    0.99187    0.43349    1.000
    P5       P        0.76564    0.86274    0.68621    1.000
    P6       P        0.38442    0.85863    0.91445    1.000
    P7       P        0.59420    0.63075    0.95211    1.000
    P8       P        0.71756    0.86853    0.17363    1.000
    O14      O        0.83970    0.83100    0.77510    1.000
    O15      O        0.67400    0.88050    0.75400    1.000
    O16      O        0.79210    0.92620    0.58460    1.000
    O17      O        0.38310    0.78200    0.00280    1.000
    O18      O        0.34206    0.93191    0.98830    1.000
    O19      O        0.48166    0.88039    0.86510    1.000
    O20      O        0.63918    0.55880    0.87310    1.000
    O21      O        0.59730    0.70922    0.86670    1.000
    O22      O        0.49740    0.60780    0.99790    1.000
    O23      O        0.63640    0.86100    0.08220    1.000
    O24      O        0.80650    0.89120    0.10220    1.000
    O25      O        0.69470    0.92890    0.28880    1.000
    H5       H        0.76400    0.79700    0.59900    1.000
    H6       H        0.33200    0.84100    0.78600    1.000
    H7       H        0.64600    0.64200    0.06000    1.000
    H8       H        0.72900    0.79000    0.23200    1.000
    O26      O        0.84550    0.87680    0.79610    1.000
    Zn7      Zn       0.89762    0.32740    0.39645    1.000
    Zn8      Zn       0.61778    0.33428    0.46527    1.000
    Zn9      Zn       0.74451    0.49187    0.93349    1.000
    P9       P        0.73436    0.36274    0.18621    1.000
    P10      P        0.11558    0.35863    0.41445    1.000
    P11      P        0.90580    0.13075    0.45211    1.000
    P12      P        0.78244    0.36853    0.67363    1.000
    O27      O        0.66030    0.33100    0.27510    1.000
    O28      O        0.82600    0.38050    0.25400    1.000
    O29      O        0.70790    0.42620    0.08460    1.000
    O30      O        0.11690    0.28200    0.50280    1.000
    O31      O        0.15794    0.43191    0.48830    1.000
    O32      O        0.01834    0.38039    0.36510    1.000
    O33      O        0.86082    0.05880    0.37310    1.000
    O34      O        0.90270    0.20922    0.36670    1.000
    O35      O        0.00260    0.10780    0.49790    1.000
    O36      O        0.86360    0.36100    0.58220    1.000
    O37      O        0.69350    0.39120    0.60220    1.000
    O38      O        0.80530    0.42890    0.78880    1.000
    H9       H        0.73600    0.29700    0.09900    1.000
    H10      H        0.16800    0.34100    0.28600    1.000
    H11      H        0.85400    0.14200    0.56000    1.000
    H12      H        0.77100    0.29000    0.73200    1.000
    O39      O        0.65450    0.37680    0.29610    1.000
    Zn10     Zn       0.10238    0.67260    0.89645    1.000
    Zn11     Zn       0.38222    0.66572    0.96527    1.000
    Zn12     Zn       0.25549    0.50813    0.43349    1.000
    P13      P        0.26564    0.63726    0.68621    1.000
    P14      P        0.88442    0.64137    0.91445    1.000
    P15      P        0.09420    0.86925    0.95211    1.000
    P16      P        0.21756    0.63147    0.17363    1.000
    O40      O        0.33970    0.66900    0.77510    1.000
    O41      O        0.17400    0.61950    0.75400    1.000
    O42      O        0.29210    0.57380    0.58460    1.000
    O43      O        0.88310    0.71800    0.00280    1.000
    O44      O        0.84206    0.56809    0.98830    1.000
    O45      O        0.98166    0.61961    0.86510    1.000
    O46      O        0.13918    0.94120    0.87310    1.000
    O47      O        0.09730    0.79078    0.86670    1.000
    O48      O        0.99740    0.89220    0.99790    1.000
    O49      O        0.13640    0.63900    0.08220    1.000
    O50      O        0.30650    0.60880    0.10220    1.000
    O51      O        0.19470    0.57110    0.28880    1.000
    H13      H        0.26400    0.70300    0.59900    1.000
    H14      H        0.83200    0.65900    0.78600    1.000
    H15      H        0.14600    0.85800    0.06000    1.000
    H16      H        0.22900    0.71000    0.23200    1.000
    O52      O        0.34550    0.62320    0.79610    1.000
