# CIF file generated by openbabel 3.1.0, see https://openbabel.org
data_I
_chemical_name_common 'image0'
_cell_length_a 13.5186
_cell_length_b 10.7685
_cell_length_c 14.6323
_cell_angle_alpha 90
_cell_angle_beta 110.63
_cell_angle_gamma 90
_space_group_name_H-M_alt 'P 1'
_space_group_name_Hall 'P 1'
loop_
    _symmetry_equiv_pos_as_xyz
    x,y,z
loop_
    _atom_site_label
    _atom_site_type_symbol
    _atom_site_fract_x
    _atom_site_fract_y
    _atom_site_fract_z
    _atom_site_occupancy
    Co1      Co       0.41053    0.90409    0.46176    1.000
    Co2      Co       0.50388    0.01066    0.29220    1.000
    O1       O        0.30472    0.03122    0.37356    1.000
    O2       O        0.39011    0.13533    0.29092    1.000
    O3       O        0.38627    0.40425    0.23872    1.000
    O4       O        0.31281    0.28440    0.10790    1.000
    O5       O        0.62002    0.14612    0.34043    1.000
    O6       O        0.71394    0.15218    0.50123    1.000
    O7       O        0.63383    0.27744    0.15312    1.000
    O8       O        0.62812    0.39582    0.27776    1.000
    O9       O        0.53793    0.95995    0.43124    1.000
    C1       C        0.31360    0.11720    0.31966    1.000
    C2       C        0.22430    0.20920    0.28520    1.000
    C3       C        0.13990    0.19560    0.31770    1.000
    H1       H        0.14030    0.12970    0.35890    1.000
    C4       C        0.05500    0.27720    0.29060    1.000
    C5       C        0.05730    0.37570    0.22900    1.000
    H2       H        0.00180    0.43230    0.20970    1.000
    C6       C        0.14080    0.38990    0.19640    1.000
    H3       H        0.14030    0.45590    0.15530    1.000
    C7       C        0.22580    0.30800    0.22370    1.000
    C8       C        0.31600    0.33170    0.18700    1.000
    C9       C        0.96610    0.25830    0.32600    1.000
    C10      C        0.98210    0.20250    0.41660    1.000
    H4       H        0.05030    0.18160    0.45680    1.000
    C11      C        0.89840    0.17800    0.44740    1.000
    H5       H        0.91090    0.14050    0.50770    1.000
    C12      C        0.79580    0.20900    0.38887    1.000
    C13      C        0.77880    0.27020    0.30059    1.000
    C14      C        0.86290    0.29300    0.26940    1.000
    H6       H        0.85040    0.33220    0.20970    1.000
    C15      C        0.70240    0.16550    0.41295    1.000
    C16      C        0.67070    0.31660    0.23910    1.000
    Ni1      Ni       0.58947    0.09591    0.53824    1.000
    Ni2      Ni       0.49612    0.51066    0.20780    1.000
    Co3      Co       0.58947    0.40409    0.03824    1.000
    O10      O        0.69528    0.53122    0.12644    1.000
    O11      O        0.60989    0.63533    0.20908    1.000
    O12      O        0.61373    0.90425    0.26128    1.000
    O13      O        0.68719    0.78440    0.39210    1.000
    O14      O        0.37998    0.64612    0.15957    1.000
    O15      O        0.28606    0.65218    0.99877    1.000
    O16      O        0.36617    0.77744    0.34688    1.000
    O17      O        0.37188    0.89582    0.22224    1.000
    O18      O        0.46207    0.45995    0.06876    1.000
    C17      C        0.68640    0.61720    0.18034    1.000
    C18      C        0.77570    0.70920    0.21480    1.000
    C19      C        0.86010    0.69560    0.18230    1.000
    H7       H        0.85970    0.62970    0.14110    1.000
    C20      C        0.94500    0.77720    0.20940    1.000
    C21      C        0.94270    0.87570    0.27100    1.000
    H8       H        0.99820    0.93230    0.29030    1.000
    C22      C        0.85920    0.88990    0.30360    1.000
    H9       H        0.85970    0.95590    0.34470    1.000
    C23      C        0.77420    0.80800    0.27630    1.000
    C24      C        0.68400    0.83170    0.31300    1.000
    C25      C        0.03390    0.75830    0.17400    1.000
    C26      C        0.01790    0.70250    0.08340    1.000
    H10      H        0.94970    0.68160    0.04320    1.000
    C27      C        0.10160    0.67800    0.05260    1.000
    H11      H        0.08910    0.64050    0.99230    1.000
    C28      C        0.20420    0.70900    0.11113    1.000
    C29      C        0.22120    0.77020    0.19941    1.000
    C30      C        0.13710    0.79300    0.23060    1.000
    H12      H        0.14960    0.83220    0.29030    1.000
    C31      C        0.29760    0.66550    0.08705    1.000
    C32      C        0.32930    0.81660    0.26090    1.000
    Ni3      Ni       0.41053    0.59591    0.96176    1.000
    Co4      Co       0.49612    0.98934    0.70780    1.000
    O19      O        0.69528    0.96878    0.62644    1.000
    O20      O        0.60989    0.86467    0.70908    1.000
    O21      O        0.61373    0.59575    0.76128    1.000
    O22      O        0.68719    0.71560    0.89210    1.000
    O23      O        0.37998    0.85388    0.65957    1.000
    O24      O        0.28606    0.84782    0.49877    1.000
    O25      O        0.36617    0.72256    0.84688    1.000
    O26      O        0.37188    0.60418    0.72224    1.000
    O27      O        0.46207    0.04005    0.56876    1.000
    C33      C        0.68640    0.88280    0.68034    1.000
    C34      C        0.77570    0.79080    0.71480    1.000
    C35      C        0.86010    0.80440    0.68230    1.000
    H13      H        0.85970    0.87030    0.64110    1.000
    C36      C        0.94500    0.72280    0.70940    1.000
    C37      C        0.94270    0.62430    0.77100    1.000
    H14      H        0.99820    0.56770    0.79030    1.000
    C38      C        0.85920    0.61010    0.80360    1.000
    H15      H        0.85970    0.54410    0.84470    1.000
    C39      C        0.77420    0.69200    0.77630    1.000
    C40      C        0.68400    0.66830    0.81300    1.000
    C41      C        0.03390    0.74170    0.67400    1.000
    C42      C        0.01790    0.79750    0.58340    1.000
    H16      H        0.94970    0.81840    0.54320    1.000
    C43      C        0.10160    0.82200    0.55260    1.000
    H17      H        0.08910    0.85950    0.49230    1.000
    C44      C        0.20420    0.79100    0.61113    1.000
    C45      C        0.22120    0.72980    0.69941    1.000
    C46      C        0.13710    0.70700    0.73060    1.000
    H18      H        0.14960    0.66780    0.79030    1.000
    C47      C        0.29760    0.83450    0.58705    1.000
    C48      C        0.32930    0.68340    0.76090    1.000
    Ni4      Ni       0.50388    0.48934    0.79220    1.000
    O28      O        0.30472    0.46878    0.87356    1.000
    O29      O        0.39011    0.36467    0.79092    1.000
    O30      O        0.38627    0.09575    0.73872    1.000
    O31      O        0.31281    0.21560    0.60790    1.000
    O32      O        0.62002    0.35388    0.84043    1.000
    O33      O        0.71394    0.34782    0.00123    1.000
    O34      O        0.63383    0.22256    0.65312    1.000
    O35      O        0.62812    0.10418    0.77776    1.000
    O36      O        0.53793    0.54005    0.93124    1.000
    C49      C        0.31360    0.38280    0.81966    1.000
    C50      C        0.22430    0.29080    0.78520    1.000
    C51      C        0.13990    0.30440    0.81770    1.000
    H19      H        0.14030    0.37030    0.85890    1.000
    C52      C        0.05500    0.22280    0.79060    1.000
    C53      C        0.05730    0.12430    0.72900    1.000
    H20      H        0.00180    0.06770    0.70970    1.000
    C54      C        0.14080    0.11010    0.69640    1.000
    H21      H        0.14030    0.04410    0.65530    1.000
    C55      C        0.22580    0.19200    0.72370    1.000
    C56      C        0.31600    0.16830    0.68700    1.000
    C57      C        0.96610    0.24170    0.82600    1.000
    C58      C        0.98210    0.29750    0.91660    1.000
    H22      H        0.05030    0.31840    0.95680    1.000
    C59      C        0.89840    0.32200    0.94740    1.000
    H23      H        0.91090    0.35950    0.00770    1.000
    C60      C        0.79580    0.29100    0.88887    1.000
    C61      C        0.77880    0.22980    0.80059    1.000
    C62      C        0.86290    0.20700    0.76940    1.000
    H24      H        0.85040    0.16780    0.70970    1.000
    C63      C        0.70240    0.33450    0.91295    1.000
    C64      C        0.67070    0.18340    0.73910    1.000
