data_functionalizedCrystal
_audit_creation_method	'EQeq! by Chris Wilmer'
_symmetry_space_group_name_H-M	'P1'
_symmetry_Int_Tables_number	1
_symmetry_cell_setting	triclinic
loop_
_symmetry_equiv_pos_as_xyz
  x,y,z
_cell_length_a	30.3024
_cell_length_b	30.3024
_cell_length_c	30.3024
_cell_angle_alpha	60
_cell_angle_beta	60
_cell_angle_gamma	60
loop_
_atom_site_label
_atom_site_type_symbol
_atom_site_fract_x
_atom_site_fract_y
_atom_site_fract_z
_atom_site_charge
Mof_Zn	Zn	0.7578	0.5	0.5	1.205
Mof_Zn	Zn	0.85729	0.5	0.5	1.206
Mof_Zn	Zn	0.5	0.7578	0.2422	1.205
Mof_Zn	Zn	0.5	0.85729	0.14271	1.206
Mof_Zn	Zn	0.5	0.2422	0.7578	1.205
Mof_Zn	Zn	0.5	0.14271	0.85729	1.206
Mof_Zn	Zn	0.2422	0.5	0.5	1.205
Mof_Zn	Zn	0.14271	0.5	0.5	1.206
Mof_Zn	Zn	0.7578	0.5	0.2422	1.205
Mof_Zn	Zn	0.85729	0.5	0.14271	1.206
Mof_Zn	Zn	0.5	0.2422	0.5	1.205
Mof_Zn	Zn	0.5	0.14271	0.5	1.206
Mof_Zn	Zn	0.5	0.7578	0.5	1.204
Mof_Zn	Zn	0.5	0.85729	0.5	1.205
Mof_Zn	Zn	0.2422	0.5	0.7578	1.204
Mof_Zn	Zn	0.14271	0.5	0.85729	1.205
Mof_Zn	Zn	0.7578	0.2422	0.5	1.204
Mof_Zn	Zn	0.85729	0.14271	0.5	1.205
Mof_Zn	Zn	0.5	0.5	0.7578	1.204
Mof_Zn	Zn	0.5	0.5	0.85729	1.205
Mof_Zn	Zn	0.5	0.5	0.2422	1.204
Mof_Zn	Zn	0.5	0.5	0.14271	1.205
Mof_Zn	Zn	0.2422	0.7578	0.5	1.204
Mof_Zn	Zn	0.14271	0.85729	0.5	1.205
Mof_H 	H 	0.805	0.464	0.6714	0.037
Mof_H 	H 	0.464	0.805	0.0596	0.037
Mof_H 	H 	0.6714	0.0596	0.805	0.037
Mof_H 	H 	0.0596	0.6714	0.464	0.037
Mof_H 	H 	0.805	0.6714	0.0596	0.037
Mof_H 	H 	0.464	0.0596	0.6714	0.037
Mof_H 	H 	0.6714	0.805	0.464	0.037
Mof_H 	H 	0.0596	0.464	0.805	0.037
Mof_H 	H 	0.805	0.0596	0.464	0.037
Mof_H 	H 	0.464	0.6714	0.805	0.037
Mof_H 	H 	0.6714	0.464	0.0596	0.037
Mof_H 	H 	0.0596	0.805	0.6714	0.037
Mof_H 	H 	0.536	0.195	0.3286	0.037
Mof_H 	H 	0.195	0.536	0.9404	0.037
Mof_H 	H 	0.9404	0.3286	0.195	0.037
Mof_H 	H 	0.3286	0.9404	0.536	0.037
Mof_H 	H 	0.3286	0.195	0.9404	0.037
Mof_H 	H 	0.9404	0.536	0.3286	0.037
Mof_H 	H 	0.195	0.3286	0.536	0.037
Mof_H 	H 	0.536	0.9404	0.195	0.037
Mof_H 	H 	0.9404	0.195	0.536	0.037
Mof_H 	H 	0.3286	0.536	0.195	0.037
Mof_H 	H 	0.536	0.3286	0.9404	0.037
Mof_H 	H 	0.195	0.9404	0.3286	0.037
Mof_H 	H 	0.195	0.536	0.3286	0.037
Mof_H 	H 	0.536	0.195	0.9404	0.037
Mof_H 	H 	0.3286	0.9404	0.195	0.037
Mof_H 	H 	0.9404	0.3286	0.536	0.037
Mof_H 	H 	0.195	0.3286	0.9404	0.037
Mof_H 	H 	0.536	0.9404	0.3286	0.037
Mof_H 	H 	0.3286	0.195	0.536	0.037
Mof_H 	H 	0.9404	0.536	0.195	0.037
Mof_H 	H 	0.195	0.9404	0.536	0.037
Mof_H 	H 	0.536	0.3286	0.195	0.037
Mof_H 	H 	0.3286	0.536	0.9404	0.037
Mof_H 	H 	0.9404	0.195	0.3286	0.037
Mof_H 	H 	0.464	0.805	0.6714	0.037
Mof_H 	H 	0.805	0.464	0.0596	0.037
Mof_H 	H 	0.0596	0.6714	0.805	0.037
Mof_H 	H 	0.6714	0.0596	0.464	0.037
Mof_H 	H 	0.6714	0.805	0.0596	0.037
Mof_H 	H 	0.0596	0.464	0.6714	0.037
Mof_H 	H 	0.805	0.6714	0.464	0.037
Mof_H 	H 	0.464	0.0596	0.805	0.037
Mof_H 	H 	0.0596	0.805	0.464	0.037
Mof_H 	H 	0.6714	0.464	0.805	0.037
Mof_H 	H 	0.464	0.6714	0.0596	0.037
Mof_H 	H 	0.805	0.0596	0.6714	0.037
Mof_H 	H 	0.6652	0.4848	0.6652	0.028
Mof_H 	H 	0.4848	0.6652	0.1848	0.028
Mof_H 	H 	0.6652	0.1848	0.6652	0.028
Mof_H 	H 	0.1848	0.6652	0.4848	0.028
Mof_H 	H 	0.6652	0.6652	0.1848	0.028
Mof_H 	H 	0.4848	0.1848	0.6652	0.028
Mof_H 	H 	0.6652	0.6652	0.4848	0.028
Mof_H 	H 	0.1848	0.4848	0.6652	0.028
Mof_H 	H 	0.6652	0.1848	0.4848	0.028
Mof_H 	H 	0.4848	0.6652	0.6652	0.028
Mof_H 	H 	0.6652	0.4848	0.1848	0.028
Mof_H 	H 	0.1848	0.6652	0.6652	0.028
Mof_H 	H 	0.5152	0.3348	0.3348	0.028
Mof_H 	H 	0.3348	0.5152	0.8152	0.028
Mof_H 	H 	0.8152	0.3348	0.3348	0.028
Mof_H 	H 	0.3348	0.8152	0.5152	0.028
Mof_H 	H 	0.3348	0.3348	0.8152	0.028
Mof_H 	H 	0.8152	0.5152	0.3348	0.028
Mof_H 	H 	0.3348	0.3348	0.5152	0.028
Mof_H 	H 	0.5152	0.8152	0.3348	0.028
Mof_H 	H 	0.8152	0.3348	0.5152	0.028
Mof_H 	H 	0.3348	0.5152	0.3348	0.028
Mof_H 	H 	0.5152	0.3348	0.8152	0.028
Mof_H 	H 	0.3348	0.8152	0.3348	0.028
Mof_H 	H 	0.8948	0.4474	0.763	0.106
Mof_H 	H 	0.4474	0.8948	0.8948	0.106
Mof_H 	H 	0.763	0.8948	0.8948	0.106
Mof_H 	H 	0.8948	0.763	0.4474	0.106
Mof_H 	H 	0.8948	0.763	0.8948	0.106
Mof_H 	H 	0.4474	0.8948	0.763	0.106
Mof_H 	H 	0.763	0.8948	0.4474	0.106
Mof_H 	H 	0.8948	0.4474	0.8948	0.106
Mof_H 	H 	0.8948	0.8948	0.4474	0.106
Mof_H 	H 	0.4474	0.763	0.8948	0.106
Mof_H 	H 	0.763	0.4474	0.8948	0.106
Mof_H 	H 	0.8948	0.8948	0.763	0.106
Mof_H 	H 	0.5526	0.1052	0.237	0.106
Mof_H 	H 	0.1052	0.5526	0.1052	0.106
Mof_H 	H 	0.1052	0.237	0.1052	0.106
Mof_H 	H 	0.237	0.1052	0.5526	0.106
Mof_H 	H 	0.237	0.1052	0.1052	0.106
Mof_H 	H 	0.1052	0.5526	0.237	0.106
Mof_H 	H 	0.1052	0.237	0.5526	0.106
Mof_H 	H 	0.5526	0.1052	0.1052	0.106
Mof_H 	H 	0.1052	0.1052	0.5526	0.106
Mof_H 	H 	0.237	0.5526	0.1052	0.106
Mof_H 	H 	0.5526	0.237	0.1052	0.106
Mof_H 	H 	0.1052	0.1052	0.237	0.106
Mof_C 	C 	0.76491	0.48379	0.60053	0.423
Mof_C 	C 	0.73833	0.47713	0.65935	-0.131
Mof_C 	C 	0.76768	0.46836	0.68812	0.018
Mof_C 	C 	0.48379	0.76491	0.15077	0.423
Mof_C 	C 	0.47713	0.73833	0.12519	-0.131
Mof_C 	C 	0.46836	0.76768	0.07584	0.018
Mof_C 	C 	0.60053	0.15077	0.76491	0.423
Mof_C 	C 	0.65935	0.12519	0.73833	-0.131
Mof_C 	C 	0.68812	0.07584	0.76768	0.018
Mof_C 	C 	0.15077	0.60053	0.48379	0.423
Mof_C 	C 	0.12519	0.65935	0.47713	-0.131
Mof_C 	C 	0.07584	0.68812	0.46836	0.018
Mof_C 	C 	0.76491	0.60053	0.15077	0.423
Mof_C 	C 	0.73833	0.65935	0.12519	-0.131
Mof_C 	C 	0.76768	0.68812	0.07584	0.018
Mof_C 	C 	0.48379	0.15077	0.60053	0.423
Mof_C 	C 	0.47713	0.12519	0.65935	-0.131
Mof_C 	C 	0.46836	0.07584	0.68812	0.018
Mof_C 	C 	0.60053	0.76491	0.48379	0.423
Mof_C 	C 	0.65935	0.73833	0.47713	-0.131
Mof_C 	C 	0.68812	0.76768	0.46836	0.018
Mof_C 	C 	0.15077	0.48379	0.76491	0.423
Mof_C 	C 	0.12519	0.47713	0.73833	-0.131
Mof_C 	C 	0.07584	0.46836	0.76768	0.018
Mof_C 	C 	0.76491	0.15077	0.48379	0.423
Mof_C 	C 	0.73833	0.12519	0.47713	-0.131
Mof_C 	C 	0.76768	0.07584	0.46836	0.018
Mof_C 	C 	0.48379	0.60053	0.76491	0.423
Mof_C 	C 	0.47713	0.65935	0.73833	-0.131
Mof_C 	C 	0.46836	0.68812	0.76768	0.018
Mof_C 	C 	0.60053	0.48379	0.15077	0.423
Mof_C 	C 	0.65935	0.47713	0.12519	-0.131
Mof_C 	C 	0.68812	0.46836	0.07584	0.018
Mof_C 	C 	0.15077	0.76491	0.60053	0.423
Mof_C 	C 	0.12519	0.73833	0.65935	-0.131
Mof_C 	C 	0.07584	0.76768	0.68812	0.018
Mof_C 	C 	0.51621	0.23509	0.39947	0.423
Mof_C 	C 	0.52287	0.26167	0.34065	-0.131
Mof_C 	C 	0.53164	0.23232	0.31188	0.018
Mof_C 	C 	0.23509	0.51621	0.84923	0.423
Mof_C 	C 	0.26167	0.52287	0.87481	-0.131
Mof_C 	C 	0.23232	0.53164	0.92416	0.018
Mof_C 	C 	0.84923	0.39947	0.23509	0.423
Mof_C 	C 	0.87481	0.34065	0.26167	-0.131
Mof_C 	C 	0.92416	0.31188	0.23232	0.018
Mof_C 	C 	0.39947	0.84923	0.51621	0.423
Mof_C 	C 	0.34065	0.87481	0.52287	-0.131
Mof_C 	C 	0.31188	0.92416	0.53164	0.018
Mof_C 	C 	0.39947	0.23509	0.84923	0.423
Mof_C 	C 	0.34065	0.26167	0.87481	-0.131
Mof_C 	C 	0.31188	0.23232	0.92416	0.018
Mof_C 	C 	0.84923	0.51621	0.39947	0.423
Mof_C 	C 	0.87481	0.52287	0.34065	-0.131
Mof_C 	C 	0.92416	0.53164	0.31188	0.018
Mof_C 	C 	0.23509	0.39947	0.51621	0.423
Mof_C 	C 	0.26167	0.34065	0.52287	-0.131
Mof_C 	C 	0.23232	0.31188	0.53164	0.018
Mof_C 	C 	0.51621	0.84923	0.23509	0.423
Mof_C 	C 	0.52287	0.87481	0.26167	-0.131
Mof_C 	C 	0.53164	0.92416	0.23232	0.018
Mof_C 	C 	0.84923	0.23509	0.51621	0.423
Mof_C 	C 	0.87481	0.26167	0.52287	-0.131
Mof_C 	C 	0.92416	0.23232	0.53164	0.018
Mof_C 	C 	0.39947	0.51621	0.23509	0.423
Mof_C 	C 	0.34065	0.52287	0.26167	-0.131
Mof_C 	C 	0.31188	0.53164	0.23232	0.018
Mof_C 	C 	0.51621	0.39947	0.84923	0.423
Mof_C 	C 	0.52287	0.34065	0.87481	-0.131
Mof_C 	C 	0.53164	0.31188	0.92416	0.018
Mof_C 	C 	0.23509	0.84923	0.39947	0.423
Mof_C 	C 	0.26167	0.87481	0.34065	-0.131
Mof_C 	C 	0.23232	0.92416	0.31188	0.018
Mof_C 	C 	0.23509	0.51621	0.39947	0.423
Mof_C 	C 	0.26167	0.52287	0.34065	-0.131
Mof_C 	C 	0.23232	0.53164	0.31188	0.018
Mof_C 	C 	0.51621	0.23509	0.84923	0.423
Mof_C 	C 	0.52287	0.26167	0.87481	-0.131
Mof_C 	C 	0.53164	0.23232	0.92416	0.018
Mof_C 	C 	0.39947	0.84923	0.23509	0.423
Mof_C 	C 	0.34065	0.87481	0.26167	-0.131
Mof_C 	C 	0.31188	0.92416	0.23232	0.018
Mof_C 	C 	0.84923	0.39947	0.51621	0.423
Mof_C 	C 	0.87481	0.34065	0.52287	-0.131
Mof_C 	C 	0.92416	0.31188	0.53164	0.018
Mof_C 	C 	0.23509	0.39947	0.84923	0.423
Mof_C 	C 	0.26167	0.34065	0.87481	-0.131
Mof_C 	C 	0.23232	0.31188	0.92416	0.018
Mof_C 	C 	0.51621	0.84923	0.39947	0.423
Mof_C 	C 	0.52287	0.87481	0.34065	-0.131
Mof_C 	C 	0.53164	0.92416	0.31188	0.018
Mof_C 	C 	0.39947	0.23509	0.51621	0.423
Mof_C 	C 	0.34065	0.26167	0.52287	-0.131
Mof_C 	C 	0.31188	0.23232	0.53164	0.018
Mof_C 	C 	0.84923	0.51621	0.23509	0.423
Mof_C 	C 	0.87481	0.52287	0.26167	-0.131
Mof_C 	C 	0.92416	0.53164	0.23232	0.018
Mof_C 	C 	0.23509	0.84923	0.51621	0.423
Mof_C 	C 	0.26167	0.87481	0.52287	-0.131
Mof_C 	C 	0.23232	0.92416	0.53164	0.018
Mof_C 	C 	0.51621	0.39947	0.23509	0.423
Mof_C 	C 	0.52287	0.34065	0.26167	-0.131
Mof_C 	C 	0.53164	0.31188	0.23232	0.018
Mof_C 	C 	0.39947	0.51621	0.84923	0.423
Mof_C 	C 	0.34065	0.52287	0.87481	-0.131
Mof_C 	C 	0.31188	0.53164	0.92416	0.018
Mof_C 	C 	0.84923	0.23509	0.39947	0.423
Mof_C 	C 	0.87481	0.26167	0.34065	-0.131
Mof_C 	C 	0.92416	0.23232	0.31188	0.018
Mof_C 	C 	0.48379	0.76491	0.60053	0.423
Mof_C 	C 	0.47713	0.73833	0.65935	-0.131
Mof_C 	C 	0.46836	0.76768	0.68812	0.018
Mof_C 	C 	0.76491	0.48379	0.15077	0.423
Mof_C 	C 	0.73833	0.47713	0.12519	-0.131
Mof_C 	C 	0.76768	0.46836	0.07584	0.018
Mof_C 	C 	0.15077	0.60053	0.76491	0.423
Mof_C 	C 	0.12519	0.65935	0.73833	-0.131
Mof_C 	C 	0.07584	0.68812	0.76768	0.018
Mof_C 	C 	0.60053	0.15077	0.48379	0.423
Mof_C 	C 	0.65935	0.12519	0.47713	-0.131
Mof_C 	C 	0.68812	0.07584	0.46836	0.018
Mof_C 	C 	0.60053	0.76491	0.15077	0.423
Mof_C 	C 	0.65935	0.73833	0.12519	-0.131
Mof_C 	C 	0.68812	0.76768	0.07584	0.018
Mof_C 	C 	0.15077	0.48379	0.60053	0.423
Mof_C 	C 	0.12519	0.47713	0.65935	-0.131
Mof_C 	C 	0.07584	0.46836	0.68812	0.018
Mof_C 	C 	0.76491	0.60053	0.48379	0.423
Mof_C 	C 	0.73833	0.65935	0.47713	-0.131
Mof_C 	C 	0.76768	0.68812	0.46836	0.018
Mof_C 	C 	0.48379	0.15077	0.76491	0.423
Mof_C 	C 	0.47713	0.12519	0.73833	-0.131
Mof_C 	C 	0.46836	0.07584	0.76768	0.018
Mof_C 	C 	0.15077	0.76491	0.48379	0.423
Mof_C 	C 	0.12519	0.73833	0.47713	-0.131
Mof_C 	C 	0.07584	0.76768	0.46836	0.018
Mof_C 	C 	0.60053	0.48379	0.76491	0.423
Mof_C 	C 	0.65935	0.47713	0.73833	-0.131
Mof_C 	C 	0.68812	0.46836	0.76768	0.018
Mof_C 	C 	0.48379	0.60053	0.15077	0.423
Mof_C 	C 	0.47713	0.65935	0.12519	-0.131
Mof_C 	C 	0.46836	0.68812	0.07584	0.018
Mof_C 	C 	0.76491	0.15077	0.60053	0.423
Mof_C 	C 	0.73833	0.12519	0.65935	-0.131
Mof_C 	C 	0.76768	0.07584	0.68812	0.018
Mof_C 	C 	0.68464	0.48034	0.68464	0.072
Mof_C 	C 	0.74154	0.4661	0.74154	-0.031
Mof_C 	C 	0.7721	0.4553	0.7721	0.029
Mof_C 	C 	0.7977	0.4459	0.7977	-0.085
Mof_C 	C 	0.8246	0.447	0.8246	0.16
Mof_C 	C 	0.48034	0.68464	0.15038	0.072
Mof_C 	C 	0.4661	0.74154	0.05082	-0.031
Mof_C 	C 	0.4553	0.7721	0.0005	0.029
Mof_C 	C 	0.4459	0.7977	0.9587	-0.085
Mof_C 	C 	0.447	0.8246	0.9038	0.16
Mof_C 	C 	0.68464	0.15038	0.68464	0.072
Mof_C 	C 	0.74154	0.05082	0.74154	-0.031
Mof_C 	C 	0.7721	0.0005	0.7721	0.029
Mof_C 	C 	0.7977	0.9587	0.7977	-0.085
Mof_C 	C 	0.8246	0.9038	0.8246	0.16
Mof_C 	C 	0.15038	0.68464	0.48034	0.072
Mof_C 	C 	0.05082	0.74154	0.4661	-0.031
Mof_C 	C 	0.0005	0.7721	0.4553	0.029
Mof_C 	C 	0.9587	0.7977	0.4459	-0.085
Mof_C 	C 	0.9038	0.8246	0.447	0.16
Mof_C 	C 	0.68464	0.68464	0.15038	0.072
Mof_C 	C 	0.74154	0.74154	0.05082	-0.031
Mof_C 	C 	0.7721	0.7721	0.0005	0.029
Mof_C 	C 	0.7977	0.7977	0.9587	-0.085
Mof_C 	C 	0.8246	0.8246	0.9038	0.16
Mof_C 	C 	0.48034	0.15038	0.68464	0.072
Mof_C 	C 	0.4661	0.05082	0.74154	-0.031
Mof_C 	C 	0.4553	0.0005	0.7721	0.029
Mof_C 	C 	0.4459	0.9587	0.7977	-0.085
Mof_C 	C 	0.447	0.9038	0.8246	0.16
Mof_C 	C 	0.68464	0.68464	0.48034	0.072
Mof_C 	C 	0.74154	0.74154	0.4661	-0.031
Mof_C 	C 	0.7721	0.7721	0.4553	0.029
Mof_C 	C 	0.7977	0.7977	0.4459	-0.085
Mof_C 	C 	0.8246	0.8246	0.447	0.16
Mof_C 	C 	0.15038	0.48034	0.68464	0.072
Mof_C 	C 	0.05082	0.4661	0.74154	-0.031
Mof_C 	C 	0.0005	0.4553	0.7721	0.029
Mof_C 	C 	0.9587	0.4459	0.7977	-0.085
Mof_C 	C 	0.9038	0.447	0.8246	0.16
Mof_C 	C 	0.68464	0.15038	0.48034	0.072
Mof_C 	C 	0.74154	0.05082	0.4661	-0.031
Mof_C 	C 	0.7721	0.0005	0.4553	0.029
Mof_C 	C 	0.7977	0.9587	0.4459	-0.085
Mof_C 	C 	0.8246	0.9038	0.447	0.16
Mof_C 	C 	0.48034	0.68464	0.68464	0.072
Mof_C 	C 	0.4661	0.74154	0.74154	-0.031
Mof_C 	C 	0.4553	0.7721	0.7721	0.029
Mof_C 	C 	0.4459	0.7977	0.7977	-0.085
Mof_C 	C 	0.447	0.8246	0.8246	0.16
Mof_C 	C 	0.68464	0.48034	0.15038	0.072
Mof_C 	C 	0.74154	0.4661	0.05082	-0.031
Mof_C 	C 	0.7721	0.4553	0.0005	0.029
Mof_C 	C 	0.7977	0.4459	0.9587	-0.085
Mof_C 	C 	0.8246	0.447	0.9038	0.16
Mof_C 	C 	0.15038	0.68464	0.68464	0.072
Mof_C 	C 	0.05082	0.74154	0.74154	-0.031
Mof_C 	C 	0.0005	0.7721	0.7721	0.029
Mof_C 	C 	0.9587	0.7977	0.7977	-0.085
Mof_C 	C 	0.9038	0.8246	0.8246	0.16
Mof_C 	C 	0.51966	0.31536	0.31536	0.072
Mof_C 	C 	0.5339	0.25846	0.25846	-0.031
Mof_C 	C 	0.5447	0.2279	0.2279	0.029
Mof_C 	C 	0.5541	0.2023	0.2023	-0.085
Mof_C 	C 	0.553	0.1754	0.1754	0.16
Mof_C 	C 	0.31536	0.51966	0.84962	0.072
Mof_C 	C 	0.25846	0.5339	0.94918	-0.031
Mof_C 	C 	0.2279	0.5447	0.9995	0.029
Mof_C 	C 	0.2023	0.5541	0.0413	-0.085
Mof_C 	C 	0.1754	0.553	0.0962	0.16
Mof_C 	C 	0.84962	0.31536	0.31536	0.072
Mof_C 	C 	0.94918	0.25846	0.25846	-0.031
Mof_C 	C 	0.9995	0.2279	0.2279	0.029
Mof_C 	C 	0.0413	0.2023	0.2023	-0.085
Mof_C 	C 	0.0962	0.1754	0.1754	0.16
Mof_C 	C 	0.31536	0.84962	0.51966	0.072
Mof_C 	C 	0.25846	0.94918	0.5339	-0.031
Mof_C 	C 	0.2279	0.9995	0.5447	0.029
Mof_C 	C 	0.2023	0.0413	0.5541	-0.085
Mof_C 	C 	0.1754	0.0962	0.553	0.16
Mof_C 	C 	0.31536	0.31536	0.84962	0.072
Mof_C 	C 	0.25846	0.25846	0.94918	-0.031
Mof_C 	C 	0.2279	0.2279	0.9995	0.029
Mof_C 	C 	0.2023	0.2023	0.0413	-0.085
Mof_C 	C 	0.1754	0.1754	0.0962	0.16
Mof_C 	C 	0.84962	0.51966	0.31536	0.072
Mof_C 	C 	0.94918	0.5339	0.25846	-0.031
Mof_C 	C 	0.9995	0.5447	0.2279	0.029
Mof_C 	C 	0.0413	0.5541	0.2023	-0.085
Mof_C 	C 	0.0962	0.553	0.1754	0.16
Mof_C 	C 	0.31536	0.31536	0.51966	0.072
Mof_C 	C 	0.25846	0.25846	0.5339	-0.031
Mof_C 	C 	0.2279	0.2279	0.5447	0.029
Mof_C 	C 	0.2023	0.2023	0.5541	-0.085
Mof_C 	C 	0.1754	0.1754	0.553	0.16
Mof_C 	C 	0.51966	0.84962	0.31536	0.072
Mof_C 	C 	0.5339	0.94918	0.25846	-0.031
Mof_C 	C 	0.5447	0.9995	0.2279	0.029
Mof_C 	C 	0.5541	0.0413	0.2023	-0.085
Mof_C 	C 	0.553	0.0962	0.1754	0.16
Mof_C 	C 	0.84962	0.31536	0.51966	0.072
Mof_C 	C 	0.94918	0.25846	0.5339	-0.031
Mof_C 	C 	0.9995	0.2279	0.5447	0.029
Mof_C 	C 	0.0413	0.2023	0.5541	-0.085
Mof_C 	C 	0.0962	0.1754	0.553	0.16
Mof_C 	C 	0.31536	0.51966	0.31536	0.072
Mof_C 	C 	0.25846	0.5339	0.25846	-0.031
Mof_C 	C 	0.2279	0.5447	0.2279	0.029
Mof_C 	C 	0.2023	0.5541	0.2023	-0.085
Mof_C 	C 	0.1754	0.553	0.1754	0.16
Mof_C 	C 	0.51966	0.31536	0.84962	0.072
Mof_C 	C 	0.5339	0.25846	0.94918	-0.031
Mof_C 	C 	0.5447	0.2279	0.9995	0.029
Mof_C 	C 	0.5541	0.2023	0.0413	-0.085
Mof_C 	C 	0.553	0.1754	0.0962	0.16
Mof_C 	C 	0.31536	0.84962	0.31536	0.072
Mof_C 	C 	0.25846	0.94918	0.25846	-0.031
Mof_C 	C 	0.2279	0.9995	0.2279	0.029
Mof_C 	C 	0.2023	0.0413	0.2023	-0.085
Mof_C 	C 	0.1754	0.0962	0.1754	0.16
Mof_C 	C 	0.8768	0.4472	0.7992	-0.214
Mof_C 	C 	0.4472	0.8768	0.8768	-0.214
Mof_C 	C 	0.7992	0.8768	0.8768	-0.214
Mof_C 	C 	0.8768	0.7992	0.4472	-0.214
Mof_C 	C 	0.8768	0.7992	0.8768	-0.214
Mof_C 	C 	0.4472	0.8768	0.7992	-0.214
Mof_C 	C 	0.7992	0.8768	0.4472	-0.214
Mof_C 	C 	0.8768	0.4472	0.8768	-0.214
Mof_C 	C 	0.8768	0.8768	0.4472	-0.214
Mof_C 	C 	0.4472	0.7992	0.8768	-0.214
Mof_C 	C 	0.7992	0.4472	0.8768	-0.214
Mof_C 	C 	0.8768	0.8768	0.7992	-0.214
Mof_C 	C 	0.5528	0.1232	0.2008	-0.214
Mof_C 	C 	0.1232	0.5528	0.1232	-0.214
Mof_C 	C 	0.1232	0.2008	0.1232	-0.214
Mof_C 	C 	0.2008	0.1232	0.5528	-0.214
Mof_C 	C 	0.2008	0.1232	0.1232	-0.214
Mof_C 	C 	0.1232	0.5528	0.2008	-0.214
Mof_C 	C 	0.1232	0.2008	0.5528	-0.214
Mof_C 	C 	0.5528	0.1232	0.1232	-0.214
Mof_C 	C 	0.1232	0.1232	0.5528	-0.214
Mof_C 	C 	0.2008	0.5528	0.1232	-0.214
Mof_C 	C 	0.5528	0.2008	0.1232	-0.214
Mof_C 	C 	0.1232	0.1232	0.2008	-0.214
Mof_O 	O 	0.73771	0.48681	0.57835	-0.492
Mof_O 	O 	0.81125	0.48717	0.57813	-0.49
Mof_O 	O 	0.48681	0.73771	0.19713	-0.492
Mof_O 	O 	0.48717	0.81125	0.12345	-0.49
Mof_O 	O 	0.57835	0.19713	0.73771	-0.492
Mof_O 	O 	0.57813	0.12345	0.81125	-0.49
Mof_O 	O 	0.19713	0.57835	0.48681	-0.492
Mof_O 	O 	0.12345	0.57813	0.48717	-0.49
Mof_O 	O 	0.73771	0.57835	0.19713	-0.492
Mof_O 	O 	0.81125	0.57813	0.12345	-0.49
Mof_O 	O 	0.48681	0.19713	0.57835	-0.492
Mof_O 	O 	0.48717	0.12345	0.57813	-0.49
Mof_O 	O 	0.57835	0.73771	0.48681	-0.492
Mof_O 	O 	0.57813	0.81125	0.48717	-0.49
Mof_O 	O 	0.19713	0.48681	0.73771	-0.492
Mof_O 	O 	0.12345	0.48717	0.81125	-0.49
Mof_O 	O 	0.73771	0.19713	0.48681	-0.492
Mof_O 	O 	0.81125	0.12345	0.48717	-0.49
Mof_O 	O 	0.48681	0.57835	0.73771	-0.492
Mof_O 	O 	0.48717	0.57813	0.81125	-0.49
Mof_O 	O 	0.57835	0.48681	0.19713	-0.492
Mof_O 	O 	0.57813	0.48717	0.12345	-0.49
Mof_O 	O 	0.19713	0.73771	0.57835	-0.492
Mof_O 	O 	0.12345	0.81125	0.57813	-0.49
Mof_O 	O 	0.51319	0.26229	0.42165	-0.492
Mof_O 	O 	0.51283	0.18875	0.42187	-0.49
Mof_O 	O 	0.26229	0.51319	0.80287	-0.492
Mof_O 	O 	0.18875	0.51283	0.87655	-0.49
Mof_O 	O 	0.80287	0.42165	0.26229	-0.492
Mof_O 	O 	0.87655	0.42187	0.18875	-0.49
Mof_O 	O 	0.42165	0.80287	0.51319	-0.492
Mof_O 	O 	0.42187	0.87655	0.51283	-0.49
Mof_O 	O 	0.42165	0.26229	0.80287	-0.492
Mof_O 	O 	0.42187	0.18875	0.87655	-0.49
Mof_O 	O 	0.80287	0.51319	0.42165	-0.492
Mof_O 	O 	0.87655	0.51283	0.42187	-0.49
Mof_O 	O 	0.26229	0.42165	0.51319	-0.492
Mof_O 	O 	0.18875	0.42187	0.51283	-0.49
Mof_O 	O 	0.51319	0.80287	0.26229	-0.492
Mof_O 	O 	0.51283	0.87655	0.18875	-0.49
Mof_O 	O 	0.80287	0.26229	0.51319	-0.492
Mof_O 	O 	0.87655	0.18875	0.51283	-0.49
Mof_O 	O 	0.42165	0.51319	0.26229	-0.492
Mof_O 	O 	0.42187	0.51283	0.18875	-0.49
Mof_O 	O 	0.51319	0.42165	0.80287	-0.492
Mof_O 	O 	0.51283	0.42187	0.87655	-0.49
Mof_O 	O 	0.26229	0.80287	0.42165	-0.492
Mof_O 	O 	0.18875	0.87655	0.42187	-0.49
Mof_O 	O 	0.26229	0.51319	0.42165	-0.492
Mof_O 	O 	0.18875	0.51283	0.42187	-0.49
Mof_O 	O 	0.51319	0.26229	0.80287	-0.492
Mof_O 	O 	0.51283	0.18875	0.87655	-0.49
Mof_O 	O 	0.42165	0.80287	0.26229	-0.492
Mof_O 	O 	0.42187	0.87655	0.18875	-0.49
Mof_O 	O 	0.80287	0.42165	0.51319	-0.492
Mof_O 	O 	0.87655	0.42187	0.51283	-0.49
Mof_O 	O 	0.26229	0.42165	0.80287	-0.492
Mof_O 	O 	0.18875	0.42187	0.87655	-0.49
Mof_O 	O 	0.51319	0.80287	0.42165	-0.492
Mof_O 	O 	0.51283	0.87655	0.42187	-0.49
Mof_O 	O 	0.42165	0.26229	0.51319	-0.492
Mof_O 	O 	0.42187	0.18875	0.51283	-0.49
Mof_O 	O 	0.80287	0.51319	0.26229	-0.492
Mof_O 	O 	0.87655	0.51283	0.18875	-0.49
Mof_O 	O 	0.26229	0.80287	0.51319	-0.492
Mof_O 	O 	0.18875	0.87655	0.51283	-0.49
Mof_O 	O 	0.51319	0.42165	0.26229	-0.492
Mof_O 	O 	0.51283	0.42187	0.18875	-0.49
Mof_O 	O 	0.42165	0.51319	0.80287	-0.492
Mof_O 	O 	0.42187	0.51283	0.87655	-0.49
Mof_O 	O 	0.80287	0.26229	0.42165	-0.492
Mof_O 	O 	0.87655	0.18875	0.42187	-0.49
Mof_O 	O 	0.48681	0.73771	0.57835	-0.492
Mof_O 	O 	0.48717	0.81125	0.57813	-0.49
Mof_O 	O 	0.73771	0.48681	0.19713	-0.492
Mof_O 	O 	0.81125	0.48717	0.12345	-0.49
Mof_O 	O 	0.19713	0.57835	0.73771	-0.492
Mof_O 	O 	0.12345	0.57813	0.81125	-0.49
Mof_O 	O 	0.57835	0.19713	0.48681	-0.492
Mof_O 	O 	0.57813	0.12345	0.48717	-0.49
Mof_O 	O 	0.57835	0.73771	0.19713	-0.492
Mof_O 	O 	0.57813	0.81125	0.12345	-0.49
Mof_O 	O 	0.19713	0.48681	0.57835	-0.492
Mof_O 	O 	0.12345	0.48717	0.57813	-0.49
Mof_O 	O 	0.73771	0.57835	0.48681	-0.492
Mof_O 	O 	0.81125	0.57813	0.48717	-0.49
Mof_O 	O 	0.48681	0.19713	0.73771	-0.492
Mof_O 	O 	0.48717	0.12345	0.81125	-0.49
Mof_O 	O 	0.19713	0.73771	0.48681	-0.492
Mof_O 	O 	0.12345	0.81125	0.48717	-0.49
Mof_O 	O 	0.57835	0.48681	0.73771	-0.492
Mof_O 	O 	0.57813	0.48717	0.81125	-0.49
Mof_O 	O 	0.48681	0.57835	0.19713	-0.492
Mof_O 	O 	0.48717	0.57813	0.12345	-0.49
Mof_O 	O 	0.73771	0.19713	0.57835	-0.492
Mof_O 	O 	0.81125	0.12345	0.57813	-0.49
_end
