# CIF file generated by openbabel 3.1.0, see https://openbabel.org
data_I
_chemical_name_common 'image0'
_cell_length_a 10.418
_cell_length_b 10.521
_cell_length_c 6.287
_cell_angle_alpha 90
_cell_angle_beta 115.16
_cell_angle_gamma 90
_space_group_name_H-M_alt 'P 1'
_space_group_name_Hall 'P 1'
loop_
    _symmetry_equiv_pos_as_xyz
    x,y,z
loop_
    _atom_site_label
    _atom_site_type_symbol
    _atom_site_fract_x
    _atom_site_fract_y
    _atom_site_fract_z
    _atom_site_occupancy
    N1       N        0.31270    0.10980    0.38160    1.000
    H1       H        0.30760    0.16920    0.26430    1.000
    H2       H        0.22650    0.05430    0.33470    1.000
    C1       C        0.31650    0.21060    0.54640    1.000
    H3       H        0.39710    0.26540    0.57590    1.000
    H4       H        0.32940    0.17250    0.69470    1.000
    N2       N        0.81270    0.60980    0.38160    1.000
    H5       H        0.80760    0.66920    0.26430    1.000
    H6       H        0.72650    0.55430    0.33470    1.000
    C2       C        0.81650    0.71060    0.54640    1.000
    H7       H        0.89710    0.76540    0.57590    1.000
    H8       H        0.82940    0.67250    0.69470    1.000
    N3       N        0.68730    0.10980    0.11840    1.000
    H9       H        0.69240    0.16920    0.23570    1.000
    H10      H        0.77350    0.05430    0.16530    1.000
    C3       C        0.68350    0.21060    0.95360    1.000
    H11      H        0.60290    0.26540    0.92410    1.000
    H12      H        0.67060    0.17250    0.80530    1.000
    N4       N        0.18730    0.60980    0.11840    1.000
    H13      H        0.19240    0.66920    0.23570    1.000
    H14      H        0.27350    0.55430    0.16530    1.000
    C4       C        0.18350    0.71060    0.95360    1.000
    H15      H        0.10290    0.76540    0.92410    1.000
    H16      H        0.17060    0.67250    0.80530    1.000
    N5       N        0.68730    0.89020    0.61840    1.000
    H17      H        0.69240    0.83080    0.73570    1.000
    H18      H        0.77350    0.94570    0.66530    1.000
    C5       C        0.68350    0.78940    0.45360    1.000
    H19      H        0.60290    0.73460    0.42410    1.000
    H20      H        0.67060    0.82750    0.30530    1.000
    N6       N        0.18730    0.39020    0.61840    1.000
    H21      H        0.19240    0.33080    0.73570    1.000
    H22      H        0.27350    0.44570    0.66530    1.000
    C6       C        0.18350    0.28940    0.45360    1.000
    H23      H        0.10290    0.23460    0.42410    1.000
    H24      H        0.17060    0.32750    0.30530    1.000
    N7       N        0.31270    0.89020    0.88160    1.000
    H25      H        0.30760    0.83080    0.76430    1.000
    H26      H        0.22650    0.94570    0.83470    1.000
    C7       C        0.31650    0.78940    0.04640    1.000
    H27      H        0.39710    0.73460    0.07590    1.000
    H28      H        0.32940    0.82750    0.19470    1.000
    N8       N        0.81270    0.39020    0.88160    1.000
    H29      H        0.80760    0.33080    0.76430    1.000
    H30      H        0.72650    0.44570    0.83470    1.000
    C8       C        0.81650    0.28940    0.04640    1.000
    H31      H        0.89710    0.23460    0.07590    1.000
    H32      H        0.82940    0.32750    0.19470    1.000
    Ag1      Ag       0.50000    0.00000    0.50000    1.000
    Ag2      Ag       0.00000    0.50000    0.50000    1.000
    Ag3      Ag       0.50000    0.00000    0.00000    1.000
    Ag4      Ag       0.00000    0.50000    0.00000    1.000
