data_functionalizedCrystal
_audit_creation_method	'EQeq! by Chris Wilmer'
_symmetry_space_group_name_H-M	'P1'
_symmetry_Int_Tables_number	1
_symmetry_cell_setting	triclinic
loop_
_symmetry_equiv_pos_as_xyz
  x,y,z
_cell_length_a	20.6
_cell_length_b	10.4271
_cell_length_c	29.646
_cell_angle_alpha	90
_cell_angle_beta	113.51
_cell_angle_gamma	90
loop_
_atom_site_label
_atom_site_type_symbol
_atom_site_fract_x
_atom_site_fract_y
_atom_site_fract_z
_atom_site_charge
Mof_Co	Co	0.16514	0.82583	0.33702	1.155
Mof_O 	O 	0.0402	0.8053	0.21925	-0.453
Mof_O 	O 	0.1552	0.8441	0.26513	-0.439
Mof_O 	O 	0.3022	0.0175	0.1728	-0.33
Mof_O 	O 	0.2496	0.2088	0.14893	-0.406
Mof_O 	O 	0.085	0.3292	0.901	-0.347
Mof_O 	O 	0.1694	0.1875	0.90838	-0.433
Mof_O 	O 	0.0904	0.6623	0.31578	-0.951
Mof_N 	N 	0.0503	0.5137	0.222	-0.313
Mof_N 	N 	0.2385	0.9792	0.3628	-0.253
Mof_C 	C 	0.1006	0.8506	0.2257	0.385
Mof_C 	C 	0.1073	0.9133	0.1832	-0.163
Mof_C 	C 	0.1704	0.9692	0.1871	0.073
Mof_H 	H 	0.2091	0.9648	0.2172	0.024
Mof_C 	C 	0.1786	0.0312	0.1485	-0.132
Mof_C 	C 	0.2492	0.0896	0.1575	0.351
Mof_C 	C 	0.1208	0.0394	0.1026	0.07
Mof_C 	C 	0.0588	0.9817	0.0988	-0.152
Mof_H 	H 	0.0203	0.9829	0.0686	0.069
Mof_C 	C 	0.0512	0.9229	0.1376	0.08
Mof_H 	H 	0.0075	0.8884	0.1334	-0.01
Mof_C 	C 	0.1255	0.1014	0.0589	0.042
Mof_C 	C 	0.1821	0.0716	0.0464	-0.112
Mof_H 	H 	0.2184	0.0186	0.0665	0.078
Mof_C 	C 	0.184	0.1222	0.0033	0.048
Mof_H 	H 	0.2218	0.1024	0.995	0.027
Mof_C 	C 	0.1299	0.2021	0.9723	-0.13
Mof_C 	C 	0.1289	0.2447	0.9239	0.354
Mof_C 	C 	0.0771	0.2336	0.9866	0.036
Mof_H 	H 	0.0416	0.2891	0.9671	0.013
Mof_C 	C 	0.0741	0.1855	0.0299	-0.116
Mof_H 	H 	0.0376	0.2101	0.039	0.059
Mof_C 	C 	0.0728	0.4074	0.2432	0.199
Mof_H 	H 	0.0656	0.3872	0.2714	-0.058
Mof_C 	C 	0.1111	0.3125	0.224	-0.4
Mof_H 	H 	0.1253	0.2321	0.2381	0.17
Mof_C 	C 	0.1224	0.3513	0.1867	0.447
Mof_H 	H 	0.148	0.2981	0.1747	-0.111
Mof_C 	C 	0.101	0.456	0.1655	-0.495
Mof_H 	H 	0.1069	0.4788	0.137	0.209
Mof_C 	C 	0.0685	0.5355	0.1865	0.292
Mof_H 	H 	0.0582	0.6173	0.173	-0.075
Mof_C 	C 	0.2925	0.9695	0.4057	0.102
Mof_H 	H 	0.3005	0.8926	0.4229	0.003
Mof_C 	C 	0.3383	0.0737	0.4258	-0.186
Mof_H 	H 	0.3755	0.0675	0.4565	0.096
Mof_C 	C 	0.3265	0.1856	0.3986	0.124
Mof_H 	H 	0.3583	0.2535	0.4094	-0.009
Mof_C 	C 	0.2694	0.1949	0.357	-0.216
Mof_H 	H 	0.2574	0.272	0.34	0.121
Mof_C 	C 	0.2288	0.0884	0.34	0.137
Mof_H 	H 	0.191	0.0942	0.3095	-0.041
Mof_H 	H 	0.083	0.668	0.3423	0.372
Mof_H 	H 	0.123	0.609	0.316	0.372
Mof_Co	Co	0.66514	0.32583	0.33702	1.159
Mof_O 	O 	0.5402	0.3053	0.21925	-0.433
Mof_O 	O 	0.6552	0.3441	0.26513	-0.435
Mof_O 	O 	0.8022	0.5175	0.1728	-0.326
Mof_O 	O 	0.7496	0.7088	0.14893	-0.404
Mof_O 	O 	0.585	0.8292	0.901	-0.328
Mof_O 	O 	0.6694	0.6875	0.90838	-0.426
Mof_O 	O 	0.5904	0.1623	0.31578	-0.942
Mof_N 	N 	0.5503	0.0137	0.222	-0.302
Mof_N 	N 	0.7385	0.4792	0.3628	-0.252
Mof_C 	C 	0.6006	0.3506	0.2257	0.383
Mof_C 	C 	0.6073	0.4133	0.1832	-0.156
Mof_C 	C 	0.6704	0.4692	0.1871	0.072
Mof_H 	H 	0.7091	0.4648	0.2172	0.025
Mof_C 	C 	0.6786	0.5312	0.1485	-0.131
Mof_C 	C 	0.7492	0.5896	0.1575	0.35
Mof_C 	C 	0.6208	0.5394	0.1026	0.072
Mof_C 	C 	0.5588	0.4817	0.0988	-0.148
Mof_H 	H 	0.5203	0.4829	0.0686	0.083
Mof_C 	C 	0.5512	0.4229	0.1376	0.08
Mof_H 	H 	0.5075	0.3884	0.1334	0.007
Mof_C 	C 	0.6255	0.6014	0.0589	0.044
Mof_C 	C 	0.6821	0.5716	0.0464	-0.107
Mof_H 	H 	0.7184	0.5186	0.0665	0.079
Mof_C 	C 	0.684	0.6222	0.0033	0.047
Mof_H 	H 	0.7218	0.6024	0.995	0.03
Mof_C 	C 	0.6299	0.7021	0.9723	-0.12
Mof_C 	C 	0.6289	0.7447	0.9239	0.353
Mof_C 	C 	0.5771	0.7336	0.9866	0.037
Mof_H 	H 	0.5416	0.7891	0.9671	0.028
Mof_C 	C 	0.5741	0.6855	0.0299	-0.109
Mof_H 	H 	0.5376	0.7101	0.039	0.069
Mof_C 	C 	0.5728	0.9074	0.2432	0.201
Mof_H 	H 	0.5656	0.8872	0.2714	-0.045
Mof_C 	C 	0.6111	0.8125	0.224	-0.39
Mof_H 	H 	0.6253	0.7321	0.2381	0.17
Mof_C 	C 	0.6224	0.8513	0.1867	0.44
Mof_H 	H 	0.648	0.7981	0.1747	-0.107
Mof_C 	C 	0.601	0.956	0.1655	-0.484
Mof_H 	H 	0.6069	0.9788	0.137	0.21
Mof_C 	C 	0.5685	0.0355	0.1865	0.293
Mof_H 	H 	0.5582	0.1173	0.173	-0.066
Mof_C 	C 	0.7925	0.4695	0.4057	0.105
Mof_H 	H 	0.8005	0.3926	0.4229	0.003
Mof_C 	C 	0.8383	0.5737	0.4258	-0.186
Mof_H 	H 	0.8755	0.5675	0.4565	0.105
Mof_C 	C 	0.8265	0.6856	0.3986	0.128
Mof_H 	H 	0.8583	0.7535	0.4094	-0.004
Mof_C 	C 	0.7694	0.6949	0.357	-0.216
Mof_H 	H 	0.7574	0.772	0.34	0.123
Mof_C 	C 	0.7288	0.5884	0.34	0.14
Mof_H 	H 	0.691	0.5942	0.3095	-0.039
Mof_H 	H 	0.583	0.168	0.3423	0.38
Mof_H 	H 	0.623	0.109	0.316	0.371
Mof_Co	Co	0.83486	0.82583	0.16298	1.162
Mof_O 	O 	0.9598	0.8053	0.28075	-0.406
Mof_O 	O 	0.8448	0.8441	0.23487	-0.431
Mof_O 	O 	0.6978	0.0175	0.3272	-0.329
Mof_O 	O 	0.7504	0.2088	0.35107	-0.404
Mof_O 	O 	0.915	0.3292	0.599	-0.309
Mof_O 	O 	0.8306	0.1875	0.59162	-0.42
Mof_O 	O 	0.9096	0.6623	0.18422	-0.925
Mof_N 	N 	0.9497	0.5137	0.278	-0.286
Mof_N 	N 	0.7615	0.9792	0.1372	-0.25
Mof_C 	C 	0.8994	0.8506	0.2743	0.378
Mof_C 	C 	0.8927	0.9133	0.3168	-0.149
Mof_C 	C 	0.8296	0.9692	0.3129	0.07
Mof_H 	H 	0.7909	0.9648	0.2828	0.026
Mof_C 	C 	0.8214	0.0312	0.3515	-0.13
Mof_C 	C 	0.7508	0.0896	0.3425	0.35
Mof_C 	C 	0.8792	0.0394	0.3974	0.076
Mof_C 	C 	0.9412	0.9817	0.4012	-0.144
Mof_H 	H 	0.9797	0.9829	0.4314	0.098
Mof_C 	C 	0.9488	0.9229	0.3624	0.079
Mof_H 	H 	0.9925	0.8884	0.3666	0.025
Mof_C 	C 	0.8745	0.1014	0.4411	0.043
Mof_C 	C 	0.8179	0.0716	0.4536	-0.098
Mof_H 	H 	0.7816	0.0186	0.4335	0.075
Mof_C 	C 	0.816	0.1222	0.4967	0.035
Mof_H 	H 	0.7782	0.1024	0.505	0.036
Mof_C 	C 	0.8701	0.2021	0.5277	-0.105
Mof_C 	C 	0.8711	0.2447	0.5761	0.351
Mof_C 	C 	0.9229	0.2336	0.5134	0.038
Mof_H 	H 	0.9584	0.2891	0.5329	0.044
Mof_C 	C 	0.9259	0.1855	0.4701	-0.102
Mof_H 	H 	0.9624	0.2101	0.461	0.079
Mof_C 	C 	0.9272	0.4074	0.2568	0.201
Mof_H 	H 	0.9344	0.3872	0.2286	-0.03
Mof_C 	C 	0.8889	0.3125	0.276	-0.374
Mof_H 	H 	0.8747	0.2321	0.2619	0.169
Mof_C 	C 	0.8776	0.3513	0.3133	0.427
Mof_H 	H 	0.852	0.2981	0.3253	-0.101
Mof_C 	C 	0.899	0.456	0.3345	-0.467
Mof_H 	H 	0.8931	0.4788	0.363	0.21
Mof_C 	C 	0.9315	0.5355	0.3135	0.29
Mof_H 	H 	0.9418	0.6173	0.327	-0.055
Mof_C 	C 	0.7075	0.9695	0.0943	0.103
Mof_H 	H 	0.6995	0.8926	0.0771	0.004
Mof_C 	C 	0.6617	0.0737	0.0742	-0.184
Mof_H 	H 	0.6245	0.0675	0.0435	0.096
Mof_C 	C 	0.6735	0.1856	0.1014	0.125
Mof_H 	H 	0.6417	0.2535	0.0906	-0.008
Mof_C 	C 	0.7306	0.1949	0.143	-0.213
Mof_H 	H 	0.7426	0.272	0.16	0.122
Mof_C 	C 	0.7712	0.0884	0.16	0.14
Mof_H 	H 	0.809	0.0942	0.1905	-0.035
Mof_H 	H 	0.917	0.668	0.1577	0.385
Mof_H 	H 	0.877	0.609	0.184	0.369
Mof_Co	Co	0.33486	0.32583	0.16298	1.159
Mof_O 	O 	0.4598	0.3053	0.28075	-0.433
Mof_O 	O 	0.3448	0.3441	0.23487	-0.435
Mof_O 	O 	0.1978	0.5175	0.3272	-0.331
Mof_O 	O 	0.2504	0.7088	0.35107	-0.405
Mof_O 	O 	0.415	0.8292	0.599	-0.328
Mof_O 	O 	0.3306	0.6875	0.59162	-0.426
Mof_O 	O 	0.4096	0.1623	0.18422	-0.942
Mof_N 	N 	0.4497	0.0137	0.278	-0.302
Mof_N 	N 	0.2615	0.4792	0.1372	-0.25
Mof_C 	C 	0.3994	0.3506	0.2743	0.383
Mof_C 	C 	0.3927	0.4133	0.3168	-0.157
Mof_C 	C 	0.3296	0.4692	0.3129	0.072
Mof_H 	H 	0.2909	0.4648	0.2828	0.025
Mof_C 	C 	0.3214	0.5312	0.3515	-0.132
Mof_C 	C 	0.2508	0.5896	0.3425	0.351
Mof_C 	C 	0.3792	0.5394	0.3974	0.073
Mof_C 	C 	0.4412	0.4817	0.4012	-0.148
Mof_H 	H 	0.4797	0.4829	0.4314	0.083
Mof_C 	C 	0.4488	0.4229	0.3624	0.08
Mof_H 	H 	0.4925	0.3884	0.3666	0.007
Mof_C 	C 	0.3745	0.6014	0.4411	0.041
Mof_C 	C 	0.3179	0.5716	0.4536	-0.102
Mof_H 	H 	0.2816	0.5186	0.4335	0.074
Mof_C 	C 	0.316	0.6222	0.4967	0.036
Mof_H 	H 	0.2782	0.6024	0.505	0.034
Mof_C 	C 	0.3701	0.7021	0.5277	-0.115
Mof_C 	C 	0.3711	0.7447	0.5761	0.352
Mof_C 	C 	0.4229	0.7336	0.5134	0.037
Mof_H 	H 	0.4584	0.7891	0.5329	0.028
Mof_C 	C 	0.4259	0.6855	0.4701	-0.109
Mof_H 	H 	0.4624	0.7101	0.461	0.069
Mof_C 	C 	0.4272	0.9074	0.2568	0.201
Mof_H 	H 	0.4344	0.8872	0.2286	-0.045
Mof_C 	C 	0.3889	0.8125	0.276	-0.39
Mof_H 	H 	0.3747	0.7321	0.2619	0.17
Mof_C 	C 	0.3776	0.8513	0.3133	0.44
Mof_H 	H 	0.352	0.7981	0.3253	-0.107
Mof_C 	C 	0.399	0.956	0.3345	-0.484
Mof_H 	H 	0.3931	0.9788	0.363	0.21
Mof_C 	C 	0.4315	0.0355	0.3135	0.293
Mof_H 	H 	0.4418	0.1173	0.327	-0.066
Mof_C 	C 	0.2075	0.4695	0.0943	0.1
Mof_H 	H 	0.1995	0.3926	0.0771	0.003
Mof_C 	C 	0.1617	0.5737	0.0742	-0.185
Mof_H 	H 	0.1245	0.5675	0.0435	0.087
Mof_C 	C 	0.1735	0.6856	0.1014	0.121
Mof_H 	H 	0.1417	0.7535	0.0906	-0.013
Mof_C 	C 	0.2306	0.6949	0.143	-0.214
Mof_H 	H 	0.2426	0.772	0.16	0.121
Mof_C 	C 	0.2712	0.5884	0.16	0.137
Mof_H 	H 	0.309	0.5942	0.1905	-0.038
Mof_H 	H 	0.417	0.168	0.1577	0.38
Mof_H 	H 	0.377	0.109	0.184	0.371
Mof_Co	Co	0.83486	0.17417	0.66298	1.162
Mof_O 	O 	0.9598	0.1947	0.78075	-0.406
Mof_O 	O 	0.8448	0.1559	0.73487	-0.431
Mof_O 	O 	0.6978	0.9825	0.8272	-0.329
Mof_O 	O 	0.7504	0.7912	0.85107	-0.404
Mof_O 	O 	0.915	0.6708	0.099	-0.309
Mof_O 	O 	0.8306	0.8125	0.09162	-0.42
Mof_O 	O 	0.9096	0.3377	0.68422	-0.925
Mof_N 	N 	0.9497	0.4863	0.778	-0.286
Mof_N 	N 	0.7615	0.0208	0.6372	-0.25
Mof_C 	C 	0.8994	0.1494	0.7743	0.378
Mof_C 	C 	0.8927	0.0867	0.8168	-0.149
Mof_C 	C 	0.8296	0.0308	0.8129	0.07
Mof_H 	H 	0.7909	0.0352	0.7828	0.026
Mof_C 	C 	0.8214	0.9688	0.8515	-0.13
Mof_C 	C 	0.7508	0.9104	0.8425	0.35
Mof_C 	C 	0.8792	0.9606	0.8974	0.077
Mof_C 	C 	0.9412	0.0183	0.9012	-0.144
Mof_H 	H 	0.9797	0.0171	0.9314	0.098
Mof_C 	C 	0.9488	0.0771	0.8624	0.079
Mof_H 	H 	0.9925	0.1116	0.8666	0.025
Mof_C 	C 	0.8745	0.8986	0.9411	0.041
Mof_C 	C 	0.8179	0.9284	0.9536	-0.093
Mof_H 	H 	0.7816	0.9814	0.9335	0.073
Mof_C 	C 	0.816	0.8778	0.9967	0.026
Mof_H 	H 	0.7782	0.8976	0.005	0.041
Mof_C 	C 	0.8701	0.7979	0.0277	-0.1
Mof_C 	C 	0.8711	0.7553	0.0761	0.35
Mof_C 	C 	0.9229	0.7664	0.0134	0.038
Mof_H 	H 	0.9584	0.7109	0.0329	0.044
Mof_C 	C 	0.9259	0.8145	0.9701	-0.103
Mof_H 	H 	0.9624	0.7899	0.961	0.078
Mof_C 	C 	0.9272	0.5926	0.7568	0.2
Mof_H 	H 	0.9344	0.6128	0.7286	-0.03
Mof_C 	C 	0.8889	0.6875	0.776	-0.374
Mof_H 	H 	0.8747	0.7679	0.7619	0.169
Mof_C 	C 	0.8776	0.6487	0.8133	0.427
Mof_H 	H 	0.852	0.7019	0.8253	-0.101
Mof_C 	C 	0.899	0.544	0.8345	-0.467
Mof_H 	H 	0.8931	0.5212	0.863	0.21
Mof_C 	C 	0.9315	0.4645	0.8135	0.29
Mof_H 	H 	0.9418	0.3827	0.827	-0.055
Mof_C 	C 	0.7075	0.0305	0.5943	0.103
Mof_H 	H 	0.6995	0.1074	0.5771	0.003
Mof_C 	C 	0.6617	0.9263	0.5742	-0.184
Mof_H 	H 	0.6245	0.9325	0.5435	0.096
Mof_C 	C 	0.6735	0.8144	0.6014	0.125
Mof_H 	H 	0.6417	0.7465	0.5906	-0.009
Mof_C 	C 	0.7306	0.8051	0.643	-0.213
Mof_H 	H 	0.7426	0.728	0.66	0.122
Mof_C 	C 	0.7712	0.9116	0.66	0.139
Mof_H 	H 	0.809	0.9058	0.6905	-0.035
Mof_H 	H 	0.917	0.332	0.6577	0.385
Mof_H 	H 	0.877	0.391	0.684	0.369
Mof_Co	Co	0.33486	0.67417	0.66298	1.159
Mof_O 	O 	0.4598	0.6947	0.78075	-0.433
Mof_O 	O 	0.3448	0.6559	0.73487	-0.435
Mof_O 	O 	0.1978	0.4825	0.8272	-0.331
Mof_O 	O 	0.2504	0.2912	0.85107	-0.405
Mof_O 	O 	0.415	0.1708	0.099	-0.328
Mof_O 	O 	0.3306	0.3125	0.09162	-0.425
Mof_O 	O 	0.4096	0.8377	0.68422	-0.942
Mof_N 	N 	0.4497	0.9863	0.778	-0.302
Mof_N 	N 	0.2615	0.5208	0.6372	-0.25
Mof_C 	C 	0.3994	0.6494	0.7743	0.383
Mof_C 	C 	0.3927	0.5867	0.8168	-0.157
Mof_C 	C 	0.3296	0.5308	0.8129	0.073
Mof_H 	H 	0.2909	0.5352	0.7828	0.025
Mof_C 	C 	0.3214	0.4688	0.8515	-0.132
Mof_C 	C 	0.2508	0.4104	0.8425	0.351
Mof_C 	C 	0.3792	0.4606	0.8974	0.074
Mof_C 	C 	0.4412	0.5183	0.9012	-0.149
Mof_H 	H 	0.4797	0.5171	0.9314	0.083
Mof_C 	C 	0.4488	0.5771	0.8624	0.08
Mof_H 	H 	0.4925	0.6116	0.8666	0.007
Mof_C 	C 	0.3745	0.3986	0.9411	0.039
Mof_C 	C 	0.3179	0.4284	0.9536	-0.097
Mof_H 	H 	0.2816	0.4814	0.9335	0.072
Mof_C 	C 	0.316	0.3778	0.9967	0.026
Mof_H 	H 	0.2782	0.3976	0.005	0.039
Mof_C 	C 	0.3701	0.2979	0.0277	-0.11
Mof_C 	C 	0.3711	0.2553	0.0761	0.35
Mof_C 	C 	0.4229	0.2664	0.0134	0.037
Mof_H 	H 	0.4584	0.2109	0.0329	0.029
Mof_C 	C 	0.4259	0.3145	0.9701	-0.11
Mof_H 	H 	0.4624	0.2899	0.961	0.068
Mof_C 	C 	0.4272	0.0926	0.7568	0.201
Mof_H 	H 	0.4344	0.1128	0.7286	-0.045
Mof_C 	C 	0.3889	0.1875	0.776	-0.39
Mof_H 	H 	0.3747	0.2679	0.7619	0.17
Mof_C 	C 	0.3776	0.1487	0.8133	0.44
Mof_H 	H 	0.352	0.2019	0.8253	-0.107
Mof_C 	C 	0.399	0.044	0.8345	-0.484
Mof_H 	H 	0.3931	0.0212	0.863	0.21
Mof_C 	C 	0.4315	0.9645	0.8135	0.293
Mof_H 	H 	0.4418	0.8827	0.827	-0.066
Mof_C 	C 	0.2075	0.5305	0.5943	0.1
Mof_H 	H 	0.1995	0.6074	0.5771	0.003
Mof_C 	C 	0.1617	0.4263	0.5742	-0.185
Mof_H 	H 	0.1245	0.4325	0.5435	0.087
Mof_C 	C 	0.1735	0.3144	0.6014	0.121
Mof_H 	H 	0.1417	0.2465	0.5906	-0.013
Mof_C 	C 	0.2306	0.3051	0.643	-0.213
Mof_H 	H 	0.2426	0.228	0.66	0.121
Mof_C 	C 	0.2712	0.4116	0.66	0.137
Mof_H 	H 	0.309	0.4058	0.6905	-0.038
Mof_H 	H 	0.417	0.832	0.6577	0.38
Mof_H 	H 	0.377	0.891	0.684	0.371
Mof_Co	Co	0.16514	0.17417	0.83702	1.156
Mof_O 	O 	0.0402	0.1947	0.71925	-0.452
Mof_O 	O 	0.1552	0.1559	0.76513	-0.438
Mof_O 	O 	0.3022	0.9825	0.6728	-0.329
Mof_O 	O 	0.2496	0.7912	0.64893	-0.405
Mof_O 	O 	0.085	0.6708	0.401	-0.346
Mof_O 	O 	0.1694	0.8125	0.40838	-0.431
Mof_O 	O 	0.0904	0.3377	0.81578	-0.95
Mof_N 	N 	0.0503	0.4863	0.722	-0.312
Mof_N 	N 	0.2385	0.0208	0.8628	-0.252
Mof_C 	C 	0.1006	0.1494	0.7257	0.386
Mof_C 	C 	0.1073	0.0867	0.6832	-0.164
Mof_C 	C 	0.1704	0.0308	0.6871	0.074
Mof_H 	H 	0.2091	0.0352	0.7172	0.024
Mof_C 	C 	0.1786	0.9688	0.6485	-0.132
Mof_C 	C 	0.2492	0.9104	0.6575	0.351
Mof_C 	C 	0.1208	0.9606	0.6026	0.07
Mof_C 	C 	0.0588	0.0183	0.5988	-0.152
Mof_H 	H 	0.0203	0.0171	0.5686	0.068
Mof_C 	C 	0.0512	0.0771	0.6376	0.08
Mof_H 	H 	0.0075	0.1116	0.6334	-0.01
Mof_C 	C 	0.1255	0.8986	0.5589	0.04
Mof_C 	C 	0.1821	0.9284	0.5464	-0.107
Mof_H 	H 	0.2184	0.9814	0.5665	0.076
Mof_C 	C 	0.184	0.8778	0.5033	0.038
Mof_H 	H 	0.2218	0.8976	0.495	0.032
Mof_C 	C 	0.1299	0.7979	0.4723	-0.125
Mof_C 	C 	0.1289	0.7553	0.4239	0.352
Mof_C 	C 	0.0771	0.7664	0.4866	0.036
Mof_H 	H 	0.0416	0.7109	0.4671	0.013
Mof_C 	C 	0.0741	0.8145	0.5299	-0.117
Mof_H 	H 	0.0376	0.7899	0.539	0.059
Mof_C 	C 	0.0728	0.5926	0.7432	0.199
Mof_H 	H 	0.0656	0.6128	0.7714	-0.058
Mof_C 	C 	0.1111	0.6875	0.724	-0.4
Mof_H 	H 	0.1253	0.7679	0.7381	0.17
Mof_C 	C 	0.1224	0.6487	0.6867	0.446
Mof_H 	H 	0.148	0.7019	0.6747	-0.111
Mof_C 	C 	0.101	0.544	0.6655	-0.495
Mof_H 	H 	0.1069	0.5212	0.637	0.209
Mof_C 	C 	0.0685	0.4645	0.6865	0.292
Mof_H 	H 	0.0582	0.3827	0.673	-0.075
Mof_C 	C 	0.2925	0.0305	0.9057	0.101
Mof_H 	H 	0.3005	0.1074	0.9229	0.003
Mof_C 	C 	0.3383	0.9263	0.9258	-0.186
Mof_H 	H 	0.3755	0.9325	0.9565	0.095
Mof_C 	C 	0.3265	0.8144	0.8986	0.124
Mof_H 	H 	0.3583	0.7465	0.9094	-0.009
Mof_C 	C 	0.2694	0.8051	0.857	-0.216
Mof_H 	H 	0.2574	0.728	0.84	0.121
Mof_C 	C 	0.2288	0.9116	0.84	0.137
Mof_H 	H 	0.191	0.9058	0.8095	-0.041
Mof_H 	H 	0.083	0.332	0.8423	0.372
Mof_H 	H 	0.123	0.391	0.816	0.372
Mof_Co	Co	0.66514	0.67417	0.83702	1.159
Mof_O 	O 	0.5402	0.6947	0.71925	-0.433
Mof_O 	O 	0.6552	0.6559	0.76513	-0.435
Mof_O 	O 	0.8022	0.4825	0.6728	-0.326
Mof_O 	O 	0.7496	0.2912	0.64893	-0.404
Mof_O 	O 	0.585	0.1708	0.401	-0.328
Mof_O 	O 	0.6694	0.3125	0.40838	-0.426
Mof_O 	O 	0.5904	0.8377	0.81578	-0.942
Mof_N 	N 	0.5503	0.9863	0.722	-0.302
Mof_N 	N 	0.7385	0.5208	0.8628	-0.251
Mof_C 	C 	0.6006	0.6494	0.7257	0.383
Mof_C 	C 	0.6073	0.5867	0.6832	-0.157
Mof_C 	C 	0.6704	0.5308	0.6871	0.072
Mof_H 	H 	0.7091	0.5352	0.7172	0.025
Mof_C 	C 	0.6786	0.4688	0.6485	-0.131
Mof_C 	C 	0.7492	0.4104	0.6575	0.35
Mof_C 	C 	0.6208	0.4606	0.6026	0.073
Mof_C 	C 	0.5588	0.5183	0.5988	-0.148
Mof_H 	H 	0.5203	0.5171	0.5686	0.083
Mof_C 	C 	0.5512	0.5771	0.6376	0.08
Mof_H 	H 	0.5075	0.6116	0.6334	0.007
Mof_C 	C 	0.6255	0.3986	0.5589	0.042
Mof_C 	C 	0.6821	0.4284	0.5464	-0.103
Mof_H 	H 	0.7184	0.4814	0.5665	0.077
Mof_C 	C 	0.684	0.3778	0.5033	0.037
Mof_H 	H 	0.7218	0.3976	0.495	0.035
Mof_C 	C 	0.6299	0.2979	0.4723	-0.115
Mof_C 	C 	0.6289	0.2553	0.4239	0.352
Mof_C 	C 	0.5771	0.2664	0.4866	0.037
Mof_H 	H 	0.5416	0.2109	0.4671	0.028
Mof_C 	C 	0.5741	0.3145	0.5299	-0.11
Mof_H 	H 	0.5376	0.2899	0.539	0.069
Mof_C 	C 	0.5728	0.0926	0.7432	0.2
Mof_H 	H 	0.5656	0.1128	0.7714	-0.045
Mof_C 	C 	0.6111	0.1875	0.724	-0.39
Mof_H 	H 	0.6253	0.2679	0.7381	0.17
Mof_C 	C 	0.6224	0.1487	0.6867	0.44
Mof_H 	H 	0.648	0.2019	0.6747	-0.107
Mof_C 	C 	0.601	0.044	0.6655	-0.484
Mof_H 	H 	0.6069	0.0212	0.637	0.21
Mof_C 	C 	0.5685	0.9645	0.6865	0.293
Mof_H 	H 	0.5582	0.8827	0.673	-0.066
Mof_C 	C 	0.7925	0.5305	0.9057	0.105
Mof_H 	H 	0.8005	0.6074	0.9229	0.003
Mof_C 	C 	0.8383	0.4263	0.9258	-0.186
Mof_H 	H 	0.8755	0.4325	0.9565	0.104
Mof_C 	C 	0.8265	0.3144	0.8986	0.128
Mof_H 	H 	0.8583	0.2465	0.9094	-0.004
Mof_C 	C 	0.7694	0.3051	0.857	-0.216
Mof_H 	H 	0.7574	0.228	0.84	0.122
Mof_C 	C 	0.7288	0.4116	0.84	0.139
Mof_H 	H 	0.691	0.4058	0.8095	-0.039
Mof_H 	H 	0.583	0.832	0.8423	0.38
Mof_H 	H 	0.623	0.891	0.816	0.371
Mof_Co	Co	1.94692e-17	0.65927	0.25	1.168
Mof_Co	Co	0.5	0.15927	0.25	1.193
Mof_Co	Co	5.66124e-33	0.34073	0.75	1.168
Mof_Co	Co	0.5	0.84073	0.75	1.193
_end
