data_functionalizedCrystal
_audit_creation_method	'EQeq! by Chris Wilmer'
_symmetry_space_group_name_H-M	'P1'
_symmetry_Int_Tables_number	1
_symmetry_cell_setting	triclinic
loop_
_symmetry_equiv_pos_as_xyz
  x,y,z
_cell_length_a	13.5868
_cell_length_b	15.1581
_cell_length_c	16.0184
_cell_angle_alpha	118.239
_cell_angle_beta	98.812
_cell_angle_gamma	90
loop_
_atom_site_label
_atom_site_type_symbol
_atom_site_fract_x
_atom_site_fract_y
_atom_site_fract_z
_atom_site_charge
Mof_Nd	Nd	0.46126	0.89373	0.36102	2.237
Mof_Nd	Nd	0.03874	0.53271	0.63898	2.237
Mof_Nd	Nd	0.53874	0.10627	0.63898	2.237
Mof_Nd	Nd	0.96126	0.46729	0.36102	2.237
Mof_H 	H 	0.6031	0.6901	0.053	0.013
Mof_H 	H 	0.6481	0.6614	0.9094	0.065
Mof_H 	H 	0.6011	0.9463	0.9726	0.082
Mof_H 	H 	0.5432	0.9703	0.1092	0.026
Mof_H 	H 	0.591	0.896	0.6772	0.02
Mof_H 	H 	0.7885	0.7165	0.7146	0.046
Mof_H 	H 	0.7269	0.7118	0.4586	0.005
Mof_H 	H 	0.71	0.729	0.816	0.04
Mof_H 	H 	0.8969	0.6371	0.947	0.011
Mof_H 	H 	0.8519	0.752	0.0906	0.07
Mof_H 	H 	0.8989	0.9737	0.0274	0.085
Mof_H 	H 	0.9568	0.8611	0.8908	0.023
Mof_H 	H 	0.909	0.2188	0.3228	0.019
Mof_H 	H 	0.7115	0.0019	0.2854	0.046
Mof_H 	H 	0.7731	0.2532	0.5414	0.005
Mof_H 	H 	0.79	0.913	0.184	0.041
Mof_H 	H 	0.3969	0.3099	0.947	0.014
Mof_H 	H 	0.3519	0.3386	0.0906	0.066
Mof_H 	H 	0.3989	0.0537	0.0274	0.082
Mof_H 	H 	0.4568	0.0297	0.8908	0.026
Mof_H 	H 	0.409	0.104	0.3228	0.02
Mof_H 	H 	0.2115	0.2835	0.2854	0.046
Mof_H 	H 	0.2731	0.2882	0.5414	0.005
Mof_H 	H 	0.29	0.271	0.184	0.04
Mof_H 	H 	0.1031	0.3629	0.053	0.011
Mof_H 	H 	0.1481	0.248	0.9094	0.07
Mof_H 	H 	0.1011	0.0263	0.9726	0.085
Mof_H 	H 	0.0432	0.1389	0.1092	0.023
Mof_H 	H 	0.091	0.7812	0.6772	0.019
Mof_H 	H 	0.2885	0.9981	0.7146	0.046
Mof_H 	H 	0.2269	0.7468	0.4586	0.005
Mof_H 	H 	0.21	0.087	0.816	0.041
Mof_C 	C 	0.5279	0.8487	0.1838	0.326
Mof_C 	C 	0.5677	0.8333	0.0954	-0.11
Mof_C 	C 	0.6005	0.7405	0.0356	0.035
Mof_C 	C 	0.6289	0.724	0.9506	-0.129
Mof_C 	C 	0.629	0.8026	0.926	0.076
Mof_C 	C 	0.5992	0.8938	0.987	-0.128
Mof_C 	C 	0.5663	0.9091	0.0702	0.04
Mof_C 	C 	0.6565	0.7779	0.833	-0.02
Mof_C 	C 	0.5943	0.8472	0.495	0.446
Mof_C 	C 	0.6498	0.80911	0.55762	-0.165
Mof_C 	C 	0.6341	0.84601	0.65242	-0.006
Mof_C 	C 	0.683	0.80782	0.70904	0.03
Mof_C 	C 	0.7526	0.7384	0.6746	-0.007
Mof_C 	C 	0.7692	0.7012	0.5802	-0.161
Mof_C 	C 	0.7169	0.73662	0.52164	0.082
Mof_C 	C 	0.8428	0.6246	0.5438	0.484
Mof_C 	C 	0.9721	0.6649	0.8162	0.33
Mof_C 	C 	0.9323	0.7379	0.9046	-0.118
Mof_C 	C 	0.8995	0.7049	0.9644	0.046
Mof_C 	C 	0.8711	0.7734	0.0494	-0.14
Mof_C 	C 	0.871	0.8766	0.074	0.083
Mof_C 	C 	0.9008	0.9068	0.013	-0.14
Mof_C 	C 	0.9337	0.8389	0.9298	0.052
Mof_C 	C 	0.8435	0.9449	0.167	-0.024
Mof_C 	C 	0.9057	0.3522	0.505	0.446
Mof_C 	C 	0.8502	0.25149	0.44238	-0.165
Mof_C 	C 	0.8659	0.19359	0.34758	-0.006
Mof_C 	C 	0.817	0.09878	0.29096	0.029
Mof_C 	C 	0.7474	0.0638	0.3254	-0.007
Mof_C 	C 	0.7308	0.121	0.4198	-0.161
Mof_C 	C 	0.7831	0.21498	0.47836	0.082
Mof_C 	C 	0.6572	0.0808	0.4562	0.484
Mof_C 	C 	0.4721	0.1513	0.8162	0.326
Mof_C 	C 	0.4323	0.1667	0.9046	-0.11
Mof_C 	C 	0.3995	0.2595	0.9644	0.035
Mof_C 	C 	0.3711	0.276	0.0494	-0.129
Mof_C 	C 	0.371	0.1974	0.074	0.076
Mof_C 	C 	0.4008	0.1062	0.013	-0.128
Mof_C 	C 	0.4337	0.0909	0.9298	0.04
Mof_C 	C 	0.3435	0.2221	0.167	-0.02
Mof_C 	C 	0.4057	0.1528	0.505	0.446
Mof_C 	C 	0.3502	0.19089	0.44238	-0.165
Mof_C 	C 	0.3659	0.15399	0.34758	-0.006
Mof_C 	C 	0.317	0.19218	0.29096	0.03
Mof_C 	C 	0.2474	0.2616	0.3254	-0.007
Mof_C 	C 	0.2308	0.2988	0.4198	-0.161
Mof_C 	C 	0.2831	0.26338	0.47836	0.082
Mof_C 	C 	0.1572	0.3754	0.4562	0.484
Mof_C 	C 	0.0279	0.3351	0.1838	0.33
Mof_C 	C 	0.0677	0.2621	0.0954	-0.118
Mof_C 	C 	0.1005	0.2951	0.0356	0.046
Mof_C 	C 	0.1289	0.2266	0.9506	-0.14
Mof_C 	C 	0.129	0.1234	0.926	0.083
Mof_C 	C 	0.0992	0.0932	0.987	-0.14
Mof_C 	C 	0.0663	0.1611	0.0702	0.052
Mof_C 	C 	0.1565	0.0551	0.833	-0.024
Mof_C 	C 	0.0943	0.6478	0.495	0.446
Mof_C 	C 	0.1498	0.74851	0.55762	-0.165
Mof_C 	C 	0.1341	0.80641	0.65242	-0.006
Mof_C 	C 	0.183	0.90122	0.70904	0.029
Mof_C 	C 	0.2526	0.9362	0.6746	-0.007
Mof_C 	C 	0.2692	0.879	0.5802	-0.161
Mof_C 	C 	0.2169	0.78502	0.52164	0.082
Mof_C 	C 	0.3428	0.9192	0.5438	0.484
Mof_N 	N 	0.6583	0.84196	0.80312	-0.111
Mof_N 	N 	0.8417	0.03884	0.19688	-0.111
Mof_N 	N 	0.3417	0.15804	0.19688	-0.111
Mof_N 	N 	0.1583	0.96116	0.80312	-0.111
Mof_O 	O 	0.555	0.79546	0.22192	-0.449
Mof_O 	O 	0.4691	0.91688	0.21796	-0.479
Mof_O 	O 	0.5798	0.79319	0.40598	-0.509
Mof_O 	O 	0.562	0.93384	0.53328	-0.666
Mof_O 	O 	0.8871	0.59796	0.60312	-0.535
Mof_O 	O 	0.8534	0.58923	0.45706	-0.578
Mof_O 	O 	0.945	0.57354	0.77808	-0.449
Mof_O 	O 	0.0309	0.69892	0.78204	-0.481
Mof_O 	O 	0.9202	0.38721	0.59402	-0.509
Mof_O 	O 	0.938	0.40056	0.46672	-0.666
Mof_O 	O 	0.6129	0.99484	0.39688	-0.535
Mof_O 	O 	0.6466	0.13217	0.54294	-0.578
Mof_O 	O 	0.445	0.20454	0.77808	-0.449
Mof_O 	O 	0.5309	0.08312	0.78204	-0.479
Mof_O 	O 	0.4202	0.20681	0.59402	-0.509
Mof_O 	O 	0.438	0.06616	0.46672	-0.666
Mof_O 	O 	0.1129	0.40204	0.39688	-0.535
Mof_O 	O 	0.1466	0.41077	0.54294	-0.578
Mof_O 	O 	0.055	0.42646	0.22192	-0.449
Mof_O 	O 	0.9691	0.30108	0.21796	-0.481
Mof_O 	O 	0.0798	0.61279	0.40598	-0.509
Mof_O 	O 	0.062	0.59944	0.53328	-0.666
Mof_O 	O 	0.3871	0.00516	0.60312	-0.535
Mof_O 	O 	0.3534	0.86783	0.45706	-0.578
_end
