data_functionalizedCrystal
_audit_creation_method	'EQeq! by Chris Wilmer'
_symmetry_space_group_name_H-M	'P1'
_symmetry_Int_Tables_number	1
_symmetry_cell_setting	triclinic
loop_
_symmetry_equiv_pos_as_xyz
  x,y,z
_cell_length_a	17.28
_cell_length_b	14.802
_cell_length_c	14.365
_cell_angle_alpha	90
_cell_angle_beta	116.308
_cell_angle_gamma	90
loop_
_atom_site_label
_atom_site_type_symbol
_atom_site_fract_x
_atom_site_fract_y
_atom_site_fract_z
_atom_site_charge
Mof_Co	Co	0.19139	0.48307	0.15761	1.207
Mof_Co	Co	0.20085	0.49848	0.41458	1.208
Mof_O 	O 	0.5136	0.4185	0.5606	-0.127
Mof_O 	O 	0.1265	0.4832	0.9947	-0.394
Mof_N 	N 	0.597	0.4278	0.6203	-0.079
Mof_N 	N 	0.0417	0.4737	0.9398	-0.047
Mof_C 	C 	0.6467	0.3519	0.6466	0.051
Mof_H 	H 	0.6218	0.2954	0.6239	0.041
Mof_C 	C 	0.735	0.3597	0.7077	-0.117
Mof_H 	H 	0.7696	0.3084	0.7233	0.079
Mof_C 	C 	0.7731	0.4441	0.7462	0.055
Mof_C 	C 	0.7174	0.5173	0.7181	-0.124
Mof_H 	H 	0.7398	0.5745	0.7412	0.074
Mof_C 	C 	0.631	0.5082	0.6576	0.061
Mof_H 	H 	0.5955	0.5587	0.6422	0.027
Mof_C 	C 	0.0078	0.3912	0.9145	0.048
Mof_H 	H 	0.0439	0.3412	0.9386	0.036
Mof_C 	C 	0.9214	0.3781	0.8539	-0.105
Mof_H 	H 	0.8987	0.32	0.8392	0.071
Mof_C 	C 	0.8669	0.4549	0.8137	0.027
Mof_C 	C 	0.9047	0.5398	0.8412	-0.079
Mof_H 	H 	0.8712	0.5914	0.8159	0.057
Mof_C 	C 	0.9912	0.5478	0.9054	-0.007
Mof_H 	H 	0.0154	0.6048	0.9256	0.057
Mof_O 	O 	0.1398	0.6071	0.3236	-0.426
Mof_O 	O 	0.1076	0.5819	0.1574	-0.415
Mof_O 	O 	0.7947	0.9135	0.011	-0.413
Mof_O 	O 	0.7724	0.883	0.15	-0.419
Mof_C 	C 	0.9746	0.9168	0.2763	-0.097
Mof_H 	H 	0.9282	0.9565	0.2546	0.069
Mof_C 	C 	0.0496	0.9388	0.3595	0.003
Mof_H 	H 	0.0539	0.9927	0.3947	0.038
Mof_C 	C 	0.1204	0.8803	0.3923	-0.031
Mof_H 	H 	0.172	0.8966	0.4484	0.044
Mof_C 	C 	0.1153	0.7989	0.3433	-0.077
Mof_H 	H 	0.1627	0.7603	0.3675	0.075
Mof_C 	C 	0.0364	0.7731	0.2542	0.05
Mof_C 	C 	0.9652	0.8331	0.2206	0.041
Mof_C 	C 	0.8873	0.8108	0.1328	-0.105
Mof_C 	C 	0.8832	0.7339	0.0781	0.004
Mof_H 	H 	0.8327	0.7197	0.0194	0.041
Mof_C 	C 	0.9541	0.6772	0.1098	-0.034
Mof_H 	H 	0.9503	0.6259	0.0704	0.055
Mof_C 	C 	0.0291	0.6936	0.1967	-0.082
Mof_C 	C 	0.0989	0.6209	0.2289	0.387
Mof_C 	C 	0.8116	0.875	0.0951	0.386
Mof_O 	O 	0.2664	0.3922	0.5066	-0.419
Mof_O 	O 	0.2812	0.4197	0.6669	-0.426
Mof_O 	O 	0.6105	0.0894	0.8184	-0.44
Mof_O 	O 	0.6087	0.1128	0.6654	-0.423
Mof_C 	C 	0.4057	0.0686	0.5893	-0.093
Mof_H 	H 	0.4516	0.0283	0.6092	0.077
Mof_C 	C 	0.3245	0.0408	0.5218	-0.003
Mof_H 	H 	0.315	0.9814	0.4982	0.029
Mof_C 	C 	0.2555	0.1023	0.4883	-0.034
Mof_H 	H 	0.201	0.0842	0.4398	0.047
Mof_C 	C 	0.2676	0.1875	0.5259	-0.077
Mof_H 	H 	0.221	0.2269	0.5038	0.072
Mof_C 	C 	0.3485	0.2171	0.5964	0.046
Mof_C 	C 	0.4207	0.1558	0.6285	0.058
Mof_C 	C 	0.5042	0.1841	0.7036	-0.109
Mof_C 	C 	0.51569	0.26569	0.75349	-0.003
Mof_H 	H 	0.5689	0.2806	0.8076	0.036
Mof_C 	C 	0.44479	0.32736	0.72116	-0.001
Mof_H 	H 	0.4528	0.383	0.7542	0.038
Mof_C 	C 	0.3657	0.30661	0.64309	-0.107
Mof_C 	C 	0.29887	0.3771	0.60317	0.386
Mof_C 	C 	0.58147	0.12385	0.73145	0.408
Mof_O 	O 	0.27541	0.47725	0.32516	-0.629
Mof_H 	H 	0.3197	0.5233	0.3438	0.212
Mof_H 	H 	0.3037	0.4188	0.3427	0.212
Mof_Co	Co	0.69139	0.98307	0.15761	1.203
Mof_Co	Co	0.70085	0.99848	0.41458	1.206
Mof_O 	O 	0.0136	0.9185	0.5606	-0.123
Mof_O 	O 	0.6265	0.9832	0.9947	-0.391
Mof_N 	N 	0.097	0.9278	0.6203	-0.08
Mof_N 	N 	0.5417	0.9737	0.9398	-0.053
Mof_C 	C 	0.1467	0.8519	0.6466	0.051
Mof_H 	H 	0.1218	0.7954	0.6239	0.041
Mof_C 	C 	0.235	0.8597	0.7077	-0.116
Mof_H 	H 	0.2696	0.8084	0.7233	0.079
Mof_C 	C 	0.2731	0.9441	0.7462	0.053
Mof_C 	C 	0.2174	0.0173	0.7181	-0.121
Mof_H 	H 	0.2398	0.0745	0.7412	0.073
Mof_C 	C 	0.131	0.0082	0.6576	0.064
Mof_H 	H 	0.0955	0.0587	0.6422	0.029
Mof_C 	C 	0.5078	0.8912	0.9145	0.033
Mof_H 	H 	0.5439	0.8412	0.9386	0.041
Mof_C 	C 	0.4214	0.8781	0.8539	-0.091
Mof_H 	H 	0.3987	0.82	0.8392	0.068
Mof_C 	C 	0.3669	0.9549	0.8137	0.03
Mof_C 	C 	0.4047	0.0398	0.8412	-0.092
Mof_H 	H 	0.3712	0.0914	0.8159	0.063
Mof_C 	C 	0.4912	0.0478	0.9054	0.026
Mof_H 	H 	0.5154	0.1048	0.9256	0.039
Mof_O 	O 	0.6398	0.1071	0.3236	-0.425
Mof_O 	O 	0.6076	0.0819	0.1574	-0.414
Mof_O 	O 	0.2947	0.4135	0.011	-0.407
Mof_O 	O 	0.2724	0.383	0.15	-0.417
Mof_C 	C 	0.4746	0.4168	0.2763	-0.069
Mof_H 	H 	0.4282	0.4565	0.2546	0.063
Mof_C 	C 	0.5496	0.4388	0.3595	-0.026
Mof_H 	H 	0.5539	0.4927	0.3947	0.047
Mof_C 	C 	0.6204	0.3803	0.3923	-0.015
Mof_H 	H 	0.672	0.3966	0.4484	0.039
Mof_C 	C 	0.6153	0.2989	0.3433	-0.088
Mof_H 	H 	0.6627	0.2603	0.3675	0.079
Mof_C 	C 	0.5364	0.2731	0.2542	0.052
Mof_C 	C 	0.4652	0.3331	0.2206	0.039
Mof_C 	C 	0.3873	0.3108	0.1328	-0.096
Mof_C 	C 	0.3832	0.2339	0.0781	-0.007
Mof_H 	H 	0.3327	0.2197	0.0194	0.048
Mof_C 	C 	0.4541	0.1772	0.1098	-0.01
Mof_H 	H 	0.4503	0.1259	0.0704	0.052
Mof_C 	C 	0.5291	0.1936	0.1967	-0.099
Mof_C 	C 	0.5989	0.1209	0.2289	0.391
Mof_C 	C 	0.3116	0.375	0.0951	0.384
Mof_O 	O 	0.7664	0.8922	0.5066	-0.42
Mof_O 	O 	0.7812	0.9197	0.6669	-0.428
Mof_O 	O 	0.1105	0.5894	0.8184	-0.437
Mof_O 	O 	0.1087	0.6128	0.6654	-0.421
Mof_C 	C 	0.9057	0.5686	0.5893	-0.072
Mof_H 	H 	0.9516	0.5283	0.6092	0.065
Mof_C 	C 	0.8245	0.5408	0.5218	-0.03
Mof_H 	H 	0.815	0.4814	0.4982	0.041
Mof_C 	C 	0.7555	0.6023	0.4883	-0.015
Mof_H 	H 	0.701	0.5842	0.4398	0.038
Mof_C 	C 	0.7676	0.6875	0.5259	-0.091
Mof_H 	H 	0.721	0.7269	0.5038	0.076
Mof_C 	C 	0.8485	0.7171	0.5964	0.055
Mof_C 	C 	0.9207	0.6558	0.6285	0.037
Mof_C 	C 	0.0042	0.6841	0.7036	-0.097
Mof_C 	C 	0.01569	0.76569	0.75349	0.006
Mof_H 	H 	0.0689	0.7806	0.8076	0.034
Mof_C 	C 	0.94479	0.82736	0.72116	-0.013
Mof_H 	H 	0.9528	0.883	0.7542	0.039
Mof_C 	C 	0.8657	0.80661	0.64309	-0.108
Mof_C 	C 	0.79887	0.8771	0.60317	0.385
Mof_C 	C 	0.08147	0.62385	0.73145	0.406
Mof_O 	O 	0.77541	0.97725	0.32516	-0.636
Mof_H 	H 	0.8197	0.0233	0.3438	0.218
Mof_H 	H 	0.8037	0.9188	0.3427	0.212
Mof_Co	Co	0.19139	0.51693	0.65761	1.203
Mof_Co	Co	0.20085	0.50152	0.91458	1.2
Mof_O 	O 	0.5136	0.5815	0.0606	-0.118
Mof_O 	O 	0.1265	0.5168	0.4947	-0.379
Mof_N 	N 	0.597	0.5722	0.1203	-0.078
Mof_N 	N 	0.0417	0.5263	0.4398	-0.046
Mof_C 	C 	0.6467	0.6481	0.1466	0.055
Mof_H 	H 	0.6218	0.7046	0.1239	0.044
Mof_C 	C 	0.735	0.6403	0.2077	-0.114
Mof_H 	H 	0.7696	0.6916	0.2233	0.081
Mof_C 	C 	0.7731	0.5559	0.2462	0.057
Mof_C 	C 	0.7174	0.4827	0.2181	-0.122
Mof_H 	H 	0.7398	0.4255	0.2412	0.075
Mof_C 	C 	0.631	0.4918	0.1576	0.065
Mof_H 	H 	0.5955	0.4413	0.1422	0.029
Mof_C 	C 	0.0078	0.6088	0.4145	0.054
Mof_H 	H 	0.0439	0.6588	0.4386	0.04
Mof_C 	C 	0.9214	0.6219	0.3539	-0.105
Mof_H 	H 	0.8987	0.68	0.3392	0.074
Mof_C 	C 	0.8669	0.5451	0.3137	0.031
Mof_C 	C 	0.9047	0.4602	0.3412	-0.079
Mof_H 	H 	0.8712	0.4086	0.3159	0.059
Mof_C 	C 	0.9912	0.4522	0.4054	-0.002
Mof_H 	H 	0.0154	0.3952	0.4256	0.062
Mof_O 	O 	0.1398	0.3929	0.8236	-0.43
Mof_O 	O 	0.1076	0.4181	0.6574	-0.421
Mof_O 	O 	0.7947	0.0865	0.511	-0.42
Mof_O 	O 	0.7724	0.117	0.65	-0.422
Mof_C 	C 	0.9746	0.0832	0.7763	-0.096
Mof_H 	H 	0.9282	0.0435	0.7546	0.071
Mof_C 	C 	0.0496	0.0612	0.8595	-0
Mof_H 	H 	0.0539	0.0073	0.8947	0.033
Mof_C 	C 	0.1204	0.1197	0.8923	-0.035
Mof_H 	H 	0.172	0.1034	0.9484	0.039
Mof_C 	C 	0.1153	0.2011	0.8433	-0.077
Mof_H 	H 	0.1627	0.2397	0.8675	0.07
Mof_C 	C 	0.0364	0.2269	0.7542	0.048
Mof_C 	C 	0.9652	0.1669	0.7206	0.043
Mof_C 	C 	0.8873	0.1892	0.6328	-0.108
Mof_C 	C 	0.8832	0.2661	0.5781	0.004
Mof_H 	H 	0.8327	0.2803	0.5194	0.033
Mof_C 	C 	0.9541	0.3228	0.6098	-0.034
Mof_H 	H 	0.9503	0.3741	0.5704	0.049
Mof_C 	C 	0.0291	0.3064	0.6967	-0.084
Mof_C 	C 	0.0989	0.3791	0.7289	0.39
Mof_C 	C 	0.8116	0.125	0.5951	0.388
Mof_O 	O 	0.2664	0.6078	0.0066	-0.401
Mof_O 	O 	0.2812	0.5803	0.1669	-0.418
Mof_O 	O 	0.6105	0.9106	0.3184	-0.441
Mof_O 	O 	0.6087	0.8872	0.1654	-0.423
Mof_C 	C 	0.4057	0.9314	0.0893	-0.223
Mof_H 	H 	0.4516	0.9717	0.1092	0.122
Mof_C 	C 	0.3245	0.9592	0.0218	0.195
Mof_H 	H 	0.315	0.0186	0.9982	-0.055
Mof_C 	C 	0.2555	0.8977	0.9883	-0.238
Mof_H 	H 	0.201	0.9158	0.9398	0.112
Mof_C 	C 	0.2676	0.8125	0.0259	0.082
Mof_H 	H 	0.221	0.7731	0.0038	0.023
Mof_C 	C 	0.3485	0.7829	0.0964	-0.039
Mof_C 	C 	0.4207	0.8442	0.1285	0.141
Mof_C 	C 	0.5042	0.8159	0.2036	-0.147
Mof_C 	C 	0.51569	0.73431	0.25349	0.032
Mof_H 	H 	0.5689	0.7194	0.3076	0.027
Mof_C 	C 	0.44479	0.67264	0.22116	-0.036
Mof_H 	H 	0.4528	0.617	0.2542	0.052
Mof_C 	C 	0.3657	0.69339	0.14309	-0.063
Mof_C 	C 	0.29887	0.6229	0.10317	0.368
Mof_C 	C 	0.58147	0.87615	0.23145	0.421
Mof_O 	O 	0.27541	0.52275	0.82516	-0.629
Mof_H 	H 	0.3197	0.4767	0.8438	0.207
Mof_H 	H 	0.3037	0.5812	0.8427	0.206
Mof_Co	Co	0.69139	0.01693	0.65761	1.204
Mof_Co	Co	0.70085	0.00152	0.91458	1.2
Mof_O 	O 	0.0136	0.0815	0.0606	-0.11
Mof_O 	O 	0.6265	0.0168	0.4947	-0.376
Mof_N 	N 	0.097	0.0722	0.1203	-0.075
Mof_N 	N 	0.5417	0.0263	0.4398	-0.051
Mof_C 	C 	0.1467	0.1481	0.1466	0.058
Mof_H 	H 	0.1218	0.2046	0.1239	0.044
Mof_C 	C 	0.235	0.1403	0.2077	-0.116
Mof_H 	H 	0.2696	0.1916	0.2233	0.082
Mof_C 	C 	0.2731	0.0559	0.2462	0.063
Mof_C 	C 	0.2174	0.9827	0.2181	-0.13
Mof_H 	H 	0.2398	0.9255	0.2412	0.077
Mof_C 	C 	0.131	0.9918	0.1576	0.06
Mof_H 	H 	0.0955	0.9413	0.1422	0.031
Mof_C 	C 	0.5078	0.1088	0.4145	0.039
Mof_H 	H 	0.5439	0.1588	0.4386	0.044
Mof_C 	C 	0.4214	0.1219	0.3539	-0.092
Mof_H 	H 	0.3987	0.18	0.3392	0.071
Mof_C 	C 	0.3669	0.0451	0.3137	0.039
Mof_C 	C 	0.4047	0.9602	0.3412	-0.1
Mof_H 	H 	0.3712	0.9086	0.3159	0.067
Mof_C 	C 	0.4912	0.9522	0.4054	0.03
Mof_H 	H 	0.5154	0.8952	0.4256	0.044
Mof_O 	O 	0.6398	0.8929	0.8236	-0.431
Mof_O 	O 	0.6076	0.9181	0.6574	-0.425
Mof_O 	O 	0.2947	0.5865	0.511	-0.421
Mof_O 	O 	0.2724	0.617	0.65	-0.422
Mof_C 	C 	0.4746	0.5832	0.7763	-0.074
Mof_H 	H 	0.4282	0.5435	0.7546	0.064
Mof_C 	C 	0.5496	0.5612	0.8595	-0.025
Mof_H 	H 	0.5539	0.5073	0.8947	0.039
Mof_C 	C 	0.6204	0.6197	0.8923	-0.021
Mof_H 	H 	0.672	0.6034	0.9484	0.035
Mof_C 	C 	0.6153	0.7011	0.8433	-0.086
Mof_H 	H 	0.6627	0.7397	0.8675	0.075
Mof_C 	C 	0.5364	0.7269	0.7542	0.049
Mof_C 	C 	0.4652	0.6669	0.7206	0.041
Mof_C 	C 	0.3873	0.6892	0.6328	-0.101
Mof_C 	C 	0.3832	0.7661	0.5781	-0.007
Mof_H 	H 	0.3327	0.7803	0.5194	0.037
Mof_C 	C 	0.4541	0.8228	0.6098	-0.013
Mof_H 	H 	0.4503	0.8741	0.5704	0.044
Mof_C 	C 	0.5291	0.8064	0.6967	-0.101
Mof_C 	C 	0.5989	0.8791	0.7289	0.393
Mof_C 	C 	0.3116	0.625	0.5951	0.386
Mof_O 	O 	0.7664	0.1078	0.0066	-0.396
Mof_O 	O 	0.7812	0.0803	0.1669	-0.414
Mof_O 	O 	0.1105	0.4106	0.3184	-0.439
Mof_O 	O 	0.1087	0.3872	0.1654	-0.42
Mof_C 	C 	0.9057	0.4314	0.0893	-0.247
Mof_H 	H 	0.9516	0.4717	0.1092	0.13
Mof_C 	C 	0.8245	0.4592	0.0218	0.238
Mof_H 	H 	0.815	0.5186	0.9982	-0.071
Mof_C 	C 	0.7555	0.3977	0.9883	-0.285
Mof_H 	H 	0.701	0.4158	0.9398	0.127
Mof_C 	C 	0.7676	0.3125	0.0259	0.118
Mof_H 	H 	0.721	0.2731	0.0038	0.012
Mof_C 	C 	0.8485	0.2829	0.0964	-0.058
Mof_C 	C 	0.9207	0.3442	0.1285	0.15
Mof_C 	C 	0.0042	0.3159	0.2036	-0.148
Mof_C 	C 	0.01569	0.23431	0.25349	0.053
Mof_H 	H 	0.0689	0.2194	0.3076	0.022
Mof_C 	C 	0.94479	0.17264	0.22116	-0.06
Mof_H 	H 	0.9528	0.117	0.2542	0.059
Mof_C 	C 	0.8657	0.19339	0.14309	-0.049
Mof_C 	C 	0.79887	0.1229	0.10317	0.363
Mof_C 	C 	0.08147	0.37615	0.23145	0.423
Mof_O 	O 	0.77541	0.02275	0.82516	-0.627
Mof_H 	H 	0.8197	0.9767	0.8438	0.206
Mof_H 	H 	0.8037	0.0812	0.8427	0.204
_end
