# CIF file generated by openbabel 3.1.0, see https://openbabel.org
data_I
_chemical_name_common 'image0'
_cell_length_a 7.163
_cell_length_b 10.443
_cell_length_c 20.003
_cell_angle_alpha 81.2
_cell_angle_beta 85.04
_cell_angle_gamma 86.91
_space_group_name_H-M_alt 'P 1'
_space_group_name_Hall 'P 1'
loop_
    _symmetry_equiv_pos_as_xyz
    x,y,z
loop_
    _atom_site_label
    _atom_site_type_symbol
    _atom_site_fract_x
    _atom_site_fract_y
    _atom_site_fract_z
    _atom_site_occupancy
    Na1      Na       0.59416    0.66202    0.76645    1.000
    Na2      Na       0.65326    0.56892    0.93810    1.000
    P1       P        0.54714    0.00103    0.67050    1.000
    O1       O        0.46581    0.03217    0.73875    1.000
    O2       O        0.58278    0.84877    0.67649    1.000
    H1       H        0.59600    0.82800    0.63800    1.000
    O3       O        0.75022    0.05871    0.66078    1.000
    O4       O        0.43420    0.04958    0.61222    1.000
    O5       O        0.76720    0.12765    0.48978    1.000
    O6       O        0.83953    0.30936    0.52701    1.000
    N1       N        0.09610    0.19424    0.60674    1.000
    H2       H        0.02000    0.22500    0.63870    1.000
    H3       H        0.19400    0.15000    0.62600    1.000
    H4       H        0.14300    0.25700    0.57610    1.000
    C1       C        0.85410    0.19020    0.52611    1.000
    C2       C        0.99270    0.10892    0.57123    1.000
    H5       H        0.08100    0.06780    0.54120    1.000
    C3       C        0.89960    0.00022    0.61960    1.000
    H6       H        0.84600    0.94600    0.58940    1.000
    C4       C        0.02820    0.92030    0.66729    1.000
    H7       H        0.96800    0.84600    0.69310    1.000
    H8       H        0.07000    0.96900    0.70050    1.000
    H9       H        0.14300    0.88700    0.64140    1.000
    P2       P        0.11722    0.50348    0.31617    1.000
    O7       O        0.07525    0.43747    0.25778    1.000
    O8       O        0.12100    0.65537    0.29634    1.000
    H10      H        0.17600    0.67900    0.26040    1.000
    O9       O        0.33255    0.45648    0.32733    1.000
    O10      O        0.99754    0.47725    0.38111    1.000
    O11      O        0.27375    0.36786    0.50665    1.000
    O12      O        0.36257    0.21002    0.44521    1.000
    N2       N        0.67950    0.33511    0.39140    1.000
    H11      H        0.65500    0.31000    0.35270    1.000
    H12      H        0.79200    0.37900    0.38380    1.000
    H13      H        0.69800    0.25800    0.42150    1.000
    C5       C        0.37430    0.32153    0.46133    1.000
    C6       C        0.52310    0.41119    0.42323    1.000
    H14      H        0.57200    0.45670    0.45700    1.000
    C7       C        0.43530    0.51803    0.37324    1.000
    H15      H        0.34600    0.56700    0.40140    1.000
    C8       C        0.57420    0.60700    0.33085    1.000
    H16      H        0.51100    0.68100    0.30620    1.000
    H17      H        0.66000    0.55800    0.30160    1.000
    H18      H        0.64800    0.64200    0.35920    1.000
    O13      O        0.69110    0.76392    0.85367    1.000
    H19      H        0.82100    0.76500    0.85160    1.000
    H20      H        0.65800    0.84200    0.85130    1.000
    O14      O        0.62410    0.35585    0.00281    1.000
    H21      H        0.60000    0.29800    0.97790    1.000
    H22      H        0.73300    0.33100    0.01330    1.000
    O15      O        0.51560    0.48413    0.85092    1.000
    H23      H        0.56800    0.40900    0.84250    1.000
    H24      H        0.41900    0.46200    0.86190    1.000
    O16      O        0.97120    0.53610    0.88109    1.000
    O17      O        0.09400    0.52900    0.12350    1.000
    H25      H        0.02100    0.61700    0.87660    1.000
    H26      H        0.95100    0.52300    0.84350    1.000
    H27      H        0.16000    0.61000    0.13200    1.000
    Na3      Na       0.40584    0.33798    0.23355    1.000
    Na4      Na       0.34674    0.43108    0.06190    1.000
    P3       P        0.45286    0.99897    0.32950    1.000
    O18      O        0.53419    0.96783    0.26125    1.000
    O19      O        0.41722    0.15123    0.32351    1.000
    H28      H        0.40400    0.17200    0.36200    1.000
    O20      O        0.24978    0.94129    0.33922    1.000
    O21      O        0.56580    0.95042    0.38778    1.000
    O22      O        0.23280    0.87235    0.51022    1.000
    O23      O        0.16047    0.69064    0.47299    1.000
    N3       N        0.90390    0.80576    0.39326    1.000
    H29      H        0.98000    0.77500    0.36130    1.000
    H30      H        0.80600    0.85000    0.37400    1.000
    H31      H        0.85700    0.74300    0.42390    1.000
    C9       C        0.14590    0.80980    0.47389    1.000
    C10      C        0.00730    0.89108    0.42877    1.000
    H32      H        0.91900    0.93220    0.45880    1.000
    C11      C        0.10040    0.99978    0.38040    1.000
    H33      H        0.15400    0.05400    0.41060    1.000
    C12      C        0.97180    0.07970    0.33271    1.000
    H34      H        0.03200    0.15400    0.30690    1.000
    H35      H        0.93000    0.03100    0.29950    1.000
    H36      H        0.85700    0.11300    0.35860    1.000
    P4       P        0.88278    0.49652    0.68383    1.000
    O24      O        0.92475    0.56253    0.74222    1.000
    O25      O        0.87900    0.34463    0.70366    1.000
    H37      H        0.82400    0.32100    0.73960    1.000
    O26      O        0.66745    0.54352    0.67267    1.000
    O27      O        0.00246    0.52275    0.61889    1.000
    O28      O        0.72625    0.63214    0.49335    1.000
    O29      O        0.63743    0.78998    0.55479    1.000
    N4       N        0.32050    0.66489    0.60860    1.000
    H38      H        0.34500    0.69000    0.64730    1.000
    H39      H        0.20800    0.62100    0.61620    1.000
    H40      H        0.30200    0.74200    0.57850    1.000
    C13      C        0.62570    0.67847    0.53867    1.000
    C14      C        0.47690    0.58881    0.57677    1.000
    H41      H        0.42800    0.54330    0.54300    1.000
    C15      C        0.56470    0.48197    0.62676    1.000
    H42      H        0.65400    0.43300    0.59860    1.000
    C16      C        0.42580    0.39300    0.66915    1.000
    H43      H        0.48900    0.31900    0.69380    1.000
    H44      H        0.34000    0.44200    0.69840    1.000
    H45      H        0.35200    0.35800    0.64080    1.000
    O30      O        0.30890    0.23608    0.14633    1.000
    H46      H        0.17900    0.23500    0.14840    1.000
    H47      H        0.34200    0.15800    0.14870    1.000
    O31      O        0.37590    0.64415    0.99719    1.000
    H48      H        0.40000    0.70200    0.02210    1.000
    H49      H        0.26700    0.66900    0.98670    1.000
    O32      O        0.48440    0.51587    0.14908    1.000
    H50      H        0.43200    0.59100    0.15750    1.000
    H51      H        0.58100    0.53800    0.13810    1.000
    O33      O        0.02880    0.46390    0.11891    1.000
    O34      O        0.90600    0.47100    0.87650    1.000
    H52      H        0.97900    0.38300    0.12340    1.000
    H53      H        0.04900    0.47700    0.15650    1.000
    H54      H        0.84000    0.39000    0.86800    1.000
    Na5      Na       0.00000    0.50000    0.50000    1.000
    Na6      Na       0.50000    0.00000    0.50000    1.000
