# CIF file generated by openbabel 3.1.0, see https://openbabel.org
data_I
_chemical_name_common 'image0'
_cell_length_a 24.9427
_cell_length_b 16.9411
_cell_length_c 25.2889
_cell_angle_alpha 90
_cell_angle_beta 105.208
_cell_angle_gamma 90
_space_group_name_H-M_alt 'P 1'
_space_group_name_Hall 'P 1'
loop_
    _symmetry_equiv_pos_as_xyz
    x,y,z
loop_
    _atom_site_label
    _atom_site_type_symbol
    _atom_site_fract_x
    _atom_site_fract_y
    _atom_site_fract_z
    _atom_site_occupancy
    Gd1      Gd       0.21815    0.81764    0.05243    1.000
    Gd2      Gd       0.40874    0.89948    0.73810    1.000
    O1       O        0.12362    0.87620    0.04171    1.000
    O2       O        0.15039    0.77540    0.09801    1.000
    O3       O        0.33782    0.98250    0.76081    1.000
    O4       O        0.21363    0.91370    0.98139    1.000
    O5       O        0.25176    0.81279    0.94939    1.000
    O6       O        0.15152    0.75220    0.98077    1.000
    O7       O        0.02815    0.67870    0.20631    1.000
    O8       O        0.93665    0.68800    0.17329    1.000
    O9       O        0.04795    0.48780    0.80633    1.000
    O10      O        0.36959    0.88450    0.81797    1.000
    O11      O        0.95884    0.49070    0.80647    1.000
    C1       C        0.23784    0.88400    0.94798    1.000
    C2       C        0.14579    0.69440    0.94862    1.000
    C3       C        0.11400    0.82460    0.07382    1.000
    N1       N        0.91930    0.91290    0.03420    1.000
    C4       C        0.33840    0.94300    0.80330    1.000
    N2       N        0.94243    0.71380    0.93270    1.000
    N3       N        0.23400    0.15080    0.86750    1.000
    C5       C        0.00790    0.51420    0.82176    1.000
    C6       C        0.98550    0.70520    0.17340    1.000
    C7       C        0.07501    0.60650    0.88527    1.000
    H1       H        0.10440    0.58220    0.87380    1.000
    C8       C        0.05740    0.82160    0.08420    1.000
    C9       C        0.02076    0.58050    0.86333    1.000
    C10      C        0.08733    0.66770    0.92389    1.000
    C11      C        0.97722    0.61470    0.87972    1.000
    H2       H        0.94010    0.59670    0.86570    1.000
    C12      C        0.25198    0.93880    0.90645    1.000
    C13      C        0.95220    0.81140    0.10240    1.000
    H3       H        0.91600    0.80780    0.10780    1.000
    C14      C        0.99500    0.76280    0.13125    1.000
    C15      C        0.30050    0.96780    0.83780    1.000
    C16      C        0.04310    0.70350    0.93980    1.000
    H4       H        0.04960    0.74550    0.96560    1.000
    C17      C        0.98950    0.67580    0.91700    1.000
    C18      C        0.23220    0.01570    0.90260    1.000
    H5       H        0.20770    0.03260    0.92350    1.000
    C19      C        0.28690    0.91490    0.87457    1.000
    H6       H        0.30140    0.86270    0.87780    1.000
    C20      C        0.24880    0.06680    0.86780    1.000
    C21      C        0.28120    0.04400    0.83380    1.000
    H7       H        0.28990    0.08000    0.80840    1.000
    C22      C        0.01590    0.87170    0.05640    1.000
    H8       H        0.02280    0.90980    0.03140    1.000
    C23      C        0.96390    0.86480    0.06590    1.000
    C24      C        0.04704    0.76690    0.12154    1.000
    H9       H        0.07580    0.73240    0.14040    1.000
    O12      O        0.18388    0.65770    0.93514    1.000
    O13      O        0.92800    0.95570    0.99770    1.000
    O14      O        0.87370    0.90810    0.04350    1.000
    O15      O        0.25390    0.19740    0.84160    1.000
    O16      O        0.89530    0.68780    0.91360    1.000
    O17      O        0.95270    0.78000    0.95770    1.000
    O18      O        0.20100    0.17020    0.89350    1.000
    O19      O        0.54890    0.74470    0.02730    1.000
    Gd3      Gd       0.71815    0.31764    0.05243    1.000
    Gd4      Gd       0.90874    0.39948    0.73810    1.000
    O20      O        0.62362    0.37620    0.04171    1.000
    O21      O        0.65039    0.27540    0.09801    1.000
    O22      O        0.83782    0.48250    0.76081    1.000
    O23      O        0.71363    0.41370    0.98139    1.000
    O24      O        0.75176    0.31279    0.94939    1.000
    O25      O        0.65152    0.25220    0.98077    1.000
    O26      O        0.52815    0.17870    0.20631    1.000
    O27      O        0.43665    0.18800    0.17329    1.000
    O28      O        0.54795    0.98780    0.80633    1.000
    O29      O        0.86959    0.38450    0.81797    1.000
    O30      O        0.45884    0.99070    0.80647    1.000
    C25      C        0.73784    0.38400    0.94798    1.000
    C26      C        0.64579    0.19440    0.94862    1.000
    C27      C        0.61400    0.32460    0.07382    1.000
    N4       N        0.41930    0.41290    0.03420    1.000
    C28      C        0.83840    0.44300    0.80330    1.000
    N5       N        0.44243    0.21380    0.93270    1.000
    N6       N        0.73400    0.65080    0.86750    1.000
    C29      C        0.50790    0.01420    0.82176    1.000
    C30      C        0.48550    0.20520    0.17340    1.000
    C31      C        0.57501    0.10650    0.88527    1.000
    H10      H        0.60440    0.08220    0.87380    1.000
    C32      C        0.55740    0.32160    0.08420    1.000
    C33      C        0.52076    0.08050    0.86333    1.000
    C34      C        0.58733    0.16770    0.92389    1.000
    C35      C        0.47722    0.11470    0.87972    1.000
    H11      H        0.44010    0.09670    0.86570    1.000
    C36      C        0.75198    0.43880    0.90645    1.000
    C37      C        0.45220    0.31140    0.10240    1.000
    H12      H        0.41600    0.30780    0.10780    1.000
    C38      C        0.49500    0.26280    0.13125    1.000
    C39      C        0.80050    0.46780    0.83780    1.000
    C40      C        0.54310    0.20350    0.93980    1.000
    H13      H        0.54960    0.24550    0.96560    1.000
    C41      C        0.48950    0.17580    0.91700    1.000
    C42      C        0.73220    0.51570    0.90260    1.000
    H14      H        0.70770    0.53260    0.92350    1.000
    C43      C        0.78690    0.41490    0.87457    1.000
    H15      H        0.80140    0.36270    0.87780    1.000
    C44      C        0.74880    0.56680    0.86780    1.000
    C45      C        0.78120    0.54400    0.83380    1.000
    H16      H        0.78990    0.58000    0.80840    1.000
    C46      C        0.51590    0.37170    0.05640    1.000
    H17      H        0.52280    0.40980    0.03140    1.000
    C47      C        0.46390    0.36480    0.06590    1.000
    C48      C        0.54704    0.26690    0.12154    1.000
    H18      H        0.57580    0.23240    0.14040    1.000
    O31      O        0.68388    0.15770    0.93514    1.000
    O32      O        0.42800    0.45570    0.99770    1.000
    O33      O        0.37370    0.40810    0.04350    1.000
    O34      O        0.75390    0.69740    0.84160    1.000
    O35      O        0.39530    0.18780    0.91360    1.000
    O36      O        0.45270    0.28000    0.95770    1.000
    O37      O        0.70100    0.67020    0.89350    1.000
    O38      O        0.04890    0.24470    0.02730    1.000
    Gd5      Gd       0.78185    0.81764    0.44757    1.000
    Gd6      Gd       0.59126    0.89948    0.76190    1.000
    O39      O        0.87638    0.87620    0.45829    1.000
    O40      O        0.84961    0.77540    0.40199    1.000
    O41      O        0.66218    0.98250    0.73919    1.000
    O42      O        0.78637    0.91370    0.51861    1.000
    O43      O        0.74824    0.81279    0.55061    1.000
    O44      O        0.84848    0.75220    0.51923    1.000
    O45      O        0.97185    0.67870    0.29369    1.000
    O46      O        0.06335    0.68800    0.32671    1.000
    O47      O        0.95205    0.48780    0.69367    1.000
    O48      O        0.63041    0.88450    0.68203    1.000
    O49      O        0.04116    0.49070    0.69353    1.000
    C49      C        0.76216    0.88400    0.55202    1.000
    C50      C        0.85421    0.69440    0.55138    1.000
    C51      C        0.88600    0.82460    0.42618    1.000
    N7       N        0.08070    0.91290    0.46580    1.000
    C52      C        0.66160    0.94300    0.69670    1.000
    N8       N        0.05757    0.71380    0.56730    1.000
    N9       N        0.76600    0.15080    0.63250    1.000
    C53      C        0.99210    0.51420    0.67824    1.000
    C54      C        0.01450    0.70520    0.32660    1.000
    C55      C        0.92499    0.60650    0.61473    1.000
    H19      H        0.89560    0.58220    0.62620    1.000
    C56      C        0.94260    0.82160    0.41580    1.000
    C57      C        0.97924    0.58050    0.63667    1.000
    C58      C        0.91267    0.66770    0.57611    1.000
    C59      C        0.02278    0.61470    0.62028    1.000
    H20      H        0.05990    0.59670    0.63430    1.000
    C60      C        0.74802    0.93880    0.59355    1.000
    C61      C        0.04780    0.81140    0.39760    1.000
    H21      H        0.08400    0.80780    0.39220    1.000
    C62      C        0.00500    0.76280    0.36875    1.000
    C63      C        0.69950    0.96780    0.66220    1.000
    C64      C        0.95690    0.70350    0.56020    1.000
    H22      H        0.95040    0.74550    0.53440    1.000
    C65      C        0.01050    0.67580    0.58300    1.000
    C66      C        0.76780    0.01570    0.59740    1.000
    H23      H        0.79230    0.03260    0.57650    1.000
    C67      C        0.71310    0.91490    0.62543    1.000
    H24      H        0.69860    0.86270    0.62220    1.000
    C68      C        0.75120    0.06680    0.63220    1.000
    C69      C        0.71880    0.04400    0.66620    1.000
    H25      H        0.71010    0.08000    0.69160    1.000
    C70      C        0.98410    0.87170    0.44360    1.000
    H26      H        0.97720    0.90980    0.46860    1.000
    C71      C        0.03610    0.86480    0.43410    1.000
    C72      C        0.95296    0.76690    0.37846    1.000
    H27      H        0.92420    0.73240    0.35960    1.000
    O50      O        0.81612    0.65770    0.56486    1.000
    O51      O        0.07200    0.95570    0.50230    1.000
    O52      O        0.12630    0.90810    0.45650    1.000
    O53      O        0.74610    0.19740    0.65840    1.000
    O54      O        0.10470    0.68780    0.58640    1.000
    O55      O        0.04730    0.78000    0.54230    1.000
    O56      O        0.79900    0.17020    0.60650    1.000
    O57      O        0.45110    0.74470    0.47270    1.000
    Gd7      Gd       0.28185    0.31764    0.44757    1.000
    Gd8      Gd       0.09126    0.39948    0.76190    1.000
    O58      O        0.37638    0.37620    0.45829    1.000
    O59      O        0.34961    0.27540    0.40199    1.000
    O60      O        0.16218    0.48250    0.73919    1.000
    O61      O        0.28637    0.41370    0.51861    1.000
    O62      O        0.24824    0.31279    0.55061    1.000
    O63      O        0.34848    0.25220    0.51923    1.000
    O64      O        0.47185    0.17870    0.29369    1.000
    O65      O        0.56335    0.18800    0.32671    1.000
    O66      O        0.45205    0.98780    0.69367    1.000
    O67      O        0.13041    0.38450    0.68203    1.000
    O68      O        0.54116    0.99070    0.69353    1.000
    C73      C        0.26216    0.38400    0.55202    1.000
    C74      C        0.35421    0.19440    0.55138    1.000
    C75      C        0.38600    0.32460    0.42618    1.000
    N10      N        0.58070    0.41290    0.46580    1.000
    C76      C        0.16160    0.44300    0.69670    1.000
    N11      N        0.55757    0.21380    0.56730    1.000
    N12      N        0.26600    0.65080    0.63250    1.000
    C77      C        0.49210    0.01420    0.67824    1.000
    C78      C        0.51450    0.20520    0.32660    1.000
    C79      C        0.42499    0.10650    0.61473    1.000
    H28      H        0.39560    0.08220    0.62620    1.000
    C80      C        0.44260    0.32160    0.41580    1.000
    C81      C        0.47924    0.08050    0.63667    1.000
    C82      C        0.41267    0.16770    0.57611    1.000
    C83      C        0.52278    0.11470    0.62028    1.000
    H29      H        0.55990    0.09670    0.63430    1.000
    C84      C        0.24802    0.43880    0.59355    1.000
    C85      C        0.54780    0.31140    0.39760    1.000
    H30      H        0.58400    0.30780    0.39220    1.000
    C86      C        0.50500    0.26280    0.36875    1.000
    C87      C        0.19950    0.46780    0.66220    1.000
    C88      C        0.45690    0.20350    0.56020    1.000
    H31      H        0.45040    0.24550    0.53440    1.000
    C89      C        0.51050    0.17580    0.58300    1.000
    C90      C        0.26780    0.51570    0.59740    1.000
    H32      H        0.29230    0.53260    0.57650    1.000
    C91      C        0.21310    0.41490    0.62543    1.000
    H33      H        0.19860    0.36270    0.62220    1.000
    C92      C        0.25120    0.56680    0.63220    1.000
    C93      C        0.21880    0.54400    0.66620    1.000
    H34      H        0.21010    0.58000    0.69160    1.000
    C94      C        0.48410    0.37170    0.44360    1.000
    H35      H        0.47720    0.40980    0.46860    1.000
    C95      C        0.53610    0.36480    0.43410    1.000
    C96      C        0.45296    0.26690    0.37846    1.000
    H36      H        0.42420    0.23240    0.35960    1.000
    O69      O        0.31612    0.15770    0.56486    1.000
    O70      O        0.57200    0.45570    0.50230    1.000
    O71      O        0.62630    0.40810    0.45650    1.000
    O72      O        0.24610    0.69740    0.65840    1.000
    O73      O        0.60470    0.18780    0.58640    1.000
    O74      O        0.54730    0.28000    0.54230    1.000
    O75      O        0.29900    0.67020    0.60650    1.000
    O76      O        0.95110    0.24470    0.47270    1.000
    Gd9      Gd       0.78185    0.18236    0.94757    1.000
    Gd10     Gd       0.59126    0.10052    0.26190    1.000
    O77      O        0.87638    0.12380    0.95829    1.000
    O78      O        0.84961    0.22460    0.90199    1.000
    O79      O        0.66218    0.01750    0.23919    1.000
    O80      O        0.78637    0.08630    0.01861    1.000
    O81      O        0.74824    0.18721    0.05061    1.000
    O82      O        0.84848    0.24780    0.01923    1.000
    O83      O        0.97185    0.32130    0.79369    1.000
    O84      O        0.06335    0.31200    0.82671    1.000
    O85      O        0.95205    0.51220    0.19367    1.000
    O86      O        0.63041    0.11550    0.18203    1.000
    O87      O        0.04116    0.50930    0.19353    1.000
    C97      C        0.76216    0.11600    0.05202    1.000
    C98      C        0.85421    0.30560    0.05138    1.000
    C99      C        0.88600    0.17540    0.92618    1.000
    N13      N        0.08070    0.08710    0.96580    1.000
    C100     C        0.66160    0.05700    0.19670    1.000
    N14      N        0.05757    0.28620    0.06730    1.000
    N15      N        0.76600    0.84920    0.13250    1.000
    C101     C        0.99210    0.48580    0.17824    1.000
    C102     C        0.01450    0.29480    0.82660    1.000
    C103     C        0.92499    0.39350    0.11473    1.000
    H37      H        0.89560    0.41780    0.12620    1.000
    C104     C        0.94260    0.17840    0.91580    1.000
    C105     C        0.97924    0.41950    0.13667    1.000
    C106     C        0.91267    0.33230    0.07611    1.000
    C107     C        0.02278    0.38530    0.12028    1.000
    H38      H        0.05990    0.40330    0.13430    1.000
    C108     C        0.74802    0.06120    0.09355    1.000
    C109     C        0.04780    0.18860    0.89760    1.000
    H39      H        0.08400    0.19220    0.89220    1.000
    C110     C        0.00500    0.23720    0.86875    1.000
    C111     C        0.69950    0.03220    0.16220    1.000
    C112     C        0.95690    0.29650    0.06020    1.000
    H40      H        0.95040    0.25450    0.03440    1.000
    C113     C        0.01050    0.32420    0.08300    1.000
    C114     C        0.76780    0.98430    0.09740    1.000
    H41      H        0.79230    0.96740    0.07650    1.000
    C115     C        0.71310    0.08510    0.12543    1.000
    H42      H        0.69860    0.13730    0.12220    1.000
    C116     C        0.75120    0.93320    0.13220    1.000
    C117     C        0.71880    0.95600    0.16620    1.000
    H43      H        0.71010    0.92000    0.19160    1.000
    C118     C        0.98410    0.12830    0.94360    1.000
    H44      H        0.97720    0.09020    0.96860    1.000
    C119     C        0.03610    0.13520    0.93410    1.000
    C120     C        0.95296    0.23310    0.87846    1.000
    H45      H        0.92420    0.26760    0.85960    1.000
    O88      O        0.81612    0.34230    0.06486    1.000
    O89      O        0.07200    0.04430    0.00230    1.000
    O90      O        0.12630    0.09190    0.95650    1.000
    O91      O        0.74610    0.80260    0.15840    1.000
    O92      O        0.10470    0.31220    0.08640    1.000
    O93      O        0.04730    0.22000    0.04230    1.000
    O94      O        0.79900    0.82980    0.10650    1.000
    O95      O        0.45110    0.25530    0.97270    1.000
    Gd11     Gd       0.28185    0.68236    0.94757    1.000
    Gd12     Gd       0.09126    0.60052    0.26190    1.000
    O96      O        0.37638    0.62380    0.95829    1.000
    O97      O        0.34961    0.72460    0.90199    1.000
    O98      O        0.16218    0.51750    0.23919    1.000
    O99      O        0.28637    0.58630    0.01861    1.000
    O100     O        0.24824    0.68721    0.05061    1.000
    O101     O        0.34848    0.74780    0.01923    1.000
    O102     O        0.47185    0.82130    0.79369    1.000
    O103     O        0.56335    0.81200    0.82671    1.000
    O104     O        0.45205    0.01220    0.19367    1.000
    O105     O        0.13041    0.61550    0.18203    1.000
    O106     O        0.54116    0.00930    0.19353    1.000
    C121     C        0.26216    0.61600    0.05202    1.000
    C122     C        0.35421    0.80560    0.05138    1.000
    C123     C        0.38600    0.67540    0.92618    1.000
    N16      N        0.58070    0.58710    0.96580    1.000
    C124     C        0.16160    0.55700    0.19670    1.000
    N17      N        0.55757    0.78620    0.06730    1.000
    N18      N        0.26600    0.34920    0.13250    1.000
    C125     C        0.49210    0.98580    0.17824    1.000
    C126     C        0.51450    0.79480    0.82660    1.000
    C127     C        0.42499    0.89350    0.11473    1.000
    H46      H        0.39560    0.91780    0.12620    1.000
    C128     C        0.44260    0.67840    0.91580    1.000
    C129     C        0.47924    0.91950    0.13667    1.000
    C130     C        0.41267    0.83230    0.07611    1.000
    C131     C        0.52278    0.88530    0.12028    1.000
    H47      H        0.55990    0.90330    0.13430    1.000
    C132     C        0.24802    0.56120    0.09355    1.000
    C133     C        0.54780    0.68860    0.89760    1.000
    H48      H        0.58400    0.69220    0.89220    1.000
    C134     C        0.50500    0.73720    0.86875    1.000
    C135     C        0.19950    0.53220    0.16220    1.000
    C136     C        0.45690    0.79650    0.06020    1.000
    H49      H        0.45040    0.75450    0.03440    1.000
    C137     C        0.51050    0.82420    0.08300    1.000
    C138     C        0.26780    0.48430    0.09740    1.000
    H50      H        0.29230    0.46740    0.07650    1.000
    C139     C        0.21310    0.58510    0.12543    1.000
    H51      H        0.19860    0.63730    0.12220    1.000
    C140     C        0.25120    0.43320    0.13220    1.000
    C141     C        0.21880    0.45600    0.16620    1.000
    H52      H        0.21010    0.42000    0.19160    1.000
    C142     C        0.48410    0.62830    0.94360    1.000
    H53      H        0.47720    0.59020    0.96860    1.000
    C143     C        0.53610    0.63520    0.93410    1.000
    C144     C        0.45296    0.73310    0.87846    1.000
    H54      H        0.42420    0.76760    0.85960    1.000
    O107     O        0.31612    0.84230    0.06486    1.000
    O108     O        0.57200    0.54430    0.00230    1.000
    O109     O        0.62630    0.59190    0.95650    1.000
    O110     O        0.24610    0.30260    0.15840    1.000
    O111     O        0.60470    0.81220    0.08640    1.000
    O112     O        0.54730    0.72000    0.04230    1.000
    O113     O        0.29900    0.32980    0.10650    1.000
    O114     O        0.95110    0.75530    0.97270    1.000
    Gd13     Gd       0.21815    0.18236    0.55243    1.000
    Gd14     Gd       0.40874    0.10052    0.23810    1.000
    O115     O        0.12362    0.12380    0.54171    1.000
    O116     O        0.15039    0.22460    0.59801    1.000
    O117     O        0.33782    0.01750    0.26081    1.000
    O118     O        0.21363    0.08630    0.48139    1.000
    O119     O        0.25176    0.18721    0.44939    1.000
    O120     O        0.15152    0.24780    0.48077    1.000
    O121     O        0.02815    0.32130    0.70631    1.000
    O122     O        0.93665    0.31200    0.67329    1.000
    O123     O        0.04795    0.51220    0.30633    1.000
    O124     O        0.36959    0.11550    0.31797    1.000
    O125     O        0.95884    0.50930    0.30647    1.000
    C145     C        0.23784    0.11600    0.44798    1.000
    C146     C        0.14579    0.30560    0.44862    1.000
    C147     C        0.11400    0.17540    0.57382    1.000
    N19      N        0.91930    0.08710    0.53420    1.000
    C148     C        0.33840    0.05700    0.30330    1.000
    N20      N        0.94243    0.28620    0.43270    1.000
    N21      N        0.23400    0.84920    0.36750    1.000
    C149     C        0.00790    0.48580    0.32176    1.000
    C150     C        0.98550    0.29480    0.67340    1.000
    C151     C        0.07501    0.39350    0.38527    1.000
    H55      H        0.10440    0.41780    0.37380    1.000
    C152     C        0.05740    0.17840    0.58420    1.000
    C153     C        0.02076    0.41950    0.36333    1.000
    C154     C        0.08733    0.33230    0.42389    1.000
    C155     C        0.97722    0.38530    0.37972    1.000
    H56      H        0.94010    0.40330    0.36570    1.000
    C156     C        0.25198    0.06120    0.40645    1.000
    C157     C        0.95220    0.18860    0.60240    1.000
    H57      H        0.91600    0.19220    0.60780    1.000
    C158     C        0.99500    0.23720    0.63125    1.000
    C159     C        0.30050    0.03220    0.33780    1.000
    C160     C        0.04310    0.29650    0.43980    1.000
    H58      H        0.04960    0.25450    0.46560    1.000
    C161     C        0.98950    0.32420    0.41700    1.000
    C162     C        0.23220    0.98430    0.40260    1.000
    H59      H        0.20770    0.96740    0.42350    1.000
    C163     C        0.28690    0.08510    0.37457    1.000
    H60      H        0.30140    0.13730    0.37780    1.000
    C164     C        0.24880    0.93320    0.36780    1.000
    C165     C        0.28120    0.95600    0.33380    1.000
    H61      H        0.28990    0.92000    0.30840    1.000
    C166     C        0.01590    0.12830    0.55640    1.000
    H62      H        0.02280    0.09020    0.53140    1.000
    C167     C        0.96390    0.13520    0.56590    1.000
    C168     C        0.04704    0.23310    0.62154    1.000
    H63      H        0.07580    0.26760    0.64040    1.000
    O126     O        0.18388    0.34230    0.43514    1.000
    O127     O        0.92800    0.04430    0.49770    1.000
    O128     O        0.87370    0.09190    0.54350    1.000
    O129     O        0.25390    0.80260    0.34160    1.000
    O130     O        0.89530    0.31220    0.41360    1.000
    O131     O        0.95270    0.22000    0.45770    1.000
    O132     O        0.20100    0.82980    0.39350    1.000
    O133     O        0.54890    0.25530    0.52730    1.000
    Gd15     Gd       0.71815    0.68236    0.55243    1.000
    Gd16     Gd       0.90874    0.60052    0.23810    1.000
    O134     O        0.62362    0.62380    0.54171    1.000
    O135     O        0.65039    0.72460    0.59801    1.000
    O136     O        0.83782    0.51750    0.26081    1.000
    O137     O        0.71363    0.58630    0.48139    1.000
    O138     O        0.75176    0.68721    0.44939    1.000
    O139     O        0.65152    0.74780    0.48077    1.000
    O140     O        0.52815    0.82130    0.70631    1.000
    O141     O        0.43665    0.81200    0.67329    1.000
    O142     O        0.54795    0.01220    0.30633    1.000
    O143     O        0.86959    0.61550    0.31797    1.000
    O144     O        0.45884    0.00930    0.30647    1.000
    C169     C        0.73784    0.61600    0.44798    1.000
    C170     C        0.64579    0.80560    0.44862    1.000
    C171     C        0.61400    0.67540    0.57382    1.000
    N22      N        0.41930    0.58710    0.53420    1.000
    C172     C        0.83840    0.55700    0.30330    1.000
    N23      N        0.44243    0.78620    0.43270    1.000
    N24      N        0.73400    0.34920    0.36750    1.000
    C173     C        0.50790    0.98580    0.32176    1.000
    C174     C        0.48550    0.79480    0.67340    1.000
    C175     C        0.57501    0.89350    0.38527    1.000
    H64      H        0.60440    0.91780    0.37380    1.000
    C176     C        0.55740    0.67840    0.58420    1.000
    C177     C        0.52076    0.91950    0.36333    1.000
    C178     C        0.58733    0.83230    0.42389    1.000
    C179     C        0.47722    0.88530    0.37972    1.000
    H65      H        0.44010    0.90330    0.36570    1.000
    C180     C        0.75198    0.56120    0.40645    1.000
    C181     C        0.45220    0.68860    0.60240    1.000
    H66      H        0.41600    0.69220    0.60780    1.000
    C182     C        0.49500    0.73720    0.63125    1.000
    C183     C        0.80050    0.53220    0.33780    1.000
    C184     C        0.54310    0.79650    0.43980    1.000
    H67      H        0.54960    0.75450    0.46560    1.000
    C185     C        0.48950    0.82420    0.41700    1.000
    C186     C        0.73220    0.48430    0.40260    1.000
    H68      H        0.70770    0.46740    0.42350    1.000
    C187     C        0.78690    0.58510    0.37457    1.000
    H69      H        0.80140    0.63730    0.37780    1.000
    C188     C        0.74880    0.43320    0.36780    1.000
    C189     C        0.78120    0.45600    0.33380    1.000
    H70      H        0.78990    0.42000    0.30840    1.000
    C190     C        0.51590    0.62830    0.55640    1.000
    H71      H        0.52280    0.59020    0.53140    1.000
    C191     C        0.46390    0.63520    0.56590    1.000
    C192     C        0.54704    0.73310    0.62154    1.000
    H72      H        0.57580    0.76760    0.64040    1.000
    O145     O        0.68388    0.84230    0.43514    1.000
    O146     O        0.42800    0.54430    0.49770    1.000
    O147     O        0.37370    0.59190    0.54350    1.000
    O148     O        0.75390    0.30260    0.34160    1.000
    O149     O        0.39530    0.81220    0.41360    1.000
    O150     O        0.45270    0.72000    0.45770    1.000
    O151     O        0.70100    0.32980    0.39350    1.000
    O152     O        0.04890    0.75530    0.52730    1.000
