data_functionalizedCrystal
_audit_creation_method	'EQeq! by Chris Wilmer'
_symmetry_space_group_name_H-M	'P1'
_symmetry_Int_Tables_number	1
_symmetry_cell_setting	triclinic
loop_
_symmetry_equiv_pos_as_xyz
  x,y,z
_cell_length_a	10.7045
_cell_length_b	34.7385
_cell_length_c	17.986
_cell_angle_alpha	90
_cell_angle_beta	101.069
_cell_angle_gamma	90
loop_
_atom_site_label
_atom_site_type_symbol
_atom_site_fract_x
_atom_site_fract_y
_atom_site_fract_z
_atom_site_charge
Mof_Ba	Ba	0.03389	0.2293	0.15133	1.854
Mof_Ba	Ba	0.70628	0.27886	0.99206	1.832
Mof_Ba	Ba	0.23274	0.26738	0.37111	1.594
Mof_O 	O 	0.024	0.31897	0.35651	-0.581
Mof_O 	O 	0.993	0.27735	0.2617	-0.558
Mof_O 	O 	0.5461	0.28454	0.08976	-0.574
Mof_O 	O 	0.413	0.32165	0.1351	-0.442
Mof_O 	O 	0.8214	0.69068	0.3692	-0.427
Mof_O 	O 	0.6502	0.69839	0.2815	-0.541
Mof_O 	O 	0.9164	0.29859	0.08591	-0.579
Mof_O 	O 	0.1252	0.29695	0.09494	-0.602
Mof_O 	O 	0.6894	0.66499	0.0922	-0.378
Mof_O 	O 	0.789	0.72092	0.1061	-0.523
Mof_O 	O 	0.2647	0.72018	0.09018	-0.559
Mof_O 	O 	0.3655	0.6697	0.1459	-0.44
Mof_H 	H 	0.9261	0.186	0.9974	0.16
Mof_O 	O 	0.4701	0.7445	0.5583	-0.184
Mof_C 	C 	0.5242	0.624	0.4375	-0.079
Mof_H 	H 	0.5409	0.6105	0.3944	0.053
Mof_C 	C 	0.524	0.6638	0.4381	0.027
Mof_H 	H 	0.5406	0.6774	0.3952	-0.001
Mof_O 	O 	0.262	0.31946	0.4941	-0.524
Mof_O 	O 	0.1742	0.37506	0.5208	-0.402
Mof_O 	O 	0.3063	0.26562	0.2333	-0.463
Mof_H 	H 	0.3226	0.2915	0.2141	0.137
Mof_C 	C 	0.961	0.30651	0.2949	0.463
Mof_C 	C 	0.8416	0.32767	0.2611	-0.218
Mof_C 	C 	0.8301	0.3667	0.2783	0.059
Mof_H 	H 	0.8974	0.3788	0.3125	0.006
Mof_C 	C 	0.7245	0.38825	0.2472	-0.078
Mof_C 	C 	0.6234	0.36875	0.2012	0.039
Mof_H 	H 	0.5467	0.3822	0.1821	0.009
Mof_C 	C 	0.6336	0.33013	0.1833	-0.202
Mof_C 	C 	0.7442	0.30995	0.2102	0.118
Mof_H 	H 	0.7536	0.2842	0.1942	-0.05
Mof_C 	C 	0.5225	0.31099	0.1321	0.388
Mof_C 	C 	0.7193	0.43015	0.2595	0.061
Mof_C 	C 	0.79	0.44793	0.3231	-0.095
Mof_H 	H 	0.8393	0.4325	0.3615	0.067
Mof_C 	C 	0.7904	0.48799	0.3319	-0.014
Mof_H 	H 	0.8408	0.4992	0.3758	0.032
Mof_C 	C 	0.7185	0.5115	0.2776	-0.038
Mof_C 	C 	0.6453	0.49396	0.2143	-0.015
Mof_H 	H 	0.5942	0.5094	0.1767	0.032
Mof_C 	C 	0.6459	0.45415	0.2053	-0.094
Mof_H 	H 	0.5954	0.443	0.1614	0.053
Mof_C 	C 	0.7226	0.55398	0.2862	0.088
Mof_C 	C 	0.825	0.57218	0.3317	-0.152
Mof_H 	H 	0.8936	0.557	0.3575	0.08
Mof_C 	C 	0.8306	0.6118	0.3407	0.082
Mof_H 	H 	0.9025	0.6234	0.3718	0.009
Mof_C 	C 	0.7311	0.63432	0.3045	-0.184
Mof_C 	C 	0.6297	0.6175	0.2579	0.094
Mof_H 	H 	0.5624	0.633	0.2314	-0.01
Mof_C 	C 	0.6255	0.5777	0.2493	-0.155
Mof_H 	H 	0.5541	0.5664	0.2172	0.082
Mof_C 	C 	0.7359	0.67696	0.3186	0.407
Mof_C 	C 	0.0235	0.31472	0.094	0.432
Mof_C 	C 	0.03	0.35796	0.1044	-0.247
Mof_C 	C 	0.9184	0.37913	0.1051	0.144
Mof_H 	H 	0.839	0.3663	0.101	-0.045
Mof_C 	C 	0.9251	0.41835	0.1119	-0.168
Mof_H 	H 	0.8497	0.4325	0.1136	0.087
Mof_C 	C 	0.0392	0.43796	0.1163	0.098
Mof_C 	C 	0.15	0.41645	0.1176	-0.182
Mof_H 	H 	0.2297	0.4292	0.1229	0.084
Mof_C 	C 	0.1448	0.37702	0.1115	0.118
Mof_H 	H 	0.2208	0.3628	0.1122	-0.032
Mof_C 	C 	0.0417	0.48046	0.1191	-0.062
Mof_C 	C 	0.9599	0.50121	0.1564	0.011
Mof_H 	H 	0.9055	0.4877	0.1833	0.033
Mof_C 	C 	0.9564	0.54106	0.1549	-0.078
Mof_H 	H 	0.899	0.5544	0.18	0.063
Mof_C 	C 	0.0352	0.56159	0.1173	0.044
Mof_C 	C 	0.118	0.54136	0.0804	-0.092
Mof_H 	H 	0.1727	0.555	0.054	0.067
Mof_C 	C 	0.121	0.50145	0.082	-0.001
Mof_H 	H 	0.1788	0.4882	0.0571	0.031
Mof_C 	C 	0.7891	0.6845	0.1006	0.362
Mof_C 	C 	0.9143	0.6647	0.105	-0.136
Mof_C 	C 	0.9178	0.6248	0.1094	0.039
Mof_H 	H 	0.8414	0.611	0.1096	0.033
Mof_C 	C 	0.0326	0.60457	0.1134	-0.062
Mof_C 	C 	0.1433	0.62586	0.1165	0.029
Mof_H 	H 	0.2224	0.6127	0.123	0.032
Mof_C 	C 	0.1425	0.66556	0.1104	-0.155
Mof_C 	C 	0.2668	0.68656	0.1152	0.403
Mof_C 	C 	0.0263	0.68501	0.1046	0.062
Mof_H 	H 	0.024	0.7123	0.1004	-0.03
Mof_C 	C 	0.3889	0.37664	0.505	-0.15
Mof_C 	C 	0.2676	0.35545	0.5068	0.339
Mof_C 	C 	0.3907	0.41601	0.5065	0.016
Mof_H 	H 	0.3156	0.4294	0.5122	0.033
Mof_C 	C 	0.5687	0.50012	0.455	-0.088
Mof_H 	H 	0.6165	0.4868	0.4237	0.063
Mof_C 	C 	0.5681	0.53995	0.4553	-0.017
Mof_H 	H 	0.6156	0.5534	0.4241	0.034
Mof_O 	O 	0.4176	0.7442	0.53	-0.404
Mof_C 	C 	0.5908	0.624	0.4712	-0.062
Mof_H 	H 	0.6541	0.6105	0.4512	0.049
Mof_C 	C 	0.5906	0.6638	0.4713	0.036
Mof_H 	H 	0.6538	0.6774	0.4513	-0.006
Mof_Ba	Ba	0.53389	0.7293	0.15133	1.89
Mof_Ba	Ba	0.20628	0.77886	0.99206	1.823
Mof_Ba	Ba	0.73274	0.76738	0.37111	1.608
Mof_O 	O 	0.524	0.81897	0.35651	-0.566
Mof_O 	O 	0.493	0.77735	0.2617	-0.568
Mof_O 	O 	0.0461	0.78454	0.08976	-0.575
Mof_O 	O 	0.913	0.82165	0.1351	-0.426
Mof_O 	O 	0.3214	0.19068	0.3692	-0.428
Mof_O 	O 	0.1502	0.19839	0.2815	-0.54
Mof_O 	O 	0.4164	0.79859	0.08591	-0.599
Mof_O 	O 	0.6252	0.79695	0.09494	-0.609
Mof_O 	O 	0.1894	0.16499	0.0922	-0.38
Mof_O 	O 	0.289	0.22092	0.1061	-0.525
Mof_O 	O 	0.7647	0.22018	0.09018	-0.554
Mof_O 	O 	0.8655	0.1697	0.1459	-0.428
Mof_H 	H 	0.4261	0.686	0.9974	0.146
Mof_O 	O 	0.9701	0.2445	0.5583	-0.172
Mof_C 	C 	0.0242	0.124	0.4375	-0.079
Mof_H 	H 	0.0409	0.1105	0.3944	0.052
Mof_C 	C 	0.024	0.1638	0.4381	0.026
Mof_H 	H 	0.0406	0.1774	0.3952	-0.002
Mof_O 	O 	0.762	0.81946	0.4941	-0.523
Mof_O 	O 	0.6742	0.87506	0.5208	-0.4
Mof_O 	O 	0.8063	0.76562	0.2333	-0.463
Mof_H 	H 	0.8226	0.7915	0.2141	0.139
Mof_C 	C 	0.461	0.80651	0.2949	0.442
Mof_C 	C 	0.3416	0.82767	0.2611	-0.214
Mof_C 	C 	0.3301	0.8667	0.2783	0.053
Mof_H 	H 	0.3974	0.8788	0.3125	0.003
Mof_C 	C 	0.2245	0.88825	0.2472	-0.074
Mof_C 	C 	0.1234	0.86875	0.2012	0.033
Mof_H 	H 	0.0467	0.8822	0.1821	0.007
Mof_C 	C 	0.1336	0.83013	0.1833	-0.196
Mof_C 	C 	0.2442	0.80995	0.2102	0.111
Mof_H 	H 	0.2536	0.7842	0.1942	-0.049
Mof_C 	C 	0.0225	0.81099	0.1321	0.367
Mof_C 	C 	0.2193	0.93015	0.2595	0.053
Mof_C 	C 	0.29	0.94793	0.3231	-0.089
Mof_H 	H 	0.3393	0.9325	0.3615	0.062
Mof_C 	C 	0.2904	0.98799	0.3319	-0.023
Mof_H 	H 	0.3408	0.9992	0.3758	0.032
Mof_C 	C 	0.2185	0.0115	0.2776	-0.029
Mof_C 	C 	0.1453	0.99396	0.2143	-0.027
Mof_H 	H 	0.0942	0.0094	0.1767	0.034
Mof_C 	C 	0.1459	0.95415	0.2053	-0.088
Mof_H 	H 	0.0954	0.943	0.1614	0.048
Mof_C 	C 	0.2226	0.05398	0.2862	0.082
Mof_C 	C 	0.325	0.07218	0.3317	-0.149
Mof_H 	H 	0.3936	0.057	0.3575	0.077
Mof_C 	C 	0.3306	0.1118	0.3407	0.079
Mof_H 	H 	0.4025	0.1234	0.3718	0.008
Mof_C 	C 	0.2311	0.13432	0.3045	-0.183
Mof_C 	C 	0.1297	0.1175	0.2579	0.092
Mof_H 	H 	0.0624	0.133	0.2314	-0.013
Mof_C 	C 	0.1255	0.0777	0.2493	-0.153
Mof_H 	H 	0.0541	0.0664	0.2172	0.078
Mof_C 	C 	0.2359	0.17696	0.3186	0.406
Mof_C 	C 	0.5235	0.81472	0.094	0.455
Mof_C 	C 	0.53	0.85796	0.1044	-0.234
Mof_C 	C 	0.4184	0.87913	0.1051	0.132
Mof_H 	H 	0.339	0.8663	0.101	-0.043
Mof_C 	C 	0.4251	0.91835	0.1119	-0.191
Mof_H 	H 	0.3497	0.9325	0.1136	0.092
Mof_C 	C 	0.5392	0.93796	0.1163	0.123
Mof_C 	C 	0.65	0.91645	0.1176	-0.189
Mof_H 	H 	0.7297	0.9292	0.1229	0.089
Mof_C 	C 	0.6448	0.87702	0.1115	0.122
Mof_H 	H 	0.7208	0.8628	0.1122	-0.033
Mof_C 	C 	0.5417	0.98046	0.1191	-0.059
Mof_C 	C 	0.4599	0.00121	0.1564	0.008
Mof_H 	H 	0.4055	0.9877	0.1833	0.029
Mof_C 	C 	0.4564	0.04106	0.1549	-0.105
Mof_H 	H 	0.399	0.0544	0.18	0.07
Mof_C 	C 	0.5352	0.06159	0.1173	0.07
Mof_C 	C 	0.618	0.04136	0.0804	-0.101
Mof_H 	H 	0.6727	0.055	0.054	0.074
Mof_C 	C 	0.621	0.00145	0.082	0.015
Mof_H 	H 	0.6788	0.9882	0.0571	0.028
Mof_C 	C 	0.2891	0.1845	0.1006	0.366
Mof_C 	C 	0.4143	0.1647	0.105	-0.153
Mof_C 	C 	0.4178	0.1248	0.1094	0.026
Mof_H 	H 	0.3414	0.111	0.1096	0.034
Mof_C 	C 	0.5326	0.10457	0.1134	-0.05
Mof_C 	C 	0.6433	0.12586	0.1165	0.032
Mof_H 	H 	0.7224	0.1127	0.123	0.034
Mof_C 	C 	0.6425	0.16556	0.1104	-0.157
Mof_C 	C 	0.7668	0.18656	0.1152	0.404
Mof_C 	C 	0.5263	0.18501	0.1046	0.086
Mof_H 	H 	0.524	0.2123	0.1004	-0.032
Mof_C 	C 	0.8889	0.87664	0.505	-0.134
Mof_C 	C 	0.7676	0.85545	0.5068	0.336
Mof_C 	C 	0.8907	0.91601	0.5065	0.025
Mof_H 	H 	0.8156	0.9294	0.5122	0.033
Mof_C 	C 	0.0687	0.00012	0.455	-0.075
Mof_H 	H 	0.1165	0.9868	0.4237	0.057
Mof_C 	C 	0.0681	0.03995	0.4553	-0.025
Mof_H 	H 	0.1156	0.0534	0.4241	0.036
Mof_O 	O 	0.9176	0.2442	0.53	-0.395
Mof_C 	C 	0.0908	0.124	0.4712	-0.06
Mof_H 	H 	0.1541	0.1105	0.4512	0.047
Mof_C 	C 	0.0906	0.1638	0.4713	0.037
Mof_H 	H 	0.1538	0.1774	0.4513	-0.007
Mof_Ba	Ba	0.96611	0.2293	0.84867	1.909
Mof_Ba	Ba	0.29372	0.27886	0.00794	1.94
Mof_Ba	Ba	0.76726	0.26738	0.62889	1.609
Mof_O 	O 	0.976	0.31897	0.64349	-0.543
Mof_O 	O 	0.007	0.27735	0.7383	-0.574
Mof_O 	O 	0.4539	0.28454	0.91024	-0.59
Mof_O 	O 	0.587	0.32165	0.8649	-0.44
Mof_O 	O 	0.1786	0.69068	0.6308	-0.432
Mof_O 	O 	0.3498	0.69839	0.7185	-0.539
Mof_O 	O 	0.0836	0.29859	0.91409	-0.637
Mof_O 	O 	0.8748	0.29695	0.90506	-0.609
Mof_O 	O 	0.3106	0.66499	0.9078	-0.386
Mof_O 	O 	0.211	0.72092	0.8939	-0.523
Mof_O 	O 	0.7353	0.72018	0.90982	-0.585
Mof_O 	O 	0.6345	0.6697	0.8541	-0.446
Mof_H 	H 	0.0739	0.186	0.0026	0.171
Mof_O 	O 	0.5299	0.7445	0.4417	-0.188
Mof_C 	C 	0.4758	0.624	0.5625	-0.074
Mof_H 	H 	0.4591	0.6105	0.6056	0.053
Mof_C 	C 	0.476	0.6638	0.5619	0.032
Mof_H 	H 	0.4594	0.6774	0.6048	-0.002
Mof_O 	O 	0.738	0.31946	0.5059	-0.521
Mof_O 	O 	0.8258	0.37506	0.4792	-0.393
Mof_O 	O 	0.6937	0.26562	0.7667	-0.464
Mof_H 	H 	0.6774	0.2915	0.7859	0.139
Mof_C 	C 	0.039	0.30651	0.7051	0.421
Mof_C 	C 	0.1584	0.32767	0.7389	-0.212
Mof_C 	C 	0.1699	0.3667	0.7217	0.053
Mof_H 	H 	0.1026	0.3788	0.6875	-0
Mof_C 	C 	0.2755	0.38825	0.7528	-0.078
Mof_C 	C 	0.3766	0.36875	0.7988	0.038
Mof_H 	H 	0.4533	0.3822	0.8179	0.007
Mof_C 	C 	0.3664	0.33013	0.8167	-0.207
Mof_C 	C 	0.2558	0.30995	0.7898	0.115
Mof_H 	H 	0.2464	0.2842	0.8058	-0.054
Mof_C 	C 	0.4775	0.31099	0.8679	0.39
Mof_C 	C 	0.2807	0.43015	0.7405	0.058
Mof_C 	C 	0.21	0.44793	0.6769	-0.096
Mof_H 	H 	0.1607	0.4325	0.6385	0.063
Mof_C 	C 	0.2096	0.48799	0.6681	-0.015
Mof_H 	H 	0.1592	0.4992	0.6242	0.028
Mof_C 	C 	0.2815	0.5115	0.7224	-0.039
Mof_C 	C 	0.3547	0.49396	0.7857	-0.016
Mof_H 	H 	0.4058	0.5094	0.8233	0.028
Mof_C 	C 	0.3541	0.45415	0.7947	-0.094
Mof_H 	H 	0.4046	0.443	0.8386	0.048
Mof_C 	C 	0.2774	0.55398	0.7138	0.086
Mof_C 	C 	0.175	0.57218	0.6683	-0.153
Mof_H 	H 	0.1064	0.557	0.6425	0.075
Mof_C 	C 	0.1694	0.6118	0.6593	0.08
Mof_H 	H 	0.0975	0.6234	0.6282	0.003
Mof_C 	C 	0.2689	0.63432	0.6955	-0.185
Mof_C 	C 	0.3703	0.6175	0.7421	0.093
Mof_H 	H 	0.4376	0.633	0.7686	-0.011
Mof_C 	C 	0.3745	0.5777	0.7507	-0.155
Mof_H 	H 	0.4459	0.5664	0.7828	0.08
Mof_C 	C 	0.2641	0.67696	0.6814	0.407
Mof_C 	C 	0.9765	0.31472	0.906	0.469
Mof_C 	C 	0.97	0.35796	0.8956	-0.225
Mof_C 	C 	0.0816	0.37913	0.8949	0.114
Mof_H 	H 	0.161	0.3663	0.899	-0.047
Mof_C 	C 	0.0749	0.41835	0.8881	-0.208
Mof_H 	H 	0.1503	0.4325	0.8864	0.09
Mof_C 	C 	0.9608	0.43796	0.8837	0.128
Mof_C 	C 	0.85	0.41645	0.8824	-0.189
Mof_H 	H 	0.7703	0.4292	0.8771	0.083
Mof_C 	C 	0.8552	0.37702	0.8885	0.114
Mof_H 	H 	0.7792	0.3628	0.8878	-0.033
Mof_C 	C 	0.9583	0.48046	0.8809	-0.039
Mof_C 	C 	0.0401	0.50121	0.8436	-0.021
Mof_H 	H 	0.0945	0.4877	0.8167	0.036
Mof_C 	C 	0.0436	0.54106	0.8451	-0.115
Mof_H 	H 	0.101	0.5544	0.82	0.069
Mof_C 	C 	0.9648	0.56159	0.8827	0.075
Mof_C 	C 	0.882	0.54136	0.9196	-0.1
Mof_H 	H 	0.8273	0.555	0.946	0.061
Mof_C 	C 	0.879	0.50145	0.918	-0.002
Mof_H 	H 	0.8212	0.4882	0.9429	0.023
Mof_C 	C 	0.2109	0.6845	0.8994	0.364
Mof_C 	C 	0.0857	0.6647	0.895	-0.172
Mof_C 	C 	0.0822	0.6248	0.8906	0.012
Mof_H 	H 	0.1586	0.611	0.8904	0.032
Mof_C 	C 	0.9674	0.60457	0.8866	-0.046
Mof_C 	C 	0.8567	0.62586	0.8835	0.033
Mof_H 	H 	0.7776	0.6127	0.877	0.027
Mof_C 	C 	0.8575	0.66556	0.8896	-0.174
Mof_C 	C 	0.7332	0.68656	0.8848	0.411
Mof_C 	C 	0.9737	0.68501	0.8954	0.105
Mof_H 	H 	0.976	0.7123	0.8996	-0.039
Mof_C 	C 	0.6111	0.37664	0.495	-0.149
Mof_C 	C 	0.7324	0.35545	0.4932	0.339
Mof_C 	C 	0.6093	0.41601	0.4935	0.016
Mof_H 	H 	0.6844	0.4294	0.4878	0.036
Mof_C 	C 	0.4313	0.50012	0.545	-0.088
Mof_H 	H 	0.3835	0.4868	0.5763	0.062
Mof_C 	C 	0.4319	0.53995	0.5447	-0.017
Mof_H 	H 	0.3844	0.5534	0.5759	0.034
Mof_O 	O 	0.5824	0.7442	0.47	-0.401
Mof_C 	C 	0.4092	0.624	0.5288	-0.067
Mof_H 	H 	0.3459	0.6105	0.5488	0.048
Mof_C 	C 	0.4094	0.6638	0.5287	0.031
Mof_H 	H 	0.3462	0.6774	0.5487	-0.005
Mof_Ba	Ba	0.46611	0.7293	0.84867	1.871
Mof_Ba	Ba	0.79372	0.77886	0.00794	1.958
Mof_Ba	Ba	0.26726	0.76738	0.62889	1.594
Mof_O 	O 	0.476	0.81897	0.64349	-0.566
Mof_O 	O 	0.507	0.77735	0.7383	-0.566
Mof_O 	O 	0.9539	0.78454	0.91024	-0.591
Mof_O 	O 	0.087	0.82165	0.8649	-0.453
Mof_O 	O 	0.6786	0.19068	0.6308	-0.43
Mof_O 	O 	0.8498	0.19839	0.7185	-0.54
Mof_O 	O 	0.5836	0.79859	0.91409	-0.623
Mof_O 	O 	0.3748	0.79695	0.90506	-0.605
Mof_O 	O 	0.8106	0.16499	0.9078	-0.385
Mof_O 	O 	0.711	0.22092	0.8939	-0.522
Mof_O 	O 	0.2353	0.22018	0.90982	-0.588
Mof_O 	O 	0.1345	0.1697	0.8541	-0.456
Mof_H 	H 	0.5739	0.686	0.0026	0.17
Mof_O 	O 	0.0299	0.2445	0.4417	-0.191
Mof_C 	C 	0.9758	0.124	0.5625	-0.067
Mof_H 	H 	0.9591	0.1105	0.6056	0.052
Mof_C 	C 	0.976	0.1638	0.5619	0.039
Mof_H 	H 	0.9594	0.1774	0.6048	-0.002
Mof_O 	O 	0.238	0.81946	0.5059	-0.526
Mof_O 	O 	0.3258	0.87506	0.4792	-0.401
Mof_O 	O 	0.1937	0.76562	0.7667	-0.464
Mof_H 	H 	0.1774	0.7915	0.7859	0.138
Mof_C 	C 	0.539	0.80651	0.7051	0.443
Mof_C 	C 	0.6584	0.82767	0.7389	-0.218
Mof_C 	C 	0.6699	0.8667	0.7217	0.058
Mof_H 	H 	0.6026	0.8788	0.6875	0.002
Mof_C 	C 	0.7755	0.88825	0.7528	-0.078
Mof_C 	C 	0.8766	0.86875	0.7988	0.042
Mof_H 	H 	0.9533	0.8822	0.8179	0.008
Mof_C 	C 	0.8664	0.83013	0.8167	-0.212
Mof_C 	C 	0.7558	0.80995	0.7898	0.121
Mof_H 	H 	0.7464	0.7842	0.8058	-0.054
Mof_C 	C 	0.9775	0.81099	0.8679	0.407
Mof_C 	C 	0.7807	0.93015	0.7405	0.057
Mof_C 	C 	0.71	0.94793	0.6769	-0.09
Mof_H 	H 	0.6607	0.9325	0.6385	0.063
Mof_C 	C 	0.7096	0.98799	0.6681	-0.022
Mof_H 	H 	0.6592	0.9992	0.6242	0.032
Mof_C 	C 	0.7815	0.0115	0.7224	-0.029
Mof_C 	C 	0.8547	0.99396	0.7857	-0.026
Mof_H 	H 	0.9058	0.0094	0.8233	0.034
Mof_C 	C 	0.8541	0.95415	0.7947	-0.088
Mof_H 	H 	0.9046	0.943	0.8386	0.048
Mof_C 	C 	0.7774	0.05398	0.7138	0.083
Mof_C 	C 	0.675	0.07218	0.6683	-0.149
Mof_H 	H 	0.6064	0.057	0.6425	0.077
Mof_C 	C 	0.6694	0.1118	0.6593	0.079
Mof_H 	H 	0.5975	0.1234	0.6282	0.007
Mof_C 	C 	0.7689	0.13432	0.6955	-0.183
Mof_C 	C 	0.8703	0.1175	0.7421	0.092
Mof_H 	H 	0.9376	0.133	0.7686	-0.007
Mof_C 	C 	0.8745	0.0777	0.7507	-0.152
Mof_H 	H 	0.9459	0.0664	0.7828	0.082
Mof_C 	C 	0.7641	0.17696	0.6814	0.406
Mof_C 	C 	0.4765	0.81472	0.906	0.452
Mof_C 	C 	0.47	0.85796	0.8956	-0.24
Mof_C 	C 	0.5816	0.87913	0.8949	0.129
Mof_H 	H 	0.661	0.8663	0.899	-0.051
Mof_C 	C 	0.5749	0.91835	0.8881	-0.197
Mof_H 	H 	0.6503	0.9325	0.8864	0.088
Mof_C 	C 	0.4608	0.93796	0.8837	0.118
Mof_C 	C 	0.35	0.91645	0.8824	-0.192
Mof_H 	H 	0.2703	0.9292	0.8771	0.082
Mof_C 	C 	0.3552	0.87702	0.8885	0.117
Mof_H 	H 	0.2792	0.8628	0.8878	-0.035
Mof_C 	C 	0.4583	0.98046	0.8809	-0.064
Mof_C 	C 	0.5401	0.00121	0.8436	0.005
Mof_H 	H 	0.5945	0.9877	0.8167	0.029
Mof_C 	C 	0.5436	0.04106	0.8451	-0.109
Mof_H 	H 	0.601	0.0544	0.82	0.069
Mof_C 	C 	0.4648	0.06159	0.8827	0.066
Mof_C 	C 	0.382	0.04136	0.9196	-0.108
Mof_H 	H 	0.3273	0.055	0.946	0.061
Mof_C 	C 	0.379	0.00145	0.918	0.009
Mof_H 	H 	0.3212	0.9882	0.9429	0.016
Mof_C 	C 	0.7109	0.1845	0.8994	0.361
Mof_C 	C 	0.5857	0.1647	0.895	-0.16
Mof_C 	C 	0.5822	0.1248	0.8906	0.025
Mof_H 	H 	0.6586	0.111	0.8904	0.03
Mof_C 	C 	0.4674	0.10457	0.8866	-0.06
Mof_C 	C 	0.3567	0.12586	0.8835	0.034
Mof_H 	H 	0.2776	0.1127	0.877	0.024
Mof_C 	C 	0.3575	0.16556	0.8896	-0.173
Mof_C 	C 	0.2332	0.18656	0.8848	0.411
Mof_C 	C 	0.4737	0.18501	0.8954	0.087
Mof_H 	H 	0.476	0.2123	0.8996	-0.038
Mof_C 	C 	0.1111	0.87664	0.495	-0.144
Mof_C 	C 	0.2324	0.85545	0.4932	0.337
Mof_C 	C 	0.1093	0.91601	0.4935	0.011
Mof_H 	H 	0.1844	0.9294	0.4878	0.035
Mof_C 	C 	0.9313	0.00012	0.545	-0.062
Mof_H 	H 	0.8835	0.9868	0.5763	0.055
Mof_C 	C 	0.9319	0.03995	0.5447	-0.01
Mof_H 	H 	0.8844	0.0534	0.5759	0.034
Mof_O 	O 	0.0824	0.2442	0.47	-0.393
Mof_C 	C 	0.9092	0.124	0.5288	-0.058
Mof_H 	H 	0.8459	0.1105	0.5488	0.048
Mof_C 	C 	0.9094	0.1638	0.5287	0.041
Mof_H 	H 	0.8462	0.1774	0.5487	-0.006
Mof_La	La	3.75468e-33	0.31756	0.5	1.61
Mof_La	La	0.5	0.81756	0.5	1.652
Mof_O 	O 	-7.69173e-33	0.20349	-0	-0.653
Mof_O 	O 	0.5	0.70349	-0	-0.632
Mof_C 	C 	0.5	0.68391	0.5	-0.187
Mof_C 	C 	0.5	0.7276	0.5	0.439
Mof_C 	C 	0.5	0.35636	0.5	0.059
Mof_H 	H 	0.5	0.329	0.5	-0.053
Mof_C 	C 	0.5	0.4376	0.5	-0.049
Mof_C 	C 	0.5	0.47925	0.5	0.053
Mof_C 	C 	0.5	0.5607	0.5	-0.031
Mof_C 	C 	0.5	0.60343	0.5	0.07
Mof_C 	C 	3.46405e-17	0.18391	0.5	-0.202
Mof_C 	C 	3.46405e-17	0.2276	0.5	0.421
Mof_C 	C 	3.75468e-33	0.85636	0.5	0.038
Mof_H 	H 	3.75468e-33	0.829	0.5	-0.051
Mof_C 	C 	3.46405e-17	0.9376	0.5	-0.054
Mof_C 	C 	3.75468e-33	0.97925	0.5	0.029
Mof_C 	C 	3.46405e-17	0.0607	0.5	-0.038
Mof_C 	C 	3.75468e-33	0.10343	0.5	0.053
_end
