data_functionalizedCrystal
_audit_creation_method	'EQeq! by Chris Wilmer'
_symmetry_space_group_name_H-M	'P1'
_symmetry_Int_Tables_number	1
_symmetry_cell_setting	triclinic
loop_
_symmetry_equiv_pos_as_xyz
  x,y,z
_cell_length_a	10.1611
_cell_length_b	10.249
_cell_length_c	20.5782
_cell_angle_alpha	90
_cell_angle_beta	90
_cell_angle_gamma	95.863
loop_
_atom_site_label
_atom_site_type_symbol
_atom_site_fract_x
_atom_site_fract_y
_atom_site_fract_z
_atom_site_charge
Mof_Th	Th	0.99918	0.12814	0.4069	0.073
Mof_Th	Th	0.99319	0.17145	0.18752	0.073
Mof_Th	Th	0.00082	0.37186	0.9069	0.073
Mof_Th	Th	0.00681	0.32855	0.68752	0.075
Mof_Th	Th	0.00082	0.87186	0.5931	0.072
Mof_Th	Th	0.00681	0.82855	0.81248	0.072
Mof_Th	Th	0.99918	0.62814	0.0931	0.072
Mof_Th	Th	0.99319	0.67145	0.31248	0.074
Mof_P 	P 	0.80119	0.3309	0.30857	0.381
Mof_P 	P 	0.19607	0.872	0.43531	0.381
Mof_P 	P 	0.18225	0.39038	0.3063	0.385
Mof_P 	P 	0.81615	0.8015	0.43703	0.379
Mof_P 	P 	0.19881	0.1691	0.80857	0.381
Mof_P 	P 	0.80393	0.628	0.93531	0.382
Mof_P 	P 	0.81775	0.10962	0.8063	0.384
Mof_P 	P 	0.18385	0.6985	0.93703	0.378
Mof_P 	P 	0.19881	0.6691	0.69143	0.381
Mof_P 	P 	0.80393	0.128	0.56469	0.381
Mof_P 	P 	0.81775	0.60962	0.6937	0.385
Mof_P 	P 	0.18385	0.1985	0.56297	0.379
Mof_P 	P 	0.80119	0.8309	0.19143	0.381
Mof_P 	P 	0.19607	0.372	0.06469	0.382
Mof_P 	P 	0.18225	0.89038	0.1937	0.384
Mof_P 	P 	0.81615	0.3015	0.06297	0.378
Mof_H 	H 	0.399	0.8657	0.3389	0.064
Mof_H 	H 	0.6229	0.8365	0.3401	0.07
Mof_H 	H 	0.6154	0.8092	0.536	0.072
Mof_H 	H 	0.3895	0.8391	0.5364	0.07
Mof_H 	H 	0.5656	0.1564	0.3259	0.058
Mof_H 	H 	0.3399	0.178	0.3255	0.084
Mof_H 	H 	0.4178	0.5691	0.2943	0.064
Mof_H 	H 	0.6441	0.547	0.2932	0.08
Mof_H 	H 	0.601	0.6343	0.8389	0.064
Mof_H 	H 	0.3771	0.6635	0.8401	0.07
Mof_H 	H 	0.3846	0.6908	0.036	0.072
Mof_H 	H 	0.6105	0.6609	0.0364	0.07
Mof_H 	H 	0.4344	0.3436	0.8259	0.058
Mof_H 	H 	0.6601	0.322	0.8255	0.084
Mof_H 	H 	0.5822	0.9309	0.7943	0.064
Mof_H 	H 	0.3559	0.953	0.7932	0.079
Mof_H 	H 	0.601	0.1343	0.6611	0.064
Mof_H 	H 	0.3771	0.1635	0.6599	0.07
Mof_H 	H 	0.3846	0.1908	0.464	0.072
Mof_H 	H 	0.6105	0.1609	0.4636	0.07
Mof_H 	H 	0.4344	0.8436	0.6741	0.058
Mof_H 	H 	0.6601	0.822	0.6745	0.084
Mof_H 	H 	0.5822	0.4309	0.7057	0.064
Mof_H 	H 	0.3559	0.453	0.7068	0.08
Mof_H 	H 	0.399	0.3657	0.1611	0.064
Mof_H 	H 	0.6229	0.3365	0.1599	0.07
Mof_H 	H 	0.6154	0.3092	0.964	0.072
Mof_H 	H 	0.3895	0.3391	0.9636	0.07
Mof_H 	H 	0.5656	0.6564	0.1741	0.058
Mof_H 	H 	0.3399	0.678	0.1745	0.084
Mof_H 	H 	0.4178	0.0691	0.2057	0.064
Mof_H 	H 	0.6441	0.047	0.2068	0.079
Mof_C 	C 	0.3714	0.8543	0.4374	-0.02
Mof_C 	C 	0.4425	0.8543	0.379	-0.028
Mof_C 	C 	0.5757	0.8376	0.3799	-0.032
Mof_C 	C 	0.6412	0.8226	0.4379	-0.012
Mof_C 	C 	0.5711	0.8215	0.4962	-0.031
Mof_C 	C 	0.4365	0.8384	0.4965	-0.027
Mof_C 	C 	0.6273	0.3507	0.3098	-0.02
Mof_C 	C 	0.5354	0.24	0.3192	-0.03
Mof_C 	C 	0.4015	0.2528	0.3186	-0.037
Mof_C 	C 	0.3559	0.3765	0.3078	-0.018
Mof_C 	C 	0.4475	0.4848	0.2998	-0.029
Mof_C 	C 	0.5825	0.4721	0.2999	-0.034
Mof_C 	C 	0.6286	0.6457	0.9374	-0.021
Mof_C 	C 	0.5575	0.6457	0.879	-0.027
Mof_C 	C 	0.4243	0.6624	0.8799	-0.033
Mof_C 	C 	0.3588	0.6774	0.9379	-0.012
Mof_C 	C 	0.4289	0.6785	0.9962	-0.033
Mof_C 	C 	0.5635	0.6616	0.9965	-0.026
Mof_C 	C 	0.3727	0.1493	0.8098	-0.021
Mof_C 	C 	0.4646	0.26	0.8192	-0.029
Mof_C 	C 	0.5985	0.2472	0.8186	-0.038
Mof_C 	C 	0.6441	0.1235	0.8078	-0.017
Mof_C 	C 	0.5525	0.0152	0.7998	-0.03
Mof_C 	C 	0.4175	0.0279	0.7999	-0.032
Mof_C 	C 	0.6286	0.1457	0.5626	-0.02
Mof_C 	C 	0.5575	0.1457	0.621	-0.028
Mof_C 	C 	0.4243	0.1624	0.6201	-0.032
Mof_C 	C 	0.3588	0.1774	0.5621	-0.012
Mof_C 	C 	0.4289	0.1785	0.5038	-0.031
Mof_C 	C 	0.5635	0.1616	0.5035	-0.027
Mof_C 	C 	0.3727	0.6493	0.6902	-0.02
Mof_C 	C 	0.4646	0.76	0.6808	-0.03
Mof_C 	C 	0.5985	0.7472	0.6814	-0.037
Mof_C 	C 	0.6441	0.6235	0.6922	-0.018
Mof_C 	C 	0.5525	0.5152	0.7002	-0.029
Mof_C 	C 	0.4175	0.5279	0.7001	-0.034
Mof_C 	C 	0.3714	0.3543	0.0626	-0.021
Mof_C 	C 	0.4425	0.3543	0.121	-0.027
Mof_C 	C 	0.5757	0.3376	0.1201	-0.033
Mof_C 	C 	0.6412	0.3226	0.0621	-0.012
Mof_C 	C 	0.5711	0.3215	0.0038	-0.033
Mof_C 	C 	0.4365	0.3384	0.0035	-0.026
Mof_C 	C 	0.6273	0.8507	0.1902	-0.021
Mof_C 	C 	0.5354	0.74	0.1808	-0.029
Mof_C 	C 	0.4015	0.7528	0.1814	-0.038
Mof_C 	C 	0.3559	0.8765	0.1922	-0.017
Mof_C 	C 	0.4475	0.9848	0.2002	-0.03
Mof_C 	C 	0.5825	0.9721	0.2001	-0.032
Mof_O 	O 	0.8294	0.2665	0.2436	-0.134
Mof_O 	O 	0.8284	0.2441	0.3674	-0.136
Mof_O 	O 	0.8742	0.4681	0.3154	-0.124
Mof_O 	O 	0.1765	0.9966	0.399	-0.148
Mof_O 	O 	0.1453	0.8783	0.5048	-0.152
Mof_O 	O 	0.1308	0.7508	0.3999	-0.139
Mof_O 	O 	0.1276	0.3299	0.2433	-0.117
Mof_O 	O 	0.1231	0.3131	0.3657	-0.123
Mof_O 	O 	0.1644	0.5356	0.3123	-0.137
Mof_O 	O 	0.8631	0.791	0.5065	-0.149
Mof_O 	O 	0.8903	0.9167	0.4006	-0.121
Mof_O 	O 	0.8313	0.6767	0.3984	-0.15
Mof_O 	O 	0.1706	0.2335	0.7436	-0.134
Mof_O 	O 	0.1716	0.2559	0.8674	-0.136
Mof_O 	O 	0.1258	0.0319	0.8154	-0.123
Mof_O 	O 	0.8235	0.5034	0.899	-0.147
Mof_O 	O 	0.8547	0.6217	0.0048	-0.152
Mof_O 	O 	0.8692	0.7492	0.8999	-0.138
Mof_O 	O 	0.8724	0.1701	0.7433	-0.117
Mof_O 	O 	0.8769	0.1869	0.8657	-0.124
Mof_O 	O 	0.8356	0.9644	0.8123	-0.136
Mof_O 	O 	0.1369	0.709	0.0065	-0.148
Mof_O 	O 	0.1097	0.5833	0.9006	-0.122
Mof_O 	O 	0.1687	0.8233	0.8984	-0.151
Mof_O 	O 	0.1706	0.7335	0.7564	-0.134
Mof_O 	O 	0.1716	0.7559	0.6326	-0.136
Mof_O 	O 	0.1258	0.5319	0.6846	-0.124
Mof_O 	O 	0.8235	0.0034	0.601	-0.148
Mof_O 	O 	0.8547	0.1217	0.4952	-0.152
Mof_O 	O 	0.8692	0.2492	0.6001	-0.139
Mof_O 	O 	0.8724	0.6701	0.7567	-0.117
Mof_O 	O 	0.8769	0.6869	0.6343	-0.123
Mof_O 	O 	0.8356	0.4644	0.6877	-0.137
Mof_O 	O 	0.1369	0.209	0.4935	-0.149
Mof_O 	O 	0.1097	0.0833	0.5994	-0.121
Mof_O 	O 	0.1687	0.3233	0.6016	-0.15
Mof_O 	O 	0.8294	0.7665	0.2564	-0.134
Mof_O 	O 	0.8284	0.7441	0.1326	-0.136
Mof_O 	O 	0.8742	0.9681	0.1846	-0.123
Mof_O 	O 	0.1765	0.4966	0.101	-0.147
Mof_O 	O 	0.1453	0.3783	0.9952	-0.152
Mof_O 	O 	0.1308	0.2508	0.1001	-0.138
Mof_O 	O 	0.1276	0.8299	0.2567	-0.117
Mof_O 	O 	0.1231	0.8131	0.1343	-0.124
Mof_O 	O 	0.1644	0.0356	0.1877	-0.136
Mof_O 	O 	0.8631	0.291	0.9935	-0.148
Mof_O 	O 	0.8903	0.4167	0.0994	-0.122
Mof_O 	O 	0.8313	0.1767	0.1016	-0.151
Mof_F 	F 	0.0019	0.0918	0.2956	-0.285
Mof_F 	F 	0.9981	0.4082	0.7956	-0.286
Mof_F 	F 	0.9981	0.9082	0.7044	-0.285
Mof_F 	F 	0.0019	0.5918	0.2044	-0.286
_end
