data_functionalizedCrystal
_audit_creation_method	'EQeq! by Chris Wilmer'
_symmetry_space_group_name_H-M	'P1'
_symmetry_Int_Tables_number	1
_symmetry_cell_setting	triclinic
loop_
_symmetry_equiv_pos_as_xyz
  x,y,z
_cell_length_a	19.2564
_cell_length_b	15.21
_cell_length_c	15.21
_cell_angle_alpha	90
_cell_angle_beta	90
_cell_angle_gamma	90
loop_
_atom_site_label
_atom_site_type_symbol
_atom_site_fract_x
_atom_site_fract_y
_atom_site_fract_z
_atom_site_charge
Mof_Zn	Zn	0.3331	0.0063	0.99312	1.257
Mof_Zn	Zn	0.16716	0.00628	0.99315	1.256
Mof_H 	H 	0.35932	0.97507	0.71977	0.034
Mof_H 	H 	0.3593	0.9728	0.55946	0.051
Mof_H 	H 	0.35893	0.03894	0.26661	0.027
Mof_H 	H 	0.35887	0.04107	0.4269	0.038
Mof_H 	H 	0.3593	0.2796	0.0243	0.033
Mof_H 	H 	0.35925	0.43988	0.02668	0.05
Mof_H 	H 	0.35923	0.73286	0.9619	0.027
Mof_H 	H 	0.35919	0.57259	0.95953	0.038
Mof_H 	H 	0.14102	0.03661	0.71959	0.024
Mof_H 	H 	0.14115	0.03887	0.55935	0.038
Mof_H 	H 	0.14147	0.97286	0.26666	0.033
Mof_H 	H 	0.14159	0.97055	0.42692	0.05
Mof_H 	H 	0.14114	0.73273	0.0246	0.033
Mof_H 	H 	0.14127	0.57252	0.02702	0.05
Mof_H 	H 	0.14109	0.27968	0.96226	0.024
Mof_H 	H 	0.14121	0.43993	0.95981	0.039
Mof_C 	C 	0.25012	0.00589	0.83379	0.412
Mof_C 	C 	0.25015	0.00581	0.73402	-0.158
Mof_C 	C 	0.25022	0.00581	0.54354	-0.006
Mof_C 	C 	0.25016	0.00596	0.15253	0.41
Mof_C 	C 	0.2502	0.00587	0.2523	-0.146
Mof_C 	C 	0.25023	0.00581	0.44278	-0.005
Mof_C 	C 	0.25017	0.1656	0.99329	0.411
Mof_C 	C 	0.25019	0.26535	0.99331	-0.155
Mof_C 	C 	0.25023	0.45583	0.99326	-0.003
Mof_C 	C 	0.25014	0.84687	0.99324	0.409
Mof_C 	C 	0.25018	0.74711	0.99325	-0.141
Mof_C 	C 	0.25023	0.55662	0.99326	-0.002
Mof_C 	C 	0.45984	0.91614	0.98126	-0.034
Mof_C 	C 	0.45982	0.04203	0.0772	-0.016
Mof_C 	C 	0.45979	0.06219	0.92031	-0.042
Mof_C 	C 	0.04041	0.06366	0.92149	-0.042
Mof_C 	C 	0.04037	0.91641	0.97948	-0.035
Mof_C 	C 	0.04037	0.04033	0.07794	-0.04
Mof_C 	C 	0.31121	0.98896	0.68562	0.069
Mof_C 	C 	0.31118	0.98839	0.59261	-0.036
Mof_C 	C 	0.31102	0.02395	0.30072	0.03
Mof_C 	C 	0.31097	0.02448	0.39373	-0.069
Mof_C 	C 	0.31121	0.31375	0.0103	0.065
Mof_C 	C 	0.31116	0.40676	0.01089	-0.039
Mof_C 	C 	0.31117	0.69872	0.97607	0.03
Mof_C 	C 	0.31113	0.6057	0.97546	-0.069
Mof_C 	C 	0.18914	0.02267	0.68554	0.032
Mof_C 	C 	0.18924	0.02324	0.59254	-0.072
Mof_C 	C 	0.1894	0.98777	0.30075	0.059
Mof_C 	C 	0.18948	0.98716	0.39375	-0.035
Mof_C 	C 	0.18922	0.69865	0.01045	0.055
Mof_C 	C 	0.18932	0.60566	0.01107	-0.038
Mof_C 	C 	0.18919	0.31379	0.97627	0.032
Mof_C 	C 	0.18929	0.40679	0.97563	-0.071
Mof_N 	N 	0.43318	0.00671	0.99295	-0.243
Mof_N 	N 	0.06703	0.00673	0.99299	-0.241
Mof_O 	O 	0.30754	0.88892	0.99293	-0.464
Mof_O 	O 	0.19272	0.88888	0.99351	-0.468
Mof_O 	O 	0.19274	0.0057	0.11052	-0.472
Mof_O 	O 	0.19265	0.00624	0.87579	-0.49
Mof_O 	O 	0.19267	0.12361	0.99302	-0.489
Mof_O 	O 	0.30757	0.00635	0.11049	-0.467
Mof_O 	O 	0.30756	0.00569	0.87581	-0.494
Mof_O 	O 	0.30766	0.12361	0.99351	-0.493
Mof_H 	H 	0.44026	0.87317	0.03501	0.056
Mof_H 	H 	0.44019	0.8882	0.9184	0.039
Mof_H 	H 	0.43978	0.10981	0.08781	0.037
Mof_H 	H 	0.44071	0.00125	0.13285	0.027
Mof_H 	H 	0.44026	0.03727	0.85619	0.026
Mof_H 	H 	0.44015	0.13059	0.92749	0.027
Mof_H 	H 	0.06024	0.13183	0.92982	0.029
Mof_H 	H 	0.05972	0.03981	0.85687	0.028
Mof_H 	H 	0.0603	0.88956	0.91629	0.04
Mof_H 	H 	0.05965	0.87251	0.03263	0.052
Mof_H 	H 	0.05968	0.99864	0.13278	0.056
Mof_H 	H 	0.06019	0.10801	0.08975	0.042
Mof_Zn	Zn	0.83309	0.00631	0.99311	1.256
Mof_Zn	Zn	0.66716	0.00629	0.99311	1.257
Mof_H 	H 	0.85938	0.97506	0.71973	0.034
Mof_H 	H 	0.85934	0.97276	0.55941	0.05
Mof_H 	H 	0.85893	0.03888	0.26655	0.025
Mof_H 	H 	0.85891	0.04101	0.42684	0.037
Mof_H 	H 	0.85926	0.2796	0.02424	0.033
Mof_H 	H 	0.85921	0.43989	0.02659	0.05
Mof_H 	H 	0.8592	0.73286	0.96179	0.026
Mof_H 	H 	0.85914	0.57259	0.95943	0.038
Mof_H 	H 	0.64109	0.03668	0.71957	0.024
Mof_H 	H 	0.6412	0.03891	0.55933	0.038
Mof_H 	H 	0.64146	0.97289	0.26666	0.036
Mof_H 	H 	0.6416	0.97058	0.42691	0.051
Mof_H 	H 	0.64113	0.73276	0.02457	0.034
Mof_H 	H 	0.64125	0.57254	0.02699	0.05
Mof_H 	H 	0.64104	0.27969	0.96226	0.024
Mof_H 	H 	0.64117	0.43994	0.9598	0.039
Mof_C 	C 	0.75019	0.00591	0.83376	0.412
Mof_C 	C 	0.75022	0.00583	0.73398	-0.158
Mof_C 	C 	0.75027	0.00581	0.54351	-0.006
Mof_C 	C 	0.75014	0.00596	0.1525	0.409
Mof_C 	C 	0.75019	0.00587	0.25227	-0.146
Mof_C 	C 	0.75026	0.0058	0.44274	-0.005
Mof_C 	C 	0.75012	0.16561	0.99326	0.411
Mof_C 	C 	0.75014	0.26536	0.99327	-0.155
Mof_C 	C 	0.75019	0.45584	0.99321	-0.003
Mof_C 	C 	0.75013	0.84688	0.99319	0.409
Mof_C 	C 	0.75016	0.74712	0.9932	-0.142
Mof_C 	C 	0.7502	0.55663	0.99321	-0.002
Mof_C 	C 	0.95984	0.91644	0.97923	-0.036
Mof_C 	C 	0.95981	0.04012	0.078	-0.041
Mof_C 	C 	0.95979	0.06383	0.9216	-0.042
Mof_C 	C 	0.54041	0.062	0.92017	-0.043
Mof_C 	C 	0.54037	0.91612	0.98153	-0.034
Mof_C 	C 	0.54039	0.04227	0.07711	-0.016
Mof_C 	C 	0.81127	0.98896	0.68558	0.069
Mof_C 	C 	0.81123	0.98838	0.59257	-0.036
Mof_C 	C 	0.81103	0.02392	0.30067	0.03
Mof_C 	C 	0.81099	0.02444	0.39368	-0.069
Mof_C 	C 	0.81117	0.31376	0.01024	0.065
Mof_C 	C 	0.81112	0.40677	0.01083	-0.039
Mof_C 	C 	0.81114	0.69872	0.97598	0.03
Mof_C 	C 	0.81109	0.60571	0.97538	-0.069
Mof_C 	C 	0.68921	0.02271	0.68551	0.032
Mof_C 	C 	0.68929	0.02327	0.59252	-0.072
Mof_C 	C 	0.68939	0.98778	0.30073	0.059
Mof_C 	C 	0.6895	0.98717	0.39373	-0.034
Mof_C 	C 	0.6892	0.69867	0.0104	0.055
Mof_C 	C 	0.68929	0.60567	0.01103	-0.038
Mof_C 	C 	0.68914	0.3138	0.97625	0.032
Mof_C 	C 	0.68924	0.4068	0.97561	-0.071
Mof_N 	N 	0.93318	0.00672	0.99296	-0.241
Mof_N 	N 	0.56704	0.00672	0.99295	-0.243
Mof_O 	O 	0.80753	0.88893	0.9929	-0.465
Mof_O 	O 	0.69271	0.88889	0.99346	-0.467
Mof_O 	O 	0.69272	0.00569	0.11049	-0.47
Mof_O 	O 	0.69273	0.00626	0.87576	-0.49
Mof_O 	O 	0.69262	0.12363	0.99298	-0.489
Mof_O 	O 	0.80755	0.00636	0.11045	-0.469
Mof_O 	O 	0.80764	0.00571	0.87577	-0.494
Mof_O 	O 	0.80761	0.12362	0.9935	-0.493
Mof_H 	H 	0.94029	0.87227	0.03201	0.054
Mof_H 	H 	0.94016	0.88991	0.91577	0.04
Mof_H 	H 	0.93979	0.10766	0.09012	0.041
Mof_H 	H 	0.94067	0.9981	0.1327	0.059
Mof_H 	H 	0.94026	0.04037	0.85693	0.026
Mof_H 	H 	0.94017	0.13206	0.93032	0.028
Mof_H 	H 	0.56027	0.13033	0.9269	0.029
Mof_H 	H 	0.55967	0.03663	0.85611	0.028
Mof_H 	H 	0.56029	0.88782	0.91897	0.04
Mof_H 	H 	0.55968	0.87345	0.03566	0.054
Mof_H 	H 	0.55972	0.00189	0.1329	0.025
Mof_H 	H 	0.56018	0.11022	0.08734	0.039
_end
