# CIF file generated by openbabel 3.1.0, see https://openbabel.org
data_I
_chemical_name_common 'image0'
_cell_length_a 15.216
_cell_length_b 15.216
_cell_length_c 18.65
_cell_angle_alpha 90
_cell_angle_beta 90
_cell_angle_gamma 120
_space_group_name_H-M_alt 'P 1'
_space_group_name_Hall 'P 1'
loop_
    _symmetry_equiv_pos_as_xyz
    x,y,z
loop_
    _atom_site_label
    _atom_site_type_symbol
    _atom_site_fract_x
    _atom_site_fract_y
    _atom_site_fract_z
    _atom_site_occupancy
    N1       N        0.97140    0.60220    0.72700    1.000
    N2       N        0.89120    0.79340    0.91190    1.000
    C1       C        0.97500    0.69150    0.72460    1.000
    C2       C        0.92230    0.84950    0.85200    1.000
    H1       H        0.92490    0.91310    0.85170    1.000
    C3       C        0.95060    0.81970    0.79100    1.000
    H2       H        0.97130    0.86160    0.74960    1.000
    C4       C        0.94870    0.72880    0.79050    1.000
    C5       C        0.91560    0.66820    0.85180    1.000
    H3       H        0.91090    0.60350    0.85290    1.000
    C6       C        0.88990    0.70560    0.91090    1.000
    H4       H        0.87000    0.66590    0.95340    1.000
    C7       C        0.96720    0.41610    0.72710    1.000
    H5       H        0.94370    0.43400    0.76880    1.000
    C8       C        0.97010    0.32570    0.72410    1.000
    H6       H        0.94960    0.28310    0.76520    1.000
    O1       O        0.22040    0.12750    0.39780    1.000
    N3       N        0.13720    0.13110    0.39610    1.000
    O2       O        0.06140    0.06070    0.35980    1.000
    O3       O        0.12810    0.19880    0.42480    1.000
    N4       N        0.82580    0.99980    0.93040    1.000
    O4       O        0.91560    0.04320    0.94060    1.000
    O5       O        0.78250    0.04760    0.91150    1.000
    N5       N        0.39780    0.36920    0.06033    1.000
    N6       N        0.20660    0.09780    0.24523    1.000
    C9       C        0.30850    0.28350    0.05793    1.000
    C10      C        0.15050    0.07280    0.18533    1.000
    H7       H        0.08690    0.01180    0.18503    1.000
    C11      C        0.18030    0.13090    0.12433    1.000
    H8       H        0.13840    0.10970    0.08293    1.000
    C12      C        0.27120    0.21990    0.12383    1.000
    C13      C        0.33180    0.24740    0.18513    1.000
    H9       H        0.39650    0.30740    0.18623    1.000
    C14      C        0.29440    0.18430    0.24423    1.000
    H10      H        0.33410    0.20410    0.28673    1.000
    C15      C        0.58390    0.55110    0.06043    1.000
    H11      H        0.56600    0.50970    0.10213    1.000
    C16      C        0.67430    0.64440    0.05743    1.000
    H12      H        0.71690    0.66650    0.09853    1.000
    O6       O        0.87250    0.09290    0.73113    1.000
    N7       N        0.86890    0.00610    0.72943    1.000
    O7       O        0.93930    0.00070    0.69313    1.000
    O8       O        0.80120    0.92930    0.75813    1.000
    N8       N        0.00020    0.82600    0.26373    1.000
    O9       O        0.95680    0.87240    0.27393    1.000
    O10      O        0.95240    0.73490    0.24483    1.000
    N9       N        0.63080    0.02860    0.39367    1.000
    N10      N        0.90220    0.10880    0.57857    1.000
    C17      C        0.71650    0.02500    0.39127    1.000
    C18      C        0.92720    0.07770    0.51867    1.000
    H13      H        0.98820    0.07510    0.51837    1.000
    C19      C        0.86910    0.04940    0.45767    1.000
    H14      H        0.89030    0.02870    0.41627    1.000
    C20      C        0.78010    0.05130    0.45717    1.000
    C21      C        0.75260    0.08440    0.51847    1.000
    H15      H        0.69260    0.08910    0.51957    1.000
    C22      C        0.81570    0.11010    0.57757    1.000
    H16      H        0.79590    0.13000    0.62007    1.000
    C23      C        0.44890    0.03280    0.39377    1.000
    H17      H        0.49030    0.05630    0.43547    1.000
    C24      C        0.35560    0.02990    0.39077    1.000
    H18      H        0.33350    0.05040    0.43187    1.000
    O11      O        0.90710    0.77960    0.06447    1.000
    N11      N        0.99390    0.86280    0.06277    1.000
    O12      O        0.99930    0.93860    0.02647    1.000
    O13      O        0.07070    0.87190    0.09147    1.000
    N12      N        0.17400    0.17420    0.59707    1.000
    O14      O        0.12760    0.08440    0.60727    1.000
    O15      O        0.26510    0.21750    0.57817    1.000
    N13      N        0.60220    0.97140    0.27300    1.000
    N14      N        0.79340    0.89120    0.08810    1.000
    C25      C        0.69150    0.97500    0.27540    1.000
    C26      C        0.84950    0.92230    0.14800    1.000
    H19      H        0.91310    0.92490    0.14830    1.000
    C27      C        0.81970    0.95060    0.20900    1.000
    H20      H        0.86160    0.97130    0.25040    1.000
    C28      C        0.72880    0.94870    0.20950    1.000
    C29      C        0.66820    0.91560    0.14820    1.000
    H21      H        0.60350    0.91090    0.14710    1.000
    C30      C        0.70560    0.88990    0.08910    1.000
    H22      H        0.66590    0.87000    0.04660    1.000
    C31      C        0.41610    0.96720    0.27290    1.000
    H23      H        0.43400    0.94370    0.23120    1.000
    C32      C        0.32570    0.97010    0.27590    1.000
    H24      H        0.28310    0.94960    0.23480    1.000
    O16      O        0.12750    0.22040    0.60220    1.000
    N15      N        0.13110    0.13720    0.60390    1.000
    O17      O        0.06070    0.06140    0.64020    1.000
    O18      O        0.19880    0.12810    0.57520    1.000
    N16      N        0.99980    0.82580    0.06960    1.000
    O19      O        0.04320    0.91560    0.05940    1.000
    O20      O        0.04760    0.78250    0.08850    1.000
    N17      N        0.36920    0.39780    0.93967    1.000
    N18      N        0.09780    0.20660    0.75477    1.000
    C33      C        0.28350    0.30850    0.94207    1.000
    C34      C        0.07280    0.15050    0.81467    1.000
    H25      H        0.01180    0.08690    0.81497    1.000
    C35      C        0.13090    0.18030    0.87567    1.000
    H26      H        0.10970    0.13840    0.91707    1.000
    C36      C        0.21990    0.27120    0.87617    1.000
    C37      C        0.24740    0.33180    0.81487    1.000
    H27      H        0.30740    0.39650    0.81377    1.000
    C38      C        0.18430    0.29440    0.75577    1.000
    H28      H        0.20410    0.33410    0.71327    1.000
    C39      C        0.55110    0.58390    0.93957    1.000
    H29      H        0.50970    0.56600    0.89787    1.000
    C40      C        0.64440    0.67430    0.94257    1.000
    H30      H        0.66650    0.71690    0.90147    1.000
    O21      O        0.09290    0.87250    0.26887    1.000
    N19      N        0.00610    0.86890    0.27057    1.000
    O22      O        0.00070    0.93930    0.30687    1.000
    O23      O        0.92930    0.80120    0.24187    1.000
    N20      N        0.82600    0.00020    0.73627    1.000
    O24      O        0.87240    0.95680    0.72607    1.000
    O25      O        0.73490    0.95240    0.75517    1.000
    N21      N        0.02860    0.63080    0.60633    1.000
    N22      N        0.10880    0.90220    0.42143    1.000
    C41      C        0.02500    0.71650    0.60873    1.000
    C42      C        0.07770    0.92720    0.48133    1.000
    H31      H        0.07510    0.98820    0.48163    1.000
    C43      C        0.04940    0.86910    0.54233    1.000
    H32      H        0.02870    0.89030    0.58373    1.000
    C44      C        0.05130    0.78010    0.54283    1.000
    C45      C        0.08440    0.75260    0.48153    1.000
    H33      H        0.08910    0.69260    0.48043    1.000
    C46      C        0.11010    0.81570    0.42243    1.000
    H34      H        0.13000    0.79590    0.37993    1.000
    C47      C        0.03280    0.44890    0.60623    1.000
    H35      H        0.05630    0.49030    0.56453    1.000
    C48      C        0.02990    0.35560    0.60923    1.000
    H36      H        0.05040    0.33350    0.56813    1.000
    O26      O        0.77960    0.90710    0.93553    1.000
    N23      N        0.86280    0.99390    0.93723    1.000
    O27      O        0.93860    0.99930    0.97353    1.000
    O28      O        0.87190    0.07070    0.90853    1.000
    N24      N        0.17420    0.17400    0.40293    1.000
    O29      O        0.08440    0.12760    0.39273    1.000
    O30      O        0.21750    0.26510    0.42183    1.000
    Ni1      Ni       0.16166    0.00000    0.33333    1.000
    Ni2      Ni       0.00000    0.16166    0.66667    1.000
    Ni3      Ni       0.83834    0.83834    0.00000    1.000
    N25      N        0.00000    0.75070    0.66667    1.000
    N26      N        0.00000    0.29720    0.66667    1.000
    C49      C        0.00000    0.57650    0.66667    1.000
    C50      C        0.00000    0.47950    0.66667    1.000
    N27      N        0.24930    0.24930    0.00000    1.000
    N28      N        0.70280    0.70280    0.00000    1.000
    C51      C        0.42350    0.42350    0.00000    1.000
    C52      C        0.52050    0.52050    0.00000    1.000
    N29      N        0.75070    0.00000    0.33333    1.000
    N30      N        0.29720    0.00000    0.33333    1.000
    C53      C        0.57650    0.00000    0.33333    1.000
    C54      C        0.47950    0.00000    0.33333    1.000
