data_functionalizedCrystal
_audit_creation_method	'EQeq! by Chris Wilmer'
_symmetry_space_group_name_H-M	'P1'
_symmetry_Int_Tables_number	1
_symmetry_cell_setting	triclinic
loop_
_symmetry_equiv_pos_as_xyz
  x,y,z
_cell_length_a	14.2543
_cell_length_b	15.4448
_cell_length_c	15.4448
_cell_angle_alpha	77.5548
_cell_angle_beta	90
_cell_angle_gamma	90
loop_
_atom_site_label
_atom_site_type_symbol
_atom_site_fract_x
_atom_site_fract_y
_atom_site_fract_z
_atom_site_charge
Mof_Ca	Ca	0.11082	0.96118	0.44042	1.35
Mof_Ca	Ca	0.61082	0.53882	0.05958	1.354
Mof_Ca	Ca	0.38918	0.94042	0.46118	1.354
Mof_Ca	Ca	0.88918	0.55958	0.03882	1.35
Mof_Ca	Ca	0.88918	0.03882	0.55958	1.35
Mof_Ca	Ca	0.38918	0.46118	0.94042	1.354
Mof_Ca	Ca	0.61082	0.05958	0.53882	1.354
Mof_Ca	Ca	0.11082	0.44042	0.96118	1.35
Mof_H 	H 	0.8906	0.7881	0.3013	0.067
Mof_H 	H 	0.8866	0.7039	0.2021	-0.001
Mof_H 	H 	0.3262	0.8998	0.6926	0.048
Mof_H 	H 	0.3906	0.7119	0.1987	0.067
Mof_H 	H 	0.3866	0.7961	0.2979	-0.001
Mof_H 	H 	0.8262	0.6002	0.8074	0.049
Mof_H 	H 	0.6094	0.8013	0.2881	0.067
Mof_H 	H 	0.6134	0.7021	0.2039	-0.001
Mof_H 	H 	0.1738	0.1926	0.3998	0.049
Mof_H 	H 	0.1094	0.6987	0.2119	0.067
Mof_H 	H 	0.1134	0.7979	0.2961	-0.001
Mof_H 	H 	0.6738	0.3074	0.1002	0.048
Mof_H 	H 	0.1094	0.2119	0.6987	0.067
Mof_H 	H 	0.1134	0.2961	0.7979	-0.001
Mof_H 	H 	0.6738	0.1002	0.3074	0.048
Mof_H 	H 	0.6094	0.2881	0.8013	0.067
Mof_H 	H 	0.6134	0.2039	0.7021	-0.001
Mof_H 	H 	0.1738	0.3998	0.1926	0.049
Mof_H 	H 	0.3906	0.1987	0.7119	0.067
Mof_H 	H 	0.3866	0.2979	0.7961	-0.001
Mof_H 	H 	0.8262	0.8074	0.6002	0.049
Mof_H 	H 	0.8906	0.3013	0.7881	0.067
Mof_H 	H 	0.8866	0.2021	0.7039	-0.001
Mof_H 	H 	0.3262	0.6926	0.8998	0.048
Mof_H 	H 	0.75	0.9393	0.4393	0.007
Mof_H 	H 	0.25	0.5607	0.0607	0.007
Mof_H 	H 	0.25	0.0607	0.5607	0.007
Mof_H 	H 	0.75	0.4393	0.9393	0.007
Mof_H 	H 	0.1302	0.7105	0.7105	0.046
Mof_H 	H 	0.6302	0.7895	0.7895	0.048
Mof_H 	H 	0.3698	0.2105	0.2105	0.048
Mof_H 	H 	0.8698	0.2895	0.2895	0.046
Mof_C 	C 	0.9269	0.89739	0.40743	0.385
Mof_C 	C 	0.83442	0.81039	0.31795	-0.053
Mof_C 	C 	0.83452	0.86865	0.37533	-0.105
Mof_C 	C 	0.18837	0.85606	0.5976	0.347
Mof_C 	C 	0.8244	0.69206	0.19058	0.115
Mof_C 	C 	0.2254	0.81097	0.68671	-0.09
Mof_C 	C 	0.2996	0.84698	0.7229	-0.066
Mof_C 	C 	0.4461	0.8167	0.9237	0.112
Mof_C 	C 	0.4269	0.60261	0.09257	0.382
Mof_C 	C 	0.33442	0.68961	0.18205	-0.053
Mof_C 	C 	0.33452	0.63135	0.12467	-0.105
Mof_C 	C 	0.68837	0.64394	0.9024	0.346
Mof_C 	C 	0.3244	0.80794	0.30942	0.115
Mof_C 	C 	0.7254	0.68903	0.81329	-0.088
Mof_C 	C 	0.7996	0.65302	0.7771	-0.067
Mof_C 	C 	0.9461	0.6833	0.5763	0.114
Mof_C 	C 	0.5731	0.90743	0.39739	0.382
Mof_C 	C 	0.66558	0.81795	0.31039	-0.053
Mof_C 	C 	0.66548	0.87533	0.36865	-0.105
Mof_C 	C 	0.31163	0.0976	0.35606	0.346
Mof_C 	C 	0.6756	0.69058	0.19206	0.115
Mof_C 	C 	0.2746	0.18671	0.31097	-0.088
Mof_C 	C 	0.2004	0.2229	0.34698	-0.067
Mof_C 	C 	0.0539	0.4237	0.3167	0.114
Mof_C 	C 	0.0731	0.59257	0.10261	0.385
Mof_C 	C 	0.16558	0.68205	0.18961	-0.053
Mof_C 	C 	0.16548	0.62467	0.13135	-0.105
Mof_C 	C 	0.81163	0.4024	0.14394	0.347
Mof_C 	C 	0.1756	0.80942	0.30794	0.115
Mof_C 	C 	0.7746	0.31329	0.18903	-0.09
Mof_C 	C 	0.7004	0.2771	0.15302	-0.066
Mof_C 	C 	0.5539	0.0763	0.1833	0.112
Mof_C 	C 	0.0731	0.10261	0.59257	0.385
Mof_C 	C 	0.16558	0.18961	0.68205	-0.053
Mof_C 	C 	0.16548	0.13135	0.62467	-0.105
Mof_C 	C 	0.81163	0.14394	0.4024	0.347
Mof_C 	C 	0.1756	0.30794	0.80942	0.115
Mof_C 	C 	0.7746	0.18903	0.31329	-0.09
Mof_C 	C 	0.7004	0.15302	0.2771	-0.066
Mof_C 	C 	0.5539	0.1833	0.0763	0.112
Mof_C 	C 	0.5731	0.39739	0.90743	0.382
Mof_C 	C 	0.66558	0.31039	0.81795	-0.053
Mof_C 	C 	0.66548	0.36865	0.87533	-0.105
Mof_C 	C 	0.31163	0.35606	0.0976	0.346
Mof_C 	C 	0.6756	0.19206	0.69058	0.115
Mof_C 	C 	0.2746	0.31097	0.18671	-0.088
Mof_C 	C 	0.2004	0.34698	0.2229	-0.067
Mof_C 	C 	0.0539	0.3167	0.4237	0.114
Mof_C 	C 	0.4269	0.09257	0.60261	0.382
Mof_C 	C 	0.33442	0.18205	0.68961	-0.053
Mof_C 	C 	0.33452	0.12467	0.63135	-0.105
Mof_C 	C 	0.68837	0.9024	0.64394	0.346
Mof_C 	C 	0.3244	0.30942	0.80794	0.115
Mof_C 	C 	0.7254	0.81329	0.68903	-0.088
Mof_C 	C 	0.7996	0.7771	0.65302	-0.067
Mof_C 	C 	0.9461	0.5763	0.6833	0.114
Mof_C 	C 	0.9269	0.40743	0.89739	0.385
Mof_C 	C 	0.83442	0.31795	0.81039	-0.053
Mof_C 	C 	0.83452	0.37533	0.86865	-0.105
Mof_C 	C 	0.18837	0.5976	0.85606	0.347
Mof_C 	C 	0.8244	0.19058	0.69206	0.115
Mof_C 	C 	0.2254	0.68671	0.81097	-0.09
Mof_C 	C 	0.2996	0.7229	0.84698	-0.066
Mof_C 	C 	0.4461	0.9237	0.8167	0.112
Mof_C 	C 	0.75	0.90065	0.40065	0.043
Mof_C 	C 	0.75	0.78595	0.28595	0.078
Mof_C 	C 	0.25	0.59935	0.09935	0.043
Mof_C 	C 	0.25	0.71405	0.21405	0.078
Mof_C 	C 	0.25	0.09935	0.59935	0.043
Mof_C 	C 	0.25	0.21405	0.71405	0.078
Mof_C 	C 	0.75	0.40065	0.90065	0.043
Mof_C 	C 	0.75	0.28595	0.78595	0.078
Mof_C 	C 	0.1842	0.73224	0.73224	0.006
Mof_C 	C 	0.335	0.80469	0.80469	0.079
Mof_C 	C 	0.6842	0.76776	0.76776	0.005
Mof_C 	C 	0.835	0.69531	0.69531	0.081
Mof_C 	C 	0.3158	0.23224	0.23224	0.005
Mof_C 	C 	0.165	0.30469	0.30469	0.081
Mof_C 	C 	0.8158	0.26776	0.26776	0.006
Mof_C 	C 	0.665	0.19531	0.19531	0.079
Mof_N 	N 	0.79824	0.64104	0.1385	-0.185
Mof_N 	N 	0.5037	0.8768	0.944	-0.085
Mof_N 	N 	0.29824	0.85896	0.3615	-0.185
Mof_N 	N 	0.0037	0.6232	0.556	-0.087
Mof_N 	N 	0.70176	0.6385	0.14104	-0.185
Mof_N 	N 	0.9963	0.444	0.3768	-0.087
Mof_N 	N 	0.20176	0.8615	0.35896	-0.185
Mof_N 	N 	0.4963	0.056	0.1232	-0.085
Mof_N 	N 	0.20176	0.35896	0.8615	-0.185
Mof_N 	N 	0.4963	0.1232	0.056	-0.085
Mof_N 	N 	0.70176	0.14104	0.6385	-0.185
Mof_N 	N 	0.9963	0.3768	0.444	-0.087
Mof_N 	N 	0.29824	0.3615	0.85896	-0.185
Mof_N 	N 	0.0037	0.556	0.6232	-0.087
Mof_N 	N 	0.79824	0.1385	0.64104	-0.185
Mof_N 	N 	0.5037	0.944	0.8768	-0.085
Mof_N 	N 	0.75	0.72595	0.22595	-0.159
Mof_N 	N 	0.25	0.77405	0.27405	-0.159
Mof_N 	N 	0.25	0.27405	0.77405	-0.159
Mof_N 	N 	0.75	0.22595	0.72595	-0.159
Mof_N 	N 	0.4069	0.84582	0.84582	-0.158
Mof_N 	N 	0.9069	0.65418	0.65418	-0.159
Mof_N 	N 	0.0931	0.34582	0.34582	-0.159
Mof_N 	N 	0.5931	0.15418	0.15418	-0.158
Mof_O 	O 	0.24543	0.89998	0.5428	-0.497
Mof_O 	O 	0.10247	0.84924	0.5803	-0.391
Mof_O 	O 	0.00021	0.8735	0.37646	-0.419
Mof_O 	O 	0.92634	0.94405	0.46507	-0.507
Mof_O 	O 	0.74543	0.60002	0.9572	-0.495
Mof_O 	O 	0.60247	0.65076	0.9197	-0.389
Mof_O 	O 	0.50021	0.6265	0.12354	-0.416
Mof_O 	O 	0.42634	0.55595	0.03493	-0.509
Mof_O 	O 	0.25457	0.0428	0.39998	-0.495
Mof_O 	O 	0.39753	0.0803	0.34924	-0.389
Mof_O 	O 	0.49979	0.87646	0.3735	-0.416
Mof_O 	O 	0.57366	0.96507	0.44405	-0.509
Mof_O 	O 	0.75457	0.4572	0.10002	-0.497
Mof_O 	O 	0.89753	0.4197	0.15076	-0.391
Mof_O 	O 	0.99979	0.62354	0.1265	-0.419
Mof_O 	O 	0.07366	0.53493	0.05595	-0.507
Mof_O 	O 	0.75457	0.10002	0.4572	-0.497
Mof_O 	O 	0.89753	0.15076	0.4197	-0.391
Mof_O 	O 	0.99979	0.1265	0.62354	-0.419
Mof_O 	O 	0.07366	0.05595	0.53493	-0.507
Mof_O 	O 	0.25457	0.39998	0.0428	-0.495
Mof_O 	O 	0.39753	0.34924	0.0803	-0.389
Mof_O 	O 	0.49979	0.3735	0.87646	-0.416
Mof_O 	O 	0.57366	0.44405	0.96507	-0.509
Mof_O 	O 	0.74543	0.9572	0.60002	-0.495
Mof_O 	O 	0.60247	0.9197	0.65076	-0.389
Mof_O 	O 	0.50021	0.12354	0.6265	-0.416
Mof_O 	O 	0.42634	0.03493	0.55595	-0.509
Mof_O 	O 	0.24543	0.5428	0.89998	-0.497
Mof_O 	O 	0.10247	0.5803	0.84924	-0.391
Mof_O 	O 	0.00021	0.37646	0.8735	-0.419
Mof_O 	O 	0.92634	0.46507	0.94405	-0.507
_end
