data_functionalizedCrystal
_audit_creation_method	'EQeq! by Chris Wilmer'
_symmetry_space_group_name_H-M	'P1'
_symmetry_Int_Tables_number	1
_symmetry_cell_setting	triclinic
loop_
_symmetry_equiv_pos_as_xyz
  x,y,z
_cell_length_a	14.5933
_cell_length_b	14.5933
_cell_length_c	14.5933
_cell_angle_alpha	109.471
_cell_angle_beta	109.471
_cell_angle_gamma	109.471
loop_
_atom_site_label
_atom_site_type_symbol
_atom_site_fract_x
_atom_site_fract_y
_atom_site_fract_z
_atom_site_charge
Mof_H 	H 	0.4659	0.5677	0.3348	0.006
Mof_C 	C 	0.5188	0.5752	0.3116	-0.011
Mof_N 	N 	0.5526	0.647	0.271	-0.29
Mof_H 	H 	0.2329	0.1311	0.6652	0.008
Mof_C 	C 	0.2636	0.2072	0.6884	-0.011
Mof_N 	N 	0.376	0.2816	0.729	-0.292
Mof_H 	H 	0.7671	0.4323	0.8982	0.012
Mof_C 	C 	0.7364	0.4248	0.9436	-0.035
Mof_N 	N 	0.624	0.353	0.9056	-0.294
Mof_H 	H 	0.5341	0.8689	0.1018	0
Mof_C 	C 	0.4812	0.7928	0.0564	0.01
Mof_N 	N 	0.4474	0.7184	0.0944	-0.294
Mof_H 	H 	0.3348	0.4659	0.5677	0.007
Mof_C 	C 	0.3116	0.5188	0.5752	-0.012
Mof_N 	N 	0.271	0.5526	0.647	-0.292
Mof_H 	H 	0.6652	0.2329	0.1311	0.009
Mof_C 	C 	0.6884	0.2636	0.2072	-0.011
Mof_N 	N 	0.729	0.376	0.2816	-0.292
Mof_H 	H 	0.8982	0.7671	0.4323	0.006
Mof_C 	C 	0.9436	0.7364	0.4248	-0.02
Mof_N 	N 	0.9056	0.624	0.353	-0.293
Mof_H 	H 	0.1018	0.5341	0.8689	0.002
Mof_C 	C 	0.0564	0.4812	0.7928	-0.006
Mof_N 	N 	0.0944	0.4474	0.7184	-0.293
Mof_H 	H 	0.5677	0.3348	0.4659	0.006
Mof_C 	C 	0.5752	0.3116	0.5188	-0.012
Mof_N 	N 	0.647	0.271	0.5526	-0.292
Mof_H 	H 	0.1311	0.6652	0.2329	0.008
Mof_C 	C 	0.2072	0.6884	0.2636	-0.012
Mof_N 	N 	0.2816	0.729	0.376	-0.292
Mof_H 	H 	0.4323	0.8982	0.7671	0.007
Mof_C 	C 	0.4248	0.9436	0.7364	-0.019
Mof_N 	N 	0.353	0.9056	0.624	-0.292
Mof_H 	H 	0.8689	0.1018	0.5341	0.004
Mof_C 	C 	0.7928	0.0564	0.4812	-0.006
Mof_N 	N 	0.7184	0.0944	0.4474	-0.293
Mof_H 	H 	0.5677	0.4659	0.3348	0.005
Mof_C 	C 	0.5752	0.5188	0.3116	-0.012
Mof_N 	N 	0.647	0.5526	0.271	-0.292
Mof_H 	H 	0.1311	0.2329	0.6652	0.007
Mof_C 	C 	0.2072	0.2636	0.6884	-0.012
Mof_N 	N 	0.2816	0.376	0.729	-0.292
Mof_H 	H 	0.4323	0.7671	0.8982	0.012
Mof_C 	C 	0.4248	0.7364	0.9436	-0.034
Mof_N 	N 	0.353	0.624	0.9056	-0.293
Mof_H 	H 	0.8689	0.5341	0.1018	0
Mof_C 	C 	0.7928	0.4812	0.0564	0.009
Mof_N 	N 	0.7184	0.4474	0.0944	-0.295
Mof_H 	H 	0.4659	0.3348	0.5677	0.005
Mof_C 	C 	0.5188	0.3116	0.5752	-0.013
Mof_N 	N 	0.5526	0.271	0.647	-0.292
Mof_H 	H 	0.2329	0.6652	0.1311	0.009
Mof_C 	C 	0.2636	0.6884	0.2072	-0.011
Mof_N 	N 	0.376	0.729	0.2816	-0.292
Mof_H 	H 	0.7671	0.8982	0.4323	0.008
Mof_C 	C 	0.7364	0.9436	0.4248	-0.019
Mof_N 	N 	0.624	0.9056	0.353	-0.292
Mof_H 	H 	0.5341	0.1018	0.8689	0.002
Mof_C 	C 	0.4812	0.0564	0.7928	-0.006
Mof_N 	N 	0.4474	0.0944	0.7184	-0.293
Mof_H 	H 	0.3348	0.5677	0.4659	0.006
Mof_C 	C 	0.3116	0.5752	0.5188	-0.012
Mof_N 	N 	0.271	0.647	0.5526	-0.292
Mof_H 	H 	0.6652	0.1311	0.2329	0.008
Mof_C 	C 	0.6884	0.2072	0.2636	-0.012
Mof_N 	N 	0.729	0.2816	0.376	-0.292
Mof_H 	H 	0.8982	0.4323	0.7671	0.007
Mof_C 	C 	0.9436	0.4248	0.7364	-0.019
Mof_N 	N 	0.9056	0.353	0.624	-0.292
Mof_H 	H 	0.1018	0.8689	0.5341	0.004
Mof_C 	C 	0.0564	0.7928	0.4812	-0.006
Mof_N 	N 	0.0944	0.7184	0.4474	-0.293
Mof_Zn	Zn	0.5	0.75	0.25	1.179
Mof_Zn	Zn	0.5	0.25	0.75	1.179
Mof_Zn	Zn	0.25	0.5	0.75	1.179
Mof_Zn	Zn	0.75	0.5	0.25	1.179
Mof_Zn	Zn	0.75	0.25	0.5	1.179
Mof_Zn	Zn	0.25	0.75	0.5	1.179
Mof_C 	C 	0.6293	0.6293	0.248	0.124
Mof_C 	C 	0.6846	0.6846	0.197	-0.237
Mof_C 	C 	0.3813	0.3813	0.752	0.122
Mof_C 	C 	0.4876	0.4876	0.803	-0.236
Mof_C 	C 	0.6187	0.3707	-0	0.127
Mof_C 	C 	0.5124	0.3154	-0	-0.21
Mof_C 	C 	0.3707	0.6187	-0	0.129
Mof_C 	C 	0.3154	0.5124	-0	-0.21
Mof_C 	C 	0.248	0.6293	0.6293	0.122
Mof_C 	C 	0.197	0.6846	0.6846	-0.235
Mof_C 	C 	0.752	0.3813	0.3813	0.124
Mof_C 	C 	0.803	0.4876	0.4876	-0.237
Mof_C 	C 	-5.93988e-17	0.6187	0.3707	0.125
Mof_C 	C 	-0	0.5124	0.3154	-0.232
Mof_C 	C 	-7.12786e-17	0.3707	0.6187	0.126
Mof_C 	C 	-3.56393e-17	0.3154	0.5124	-0.231
Mof_C 	C 	0.6293	0.248	0.6293	0.122
Mof_C 	C 	0.6846	0.197	0.6846	-0.235
Mof_C 	C 	0.3813	0.752	0.3813	0.124
Mof_C 	C 	0.4876	0.803	0.4876	-0.237
Mof_C 	C 	0.3707	0	0.6187	0.125
Mof_C 	C 	0.3154	4.75191e-17	0.5124	-0.231
Mof_C 	C 	0.6187	0	0.3707	0.125
Mof_C 	C 	0.5124	4.75191e-17	0.3154	-0.232
Mof_H 	H 	0.66306	0.61796	0.11267	0.049
Mof_H 	H 	0.77943	0.73432	0.25534	0.045
Mof_H 	H 	0.65359	0.7438	0.184	0.029
Mof_H 	H 	0.52409	0.47899	0.74466	0.044
Mof_H 	H 	0.5504	0.5053	0.88733	0.044
Mof_H 	H 	0.46959	0.55979	0.816	0.027
Mof_H 	H 	0.5325	0.31239	0.08107	0.03
Mof_H 	H 	0.31239	0.5325	0.08107	0.03
Mof_H 	H 	0.23256	0.70187	0.77473	0.035
Mof_H 	H 	0.1021	0.62708	0.63671	0.05
Mof_H 	H 	0.21734	0.76713	0.68464	0.031
Mof_H 	H 	0.82518	0.47156	0.5612	0.028
Mof_H 	H 	0.74052	0.51883	0.48272	0.046
Mof_H 	H 	0.8823	0.55368	0.50015	0.044
Mof_H 	H 	0.02247	0.48183	0.3776	0.049
Mof_H 	H 	0.06442	0.52815	0.2865	0.04
Mof_H 	H 	0.07362	0.2993	0.5309	0.036
Mof_H 	H 	0.00833	0.37236	0.47435	0.05
Mof_H 	H 	0.62708	0.1021	0.63671	0.05
Mof_H 	H 	0.70187	0.23256	0.77473	0.035
Mof_H 	H 	0.76713	0.21734	0.68464	0.031
Mof_H 	H 	0.51883	0.74052	0.48272	0.046
Mof_H 	H 	0.47156	0.82518	0.5612	0.028
Mof_H 	H 	0.55368	0.8823	0.50015	0.044
Mof_H 	H 	0.2993	0.07362	0.5309	0.036
Mof_H 	H 	0.37236	0.00833	0.47435	0.05
Mof_H 	H 	0.48183	0.02247	0.3776	0.049
Mof_H 	H 	0.52815	0.06442	0.2865	0.04
Mof_H 	H 	0.91311	0.44594	0.23982	0.027
Mof_H 	H 	0.91805	0.23226	0.45068	0.03
Mof_H 	H 	0.23226	0.91805	0.45068	0.03
Mof_H 	H 	0.44594	0.91311	0.23982	0.027
Mof_H 	H 	0.45641	0.22635	0.92522	0.025
Mof_H 	H 	0.46701	0.36518	0.99371	0.038
Mof_H 	H 	0.22635	0.45641	0.92522	0.025
Mof_H 	H 	0.36518	0.46701	0.99371	0.039
_end
