data_functionalizedCrystal
_audit_creation_method	'EQeq! by Chris Wilmer'
_symmetry_space_group_name_H-M	'P1'
_symmetry_Int_Tables_number	1
_symmetry_cell_setting	triclinic
loop_
_symmetry_equiv_pos_as_xyz
  x,y,z
_cell_length_a	33.237
_cell_length_b	9.719
_cell_length_c	18.423
_cell_angle_alpha	90
_cell_angle_beta	90.538
_cell_angle_gamma	90
loop_
_atom_site_label
_atom_site_type_symbol
_atom_site_fract_x
_atom_site_fract_y
_atom_site_fract_z
_atom_site_charge
Mof_Zn	Zn	0.36268	0.7062	0.27978	1.183
Mof_Zn	Zn	0.55534	0.79376	0.29322	1.186
Mof_Zn	Zn	0.45896	0.7506	0.28967	1.173
Mof_O 	O 	0.5558	0.7041	0.1984	-0.453
Mof_O 	O 	0.3648	0.8106	0.3766	-0.5
Mof_O 	O 	0.5497	0.3363	0.8742	-0.477
Mof_O 	O 	0.3693	0.172	0.6972	-0.494
Mof_O 	O 	0.4822	0.3255	0.8809	-0.534
Mof_O 	O 	0.4364	0.1833	0.6891	-0.498
Mof_O 	O 	0.4244	0.8795	0.3496	-0.554
Mof_O 	O 	0.1127	0.3355	0.3027	-0.533
Mof_O 	O 	0.4926	0.6212	0.2246	-0.492
Mof_O 	O 	0.3075	0.6589	0.2567	-0.426
Mof_C 	C 	0.3959	0.8704	0.3911	0.463
Mof_C 	C 	0.5224	0.6424	0.184	0.334
Mof_C 	C 	0.5181	0.4328	0.9783	-0.115
Mof_C 	C 	0.4015	0.072	0.5991	-0.123
Mof_C 	C 	0.2505	0.5332	0.291	-0.082
Mof_C 	C 	0.1694	0.472	0.276	-0.122
Mof_C 	C 	0.399	0.9332	0.4653	-0.157
Mof_C 	C 	0.4019	0.147	0.6661	0.401
Mof_C 	C 	0.5222	0.5622	0.113	-0.076
Mof_C 	C 	0.2932	0.5622	0.3006	0.305
Mof_C 	C 	0.5154	0.3601	0.9045	0.39
Mof_C 	C 	0.1239	0.427	0.276	0.459
Mof_O 	O 	0.3154	0.4855	0.3363	-0.312
Mof_C 	C 	0.4858	0.493	0.0886	0.004
Mof_C 	C 	0.4322	0.992	0.4829	0.038
Mof_C 	C 	0.5515	0.4983	0.9968	0.049
Mof_C 	C 	0.3653	0.01	0.5727	0.028
Mof_C 	C 	0.4847	0.444	0.0191	0.025
Mof_O 	O 	0.1028	0.4864	0.226	-0.344
Mof_C 	C 	0.3673	0.947	0.5071	0.06
Mof_C 	C 	0.4357	0.0671	0.5523	0.019
Mof_C 	C 	0.5566	0.569	0.0668	0.021
Mof_C 	C 	0.2364	0.399	0.312	0.029
Mof_C 	C 	0.1829	0.593	0.2589	0.047
Mof_C 	C 	0.193	0.366	0.31	0.044
Mof_C 	C 	0.2207	0.624	0.2708	0.028
Mof_Zn	Zn	0.86268	0.2062	0.27978	1.183
Mof_Zn	Zn	0.05534	0.29376	0.29322	1.184
Mof_Zn	Zn	0.95896	0.2506	0.28967	1.173
Mof_O 	O 	0.0558	0.2041	0.1984	-0.452
Mof_O 	O 	0.8648	0.3106	0.3766	-0.5
Mof_O 	O 	0.0497	0.8363	0.8742	-0.477
Mof_O 	O 	0.8693	0.672	0.6972	-0.494
Mof_O 	O 	0.9822	0.8255	0.8809	-0.521
Mof_O 	O 	0.9364	0.6833	0.6891	-0.496
Mof_O 	O 	0.9244	0.3795	0.3496	-0.553
Mof_O 	O 	0.6127	0.8355	0.3027	-0.531
Mof_O 	O 	0.9926	0.1212	0.2246	-0.478
Mof_O 	O 	0.8075	0.1589	0.2567	-0.426
Mof_C 	C 	0.8959	0.3704	0.3911	0.463
Mof_C 	C 	0.0224	0.1424	0.184	0.318
Mof_C 	C 	0.0181	0.9328	0.9783	-0.129
Mof_C 	C 	0.9015	0.572	0.5991	-0.123
Mof_C 	C 	0.7505	0.0332	0.291	-0.082
Mof_C 	C 	0.6694	0.972	0.276	-0.121
Mof_C 	C 	0.899	0.4332	0.4653	-0.158
Mof_C 	C 	0.9019	0.647	0.6661	0.401
Mof_C 	C 	0.0222	0.0622	0.113	-0.087
Mof_C 	C 	0.7932	0.0622	0.3006	0.305
Mof_C 	C 	0.0154	0.8601	0.9045	0.374
Mof_C 	C 	0.6239	0.927	0.276	0.459
Mof_O 	O 	0.8154	0.9855	0.3363	-0.312
Mof_C 	C 	0.9858	0.993	0.0886	0.014
Mof_C 	C 	0.9322	0.492	0.4829	0.041
Mof_C 	C 	0.0515	0.9983	0.9968	0.049
Mof_C 	C 	0.8653	0.51	0.5727	0.028
Mof_C 	C 	0.9847	0.944	0.0191	0.038
Mof_O 	O 	0.6028	0.9864	0.226	-0.341
Mof_C 	C 	0.8673	0.447	0.5071	0.06
Mof_C 	C 	0.9357	0.5671	0.5523	0.022
Mof_C 	C 	0.0566	0.069	0.0668	0.019
Mof_C 	C 	0.7364	0.899	0.312	0.029
Mof_C 	C 	0.6829	0.093	0.2589	0.047
Mof_C 	C 	0.693	0.866	0.31	0.045
Mof_C 	C 	0.7207	0.124	0.2708	0.028
Mof_Zn	Zn	0.36268	0.2938	0.77978	1.183
Mof_Zn	Zn	0.55534	0.20624	0.79322	1.186
Mof_Zn	Zn	0.45896	0.2494	0.78967	1.173
Mof_O 	O 	0.5558	0.2959	0.6984	-0.453
Mof_O 	O 	0.3648	0.1894	0.8766	-0.498
Mof_O 	O 	0.5497	0.6637	0.3742	-0.478
Mof_O 	O 	0.3693	0.828	0.1972	-0.495
Mof_O 	O 	0.4822	0.6745	0.3809	-0.535
Mof_O 	O 	0.4364	0.8167	0.1891	-0.499
Mof_O 	O 	0.4244	0.1205	0.8496	-0.553
Mof_O 	O 	0.1127	0.6645	0.8027	-0.532
Mof_O 	O 	0.4926	0.3788	0.7246	-0.491
Mof_O 	O 	0.3075	0.3411	0.7567	-0.425
Mof_C 	C 	0.3959	0.1296	0.8911	0.461
Mof_C 	C 	0.5224	0.3576	0.684	0.334
Mof_C 	C 	0.5181	0.5672	0.4783	-0.121
Mof_C 	C 	0.4015	0.928	0.0991	-0.123
Mof_C 	C 	0.2505	0.4668	0.791	-0.082
Mof_C 	C 	0.1694	0.528	0.776	-0.122
Mof_C 	C 	0.399	0.0668	0.9653	-0.15
Mof_C 	C 	0.4019	0.853	0.1661	0.401
Mof_C 	C 	0.5222	0.4378	0.613	-0.076
Mof_C 	C 	0.2932	0.4378	0.8006	0.306
Mof_C 	C 	0.5154	0.6399	0.4045	0.391
Mof_C 	C 	0.1239	0.573	0.776	0.459
Mof_O 	O 	0.3154	0.5145	0.8363	-0.311
Mof_C 	C 	0.4858	0.507	0.5886	0.004
Mof_C 	C 	0.4322	0.008	0.9829	0.041
Mof_C 	C 	0.5515	0.5017	0.4968	0.045
Mof_C 	C 	0.3653	0.99	0.0727	0.03
Mof_C 	C 	0.4847	0.556	0.5191	0.031
Mof_O 	O 	0.1028	0.5136	0.726	-0.343
Mof_C 	C 	0.3673	0.053	0.0071	0.051
Mof_C 	C 	0.4357	0.9329	0.0523	0.015
Mof_C 	C 	0.5566	0.431	0.5668	0.025
Mof_C 	C 	0.2364	0.601	0.812	0.029
Mof_C 	C 	0.1829	0.407	0.7589	0.048
Mof_C 	C 	0.193	0.634	0.81	0.045
Mof_C 	C 	0.2207	0.376	0.7708	0.028
Mof_Zn	Zn	0.86268	0.7938	0.77978	1.183
Mof_Zn	Zn	0.05534	0.70624	0.79322	1.184
Mof_Zn	Zn	0.95896	0.7494	0.78967	1.173
Mof_O 	O 	0.0558	0.7959	0.6984	-0.452
Mof_O 	O 	0.8648	0.6894	0.8766	-0.498
Mof_O 	O 	0.0497	0.1637	0.3742	-0.478
Mof_O 	O 	0.8693	0.328	0.1972	-0.494
Mof_O 	O 	0.9822	0.1745	0.3809	-0.522
Mof_O 	O 	0.9364	0.3167	0.1891	-0.496
Mof_O 	O 	0.9244	0.6205	0.8496	-0.552
Mof_O 	O 	0.6127	0.1645	0.8027	-0.531
Mof_O 	O 	0.9926	0.8788	0.7246	-0.477
Mof_O 	O 	0.8075	0.8411	0.7567	-0.425
Mof_C 	C 	0.8959	0.6296	0.8911	0.462
Mof_C 	C 	0.0224	0.8576	0.684	0.318
Mof_C 	C 	0.0181	0.0672	0.4783	-0.134
Mof_C 	C 	0.9015	0.428	0.0991	-0.123
Mof_C 	C 	0.7505	0.9668	0.791	-0.082
Mof_C 	C 	0.6694	0.028	0.776	-0.121
Mof_C 	C 	0.899	0.5668	0.9653	-0.152
Mof_C 	C 	0.9019	0.353	0.1661	0.401
Mof_C 	C 	0.0222	0.9378	0.613	-0.087
Mof_C 	C 	0.7932	0.9378	0.8006	0.305
Mof_C 	C 	0.0154	0.1399	0.4045	0.375
Mof_C 	C 	0.6239	0.073	0.776	0.459
Mof_O 	O 	0.8154	0.0145	0.8363	-0.311
Mof_C 	C 	0.9858	0.007	0.5886	0.014
Mof_C 	C 	0.9322	0.508	0.9829	0.044
Mof_C 	C 	0.0515	0.0017	0.4968	0.046
Mof_C 	C 	0.8653	0.49	0.0727	0.029
Mof_C 	C 	0.9847	0.056	0.5191	0.045
Mof_O 	O 	0.6028	0.0136	0.726	-0.341
Mof_C 	C 	0.8673	0.553	0.0071	0.053
Mof_C 	C 	0.9357	0.4329	0.0523	0.018
Mof_C 	C 	0.0566	0.931	0.5668	0.024
Mof_C 	C 	0.7364	0.101	0.812	0.03
Mof_C 	C 	0.6829	0.907	0.7589	0.048
Mof_C 	C 	0.693	0.134	0.81	0.045
Mof_C 	C 	0.7207	0.876	0.7708	0.028
_end
