# CIF file generated by openbabel 3.1.0, see https://openbabel.org
data_I
_chemical_name_common 'image0'
_cell_length_a 22.078
_cell_length_b 16.3817
_cell_length_c 25.6311
_cell_angle_alpha 90
_cell_angle_beta 115.334
_cell_angle_gamma 90
_space_group_name_H-M_alt 'P 1'
_space_group_name_Hall 'P 1'
loop_
    _symmetry_equiv_pos_as_xyz
    x,y,z
loop_
    _atom_site_label
    _atom_site_type_symbol
    _atom_site_fract_x
    _atom_site_fract_y
    _atom_site_fract_z
    _atom_site_occupancy
    Ag1      Ag       0.34412    0.54225    0.36793    1.000
    Ag2      Ag       0.32288    0.24792    0.86728    1.000
    C1       C        0.12410    0.24300    0.50248    1.000
    C2       C        0.23510    0.43530    0.38860    1.000
    H1       H        0.21280    0.44250    0.34880    1.000
    C3       C        0.03310    0.18730    0.41100    1.000
    H2       H        0.05480    0.20800    0.38980    1.000
    C4       C        0.71980    0.84790    0.89210    1.000
    H3       H        0.69960    0.84300    0.85210    1.000
    C5       C        0.06000    0.19800    0.47024    1.000
    C6       C        0.59780    0.03020    0.00107    1.000
    C7       C        0.77840    0.86210    0.00960    1.000
    H4       H        0.79950    0.86570    0.04960    1.000
    C8       C        0.44400    0.15680    0.96510    1.000
    H5       H        0.42390    0.18440    0.98520    1.000
    C9       C        0.02630    0.16420    0.50000    1.000
    H6       H        0.04370    0.16860    0.53990    1.000
    C10      C        0.29800    0.41570    0.50490    1.000
    H7       H        0.32040    0.41140    0.54480    1.000
    C11      C        0.50350    0.11670    0.99630    1.000
    H8       H        0.52340    0.11830    0.03650    1.000
    C12      C        0.24350    0.26250    0.65138    1.000
    C13      C        0.20970    0.27300    0.58766    1.000
    C14      C        0.53320    0.07390    0.96689    1.000
    C15      C        0.20540    0.32760    0.50521    1.000
    C16      C        0.96700    0.12440    0.46960    1.000
    H9       H        0.94470    0.10260    0.49010    1.000
    C17      C        0.68250    0.94810    0.00698    1.000
    C18      C        0.67880    0.04470    0.18100    1.000
    H10      H        0.63490    0.06290    0.16100    1.000
    C19      C        0.71580    0.89860    0.97800    1.000
    C20      C        0.68020    0.99810    0.08838    1.000
    C21      C        0.32600    0.45940    0.47410    1.000
    H11      H        0.36800    0.48290    0.49440    1.000
    C22      C        0.80750    0.99490    0.24280    1.000
    H12      H        0.85160    0.97810    0.26360    1.000
    C23      C        0.23600    0.37870    0.47480    1.000
    C24      C        0.20400    0.38990    0.41530    1.000
    H13      H        0.16200    0.36700    0.39380    1.000
    C25      C        0.97340    0.14510    0.38410    1.000
    H14      H        0.95620    0.13720    0.34440    1.000
    C26      C        0.71230    0.00810    0.15180    1.000
    C27      C        0.80800    0.82060    0.97940    1.000
    H15      H        0.84950    0.79630    0.00030    1.000
    C28      C        0.71200    0.05350    0.24070    1.000
    H16      H        0.68910    0.07720    0.26000    1.000
    C29      C        0.30220    0.30250    0.68500    1.000
    H17      H        0.32370    0.33510    0.66840    1.000
    C30      C        0.50250    0.07320    0.90710    1.000
    H18      H        0.52100    0.04430    0.88610    1.000
    C31      C        0.44350    0.11670    0.87930    1.000
    H19      H        0.42350    0.11730    0.83920    1.000
    C32      C        0.24570    0.20460    0.73750    1.000
    H20      H        0.22690    0.16970    0.75520    1.000
    C33      C        0.21530    0.21060    0.67790    1.000
    H21      H        0.17690    0.18060    0.65610    1.000
    C34      C        0.32840    0.29290    0.74440    1.000
    H22      H        0.36770    0.32060    0.76690    1.000
    C35      C        0.68600    0.89070    0.91840    1.000
    H23      H        0.64420    0.91370    0.89640    1.000
    C36      C        0.77840    0.98320    0.18350    1.000
    H24      H        0.80240    0.95920    0.16530    1.000
    N1       N        0.93918    0.11510    0.41217    1.000
    N2       N        0.29562    0.46960    0.41668    1.000
    N3       N        0.30080    0.24650    0.77124    1.000
    N4       N        0.14809    0.28920    0.47259    1.000
    N5       N        0.23827    0.32240    0.56291    1.000
    N6       N        0.15301    0.23200    0.55938    1.000
    N7       N        0.41343    0.15840    0.90725    1.000
    N8       N        0.78020    0.81320    0.92145    1.000
    N9       N        0.77600    0.02910    0.27182    1.000
    N10      N        0.62631    0.98850    0.97299    1.000
    N11      N        0.71121    0.95040    0.06458    1.000
    N12      N        0.62279    0.03740    0.05894    1.000
    Ag3      Ag       0.84412    0.04225    0.36793    1.000
    Ag4      Ag       0.82288    0.74792    0.86728    1.000
    C37      C        0.62410    0.74300    0.50248    1.000
    C38      C        0.73510    0.93530    0.38860    1.000
    H25      H        0.71280    0.94250    0.34880    1.000
    C39      C        0.53310    0.68730    0.41100    1.000
    H26      H        0.55480    0.70800    0.38980    1.000
    C40      C        0.21980    0.34790    0.89210    1.000
    H27      H        0.19960    0.34300    0.85210    1.000
    C41      C        0.56000    0.69800    0.47024    1.000
    C42      C        0.09780    0.53020    0.00107    1.000
    C43      C        0.27840    0.36210    0.00960    1.000
    H28      H        0.29950    0.36570    0.04960    1.000
    C44      C        0.94400    0.65680    0.96510    1.000
    H29      H        0.92390    0.68440    0.98520    1.000
    C45      C        0.52630    0.66420    0.50000    1.000
    H30      H        0.54370    0.66860    0.53990    1.000
    C46      C        0.79800    0.91570    0.50490    1.000
    H31      H        0.82040    0.91140    0.54480    1.000
    C47      C        0.00350    0.61670    0.99630    1.000
    H32      H        0.02340    0.61830    0.03650    1.000
    C48      C        0.74350    0.76250    0.65138    1.000
    C49      C        0.70970    0.77300    0.58766    1.000
    C50      C        0.03320    0.57390    0.96689    1.000
    C51      C        0.70540    0.82760    0.50521    1.000
    C52      C        0.46700    0.62440    0.46960    1.000
    H33      H        0.44470    0.60260    0.49010    1.000
    C53      C        0.18250    0.44810    0.00698    1.000
    C54      C        0.17880    0.54470    0.18100    1.000
    H34      H        0.13490    0.56290    0.16100    1.000
    C55      C        0.21580    0.39860    0.97800    1.000
    C56      C        0.18020    0.49810    0.08838    1.000
    C57      C        0.82600    0.95940    0.47410    1.000
    H35      H        0.86800    0.98290    0.49440    1.000
    C58      C        0.30750    0.49490    0.24280    1.000
    H36      H        0.35160    0.47810    0.26360    1.000
    C59      C        0.73600    0.87870    0.47480    1.000
    C60      C        0.70400    0.88990    0.41530    1.000
    H37      H        0.66200    0.86700    0.39380    1.000
    C61      C        0.47340    0.64510    0.38410    1.000
    H38      H        0.45620    0.63720    0.34440    1.000
    C62      C        0.21230    0.50810    0.15180    1.000
    C63      C        0.30800    0.32060    0.97940    1.000
    H39      H        0.34950    0.29630    0.00030    1.000
    C64      C        0.21200    0.55350    0.24070    1.000
    H40      H        0.18910    0.57720    0.26000    1.000
    C65      C        0.80220    0.80250    0.68500    1.000
    H41      H        0.82370    0.83510    0.66840    1.000
    C66      C        0.00250    0.57320    0.90710    1.000
    H42      H        0.02100    0.54430    0.88610    1.000
    C67      C        0.94350    0.61670    0.87930    1.000
    H43      H        0.92350    0.61730    0.83920    1.000
    C68      C        0.74570    0.70460    0.73750    1.000
    H44      H        0.72690    0.66970    0.75520    1.000
    C69      C        0.71530    0.71060    0.67790    1.000
    H45      H        0.67690    0.68060    0.65610    1.000
    C70      C        0.82840    0.79290    0.74440    1.000
    H46      H        0.86770    0.82060    0.76690    1.000
    C71      C        0.18600    0.39070    0.91840    1.000
    H47      H        0.14420    0.41370    0.89640    1.000
    C72      C        0.27840    0.48320    0.18350    1.000
    H48      H        0.30240    0.45920    0.16530    1.000
    N13      N        0.43918    0.61510    0.41217    1.000
    N14      N        0.79562    0.96960    0.41668    1.000
    N15      N        0.80080    0.74650    0.77124    1.000
    N16      N        0.64809    0.78920    0.47259    1.000
    N17      N        0.73827    0.82240    0.56291    1.000
    N18      N        0.65301    0.73200    0.55938    1.000
    N19      N        0.91343    0.65840    0.90725    1.000
    N20      N        0.28020    0.31320    0.92145    1.000
    N21      N        0.27600    0.52910    0.27182    1.000
    N22      N        0.12631    0.48850    0.97299    1.000
    N23      N        0.21121    0.45040    0.06458    1.000
    N24      N        0.12279    0.53740    0.05894    1.000
    Ag5      Ag       0.65588    0.54225    0.13207    1.000
    Ag6      Ag       0.67712    0.24792    0.63272    1.000
    C73      C        0.87590    0.24300    0.99752    1.000
    C74      C        0.76490    0.43530    0.11140    1.000
    H49      H        0.78720    0.44250    0.15120    1.000
    C75      C        0.96690    0.18730    0.08900    1.000
    H50      H        0.94520    0.20800    0.11020    1.000
    C76      C        0.28020    0.84790    0.60790    1.000
    H51      H        0.30040    0.84300    0.64790    1.000
    C77      C        0.94000    0.19800    0.02976    1.000
    C78      C        0.40220    0.03020    0.49893    1.000
    C79      C        0.22160    0.86210    0.49040    1.000
    H52      H        0.20050    0.86570    0.45040    1.000
    C80      C        0.55600    0.15680    0.53490    1.000
    H53      H        0.57610    0.18440    0.51480    1.000
    C81      C        0.97370    0.16420    0.00000    1.000
    H54      H        0.95630    0.16860    0.96010    1.000
    C82      C        0.70200    0.41570    0.99510    1.000
    H55      H        0.67960    0.41140    0.95520    1.000
    C83      C        0.49650    0.11670    0.50370    1.000
    H56      H        0.47660    0.11830    0.46350    1.000
    C84      C        0.75650    0.26250    0.84862    1.000
    C85      C        0.79030    0.27300    0.91234    1.000
    C86      C        0.46680    0.07390    0.53311    1.000
    C87      C        0.79460    0.32760    0.99479    1.000
    C88      C        0.03300    0.12440    0.03040    1.000
    H57      H        0.05530    0.10260    0.00990    1.000
    C89      C        0.31750    0.94810    0.49302    1.000
    C90      C        0.32120    0.04470    0.31900    1.000
    H58      H        0.36510    0.06290    0.33900    1.000
    C91      C        0.28420    0.89860    0.52200    1.000
    C92      C        0.31980    0.99810    0.41162    1.000
    C93      C        0.67400    0.45940    0.02590    1.000
    H59      H        0.63200    0.48290    0.00560    1.000
    C94      C        0.19250    0.99490    0.25720    1.000
    H60      H        0.14840    0.97810    0.23640    1.000
    C95      C        0.76400    0.37870    0.02520    1.000
    C96      C        0.79600    0.38990    0.08470    1.000
    H61      H        0.83800    0.36700    0.10620    1.000
    C97      C        0.02660    0.14510    0.11590    1.000
    H62      H        0.04380    0.13720    0.15560    1.000
    C98      C        0.28770    0.00810    0.34820    1.000
    C99      C        0.19200    0.82060    0.52060    1.000
    H63      H        0.15050    0.79630    0.49970    1.000
    C100     C        0.28800    0.05350    0.25930    1.000
    H64      H        0.31090    0.07720    0.24000    1.000
    C101     C        0.69780    0.30250    0.81500    1.000
    H65      H        0.67630    0.33510    0.83160    1.000
    C102     C        0.49750    0.07320    0.59290    1.000
    H66      H        0.47900    0.04430    0.61390    1.000
    C103     C        0.55650    0.11670    0.62070    1.000
    H67      H        0.57650    0.11730    0.66080    1.000
    C104     C        0.75430    0.20460    0.76250    1.000
    H68      H        0.77310    0.16970    0.74480    1.000
    C105     C        0.78470    0.21060    0.82210    1.000
    H69      H        0.82310    0.18060    0.84390    1.000
    C106     C        0.67160    0.29290    0.75560    1.000
    H70      H        0.63230    0.32060    0.73310    1.000
    C107     C        0.31400    0.89070    0.58160    1.000
    H71      H        0.35580    0.91370    0.60360    1.000
    C108     C        0.22160    0.98320    0.31650    1.000
    H72      H        0.19760    0.95920    0.33470    1.000
    N25      N        0.06082    0.11510    0.08783    1.000
    N26      N        0.70438    0.46960    0.08332    1.000
    N27      N        0.69920    0.24650    0.72876    1.000
    N28      N        0.85191    0.28920    0.02741    1.000
    N29      N        0.76173    0.32240    0.93709    1.000
    N30      N        0.84699    0.23200    0.94062    1.000
    N31      N        0.58657    0.15840    0.59275    1.000
    N32      N        0.21980    0.81320    0.57855    1.000
    N33      N        0.22400    0.02910    0.22818    1.000
    N34      N        0.37369    0.98850    0.52701    1.000
    N35      N        0.28879    0.95040    0.43542    1.000
    N36      N        0.37721    0.03740    0.44106    1.000
    Ag7      Ag       0.15588    0.04225    0.13207    1.000
    Ag8      Ag       0.17712    0.74792    0.63272    1.000
    C109     C        0.37590    0.74300    0.99752    1.000
    C110     C        0.26490    0.93530    0.11140    1.000
    H73      H        0.28720    0.94250    0.15120    1.000
    C111     C        0.46690    0.68730    0.08900    1.000
    H74      H        0.44520    0.70800    0.11020    1.000
    C112     C        0.78020    0.34790    0.60790    1.000
    H75      H        0.80040    0.34300    0.64790    1.000
    C113     C        0.44000    0.69800    0.02976    1.000
    C114     C        0.90220    0.53020    0.49893    1.000
    C115     C        0.72160    0.36210    0.49040    1.000
    H76      H        0.70050    0.36570    0.45040    1.000
    C116     C        0.05600    0.65680    0.53490    1.000
    H77      H        0.07610    0.68440    0.51480    1.000
    C117     C        0.47370    0.66420    0.00000    1.000
    H78      H        0.45630    0.66860    0.96010    1.000
    C118     C        0.20200    0.91570    0.99510    1.000
    H79      H        0.17960    0.91140    0.95520    1.000
    C119     C        0.99650    0.61670    0.50370    1.000
    H80      H        0.97660    0.61830    0.46350    1.000
    C120     C        0.25650    0.76250    0.84862    1.000
    C121     C        0.29030    0.77300    0.91234    1.000
    C122     C        0.96680    0.57390    0.53311    1.000
    C123     C        0.29460    0.82760    0.99479    1.000
    C124     C        0.53300    0.62440    0.03040    1.000
    H81      H        0.55530    0.60260    0.00990    1.000
    C125     C        0.81750    0.44810    0.49302    1.000
    C126     C        0.82120    0.54470    0.31900    1.000
    H82      H        0.86510    0.56290    0.33900    1.000
    C127     C        0.78420    0.39860    0.52200    1.000
    C128     C        0.81980    0.49810    0.41162    1.000
    C129     C        0.17400    0.95940    0.02590    1.000
    H83      H        0.13200    0.98290    0.00560    1.000
    C130     C        0.69250    0.49490    0.25720    1.000
    H84      H        0.64840    0.47810    0.23640    1.000
    C131     C        0.26400    0.87870    0.02520    1.000
    C132     C        0.29600    0.88990    0.08470    1.000
    H85      H        0.33800    0.86700    0.10620    1.000
    C133     C        0.52660    0.64510    0.11590    1.000
    H86      H        0.54380    0.63720    0.15560    1.000
    C134     C        0.78770    0.50810    0.34820    1.000
    C135     C        0.69200    0.32060    0.52060    1.000
    H87      H        0.65050    0.29630    0.49970    1.000
    C136     C        0.78800    0.55350    0.25930    1.000
    H88      H        0.81090    0.57720    0.24000    1.000
    C137     C        0.19780    0.80250    0.81500    1.000
    H89      H        0.17630    0.83510    0.83160    1.000
    C138     C        0.99750    0.57320    0.59290    1.000
    H90      H        0.97900    0.54430    0.61390    1.000
    C139     C        0.05650    0.61670    0.62070    1.000
    H91      H        0.07650    0.61730    0.66080    1.000
    C140     C        0.25430    0.70460    0.76250    1.000
    H92      H        0.27310    0.66970    0.74480    1.000
    C141     C        0.28470    0.71060    0.82210    1.000
    H93      H        0.32310    0.68060    0.84390    1.000
    C142     C        0.17160    0.79290    0.75560    1.000
    H94      H        0.13230    0.82060    0.73310    1.000
    C143     C        0.81400    0.39070    0.58160    1.000
    H95      H        0.85580    0.41370    0.60360    1.000
    C144     C        0.72160    0.48320    0.31650    1.000
    H96      H        0.69760    0.45920    0.33470    1.000
    N37      N        0.56082    0.61510    0.08783    1.000
    N38      N        0.20438    0.96960    0.08332    1.000
    N39      N        0.19920    0.74650    0.72876    1.000
    N40      N        0.35191    0.78920    0.02741    1.000
    N41      N        0.26173    0.82240    0.93709    1.000
    N42      N        0.34699    0.73200    0.94062    1.000
    N43      N        0.08657    0.65840    0.59275    1.000
    N44      N        0.71980    0.31320    0.57855    1.000
    N45      N        0.72400    0.52910    0.22818    1.000
    N46      N        0.87369    0.48850    0.52701    1.000
    N47      N        0.78879    0.45040    0.43542    1.000
    N48      N        0.87721    0.53740    0.44106    1.000
    Ag9      Ag       0.65588    0.45775    0.63207    1.000
    Ag10     Ag       0.67712    0.75208    0.13272    1.000
    C145     C        0.87590    0.75700    0.49752    1.000
    C146     C        0.76490    0.56470    0.61140    1.000
    H97      H        0.78720    0.55750    0.65120    1.000
    C147     C        0.96690    0.81270    0.58900    1.000
    H98      H        0.94520    0.79200    0.61020    1.000
    C148     C        0.28020    0.15210    0.10790    1.000
    H99      H        0.30040    0.15700    0.14790    1.000
    C149     C        0.94000    0.80200    0.52976    1.000
    C150     C        0.40220    0.96980    0.99893    1.000
    C151     C        0.22160    0.13790    0.99040    1.000
    H100     H        0.20050    0.13430    0.95040    1.000
    C152     C        0.55600    0.84320    0.03490    1.000
    H101     H        0.57610    0.81560    0.01480    1.000
    C153     C        0.97370    0.83580    0.50000    1.000
    H102     H        0.95630    0.83140    0.46010    1.000
    C154     C        0.70200    0.58430    0.49510    1.000
    H103     H        0.67960    0.58860    0.45520    1.000
    C155     C        0.49650    0.88330    0.00370    1.000
    H104     H        0.47660    0.88170    0.96350    1.000
    C156     C        0.75650    0.73750    0.34862    1.000
    C157     C        0.79030    0.72700    0.41234    1.000
    C158     C        0.46680    0.92610    0.03311    1.000
    C159     C        0.79460    0.67240    0.49479    1.000
    C160     C        0.03300    0.87560    0.53040    1.000
    H105     H        0.05530    0.89740    0.50990    1.000
    C161     C        0.31750    0.05190    0.99302    1.000
    C162     C        0.32120    0.95530    0.81900    1.000
    H106     H        0.36510    0.93710    0.83900    1.000
    C163     C        0.28420    0.10140    0.02200    1.000
    C164     C        0.31980    0.00190    0.91162    1.000
    C165     C        0.67400    0.54060    0.52590    1.000
    H107     H        0.63200    0.51710    0.50560    1.000
    C166     C        0.19250    0.00510    0.75720    1.000
    H108     H        0.14840    0.02190    0.73640    1.000
    C167     C        0.76400    0.62130    0.52520    1.000
    C168     C        0.79600    0.61010    0.58470    1.000
    H109     H        0.83800    0.63300    0.60620    1.000
    C169     C        0.02660    0.85490    0.61590    1.000
    H110     H        0.04380    0.86280    0.65560    1.000
    C170     C        0.28770    0.99190    0.84820    1.000
    C171     C        0.19200    0.17940    0.02060    1.000
    H111     H        0.15050    0.20370    0.99970    1.000
    C172     C        0.28800    0.94650    0.75930    1.000
    H112     H        0.31090    0.92280    0.74000    1.000
    C173     C        0.69780    0.69750    0.31500    1.000
    H113     H        0.67630    0.66490    0.33160    1.000
    C174     C        0.49750    0.92680    0.09290    1.000
    H114     H        0.47900    0.95570    0.11390    1.000
    C175     C        0.55650    0.88330    0.12070    1.000
    H115     H        0.57650    0.88270    0.16080    1.000
    C176     C        0.75430    0.79540    0.26250    1.000
    H116     H        0.77310    0.83030    0.24480    1.000
    C177     C        0.78470    0.78940    0.32210    1.000
    H117     H        0.82310    0.81940    0.34390    1.000
    C178     C        0.67160    0.70710    0.25560    1.000
    H118     H        0.63230    0.67940    0.23310    1.000
    C179     C        0.31400    0.10930    0.08160    1.000
    H119     H        0.35580    0.08630    0.10360    1.000
    C180     C        0.22160    0.01680    0.81650    1.000
    H120     H        0.19760    0.04080    0.83470    1.000
    N49      N        0.06082    0.88490    0.58783    1.000
    N50      N        0.70438    0.53040    0.58332    1.000
    N51      N        0.69920    0.75350    0.22876    1.000
    N52      N        0.85191    0.71080    0.52741    1.000
    N53      N        0.76173    0.67760    0.43709    1.000
    N54      N        0.84699    0.76800    0.44062    1.000
    N55      N        0.58657    0.84160    0.09275    1.000
    N56      N        0.21980    0.18680    0.07855    1.000
    N57      N        0.22400    0.97090    0.72818    1.000
    N58      N        0.37369    0.01150    0.02701    1.000
    N59      N        0.28879    0.04960    0.93542    1.000
    N60      N        0.37721    0.96260    0.94106    1.000
    Ag11     Ag       0.15588    0.95775    0.63207    1.000
    Ag12     Ag       0.17712    0.25208    0.13272    1.000
    C181     C        0.37590    0.25700    0.49752    1.000
    C182     C        0.26490    0.06470    0.61140    1.000
    H121     H        0.28720    0.05750    0.65120    1.000
    C183     C        0.46690    0.31270    0.58900    1.000
    H122     H        0.44520    0.29200    0.61020    1.000
    C184     C        0.78020    0.65210    0.10790    1.000
    H123     H        0.80040    0.65700    0.14790    1.000
    C185     C        0.44000    0.30200    0.52976    1.000
    C186     C        0.90220    0.46980    0.99893    1.000
    C187     C        0.72160    0.63790    0.99040    1.000
    H124     H        0.70050    0.63430    0.95040    1.000
    C188     C        0.05600    0.34320    0.03490    1.000
    H125     H        0.07610    0.31560    0.01480    1.000
    C189     C        0.47370    0.33580    0.50000    1.000
    H126     H        0.45630    0.33140    0.46010    1.000
    C190     C        0.20200    0.08430    0.49510    1.000
    H127     H        0.17960    0.08860    0.45520    1.000
    C191     C        0.99650    0.38330    0.00370    1.000
    H128     H        0.97660    0.38170    0.96350    1.000
    C192     C        0.25650    0.23750    0.34862    1.000
    C193     C        0.29030    0.22700    0.41234    1.000
    C194     C        0.96680    0.42610    0.03311    1.000
    C195     C        0.29460    0.17240    0.49479    1.000
    C196     C        0.53300    0.37560    0.53040    1.000
    H129     H        0.55530    0.39740    0.50990    1.000
    C197     C        0.81750    0.55190    0.99302    1.000
    C198     C        0.82120    0.45530    0.81900    1.000
    H130     H        0.86510    0.43710    0.83900    1.000
    C199     C        0.78420    0.60140    0.02200    1.000
    C200     C        0.81980    0.50190    0.91162    1.000
    C201     C        0.17400    0.04060    0.52590    1.000
    H131     H        0.13200    0.01710    0.50560    1.000
    C202     C        0.69250    0.50510    0.75720    1.000
    H132     H        0.64840    0.52190    0.73640    1.000
    C203     C        0.26400    0.12130    0.52520    1.000
    C204     C        0.29600    0.11010    0.58470    1.000
    H133     H        0.33800    0.13300    0.60620    1.000
    C205     C        0.52660    0.35490    0.61590    1.000
    H134     H        0.54380    0.36280    0.65560    1.000
    C206     C        0.78770    0.49190    0.84820    1.000
    C207     C        0.69200    0.67940    0.02060    1.000
    H135     H        0.65050    0.70370    0.99970    1.000
    C208     C        0.78800    0.44650    0.75930    1.000
    H136     H        0.81090    0.42280    0.74000    1.000
    C209     C        0.19780    0.19750    0.31500    1.000
    H137     H        0.17630    0.16490    0.33160    1.000
    C210     C        0.99750    0.42680    0.09290    1.000
    H138     H        0.97900    0.45570    0.11390    1.000
    C211     C        0.05650    0.38330    0.12070    1.000
    H139     H        0.07650    0.38270    0.16080    1.000
    C212     C        0.25430    0.29540    0.26250    1.000
    H140     H        0.27310    0.33030    0.24480    1.000
    C213     C        0.28470    0.28940    0.32210    1.000
    H141     H        0.32310    0.31940    0.34390    1.000
    C214     C        0.17160    0.20710    0.25560    1.000
    H142     H        0.13230    0.17940    0.23310    1.000
    C215     C        0.81400    0.60930    0.08160    1.000
    H143     H        0.85580    0.58630    0.10360    1.000
    C216     C        0.72160    0.51680    0.81650    1.000
    H144     H        0.69760    0.54080    0.83470    1.000
    N61      N        0.56082    0.38490    0.58783    1.000
    N62      N        0.20438    0.03040    0.58332    1.000
    N63      N        0.19920    0.25350    0.22876    1.000
    N64      N        0.35191    0.21080    0.52741    1.000
    N65      N        0.26173    0.17760    0.43709    1.000
    N66      N        0.34699    0.26800    0.44062    1.000
    N67      N        0.08657    0.34160    0.09275    1.000
    N68      N        0.71980    0.68680    0.07855    1.000
    N69      N        0.72400    0.47090    0.72818    1.000
    N70      N        0.87369    0.51150    0.02701    1.000
    N71      N        0.78879    0.54960    0.93542    1.000
    N72      N        0.87721    0.46260    0.94106    1.000
    Ag13     Ag       0.34412    0.45775    0.86793    1.000
    Ag14     Ag       0.32288    0.75208    0.36728    1.000
    C217     C        0.12410    0.75700    0.00248    1.000
    C218     C        0.23510    0.56470    0.88860    1.000
    H145     H        0.21280    0.55750    0.84880    1.000
    C219     C        0.03310    0.81270    0.91100    1.000
    H146     H        0.05480    0.79200    0.88980    1.000
    C220     C        0.71980    0.15210    0.39210    1.000
    H147     H        0.69960    0.15700    0.35210    1.000
    C221     C        0.06000    0.80200    0.97024    1.000
    C222     C        0.59780    0.96980    0.50107    1.000
    C223     C        0.77840    0.13790    0.50960    1.000
    H148     H        0.79950    0.13430    0.54960    1.000
    C224     C        0.44400    0.84320    0.46510    1.000
    H149     H        0.42390    0.81560    0.48520    1.000
    C225     C        0.02630    0.83580    0.00000    1.000
    H150     H        0.04370    0.83140    0.03990    1.000
    C226     C        0.29800    0.58430    0.00490    1.000
    H151     H        0.32040    0.58860    0.04480    1.000
    C227     C        0.50350    0.88330    0.49630    1.000
    H152     H        0.52340    0.88170    0.53650    1.000
    C228     C        0.24350    0.73750    0.15138    1.000
    C229     C        0.20970    0.72700    0.08766    1.000
    C230     C        0.53320    0.92610    0.46689    1.000
    C231     C        0.20540    0.67240    0.00521    1.000
    C232     C        0.96700    0.87560    0.96960    1.000
    H153     H        0.94470    0.89740    0.99010    1.000
    C233     C        0.68250    0.05190    0.50698    1.000
    C234     C        0.67880    0.95530    0.68100    1.000
    H154     H        0.63490    0.93710    0.66100    1.000
    C235     C        0.71580    0.10140    0.47800    1.000
    C236     C        0.68020    0.00190    0.58838    1.000
    C237     C        0.32600    0.54060    0.97410    1.000
    H155     H        0.36800    0.51710    0.99440    1.000
    C238     C        0.80750    0.00510    0.74280    1.000
    H156     H        0.85160    0.02190    0.76360    1.000
    C239     C        0.23600    0.62130    0.97480    1.000
    C240     C        0.20400    0.61010    0.91530    1.000
    H157     H        0.16200    0.63300    0.89380    1.000
    C241     C        0.97340    0.85490    0.88410    1.000
    H158     H        0.95620    0.86280    0.84440    1.000
    C242     C        0.71230    0.99190    0.65180    1.000
    C243     C        0.80800    0.17940    0.47940    1.000
    H159     H        0.84950    0.20370    0.50030    1.000
    C244     C        0.71200    0.94650    0.74070    1.000
    H160     H        0.68910    0.92280    0.76000    1.000
    C245     C        0.30220    0.69750    0.18500    1.000
    H161     H        0.32370    0.66490    0.16840    1.000
    C246     C        0.50250    0.92680    0.40710    1.000
    H162     H        0.52100    0.95570    0.38610    1.000
    C247     C        0.44350    0.88330    0.37930    1.000
    H163     H        0.42350    0.88270    0.33920    1.000
    C248     C        0.24570    0.79540    0.23750    1.000
    H164     H        0.22690    0.83030    0.25520    1.000
    C249     C        0.21530    0.78940    0.17790    1.000
    H165     H        0.17690    0.81940    0.15610    1.000
    C250     C        0.32840    0.70710    0.24440    1.000
    H166     H        0.36770    0.67940    0.26690    1.000
    C251     C        0.68600    0.10930    0.41840    1.000
    H167     H        0.64420    0.08630    0.39640    1.000
    C252     C        0.77840    0.01680    0.68350    1.000
    H168     H        0.80240    0.04080    0.66530    1.000
    N73      N        0.93918    0.88490    0.91217    1.000
    N74      N        0.29562    0.53040    0.91668    1.000
    N75      N        0.30080    0.75350    0.27124    1.000
    N76      N        0.14809    0.71080    0.97259    1.000
    N77      N        0.23827    0.67760    0.06291    1.000
    N78      N        0.15301    0.76800    0.05938    1.000
    N79      N        0.41343    0.84160    0.40725    1.000
    N80      N        0.78020    0.18680    0.42145    1.000
    N81      N        0.77600    0.97090    0.77182    1.000
    N82      N        0.62631    0.01150    0.47299    1.000
    N83      N        0.71121    0.04960    0.56458    1.000
    N84      N        0.62279    0.96260    0.55894    1.000
    Ag15     Ag       0.84412    0.95775    0.86793    1.000
    Ag16     Ag       0.82288    0.25208    0.36728    1.000
    C253     C        0.62410    0.25700    0.00248    1.000
    C254     C        0.73510    0.06470    0.88860    1.000
    H169     H        0.71280    0.05750    0.84880    1.000
    C255     C        0.53310    0.31270    0.91100    1.000
    H170     H        0.55480    0.29200    0.88980    1.000
    C256     C        0.21980    0.65210    0.39210    1.000
    H171     H        0.19960    0.65700    0.35210    1.000
    C257     C        0.56000    0.30200    0.97024    1.000
    C258     C        0.09780    0.46980    0.50107    1.000
    C259     C        0.27840    0.63790    0.50960    1.000
    H172     H        0.29950    0.63430    0.54960    1.000
    C260     C        0.94400    0.34320    0.46510    1.000
    H173     H        0.92390    0.31560    0.48520    1.000
    C261     C        0.52630    0.33580    0.00000    1.000
    H174     H        0.54370    0.33140    0.03990    1.000
    C262     C        0.79800    0.08430    0.00490    1.000
    H175     H        0.82040    0.08860    0.04480    1.000
    C263     C        0.00350    0.38330    0.49630    1.000
    H176     H        0.02340    0.38170    0.53650    1.000
    C264     C        0.74350    0.23750    0.15138    1.000
    C265     C        0.70970    0.22700    0.08766    1.000
    C266     C        0.03320    0.42610    0.46689    1.000
    C267     C        0.70540    0.17240    0.00521    1.000
    C268     C        0.46700    0.37560    0.96960    1.000
    H177     H        0.44470    0.39740    0.99010    1.000
    C269     C        0.18250    0.55190    0.50698    1.000
    C270     C        0.17880    0.45530    0.68100    1.000
    H178     H        0.13490    0.43710    0.66100    1.000
    C271     C        0.21580    0.60140    0.47800    1.000
    C272     C        0.18020    0.50190    0.58838    1.000
    C273     C        0.82600    0.04060    0.97410    1.000
    H179     H        0.86800    0.01710    0.99440    1.000
    C274     C        0.30750    0.50510    0.74280    1.000
    H180     H        0.35160    0.52190    0.76360    1.000
    C275     C        0.73600    0.12130    0.97480    1.000
    C276     C        0.70400    0.11010    0.91530    1.000
    H181     H        0.66200    0.13300    0.89380    1.000
    C277     C        0.47340    0.35490    0.88410    1.000
    H182     H        0.45620    0.36280    0.84440    1.000
    C278     C        0.21230    0.49190    0.65180    1.000
    C279     C        0.30800    0.67940    0.47940    1.000
    H183     H        0.34950    0.70370    0.50030    1.000
    C280     C        0.21200    0.44650    0.74070    1.000
    H184     H        0.18910    0.42280    0.76000    1.000
    C281     C        0.80220    0.19750    0.18500    1.000
    H185     H        0.82370    0.16490    0.16840    1.000
    C282     C        0.00250    0.42680    0.40710    1.000
    H186     H        0.02100    0.45570    0.38610    1.000
    C283     C        0.94350    0.38330    0.37930    1.000
    H187     H        0.92350    0.38270    0.33920    1.000
    C284     C        0.74570    0.29540    0.23750    1.000
    H188     H        0.72690    0.33030    0.25520    1.000
    C285     C        0.71530    0.28940    0.17790    1.000
    H189     H        0.67690    0.31940    0.15610    1.000
    C286     C        0.82840    0.20710    0.24440    1.000
    H190     H        0.86770    0.17940    0.26690    1.000
    C287     C        0.18600    0.60930    0.41840    1.000
    H191     H        0.14420    0.58630    0.39640    1.000
    C288     C        0.27840    0.51680    0.68350    1.000
    H192     H        0.30240    0.54080    0.66530    1.000
    N85      N        0.43918    0.38490    0.91217    1.000
    N86      N        0.79562    0.03040    0.91668    1.000
    N87      N        0.80080    0.25350    0.27124    1.000
    N88      N        0.64809    0.21080    0.97259    1.000
    N89      N        0.73827    0.17760    0.06291    1.000
    N90      N        0.65301    0.26800    0.05938    1.000
    N91      N        0.91343    0.34160    0.40725    1.000
    N92      N        0.28020    0.68680    0.42145    1.000
    N93      N        0.27600    0.47090    0.77182    1.000
    N94      N        0.12631    0.51150    0.47299    1.000
    N95      N        0.21121    0.54960    0.56458    1.000
    N96      N        0.12279    0.46260    0.55894    1.000
