# CIF file generated by openbabel 3.1.0, see https://openbabel.org
data_I
_chemical_name_common 'image0'
_cell_length_a 19.576
_cell_length_b 18.535
_cell_length_c 7.8377
_cell_angle_alpha 90
_cell_angle_beta 94.15
_cell_angle_gamma 90
_space_group_name_H-M_alt 'P 1'
_space_group_name_Hall 'P 1'
loop_
    _symmetry_equiv_pos_as_xyz
    x,y,z
loop_
    _atom_site_label
    _atom_site_type_symbol
    _atom_site_fract_x
    _atom_site_fract_y
    _atom_site_fract_z
    _atom_site_occupancy
    Zn1      Zn       0.35840    0.14483    0.35670    1.000
    Zn2      Zn       0.08590    0.97672    0.36570    1.000
    C1       C        0.98480    0.32170    0.97100    1.000
    C2       C        0.04710    0.27880    0.02900    1.000
    C3       C        0.04550    0.21200    0.07600    1.000
    H1       H        0.00340    0.18880    0.06080    1.000
    C4       C        0.10200    0.16920    0.14900    1.000
    C5       C        0.09060    0.09500    0.21700    1.000
    C6       C        0.16060    0.20560    0.15700    1.000
    C7       C        0.22770    0.16310    0.21900    1.000
    C8       C        0.16810    0.28020    0.11600    1.000
    H2       H        0.21050    0.30280    0.13360    1.000
    C9       C        0.11250    0.31740    0.05300    1.000
    C10      C        0.12260    0.39660    0.00300    1.000
    O1       O        0.93440    0.28210    0.92450    1.000
    O2       O        0.98200    0.39050    0.97980    1.000
    O3       O        0.11760    0.41170    0.84650    1.000
    O4       O        0.13190    0.43900    0.11070    1.000
    O5       O        0.07760    0.04410    0.10630    1.000
    O6       O        0.08950    0.08870    0.36300    1.000
    O7       O        0.22710    0.10430    0.20350    1.000
    O8       O        0.28110    0.20490    0.28160    1.000
    Zn3      Zn       0.85840    0.64483    0.35670    1.000
    Zn4      Zn       0.58590    0.47672    0.36570    1.000
    C11      C        0.48480    0.82170    0.97100    1.000
    C12      C        0.54710    0.77880    0.02900    1.000
    C13      C        0.54550    0.71200    0.07600    1.000
    H3       H        0.50340    0.68880    0.06080    1.000
    C14      C        0.60200    0.66920    0.14900    1.000
    C15      C        0.59060    0.59500    0.21700    1.000
    C16      C        0.66060    0.70560    0.15700    1.000
    C17      C        0.72770    0.66310    0.21900    1.000
    C18      C        0.66810    0.78020    0.11600    1.000
    H4       H        0.71050    0.80280    0.13360    1.000
    C19      C        0.61250    0.81740    0.05300    1.000
    C20      C        0.62260    0.89660    0.00300    1.000
    O9       O        0.43440    0.78210    0.92450    1.000
    O10      O        0.48200    0.89050    0.97980    1.000
    O11      O        0.61760    0.91170    0.84650    1.000
    O12      O        0.63190    0.93900    0.11070    1.000
    O13      O        0.57760    0.54410    0.10630    1.000
    O14      O        0.58950    0.58870    0.36300    1.000
    O15      O        0.72710    0.60430    0.20350    1.000
    O16      O        0.78110    0.70490    0.28160    1.000
    Zn5      Zn       0.64160    0.14483    0.14330    1.000
    Zn6      Zn       0.91410    0.97672    0.13430    1.000
    C21      C        0.01520    0.32170    0.52900    1.000
    C22      C        0.95290    0.27880    0.47100    1.000
    C23      C        0.95450    0.21200    0.42400    1.000
    H5       H        0.99660    0.18880    0.43920    1.000
    C24      C        0.89800    0.16920    0.35100    1.000
    C25      C        0.90940    0.09500    0.28300    1.000
    C26      C        0.83940    0.20560    0.34300    1.000
    C27      C        0.77230    0.16310    0.28100    1.000
    C28      C        0.83190    0.28020    0.38400    1.000
    H6       H        0.78950    0.30280    0.36640    1.000
    C29      C        0.88750    0.31740    0.44700    1.000
    C30      C        0.87740    0.39660    0.49700    1.000
    O17      O        0.06560    0.28210    0.57550    1.000
    O18      O        0.01800    0.39050    0.52020    1.000
    O19      O        0.88240    0.41170    0.65350    1.000
    O20      O        0.86810    0.43900    0.38930    1.000
    O21      O        0.92240    0.04410    0.39370    1.000
    O22      O        0.91050    0.08870    0.13700    1.000
    O23      O        0.77290    0.10430    0.29650    1.000
    O24      O        0.71890    0.20490    0.21840    1.000
    Zn7      Zn       0.14160    0.64483    0.14330    1.000
    Zn8      Zn       0.41410    0.47672    0.13430    1.000
    C31      C        0.51520    0.82170    0.52900    1.000
    C32      C        0.45290    0.77880    0.47100    1.000
    C33      C        0.45450    0.71200    0.42400    1.000
    H7       H        0.49660    0.68880    0.43920    1.000
    C34      C        0.39800    0.66920    0.35100    1.000
    C35      C        0.40940    0.59500    0.28300    1.000
    C36      C        0.33940    0.70560    0.34300    1.000
    C37      C        0.27230    0.66310    0.28100    1.000
    C38      C        0.33190    0.78020    0.38400    1.000
    H8       H        0.28950    0.80280    0.36640    1.000
    C39      C        0.38750    0.81740    0.44700    1.000
    C40      C        0.37740    0.89660    0.49700    1.000
    O25      O        0.56560    0.78210    0.57550    1.000
    O26      O        0.51800    0.89050    0.52020    1.000
    O27      O        0.38240    0.91170    0.65350    1.000
    O28      O        0.36810    0.93900    0.38930    1.000
    O29      O        0.42240    0.54410    0.39370    1.000
    O30      O        0.41050    0.58870    0.13700    1.000
    O31      O        0.27290    0.60430    0.29650    1.000
    O32      O        0.21890    0.70490    0.21840    1.000
    Zn9      Zn       0.64160    0.85517    0.64330    1.000
    Zn10     Zn       0.91410    0.02328    0.63430    1.000
    C41      C        0.01520    0.67830    0.02900    1.000
    C42      C        0.95290    0.72120    0.97100    1.000
    C43      C        0.95450    0.78800    0.92400    1.000
    H9       H        0.99660    0.81120    0.93920    1.000
    C44      C        0.89800    0.83080    0.85100    1.000
    C45      C        0.90940    0.90500    0.78300    1.000
    C46      C        0.83940    0.79440    0.84300    1.000
    C47      C        0.77230    0.83690    0.78100    1.000
    C48      C        0.83190    0.71980    0.88400    1.000
    H10      H        0.78950    0.69720    0.86640    1.000
    C49      C        0.88750    0.68260    0.94700    1.000
    C50      C        0.87740    0.60340    0.99700    1.000
    O33      O        0.06560    0.71790    0.07550    1.000
    O34      O        0.01800    0.60950    0.02020    1.000
    O35      O        0.88240    0.58830    0.15350    1.000
    O36      O        0.86810    0.56100    0.88930    1.000
    O37      O        0.92240    0.95590    0.89370    1.000
    O38      O        0.91050    0.91130    0.63700    1.000
    O39      O        0.77290    0.89570    0.79650    1.000
    O40      O        0.71890    0.79510    0.71840    1.000
    Zn11     Zn       0.14160    0.35517    0.64330    1.000
    Zn12     Zn       0.41410    0.52328    0.63430    1.000
    C51      C        0.51520    0.17830    0.02900    1.000
    C52      C        0.45290    0.22120    0.97100    1.000
    C53      C        0.45450    0.28800    0.92400    1.000
    H11      H        0.49660    0.31120    0.93920    1.000
    C54      C        0.39800    0.33080    0.85100    1.000
    C55      C        0.40940    0.40500    0.78300    1.000
    C56      C        0.33940    0.29440    0.84300    1.000
    C57      C        0.27230    0.33690    0.78100    1.000
    C58      C        0.33190    0.21980    0.88400    1.000
    H12      H        0.28950    0.19720    0.86640    1.000
    C59      C        0.38750    0.18260    0.94700    1.000
    C60      C        0.37740    0.10340    0.99700    1.000
    O41      O        0.56560    0.21790    0.07550    1.000
    O42      O        0.51800    0.10950    0.02020    1.000
    O43      O        0.38240    0.08830    0.15350    1.000
    O44      O        0.36810    0.06100    0.88930    1.000
    O45      O        0.42240    0.45590    0.89370    1.000
    O46      O        0.41050    0.41130    0.63700    1.000
    O47      O        0.27290    0.39570    0.79650    1.000
    O48      O        0.21890    0.29510    0.71840    1.000
    Zn13     Zn       0.35840    0.85517    0.85670    1.000
    Zn14     Zn       0.08590    0.02328    0.86570    1.000
    C61      C        0.98480    0.67830    0.47100    1.000
    C62      C        0.04710    0.72120    0.52900    1.000
    C63      C        0.04550    0.78800    0.57600    1.000
    H13      H        0.00340    0.81120    0.56080    1.000
    C64      C        0.10200    0.83080    0.64900    1.000
    C65      C        0.09060    0.90500    0.71700    1.000
    C66      C        0.16060    0.79440    0.65700    1.000
    C67      C        0.22770    0.83690    0.71900    1.000
    C68      C        0.16810    0.71980    0.61600    1.000
    H14      H        0.21050    0.69720    0.63360    1.000
    C69      C        0.11250    0.68260    0.55300    1.000
    C70      C        0.12260    0.60340    0.50300    1.000
    O49      O        0.93440    0.71790    0.42450    1.000
    O50      O        0.98200    0.60950    0.47980    1.000
    O51      O        0.11760    0.58830    0.34650    1.000
    O52      O        0.13190    0.56100    0.61070    1.000
    O53      O        0.07760    0.95590    0.60630    1.000
    O54      O        0.08950    0.91130    0.86300    1.000
    O55      O        0.22710    0.89570    0.70350    1.000
    O56      O        0.28110    0.79510    0.78160    1.000
    Zn15     Zn       0.85840    0.35517    0.85670    1.000
    Zn16     Zn       0.58590    0.52328    0.86570    1.000
    C71      C        0.48480    0.17830    0.47100    1.000
    C72      C        0.54710    0.22120    0.52900    1.000
    C73      C        0.54550    0.28800    0.57600    1.000
    H15      H        0.50340    0.31120    0.56080    1.000
    C74      C        0.60200    0.33080    0.64900    1.000
    C75      C        0.59060    0.40500    0.71700    1.000
    C76      C        0.66060    0.29440    0.65700    1.000
    C77      C        0.72770    0.33690    0.71900    1.000
    C78      C        0.66810    0.21980    0.61600    1.000
    H16      H        0.71050    0.19720    0.63360    1.000
    C79      C        0.61250    0.18260    0.55300    1.000
    C80      C        0.62260    0.10340    0.50300    1.000
    O57      O        0.43440    0.21790    0.42450    1.000
    O58      O        0.48200    0.10950    0.47980    1.000
    O59      O        0.61760    0.08830    0.34650    1.000
    O60      O        0.63190    0.06100    0.61070    1.000
    O61      O        0.57760    0.45590    0.60630    1.000
    O62      O        0.58950    0.41130    0.86300    1.000
    O63      O        0.72710    0.39570    0.70350    1.000
    O64      O        0.78110    0.29510    0.78160    1.000
