data_functionalizedCrystal
_audit_creation_method	'EQeq! by Chris Wilmer'
_symmetry_space_group_name_H-M	'P1'
_symmetry_Int_Tables_number	1
_symmetry_cell_setting	triclinic
loop_
_symmetry_equiv_pos_as_xyz
  x,y,z
_cell_length_a	6.568
_cell_length_b	16.4018
_cell_length_c	13.183
_cell_angle_alpha	90
_cell_angle_beta	90
_cell_angle_gamma	90
loop_
_atom_site_label
_atom_site_type_symbol
_atom_site_fract_x
_atom_site_fract_y
_atom_site_fract_z
_atom_site_charge
Mof_O 	O 	0.1699	0.16825	0.8413	-1.649
Mof_C 	C 	0.8041	0.0291	0.9567	0.015
Mof_O 	O 	0.6699	0.66825	0.3413	-1.637
Mof_C 	C 	0.3041	0.5291	0.4567	0.061
Mof_O 	O 	0.8301	0.33175	0.8413	-1.667
Mof_C 	C 	0.1959	0.4709	0.9567	0.048
Mof_O 	O 	0.3301	0.83175	0.3413	-1.637
Mof_C 	C 	0.6959	0.9709	0.4567	0.039
Mof_O 	O 	0.8301	0.66825	0.1587	-1.667
Mof_C 	C 	0.1959	0.5291	0.0433	0.048
Mof_O 	O 	0.3301	0.16825	0.6587	-1.637
Mof_C 	C 	0.6959	0.0291	0.5433	0.039
Mof_O 	O 	0.1699	0.83175	0.1587	-1.648
Mof_C 	C 	0.8041	0.9709	0.0433	0.016
Mof_O 	O 	0.6699	0.33175	0.6587	-1.637
Mof_C 	C 	0.3041	0.4709	0.5433	0.061
Mof_O 	O 	0.8301	0.83175	0.1587	-1.667
Mof_C 	C 	0.1959	0.9709	0.0433	0.048
Mof_O 	O 	0.3301	0.33175	0.6587	-1.637
Mof_C 	C 	0.6959	0.4709	0.5433	0.039
Mof_O 	O 	0.1699	0.66825	0.1587	-1.648
Mof_C 	C 	0.8041	0.5291	0.0433	0.016
Mof_O 	O 	0.6699	0.16825	0.6587	-1.637
Mof_C 	C 	0.3041	0.0291	0.5433	0.061
Mof_O 	O 	0.1699	0.33175	0.8413	-1.648
Mof_C 	C 	0.8041	0.4709	0.9567	0.016
Mof_O 	O 	0.6699	0.83175	0.3413	-1.637
Mof_C 	C 	0.3041	0.9709	0.4567	0.061
Mof_O 	O 	0.8301	0.16825	0.8413	-1.667
Mof_C 	C 	0.1959	0.0291	0.9567	0.048
Mof_O 	O 	0.3301	0.66825	0.3413	-1.637
Mof_C 	C 	0.6959	0.5291	0.4567	0.039
Mof_Al	Al	0.25	0.25	0.75	6.958
Mof_Al	Al	0.75	0.25	0.75	6.865
Mof_Al	Al	0.75	0.75	0.25	6.865
Mof_Al	Al	0.25	0.75	0.25	6.958
Mof_F 	F 	-3.03229e-32	0.25	0.6946	-2.347
Mof_F 	F 	0.5	0.75	0.1946	-2.368
Mof_F 	F 	-1.54768e-32	0.75	0.3054	-2.347
Mof_F 	F 	0.5	0.25	0.8054	-2.368
Mof_C 	C 	-2.84279e-32	0.0629	0.9464	-0.226
Mof_C 	C 	-2.90315e-32	0.1372	0.8662	1.203
Mof_C 	C 	0.5	0.5629	0.4464	-0.263
Mof_C 	C 	0.5	0.6372	0.3662	1.157
Mof_C 	C 	-4.6203e-32	0.4371	0.9464	-0.225
Mof_C 	C 	-6.45816e-32	0.3628	0.8662	1.203
Mof_C 	C 	0.5	0.9371	0.4464	-0.263
Mof_C 	C 	0.5	0.8628	0.3662	1.157
Mof_C 	C 	1.51432e-33	0.5629	0.0536	-0.225
Mof_C 	C 	-1.899e-32	0.6372	0.1338	1.203
Mof_C 	C 	0.5	0.0629	0.5536	-0.263
Mof_C 	C 	0.5	0.1372	0.6338	1.157
Mof_C 	C 	-1.62608e-32	0.9371	0.0536	-0.226
Mof_C 	C 	-1.21496e-33	0.8628	0.1338	1.203
Mof_C 	C 	0.5	0.4371	0.5536	-0.263
Mof_C 	C 	0.5	0.3628	0.6338	1.157
_end
