# CIF file generated by openbabel 3.1.0, see https://openbabel.org
data_I
_chemical_name_common 'XEKDUO_clean'
_cell_length_a 4.3536
_cell_length_b 12.9002
_cell_length_c 12.9002
_cell_angle_alpha 61.2481
_cell_angle_beta 83.5409
_cell_angle_gamma 96.4591
_space_group_name_H-M_alt 'P 1'
_space_group_name_Hall 'P 1'
loop_
    _symmetry_equiv_pos_as_xyz
    x,y,z
loop_
    _atom_site_label
    _atom_site_type_symbol
    _atom_site_fract_x
    _atom_site_fract_y
    _atom_site_fract_z
    _atom_site_occupancy
    Co1      Co       0.69991    0.16257    0.83834    1.000
    Co2      Co       0.53825    0.83834    0.99909    1.000
    Co3      Co       0.53734    0.99909    0.16257    1.000
    P1       P        0.06203    0.00000    0.00000    1.000
    H1       H        0.98520    0.44760    0.69620    1.000
    H2       H        0.93790    0.61120    0.52500    1.000
    H3       H        0.44300    0.23760    0.62210    1.000
    H4       H        0.38870    0.39730    0.44040    1.000
    H5       H        0.68140    0.69620    0.85620    1.000
    H6       H        0.46290    0.52500    0.86380    1.000
    H7       H        0.06510    0.62210    0.14030    1.000
    H8       H        0.82910    0.44040    0.16230    1.000
    H9       H        0.53760    0.85620    0.44760    1.000
    H10      H        0.32670    0.86380    0.61120    1.000
    H11      H        0.20540    0.14030    0.23760    1.000
    H12      H        0.99140    0.16230    0.39730    1.000
    C1       C        0.64360    0.52920    0.46910    1.000
    C2       C        0.59770    0.63650    0.36340    1.000
    C3       C        0.85750    0.43780    0.64530    1.000
    C4       C        0.82540    0.53460    0.54440    1.000
    C5       C        0.54450    0.31590    0.60140    1.000
    C6       C        0.50160    0.40960    0.49380    1.000
    C7       C        0.11270    0.46910    0.00170    1.000
    C8       C        0.96110    0.36340    0.00010    1.000
    C9       C        0.50280    0.64530    0.91690    1.000
    C10      C        0.36980    0.54440    0.92100    1.000
    C11      C        0.14590    0.60140    0.08270    1.000
    C12      C        0.99540    0.49380    0.09660    1.000
    C13      C        0.11440    0.00170    0.52920    1.000
    C14      C        0.96120    0.00010    0.63650    1.000
    C15      C        0.41970    0.91690    0.43780    1.000
    C16      C        0.29080    0.92100    0.53460    1.000
    C17      C        0.22860    0.08270    0.31590    1.000
    C18      C        0.09200    0.09660    0.40960    1.000
    N1       N        0.70650    0.32280    0.67670    1.000
    N2       N        0.52140    0.75180    0.18680    1.000
    N3       N        0.53630    0.81300    0.24590    1.000
    N4       N        0.55920    0.63920    0.25840    1.000
    N5       N        0.57600    0.74080    0.35700    1.000
    N6       N        0.38320    0.67670    0.00050    1.000
    N7       N        0.70820    0.18680    0.06140    1.000
    N8       N        0.78220    0.24590    0.94110    1.000
    N9       N        0.81760    0.25840    0.10240    1.000
    N10      N        0.93300    0.35700    0.90220    1.000
    N11      N        0.38370    0.00050    0.32280    1.000
    N12      N        0.76960    0.06140    0.75180    1.000
    N13      N        0.72330    0.94110    0.81300    1.000
    N14      N        0.92000    0.10240    0.63920    1.000
    N15      N        0.83520    0.90220    0.74080    1.000
    O1       O        0.22610    0.11470    0.88530    1.000
    O2       O        0.11140    0.88530    0.00000    1.000
    O3       O        0.11140    0.00000    0.11470    1.000
    O4       O        0.69973    0.00000    0.00000    1.000
