# CIF file generated by openbabel 3.1.0, see https://openbabel.org
data_I
_chemical_name_common 'image0'
_cell_length_a 13.0842
_cell_length_b 13.0842
_cell_length_c 19.878
_cell_angle_alpha 90
_cell_angle_beta 90
_cell_angle_gamma 120
_space_group_name_H-M_alt 'P 1'
_space_group_name_Hall 'P 1'
loop_
    _symmetry_equiv_pos_as_xyz
    x,y,z
loop_
    _atom_site_label
    _atom_site_type_symbol
    _atom_site_fract_x
    _atom_site_fract_y
    _atom_site_fract_z
    _atom_site_occupancy
    N1       N        0.28890    0.02910    0.59370    1.000
    C1       C        0.17880    0.95730    0.58480    1.000
    C2       C        0.11920    0.96070    0.52730    1.000
    C3       C        0.18650    0.05020    0.47630    1.000
    C4       C        0.30530    0.12550    0.49010    1.000
    C5       C        0.35360    0.11620    0.55060    1.000
    N2       N        0.38350    0.21960    0.44770    1.000
    C6       C        0.35850    0.27320    0.39770    1.000
    O1       O        0.25710    0.23810    0.37730    1.000
    C7       C        0.46740    0.37700    0.36630    1.000
    C8       C        0.50220    0.47700    0.41170    1.000
    C9       C        0.61420    0.58040    0.39920    1.000
    C10      C        0.72200    0.58300    0.39240    1.000
    C11      C        0.83800    0.69600    0.38670    1.000
    C12      C        0.84300    0.79900    0.38580    1.000
    C13      C        0.73500    0.79500    0.39750    1.000
    C14      C        0.62600    0.69000    0.40050    1.000
    N3       N        0.43530    0.40350    0.29960    1.000
    C15      C        0.49620    0.40700    0.24390    1.000
    O2       O        0.57660    0.38810    0.24340    1.000
    C16      C        0.44750    0.42900    0.17940    1.000
    C17      C        0.33110    0.39430    0.17120    1.000
    C18      C        0.29750    0.42600    0.10970    1.000
    C19      C        0.38500    0.48850    0.06290    1.000
    N4       N        0.50010    0.52030    0.07100    1.000
    C20      C        0.52930    0.49070    0.12770    1.000
    N5       N        0.97090    0.25980    0.26037    1.000
    C21      C        0.04270    0.22150    0.25147    1.000
    C22      C        0.03930    0.15850    0.19397    1.000
    C23      C        0.94980    0.13630    0.14297    1.000
    C24      C        0.87450    0.17980    0.15677    1.000
    C25      C        0.88380    0.23740    0.21727    1.000
    N6       N        0.78040    0.16390    0.11437    1.000
    C26      C        0.72680    0.08530    0.06437    1.000
    O3       O        0.76190    0.01900    0.04397    1.000
    C27      C        0.62300    0.09040    0.03297    1.000
    C28      C        0.52300    0.02520    0.07837    1.000
    C29      C        0.41960    0.03380    0.06587    1.000
    C30      C        0.41700    0.13900    0.05907    1.000
    C31      C        0.30400    0.14200    0.05337    1.000
    C32      C        0.20100    0.04400    0.05247    1.000
    C33      C        0.20500    0.94000    0.06417    1.000
    C34      C        0.31000    0.93600    0.06717    1.000
    N7       N        0.59650    0.03180    0.96627    1.000
    C35      C        0.59300    0.08920    0.91057    1.000
    O4       O        0.61190    0.18850    0.91007    1.000
    C36      C        0.57100    0.01850    0.84607    1.000
    C37      C        0.60570    0.93680    0.83787    1.000
    C38      C        0.57400    0.87150    0.77637    1.000
    C39      C        0.51150    0.89650    0.72957    1.000
    N8       N        0.47970    0.97980    0.73767    1.000
    C40      C        0.50930    0.03860    0.79437    1.000
    N9       N        0.74020    0.71110    0.92703    1.000
    C41      C        0.77850    0.82120    0.91813    1.000
    C42      C        0.84150    0.88080    0.86063    1.000
    C43      C        0.86370    0.81350    0.80963    1.000
    C44      C        0.82020    0.69470    0.82343    1.000
    C45      C        0.76260    0.64640    0.88393    1.000
    N10      N        0.83610    0.61650    0.78103    1.000
    C46      C        0.91470    0.64150    0.73103    1.000
    O5       O        0.98100    0.74290    0.71063    1.000
    C47      C        0.90960    0.53260    0.69963    1.000
    C48      C        0.97480    0.49780    0.74503    1.000
    C49      C        0.96620    0.38580    0.73253    1.000
    C50      C        0.86100    0.27800    0.72573    1.000
    C51      C        0.85800    0.16200    0.72003    1.000
    C52      C        0.95600    0.15700    0.71913    1.000
    C53      C        0.06000    0.26500    0.73083    1.000
    C54      C        0.06400    0.37400    0.73383    1.000
    N11      N        0.96820    0.56470    0.63293    1.000
    C55      C        0.91080    0.50380    0.57723    1.000
    O6       O        0.81150    0.42340    0.57673    1.000
    C56      C        0.98150    0.55250    0.51273    1.000
    C57      C        0.06320    0.66890    0.50453    1.000
    C58      C        0.12850    0.70250    0.44303    1.000
    C59      C        0.10350    0.61500    0.39623    1.000
    N12      N        0.02020    0.49990    0.40433    1.000
    C60      C        0.96140    0.47070    0.46103    1.000
    N13      N        0.02910    0.28890    0.40630    1.000
    C61      C        0.95730    0.17880    0.41520    1.000
    C62      C        0.96070    0.11920    0.47270    1.000
    C63      C        0.05020    0.18650    0.52370    1.000
    C64      C        0.12550    0.30530    0.50990    1.000
    C65      C        0.11620    0.35360    0.44940    1.000
    N14      N        0.21960    0.38350    0.55230    1.000
    C66      C        0.27320    0.35850    0.60230    1.000
    O7       O        0.23810    0.25710    0.62270    1.000
    C67      C        0.37700    0.46740    0.63370    1.000
    C68      C        0.47700    0.50220    0.58830    1.000
    C69      C        0.58040    0.61420    0.60080    1.000
    C70      C        0.58300    0.72200    0.60760    1.000
    C71      C        0.69600    0.83800    0.61330    1.000
    C72      C        0.79900    0.84300    0.61420    1.000
    C73      C        0.79500    0.73500    0.60250    1.000
    C74      C        0.69000    0.62600    0.59950    1.000
    N15      N        0.40350    0.43530    0.70040    1.000
    C75      C        0.40700    0.49620    0.75610    1.000
    O8       O        0.38810    0.57660    0.75660    1.000
    C76      C        0.42900    0.44750    0.82060    1.000
    C77      C        0.39430    0.33110    0.82880    1.000
    C78      C        0.42600    0.29750    0.89030    1.000
    C79      C        0.48850    0.38500    0.93710    1.000
    N16      N        0.52030    0.50010    0.92900    1.000
    C80      C        0.49070    0.52930    0.87230    1.000
    N17      N        0.25980    0.97090    0.73963    1.000
    C81      C        0.22150    0.04270    0.74853    1.000
    C82      C        0.15850    0.03930    0.80603    1.000
    C83      C        0.13630    0.94980    0.85703    1.000
    C84      C        0.17980    0.87450    0.84323    1.000
    C85      C        0.23740    0.88380    0.78273    1.000
    N18      N        0.16390    0.78040    0.88563    1.000
    C86      C        0.08530    0.72680    0.93563    1.000
    O9       O        0.01900    0.76190    0.95603    1.000
    C87      C        0.09040    0.62300    0.96703    1.000
    C88      C        0.02520    0.52300    0.92163    1.000
    C89      C        0.03380    0.41960    0.93413    1.000
    C90      C        0.13900    0.41700    0.94093    1.000
    C91      C        0.14200    0.30400    0.94663    1.000
    C92      C        0.04400    0.20100    0.94753    1.000
    C93      C        0.94000    0.20500    0.93583    1.000
    C94      C        0.93600    0.31000    0.93283    1.000
    N19      N        0.03180    0.59650    0.03373    1.000
    C95      C        0.08920    0.59300    0.08943    1.000
    O10      O        0.18850    0.61190    0.08993    1.000
    C96      C        0.01850    0.57100    0.15393    1.000
    C97      C        0.93680    0.60570    0.16213    1.000
    C98      C        0.87150    0.57400    0.22363    1.000
    C99      C        0.89650    0.51150    0.27043    1.000
    N20      N        0.97980    0.47970    0.26233    1.000
    C100     C        0.03860    0.50930    0.20563    1.000
    N21      N        0.71110    0.74020    0.07297    1.000
    C101     C        0.82120    0.77850    0.08187    1.000
    C102     C        0.88080    0.84150    0.13937    1.000
    C103     C        0.81350    0.86370    0.19037    1.000
    C104     C        0.69470    0.82020    0.17657    1.000
    C105     C        0.64640    0.76260    0.11607    1.000
    N22      N        0.61650    0.83610    0.21897    1.000
    C106     C        0.64150    0.91470    0.26897    1.000
    O11      O        0.74290    0.98100    0.28937    1.000
    C107     C        0.53260    0.90960    0.30037    1.000
    C108     C        0.49780    0.97480    0.25497    1.000
    C109     C        0.38580    0.96620    0.26747    1.000
    C110     C        0.27800    0.86100    0.27427    1.000
    C111     C        0.16200    0.85800    0.27997    1.000
    C112     C        0.15700    0.95600    0.28087    1.000
    C113     C        0.26500    0.06000    0.26917    1.000
    C114     C        0.37400    0.06400    0.26617    1.000
    N23      N        0.56470    0.96820    0.36707    1.000
    C115     C        0.50380    0.91080    0.42277    1.000
    O12      O        0.42340    0.81150    0.42327    1.000
    C116     C        0.55250    0.98150    0.48727    1.000
    C117     C        0.66890    0.06320    0.49547    1.000
    C118     C        0.70250    0.12850    0.55697    1.000
    C119     C        0.61500    0.10350    0.60377    1.000
    N24      N        0.49990    0.02020    0.59567    1.000
    C120     C        0.47070    0.96140    0.53897    1.000
    Cu1      Cu       0.61840    0.61840    0.00000    1.000
    Cu2      Cu       0.38160    0.00000    0.66667    1.000
    Cu3      Cu       0.00000    0.38160    0.33333    1.000
