data_functionalizedCrystal
_audit_creation_method	'EQeq! by Chris Wilmer'
_symmetry_space_group_name_H-M	'P1'
_symmetry_Int_Tables_number	1
_symmetry_cell_setting	triclinic
loop_
_symmetry_equiv_pos_as_xyz
  x,y,z
_cell_length_a	12.079
_cell_length_b	5.2419
_cell_length_c	21.254
_cell_angle_alpha	90
_cell_angle_beta	103.886
_cell_angle_gamma	90
loop_
_atom_site_label
_atom_site_type_symbol
_atom_site_fract_x
_atom_site_fract_y
_atom_site_fract_z
_atom_site_charge
Mof_Na	Na	0.4066	0.67	0.9684	2.154
Mof_Na	Na	0.6641	0.714	0.9313	1.976
Mof_Na	Na	0.8851	0.151	0.0242	2.331
Mof_Na	Na	0.8238	0.813	0.8146	2.879
Mof_O 	O 	0.7466	0.459	0.0317	-1.162
Mof_O 	O 	0.5001	0.971	0.9255	-1.093
Mof_O 	O 	0.7411	0.878	0.0364	-1.171
Mof_O 	O 	0.9806	0.306	0.9472	-1.103
Mof_H 	H 	0.9216	0.3606	0.9087	0.107
Mof_H 	H 	0.0215	0.1603	0.9335	0.039
Mof_O 	O 	0.9836	0.353	0.1205	-0.96
Mof_O 	O 	0.5209	0.396	0.9206	-1.053
Mof_O 	O 	0.7794	0.473	0.8731	-1.099
Mof_O 	O 	0.7353	0.063	0.8775	-1.169
Mof_O 	O 	0.6556	0.72	0.7347	-0.657
Mof_N 	N 	0.8053	0.411	0.2351	-0.262
Mof_H 	H 	0.8378	0.5372	0.2602	0.12
Mof_N 	N 	0.6084	0.306	0.7432	-0.281
Mof_H 	H 	0.5915	0.1583	0.7234	0.068
Mof_C 	C 	0.641	0.498	0.7117	0.248
Mof_C 	C 	0.653	0.452	0.6436	-0.196
Mof_O 	O 	0.0033	0.165	0.2171	-0.632
Mof_C 	C 	0.76	0.659	0.0628	0.677
Mof_C 	C 	0.6	0.333	0.8104	-0.095
Mof_H 	H 	0.5775	0.5128	0.8165	-0.079
Mof_O 	O 	0.689	0.076	0.2254	-0.34
Mof_C 	C 	0.824	0.403	0.17	0.108
Mof_H 	H 	0.7703	0.275	0.1444	-0.126
Mof_C 	C 	0.509	0.165	0.8971	0.536
Mof_C 	C 	0.797	0.667	0.136	-0.489
Mof_H 	H 	0.7365	0.7498	0.1526	0.143
Mof_H 	H 	0.8663	0.775	0.1485	0.104
Mof_C 	C 	0.505	0.158	0.8225	-0.449
Mof_H 	H 	0.5163	0.9812	0.809	0.128
Mof_H 	H 	0.4295	0.2183	0.7972	0.129
Mof_C 	C 	0.682	0.393	0.5173	0.058
Mof_C 	C 	0.702	0.363	0.4515	-0.006
Mof_C 	C 	0.73	0.297	0.3268	-0.071
Mof_C 	C 	0.6	0.253	0.6064	0.051
Mof_H 	H 	0.5543	0.1355	0.623	-0.016
Mof_C 	C 	0.714	0.286	0.857	0.467
Mof_C 	C 	0.748	0.259	0.2586	0.223
Mof_C 	C 	0.73	0.589	0.5573	-0.167
Mof_H 	H 	0.7769	0.7069	0.5416	0.079
Mof_C 	C 	0.614	0.227	0.5439	-0.146
Mof_H 	H 	0.5771	0.0903	0.518	0.051
Mof_C 	C 	0.716	0.624	0.6188	0.094
Mof_H 	H 	0.749	0.7662	0.6438	-0.069
Mof_C 	C 	0.949	0.32	0.1684	0.224
Mof_C 	C 	0.621	0.265	0.407	0.129
Mof_H 	H 	0.552	0.2161	0.4174	-0.029
Mof_C 	C 	0.633	0.227	0.3412	0.114
Mof_H 	H 	0.5726	0.155	0.309	-0.027
Mof_C 	C 	0.821	0.406	0.375	0.002
Mof_H 	H 	0.8901	0.4539	0.3643	0.009
Mof_C 	C 	0.811	0.441	0.4369	-0.039
Mof_H 	H 	0.8708	0.5128	0.4692	0.033
Mof_C 	C 	0.729	0.539	0.3517	-0.037
Mof_H 	H 	0.7365	0.6843	0.3264	0.043
Mof_C 	C 	0.717	0.565	0.417	-0.063
Mof_H 	H 	0.7203	0.7305	0.4352	0.058
Mof_C 	C 	0.668	0.119	0.417	-0.252
Mof_H 	H 	0.6356	0.9852	0.4366	0.15
Mof_C 	C 	0.685	0.092	0.3575	-0.193
Mof_H 	H 	0.6671	0.9346	0.3352	0.145
Mof_Na	Na	0.5934	0.17	0.0316	1.773
Mof_Na	Na	0.3359	0.214	0.0687	1.57
Mof_Na	Na	0.1149	0.651	0.9758	2.574
Mof_Na	Na	0.1762	0.313	0.1854	2.587
Mof_O 	O 	0.2534	0.959	0.9683	-1.115
Mof_O 	O 	0.4999	0.471	0.0745	-1.113
Mof_O 	O 	0.2589	0.378	0.9636	-1.267
Mof_O 	O 	0.0194	0.806	0.0528	-1.063
Mof_H 	H 	0.0784	0.8606	0.0913	0.139
Mof_H 	H 	0.9785	0.6603	0.0665	0.087
Mof_O 	O 	0.0164	0.853	0.8795	-0.967
Mof_O 	O 	0.4791	0.896	0.0794	-0.929
Mof_O 	O 	0.2206	0.973	0.1269	-0.936
Mof_O 	O 	0.2647	0.563	0.1225	-1.028
Mof_O 	O 	0.3444	0.22	0.2653	-0.719
Mof_N 	N 	0.1947	0.911	0.7649	-0.202
Mof_H 	H 	0.1622	0.0372	0.7398	0.034
Mof_N 	N 	0.3916	0.806	0.2568	-0.308
Mof_H 	H 	0.4085	0.6583	0.2766	0.1
Mof_C 	C 	0.359	0.998	0.2883	0.365
Mof_C 	C 	0.347	0.952	0.3564	-0.126
Mof_O 	O 	0.9967	0.665	0.7829	-0.625
Mof_C 	C 	0.24	0.159	0.9372	0.595
Mof_C 	C 	0.4	0.833	0.1896	0.083
Mof_H 	H 	0.4225	0.0128	0.1835	-0.184
Mof_O 	O 	0.311	0.576	0.7746	-0.292
Mof_C 	C 	0.176	0.903	0.83	0.176
Mof_H 	H 	0.2297	0.775	0.8556	-0.139
Mof_C 	C 	0.491	0.665	0.1029	0.594
Mof_C 	C 	0.203	0.167	0.864	-0.544
Mof_H 	H 	0.2635	0.2498	0.8474	0.113
Mof_H 	H 	0.1337	0.275	0.8515	0.068
Mof_C 	C 	0.495	0.658	0.1775	-0.394
Mof_H 	H 	0.4837	0.4812	0.191	0.07
Mof_H 	H 	0.5705	0.7183	0.2028	0.153
Mof_C 	C 	0.318	0.893	0.4827	0.145
Mof_C 	C 	0.298	0.863	0.5485	0.014
Mof_C 	C 	0.27	0.797	0.6732	0.008
Mof_C 	C 	0.4	0.753	0.3936	0.062
Mof_H 	H 	0.4457	0.6355	0.377	-0.007
Mof_C 	C 	0.286	0.786	0.143	0.402
Mof_C 	C 	0.252	0.759	0.7414	0.203
Mof_C 	C 	0.27	0.089	0.4427	-0.239
Mof_H 	H 	0.2231	0.2069	0.4584	0.084
Mof_C 	C 	0.386	0.727	0.4561	-0.157
Mof_H 	H 	0.4229	0.5903	0.482	0.08
Mof_C 	C 	0.284	0.124	0.3812	0.016
Mof_H 	H 	0.251	0.2662	0.3562	-0.056
Mof_C 	C 	0.051	0.82	0.8316	0.211
Mof_C 	C 	0.379	0.765	0.593	-0.005
Mof_H 	H 	0.448	0.7161	0.5826	0.041
Mof_C 	C 	0.367	0.727	0.6588	0.096
Mof_H 	H 	0.4274	0.655	0.691	0.015
Mof_C 	C 	0.179	0.906	0.625	-0.126
Mof_H 	H 	0.1099	0.9539	0.6357	0.069
Mof_C 	C 	0.189	0.941	0.5631	0.268
Mof_H 	H 	0.1292	0.0128	0.5308	-0.123
Mof_C 	C 	0.271	0.039	0.6483	-0.019
Mof_H 	H 	0.2635	0.1843	0.6736	0.011
Mof_C 	C 	0.283	0.065	0.583	-0.296
Mof_H 	H 	0.2797	0.2305	0.5648	0.115
Mof_C 	C 	0.332	0.619	0.583	-0.038
Mof_H 	H 	0.3644	0.4852	0.5634	0.026
Mof_C 	C 	0.315	0.592	0.6425	-0.154
Mof_H 	H 	0.3329	0.4346	0.6648	0.078
_end
