# CIF file generated by openbabel 3.1.0, see https://openbabel.org
data_I
_chemical_name_common 'OBONUO_charged'
_cell_length_a 21.1031
_cell_length_b 21.1031
_cell_length_c 21.1031
_cell_angle_alpha 92.0599
_cell_angle_beta 118.818
_cell_angle_gamma 118.818
_space_group_name_H-M_alt 'P 1'
_space_group_name_Hall 'P 1'
loop_
    _symmetry_equiv_pos_as_xyz
    x,y,z
loop_
    _atom_site_label
    _atom_site_type_symbol
    _atom_site_fract_x
    _atom_site_fract_y
    _atom_site_fract_z
    _atom_site_occupancy
    Cu1      Cu       0.60506    0.63937    0.54115    1.000
    Cu2      Cu       0.39494    0.93609    0.03431    1.000
    Cu3      Cu       0.09822    0.45885    0.06391    1.000
    Cu4      Cu       0.90178    0.96569    0.36063    1.000
    Cu5      Cu       0.59822    0.81391    0.70885    1.000
    Cu6      Cu       0.40178    0.11063    0.21569    1.000
    Cu7      Cu       0.89494    0.78431    0.18609    1.000
    Cu8      Cu       0.10506    0.29115    0.88937    1.000
    H1       H        0.80890    0.75560    0.65150    1.000
    H2       H        0.91230    0.87660    0.65750    1.000
    H3       H        0.86830    0.93600    0.58370    1.000
    H4       H        0.71410    0.87310    0.48460    1.000
    H5       H        0.56990    0.80780    0.40130    1.000
    H6       H        0.41750    0.74090    0.33540    1.000
    H7       H        0.69670    0.67190    0.70900    1.000
    H8       H        0.79170    0.65370    0.80560    1.000
    H9       H        0.78370    0.53390    0.64860    1.000
    H10      H        0.69680    0.56610    0.55610    1.000
    H11      H        0.90230    0.57390    0.79040    1.000
    H12      H        0.92340    0.64050    0.85010    1.000
    H13      H        0.04510    0.56480    0.06950    1.000
    H14      H        0.95300    0.59620    0.99060    1.000
    H15      H        0.88480    0.44800    0.81300    1.000
    H16      H        0.98370    0.42340    0.89950    1.000
    H17      H        0.77860    0.48450    0.79610    1.000
    H18      H        0.81600    0.55220    0.86620    1.000
    H19      H        0.34160    0.61210    0.32130    1.000
    H20      H        0.41790    0.57590    0.40840    1.000
    H21      H        0.19110    0.84260    0.94670    1.000
    H22      H        0.08770    0.74520    0.96430    1.000
    H23      H        0.13170    0.71540    0.06770    1.000
    H24      H        0.28590    0.77050    0.15900    1.000
    H25      H        0.43010    0.83140    0.23790    1.000
    H26      H        0.58250    0.91790    0.32340    1.000
    H27      H        0.30330    0.01230    0.97520    1.000
    H28      H        0.20830    0.01390    0.86200    1.000
    H29      H        0.21630    0.86490    0.75020    1.000
    H30      H        0.30320    0.85930    0.86930    1.000
    H31      H        0.09770    0.88810    0.67160    1.000
    H32      H        0.07660    0.92670    0.71710    1.000
    H33      H        0.95490    0.02440    0.51970    1.000
    H34      H        0.04700    0.03760    0.64320    1.000
    H35      H        0.11520    0.92820    0.56320    1.000
    H36      H        0.01630    0.91580    0.43970    1.000
    H37      H        0.22140    0.01750    0.70590    1.000
    H38      H        0.18400    0.05020    0.73620    1.000
    H39      H        0.65840    0.97970    0.27050    1.000
    H40      H        0.58210    0.99050    0.15800    1.000
    H41      H        0.10410    0.34850    0.15740    1.000
    H42      H        0.21910    0.34250    0.25480    1.000
    H43      H        0.35230    0.41630    0.28460    1.000
    H44      H        0.38850    0.51540    0.22950    1.000
    H45      H        0.40650    0.59870    0.16860    1.000
    H46      H        0.40550    0.66460    0.08210    1.000
    H47      H        0.96290    0.29100    0.98770    1.000
    H48      H        0.84810    0.19440    0.98610    1.000
    H49      H        0.88530    0.35140    0.13510    1.000
    H50      H        0.01000    0.44390    0.14070    1.000
    H51      H        0.78350    0.20960    0.11190    1.000
    H52      H        0.79040    0.14990    0.07330    1.000
    H53      H        0.49530    0.93050    0.97560    1.000
    H54      H        0.60560    0.00940    0.96240    1.000
    H55      H        0.63500    0.18700    0.07180    1.000
    H56      H        0.52390    0.10050    0.08420    1.000
    H57      H        0.68840    0.20390    0.98250    1.000
    H58      H        0.68600    0.13380    0.94980    1.000
    H59      H        0.29080    0.67870    0.02030    1.000
    H60      H        0.16750    0.59160    0.00950    1.000
    H61      H        0.89590    0.05330    0.24440    1.000
    H62      H        0.78090    0.03570    0.12340    1.000
    H63      H        0.64770    0.93230    0.06400    1.000
    H64      H        0.61150    0.84100    0.12690    1.000
    H65      H        0.59350    0.76210    0.19220    1.000
    H66      H        0.59450    0.67660    0.25910    1.000
    H67      H        0.03710    0.02480    0.32810    1.000
    H68      H        0.15190    0.13800    0.34630    1.000
    H69      H        0.11470    0.24980    0.46610    1.000
    H70      H        0.99000    0.13070    0.43390    1.000
    H71      H        0.21650    0.32840    0.42610    1.000
    H72      H        0.20960    0.28290    0.35950    1.000
    H73      H        0.50470    0.48030    0.43520    1.000
    H74      H        0.39440    0.35680    0.40380    1.000
    H75      H        0.36500    0.43680    0.55200    1.000
    H76      H        0.47610    0.56030    0.57660    1.000
    H77      H        0.31160    0.29410    0.51550    1.000
    H78      H        0.31400    0.26380    0.44780    1.000
    H79      H        0.70920    0.72950    0.38790    1.000
    H80      H        0.83250    0.84200    0.42410    1.000
    H81      H        0.60410    0.90740    0.59850    1.000
    H82      H        0.71910    0.00480    0.59250    1.000
    H83      H        0.85230    0.03460    0.66630    1.000
    H84      H        0.88850    0.97950    0.76540    1.000
    H85      H        0.90650    0.91860    0.84870    1.000
    H86      H        0.90550    0.83210    0.91460    1.000
    H87      H        0.46290    0.73770    0.54100    1.000
    H88      H        0.34810    0.73610    0.44440    1.000
    H89      H        0.38530    0.88510    0.60140    1.000
    H90      H        0.51000    0.89070    0.69390    1.000
    H91      H        0.28350    0.86190    0.45960    1.000
    H92      H        0.29040    0.82330    0.39990    1.000
    H93      H        0.99530    0.72560    0.18050    1.000
    H94      H        0.10560    0.71240    0.25940    1.000
    H95      H        0.13500    0.82180    0.43700    1.000
    H96      H        0.02390    0.83420    0.35050    1.000
    H97      H        0.18840    0.73250    0.45390    1.000
    H98      H        0.18600    0.69980    0.38380    1.000
    H99      H        0.79080    0.77030    0.92870    1.000
    H100     H        0.66750    0.75950    0.84160    1.000
    H101     H        0.39590    0.99440    0.30330    1.000
    H102     H        0.28090    0.87340    0.28570    1.000
    H103     H        0.14770    0.81400    0.18230    1.000
    H104     H        0.11150    0.87690    0.09100    1.000
    H105     H        0.09350    0.94220    0.01210    1.000
    H106     H        0.09450    0.00910    0.92660    1.000
    H107     H        0.53710    0.07810    0.27480    1.000
    H108     H        0.65190    0.09630    0.38800    1.000
    H109     H        0.61470    0.21610    0.49980    1.000
    H110     H        0.49000    0.18390    0.38070    1.000
    H111     H        0.71650    0.17610    0.57840    1.000
    H112     H        0.70960    0.10950    0.53290    1.000
    H113     H        0.00470    0.18520    0.73030    1.000
    H114     H        0.89440    0.15380    0.60680    1.000
    H115     H        0.86500    0.30200    0.68680    1.000
    H116     H        0.97610    0.32660    0.81030    1.000
    H117     H        0.81160    0.26550    0.54410    1.000
    H118     H        0.81400    0.19780    0.51380    1.000
    H119     H        0.20920    0.13790    0.97950    1.000
    H120     H        0.33250    0.17410    0.09200    1.000
    H121     H        0.69110    0.69670    0.09260    1.000
    H122     H        0.58770    0.71430    0.99520    1.000
    H123     H        0.63170    0.81770    0.96540    1.000
    H124     H        0.78590    0.90900    0.02050    1.000
    H125     H        0.93010    0.98790    0.08140    1.000
    H126     H        0.08250    0.07340    0.16790    1.000
    H127     H        0.80330    0.72520    0.26230    1.000
    H128     H        0.70830    0.61200    0.26390    1.000
    H129     H        0.71630    0.50020    0.11490    1.000
    H130     H        0.80320    0.61930    0.10930    1.000
    H131     H        0.59770    0.42160    0.13810    1.000
    H132     H        0.57660    0.46710    0.17670    1.000
    H133     H        0.45490    0.26970    0.27440    1.000
    H134     H        0.54700    0.39320    0.28760    1.000
    H135     H        0.61520    0.31320    0.17820    1.000
    H136     H        0.51630    0.18970    0.16580    1.000
    H137     H        0.72140    0.45590    0.26750    1.000
    H138     H        0.68400    0.48620    0.30020    1.000
    H139     H        0.15840    0.02050    0.22970    1.000
    H140     H        0.08210    0.90800    0.24050    1.000
    H141     H        0.30890    0.40150    0.00560    1.000
    H142     H        0.41230    0.40750    0.12660    1.000
    H143     H        0.36830    0.33370    0.18600    1.000
    H144     H        0.21410    0.23460    0.12310    1.000
    H145     H        0.06990    0.15130    0.05780    1.000
    H146     H        0.91750    0.08540    0.99090    1.000
    H147     H        0.19670    0.45900    0.92190    1.000
    H148     H        0.29170    0.55560    0.90370    1.000
    H149     H        0.28370    0.39860    0.78390    1.000
    H150     H        0.19680    0.30610    0.81610    1.000
    H151     H        0.40230    0.54040    0.82390    1.000
    H152     H        0.42340    0.60010    0.89050    1.000
    H153     H        0.54510    0.81950    0.81480    1.000
    H154     H        0.45300    0.74060    0.84620    1.000
    H155     H        0.38480    0.56300    0.69800    1.000
    H156     H        0.48370    0.64950    0.67340    1.000
    H157     H        0.27860    0.54610    0.73450    1.000
    H158     H        0.31600    0.61620    0.80220    1.000
    H159     H        0.84160    0.07130    0.86210    1.000
    H160     H        0.91790    0.15840    0.82590    1.000
    C1       C        0.79030    0.77760    0.61530    1.000
    C2       C        0.85240    0.85270    0.62090    1.000
    C3       C        0.82720    0.88660    0.57740    1.000
    C4       C        0.73470    0.84960    0.51770    1.000
    C5       C        0.68130    0.77880    0.51370    1.000
    C6       C        0.58130    0.73490    0.45700    1.000
    C7       C        0.53780    0.76120    0.40600    1.000
    C8       C        0.44680    0.71890    0.36150    1.000
    C9       C        0.71540    0.64470    0.69630    1.000
    C10      C        0.77370    0.63380    0.75550    1.000
    C11      C        0.80540    0.59530    0.74330    1.000
    C12      C        0.77000    0.56480    0.66340    1.000
    C13      C        0.71420    0.58160    0.60680    1.000
    C14      C        0.87700    0.59050    0.80910    1.000
    C15      C        0.01060    0.53950    0.01630    1.000
    C16      C        0.95440    0.55760    0.97000    1.000
    C17      C        0.89960    0.51730    0.89190    1.000
    C18      C        0.91450    0.47100    0.86590    1.000
    C19      C        0.97550    0.45710    0.91860    1.000
    C20      C        0.83150    0.53170    0.83840    1.000
    C21      C        0.40220    0.64600    0.35700    1.000
    C22      C        0.44980    0.62460    0.40700    1.000
    C23      C        0.20970    0.82500    0.98730    1.000
    C24      C        0.14760    0.76850    0.00030    1.000
    C25      C        0.17280    0.75020    0.05940    1.000
    C26      C        0.26530    0.78300    0.11490    1.000
    C27      C        0.31870    0.83240    0.09750    1.000
    C28      C        0.41870    0.87570    0.15360    1.000
    C29      C        0.46220    0.86820    0.22340    1.000
    C30      C        0.55320    0.91470    0.27210    1.000
    C31      C        0.28460    0.98090    0.92930    1.000
    C32      C        0.22630    0.98180    0.86010    1.000
    C33      C        0.19460    0.93790    0.78990    1.000
    C34      C        0.23000    0.89340    0.79480    1.000
    C35      C        0.28580    0.89260    0.86740    1.000
    C36      C        0.12300    0.93210    0.71350    1.000
    C37      C        0.98940    0.00570    0.52890    1.000
    C38      C        0.04560    0.01560    0.60320    1.000
    C39      C        0.10040    0.99230    0.61770    1.000
    C40      C        0.08550    0.95140    0.55650    1.000
    C41      C        0.02450    0.94310    0.48160    1.000
    C42      C        0.16850    0.00690    0.70020    1.000
    C43      C        0.59780    0.95480    0.24380    1.000
    C44      C        0.55020    0.95720    0.17480    1.000
    C45      C        0.16230    0.38470    0.17500    1.000
    C46      C        0.23180    0.37910    0.23150    1.000
    C47      C        0.30920    0.42260    0.24980    1.000
    C48      C        0.33190    0.48230    0.21700    1.000
    C49      C        0.26510    0.48630    0.16760    1.000
    C50      C        0.27790    0.54300    0.12430    1.000
    C51      C        0.35520    0.59400    0.13180    1.000
    C52      C        0.35740    0.63850    0.08530    1.000
    C53      C        0.94840    0.30370    0.01910    1.000
    C54      C        0.87830    0.24450    0.01820    1.000
    C55      C        0.85200    0.25670    0.06210    1.000
    C56      C        0.90140    0.33660    0.10660    1.000
    C57      C        0.97480    0.39320    0.10740    1.000
    C58      C        0.78140    0.19090    0.06790    1.000
    C59      C        0.52320    0.98370    0.99430    1.000
    C60      C        0.58760    0.03000    0.98440    1.000
    C61      C        0.62540    0.10810    0.00770    1.000
    C62      C        0.60510    0.13410    0.04860    1.000
    C63      C        0.53850    0.08140    0.05690    1.000
    C64      C        0.69330    0.16160    0.99310    1.000
    C65      C        0.28900    0.64300    0.04520    1.000
    C66      C        0.21760    0.59300    0.04280    1.000
    C67      C        0.83770    0.01270    0.22240    1.000
    C68      C        0.76820    0.99970    0.14730    1.000
    C69      C        0.69080    0.94060    0.11340    1.000
    C70      C        0.66810    0.88510    0.15040    1.000
    C71      C        0.73490    0.90250    0.22120    1.000
    C72      C        0.72210    0.84640    0.26510    1.000
    C73      C        0.64480    0.77660    0.23880    1.000
    C74      C        0.64260    0.72790    0.28110    1.000
    C75      C        0.05160    0.07070    0.35530    1.000
    C76      C        0.12170    0.13990    0.36620    1.000
    C77      C        0.14800    0.21010    0.40470    1.000
    C78      C        0.09860    0.20520    0.43520    1.000
    C79      C        0.02520    0.13260    0.41840    1.000
    C80      C        0.21860    0.28650    0.40950    1.000
    C81      C        0.47680    0.47110    0.46050    1.000
    C82      C        0.41240    0.39680    0.44240    1.000
    C83      C        0.37460    0.38230    0.48270    1.000
    C84      C        0.39490    0.44350    0.52900    1.000
    C85      C        0.46150    0.51840    0.54290    1.000
    C86      C        0.30670    0.29980    0.46830    1.000
    C87      C        0.71100    0.75620    0.35400    1.000
    C88      C        0.78240    0.82520    0.37540    1.000
    C89      C        0.66230    0.92500    0.63470    1.000
    C90      C        0.73180    0.98150    0.62910    1.000
    C91      C        0.80920    0.99980    0.67260    1.000
    C92      C        0.83190    0.96700    0.73230    1.000
    C93      C        0.76510    0.91760    0.73630    1.000
    C94      C        0.77790    0.87430    0.79300    1.000
    C95      C        0.85520    0.88180    0.84400    1.000
    C96      C        0.85740    0.83530    0.88850    1.000
    C97      C        0.44840    0.76910    0.55370    1.000
    C98      C        0.37830    0.76820    0.49450    1.000
    C99      C        0.35200    0.81210    0.50670    1.000
    C100     C        0.40140    0.85660    0.58660    1.000
    C101     C        0.47480    0.85740    0.64320    1.000
    C102     C        0.28140    0.81790    0.44090    1.000
    C103     C        0.02320    0.74430    0.23370    1.000
    C104     C        0.08760    0.73440    0.28000    1.000
    C105     C        0.12540    0.75770    0.35810    1.000
    C106     C        0.10510    0.79860    0.38410    1.000
    C107     C        0.03850    0.80690    0.33140    1.000
    C108     C        0.19330    0.74310    0.41160    1.000
    C109     C        0.78900    0.79520    0.89300    1.000
    C110     C        0.71760    0.79280    0.84300    1.000
    C111     C        0.33770    0.97240    0.26270    1.000
    C112     C        0.26820    0.89730    0.24970    1.000
    C113     C        0.19080    0.86340    0.19060    1.000
    C114     C        0.16810    0.90040    0.13510    1.000
    C115     C        0.23490    0.97120    0.15250    1.000
    C116     C        0.22210    0.01510    0.09640    1.000
    C117     C        0.14480    0.98880    0.02660    1.000
    C118     C        0.14260    0.03110    0.97790    1.000
    C119     C        0.55160    0.10530    0.32070    1.000
    C120     C        0.62170    0.11620    0.38990    1.000
    C121     C        0.64800    0.15470    0.46010    1.000
    C122     C        0.59860    0.18520    0.45520    1.000
    C123     C        0.52520    0.16840    0.38260    1.000
    C124     C        0.71860    0.15950    0.53650    1.000
    C125     C        0.97680    0.21050    0.72110    1.000
    C126     C        0.91240    0.19240    0.64680    1.000
    C127     C        0.87460    0.23270    0.63230    1.000
    C128     C        0.89490    0.27900    0.69350    1.000
    C129     C        0.96150    0.29290    0.76840    1.000
    C130     C        0.80670    0.21830    0.54980    1.000
    C131     C        0.21100    0.10400    0.00620    1.000
    C132     C        0.28240    0.12540    0.07520    1.000
    C133     C        0.70970    0.73730    0.07500    1.000
    C134     C        0.64760    0.75030    0.01850    1.000
    C135     C        0.67280    0.80940    0.00020    1.000
    C136     C        0.76530    0.86490    0.03300    1.000
    C137     C        0.81870    0.84750    0.08240    1.000
    C138     C        0.91870    0.90360    0.12570    1.000
    C139     C        0.96220    0.97340    0.11820    1.000
    C140     C        0.05320    0.02210    0.16470    1.000
    C141     C        0.78460    0.67930    0.23090    1.000
    C142     C        0.72630    0.61010    0.23180    1.000
    C143     C        0.69460    0.53990    0.18790    1.000
    C144     C        0.73000    0.54480    0.14340    1.000
    C145     C        0.78580    0.61740    0.14260    1.000
    C146     C        0.62300    0.46350    0.18210    1.000
    C147     C        0.48940    0.27890    0.25570    1.000
    C148     C        0.54560    0.35320    0.26560    1.000
    C149     C        0.60040    0.36770    0.24230    1.000
    C150     C        0.58550    0.30650    0.20140    1.000
    C151     C        0.52450    0.23160    0.19310    1.000
    C152     C        0.66850    0.45020    0.25690    1.000
    C153     C        0.09780    0.99380    0.20480    1.000
    C154     C        0.05020    0.92480    0.20720    1.000
    C155     C        0.29030    0.36530    0.02760    1.000
    C156     C        0.35240    0.37090    0.10270    1.000
    C157     C        0.32720    0.32740    0.13660    1.000
    C158     C        0.23470    0.26770    0.09960    1.000
    C159     C        0.18130    0.26370    0.02880    1.000
    C160     C        0.08130    0.20700    0.98490    1.000
    C161     C        0.03780    0.15600    0.01120    1.000
    C162     C        0.94680    0.11150    0.96890    1.000
    C163     C        0.21540    0.44630    0.89470    1.000
    C164     C        0.27370    0.50550    0.88380    1.000
    C165     C        0.30540    0.49330    0.84530    1.000
    C166     C        0.27000    0.41340    0.81480    1.000
    C167     C        0.21420    0.35680    0.83160    1.000
    C168     C        0.37700    0.55910    0.84050    1.000
    C169     C        0.51060    0.76630    0.78950    1.000
    C170     C        0.45440    0.72000    0.80760    1.000
    C171     C        0.39960    0.64190    0.76730    1.000
    C172     C        0.41450    0.61590    0.72100    1.000
    C173     C        0.47550    0.66860    0.70710    1.000
    C174     C        0.33150    0.58840    0.78170    1.000
    C175     C        0.90220    0.10700    0.89600    1.000
    C176     C        0.94980    0.15700    0.87460    1.000
    N1       N        0.68630    0.61940    0.62550    1.000
    N2       N        0.01890    0.48830    0.99000    1.000
    N3       N        0.70530    0.74020    0.55710    1.000
    N4       N        0.53440    0.66270    0.45370    1.000
    N5       N        0.31370    0.93920    0.93310    1.000
    N6       N        0.98110    0.97110    0.46940    1.000
    N7       N        0.29470    0.85180    0.03490    1.000
    N8       N        0.46560    0.91930    0.12830    1.000
    N9       N        0.99390    0.37450    0.06080    1.000
    N10      N        0.49830    0.01000    0.02890    1.000
    N11      N        0.18310    0.44290    0.14820    1.000
    N12      N        0.20900    0.54630    0.08070    1.000
    N13      N        0.00610    0.06690    0.38060    1.000
    N14      N        0.50170    0.53060    0.51170    1.000
    N15      N        0.81690    0.96510    0.25980    1.000
    N16      N        0.79100    0.87170    0.33730    1.000
    N17      N        0.49390    0.81080    0.62450    1.000
    N18      N        0.99830    0.77890    0.26000    1.000
    N19      N        0.68310    0.89820    0.69290    1.000
    N20      N        0.70900    0.83070    0.79630    1.000
    N21      N        0.50610    0.13060    0.31690    1.000
    N22      N        0.00170    0.26170    0.78060    1.000
    N23      N        0.31690    0.00980    0.21510    1.000
    N24      N        0.29100    0.08730    0.12170    1.000
    N25      N        0.81370    0.68310    0.18920    1.000
    N26      N        0.48110    0.21940    0.22110    1.000
    N27      N        0.79470    0.78490    0.10180    1.000
    N28      N        0.96560    0.87830    0.16930    1.000
    N29      N        0.18630    0.37550    0.86940    1.000
    N30      N        0.51890    0.74000    0.73830    1.000
    N31      N        0.20530    0.30710    0.99020    1.000
    N32      N        0.03440    0.20370    0.91270    1.000
    Cl1      Cl       0.58525    0.71025    0.62500    1.000
    Cl2      Cl       0.41475    0.03975    0.12500    1.000
    Cl3      Cl       0.08525    0.37500    0.96025    1.000
    Cl4      Cl       0.91475    0.87500    0.28975    1.000
    B1       B        0.58590    0.55620    0.35850    1.000
    F1       F        0.62880    0.58820    0.43560    1.000
    F2       F        0.54370    0.59040    0.32450    1.000
    F3       F        0.52440    0.47990    0.33290    1.000
    F4       F        0.64350    0.56810    0.34140    1.000
    B2       B        0.41410    0.77260    0.97030    1.000
    F5       F        0.37120    0.80680    0.95940    1.000
    F6       F        0.45630    0.78080    0.04670    1.000
    F7       F        0.47560    0.80850    0.95550    1.000
    F8       F        0.35650    0.69790    0.92460    1.000
    B3       B        0.19770    0.64150    0.22740    1.000
    F9       F        0.15260    0.56440    0.19320    1.000
    F10      F        0.26590    0.67550    0.21920    1.000
    F11      F        0.14700    0.66710    0.19150    1.000
    F12      F        0.22670    0.65860    0.30210    1.000
    B4       B        0.80230    0.02970    0.44380    1.000
    F13      F        0.84740    0.04060    0.41180    1.000
    F14      F        0.73410    0.95330    0.40960    1.000
    F15      F        0.85300    0.04450    0.52010    1.000
    F16      F        0.77330    0.07540    0.43190    1.000
    B5       B        0.69770    0.97740    0.89150    1.000
    F17      F        0.65260    0.94320    0.81440    1.000
    F18      F        0.76590    0.96920    0.92550    1.000
    F19      F        0.64700    0.94150    0.91710    1.000
    F20      F        0.72670    0.05210    0.90860    1.000
    B6       B        0.30230    0.19380    0.27970    1.000
    F21      F        0.34740    0.16180    0.29060    1.000
    F22      F        0.23410    0.15960    0.20330    1.000
    F23      F        0.35300    0.27010    0.29450    1.000
    F24      F        0.27330    0.18190    0.32540    1.000
    B7       B        0.91410    0.72030    0.02260    1.000
    F25      F        0.87120    0.70940    0.05680    1.000
    F26      F        0.95630    0.79670    0.03080    1.000
    F27      F        0.97560    0.70550    0.05850    1.000
    F28      F        0.85650    0.67460    0.94790    1.000
    B8       B        0.08590    0.10850    0.80620    1.000
    F29      F        0.12880    0.18560    0.83820    1.000
    F30      F        0.04370    0.07450    0.84040    1.000
    F31      F        0.02440    0.08290    0.72990    1.000
    F32      F        0.14350    0.09140    0.81810    1.000
    B9       B        0.50000    0.56730    0.06730    1.000
    F33      F        0.48990    0.62500    0.05310    1.000
    F34      F        0.57160    0.58170    0.07150    1.000
    F35      F        0.51010    0.56320    0.13510    1.000
    F36      F        0.42840    0.49990    0.01010    1.000
    B10      B        0.50000    0.93270    0.43270    1.000
    F37      F        0.57190    0.94690    0.43680    1.000
    F38      F        0.51020    0.92850    0.50010    1.000
    F39      F        0.42810    0.86490    0.37500    1.000
    F40      F        0.48980    0.98990    0.41830    1.000
    B11      B        0.00000    0.18270    0.18270    1.000
    F41      F        0.07190    0.18680    0.19690    1.000
    F42      F        0.01020    0.25010    0.17850    1.000
    F43      F        0.92810    0.12500    0.11490    1.000
    F44      F        0.98980    0.16830    0.23990    1.000
    B12      B        0.00000    0.81730    0.81730    1.000
    F45      F        0.01010    0.88510    0.81320    1.000
    F46      F        0.92840    0.76010    0.74990    1.000
    F47      F        0.98990    0.80310    0.87500    1.000
    F48      F        0.07160    0.82150    0.83170    1.000
