# CIF file generated by openbabel 3.1.0, see https://openbabel.org
data_I
_chemical_name_common 'MODNUO_ion_b'
_cell_length_a 13.74
_cell_length_b 27.03
_cell_length_c 13.647
_cell_angle_alpha 90
_cell_angle_beta 90
_cell_angle_gamma 90
_space_group_name_H-M_alt 'P 1'
_space_group_name_Hall 'P 1'
loop_
    _symmetry_equiv_pos_as_xyz
    x,y,z
loop_
    _atom_site_label
    _atom_site_type_symbol
    _atom_site_fract_x
    _atom_site_fract_y
    _atom_site_fract_z
    _atom_site_occupancy
    Cd1      Cd       0.83208    0.87481    0.99767    1.000
    Cd2      Cd       0.46977    0.80749    0.13680    1.000
    Cd3      Cd       0.22078    0.92325    0.89089    1.000
    N4       N        0.68070    0.84900    0.04330    1.000
    C5       C        0.60980    0.83290    0.07460    1.000
    N6       N        0.89440    0.85660    0.15400    1.000
    C7       C        0.92150    0.84130    0.22370    1.000
    N8       N        0.98860    0.89730    0.94800    1.000
    C9       C        0.06800    0.90310    0.92680    1.000
    N10      N        0.77590    0.90200    0.84270    1.000
    C11      C        0.75610    0.91080    0.76580    1.000
    N12      N        0.37700    0.86670    0.03750    1.000
    C13      C        0.32620    0.88640    0.98890    1.000
    N14      N        0.79970    0.95520    0.05460    1.000
    C15      C        0.78760    0.99550    0.07620    1.000
    N16      N        0.86880    0.79620    0.94300    1.000
    C17      C        0.90100    0.76140    0.91700    1.000
    N19      N        0.54640    0.98400    0.24880    1.000
    C20      C        0.56780    0.94890    0.18820    1.000
    H21      H        0.59530    0.91980    0.21150    1.000
    C22      C        0.55000    0.95450    0.08810    1.000
    H23      H        0.56630    0.92890    0.04580    1.000
    C24      C        0.50910    0.99680    0.05030    1.000
    C25      C        0.48920    0.03420    0.12000    1.000
    H26      H        0.46340    0.06430    0.09960    1.000
    C27      C        0.50800    0.02620    0.21730    1.000
    H28      H        0.49290    0.05080    0.26240    1.000
    C29      C        0.56860    0.97780    0.35740    1.000
    H30      H        0.58720    0.94410    0.37000    1.000
    H31      H        0.51170    0.98580    0.39500    1.000
    H32      H        0.62080    0.99950    0.37550    1.000
    Cd33     Cd       0.66792    0.12519    0.49767    1.000
    Cd34     Cd       0.03023    0.19251    0.63680    1.000
    Cd35     Cd       0.27922    0.07675    0.39089    1.000
    N36      N        0.81930    0.15100    0.54330    1.000
    C37      C        0.89020    0.16710    0.57460    1.000
    N38      N        0.60560    0.14340    0.65400    1.000
    C39      C        0.57850    0.15870    0.72370    1.000
    N40      N        0.51140    0.10270    0.44800    1.000
    C41      C        0.43200    0.09690    0.42680    1.000
    N42      N        0.72410    0.09800    0.34270    1.000
    C43      C        0.74390    0.08920    0.26580    1.000
    N44      N        0.12300    0.13330    0.53750    1.000
    C45      C        0.17380    0.11360    0.48890    1.000
    N46      N        0.70030    0.04480    0.55460    1.000
    C47      C        0.71240    0.00450    0.57620    1.000
    N48      N        0.63120    0.20380    0.44300    1.000
    C49      C        0.59900    0.23860    0.41700    1.000
    N51      N        0.95360    0.01600    0.74880    1.000
    C52      C        0.93220    0.05110    0.68820    1.000
    H53      H        0.90470    0.08020    0.71150    1.000
    C54      C        0.95000    0.04550    0.58810    1.000
    H55      H        0.93370    0.07110    0.54580    1.000
    C56      C        0.99090    0.00320    0.55030    1.000
    C57      C        0.01080    0.96580    0.62000    1.000
    H58      H        0.03660    0.93570    0.59960    1.000
    C59      C        0.99200    0.97380    0.71730    1.000
    H60      H        0.00710    0.94920    0.76240    1.000
    C61      C        0.93140    0.02220    0.85740    1.000
    H62      H        0.91280    0.05590    0.87000    1.000
    H63      H        0.98830    0.01420    0.89500    1.000
    H64      H        0.87920    0.00050    0.87550    1.000
    Cd65     Cd       0.16792    0.37481    0.50233    1.000
    Cd66     Cd       0.53023    0.30749    0.36320    1.000
    Cd67     Cd       0.77922    0.42325    0.60911    1.000
    N68      N        0.31930    0.34900    0.45670    1.000
    C69      C        0.39020    0.33290    0.42540    1.000
    N70      N        0.10560    0.35660    0.34600    1.000
    C71      C        0.07850    0.34130    0.27630    1.000
    N72      N        0.01140    0.39730    0.55200    1.000
    C73      C        0.93200    0.40310    0.57320    1.000
    N74      N        0.22410    0.40200    0.65730    1.000
    C75      C        0.24390    0.41080    0.73420    1.000
    N76      N        0.62300    0.36670    0.46250    1.000
    C77      C        0.67380    0.38640    0.51110    1.000
    N78      N        0.20030    0.45520    0.44540    1.000
    C79      C        0.21240    0.49550    0.42380    1.000
    N80      N        0.13120    0.29620    0.55700    1.000
    C81      C        0.09900    0.26140    0.58300    1.000
    N83      N        0.45360    0.48400    0.25120    1.000
    C84      C        0.43220    0.44890    0.31180    1.000
    H85      H        0.40470    0.41980    0.28850    1.000
    C86      C        0.45000    0.45450    0.41190    1.000
    H87      H        0.43370    0.42890    0.45420    1.000
    C88      C        0.49090    0.49680    0.44970    1.000
    C89      C        0.51080    0.53420    0.38000    1.000
    H90      H        0.53660    0.56430    0.40040    1.000
    C91      C        0.49200    0.52620    0.28270    1.000
    H92      H        0.50710    0.55080    0.23760    1.000
    C93      C        0.43140    0.47780    0.14260    1.000
    H94      H        0.41280    0.44410    0.13000    1.000
    H95      H        0.48830    0.48580    0.10500    1.000
    H96      H        0.37920    0.49950    0.12450    1.000
    Cd97     Cd       0.33208    0.62519    0.00233    1.000
    Cd98     Cd       0.96977    0.69251    0.86320    1.000
    Cd99     Cd       0.72078    0.57675    0.10911    1.000
    N100     N        0.18070    0.65100    0.95670    1.000
    C101     C        0.10980    0.66710    0.92540    1.000
    N102     N        0.39440    0.64340    0.84600    1.000
    C103     C        0.42150    0.65870    0.77630    1.000
    N104     N        0.48860    0.60270    0.05200    1.000
    C105     C        0.56800    0.59690    0.07320    1.000
    N106     N        0.27590    0.59800    0.15730    1.000
    C107     C        0.25610    0.58920    0.23420    1.000
    N108     N        0.87700    0.63330    0.96250    1.000
    C109     C        0.82620    0.61360    0.01110    1.000
    N110     N        0.29970    0.54480    0.94540    1.000
    C111     C        0.28760    0.50450    0.92380    1.000
    N112     N        0.36880    0.70380    0.05700    1.000
    C113     C        0.40100    0.73860    0.08300    1.000
    N115     N        0.04640    0.51600    0.75120    1.000
    C116     C        0.06780    0.55110    0.81180    1.000
    H117     H        0.09530    0.58020    0.78850    1.000
    C118     C        0.05000    0.54550    0.91190    1.000
    H119     H        0.06630    0.57110    0.95420    1.000
    C120     C        0.00910    0.50320    0.94970    1.000
    C121     C        0.98920    0.46580    0.88000    1.000
    H122     H        0.96340    0.43570    0.90040    1.000
    C123     C        0.00800    0.47380    0.78270    1.000
    H124     H        0.99290    0.44920    0.73760    1.000
    C125     C        0.06860    0.52220    0.64260    1.000
    H126     H        0.08720    0.55590    0.63000    1.000
    H127     H        0.01170    0.51420    0.60500    1.000
    H128     H        0.12080    0.50050    0.62450    1.000
    Cd129    Cd       0.16792    0.12519    0.00233    1.000
    Cd130    Cd       0.53023    0.19251    0.86320    1.000
    Cd131    Cd       0.77922    0.07675    0.10911    1.000
    N132     N        0.31930    0.15100    0.95670    1.000
    C133     C        0.39020    0.16710    0.92540    1.000
    N134     N        0.10560    0.14340    0.84600    1.000
    C135     C        0.07850    0.15870    0.77630    1.000
    N136     N        0.01140    0.10270    0.05200    1.000
    C137     C        0.93200    0.09690    0.07320    1.000
    N138     N        0.22410    0.09800    0.15730    1.000
    C139     C        0.24390    0.08920    0.23420    1.000
    N140     N        0.62300    0.13330    0.96250    1.000
    C141     C        0.67380    0.11360    0.01110    1.000
    N142     N        0.20030    0.04480    0.94540    1.000
    C143     C        0.21240    0.00450    0.92380    1.000
    N144     N        0.13120    0.20380    0.05700    1.000
    C145     C        0.09900    0.23860    0.08300    1.000
    N147     N        0.45360    0.01600    0.75120    1.000
    C148     C        0.43220    0.05110    0.81180    1.000
    H149     H        0.40470    0.08020    0.78850    1.000
    C150     C        0.45000    0.04550    0.91190    1.000
    H151     H        0.43370    0.07110    0.95420    1.000
    C152     C        0.49090    0.00320    0.94970    1.000
    C153     C        0.51080    0.96580    0.88000    1.000
    H154     H        0.53660    0.93570    0.90040    1.000
    C155     C        0.49200    0.97380    0.78270    1.000
    H156     H        0.50710    0.94920    0.73760    1.000
    C157     C        0.43140    0.02220    0.64260    1.000
    H158     H        0.41280    0.05590    0.63000    1.000
    H159     H        0.48830    0.01420    0.60500    1.000
    H160     H        0.37920    0.00050    0.62450    1.000
    Cd161    Cd       0.33208    0.87481    0.50233    1.000
    Cd162    Cd       0.96977    0.80749    0.36320    1.000
    Cd163    Cd       0.72078    0.92325    0.60911    1.000
    N164     N        0.18070    0.84900    0.45670    1.000
    C165     C        0.10980    0.83290    0.42540    1.000
    N166     N        0.39440    0.85660    0.34600    1.000
    C167     C        0.42150    0.84130    0.27630    1.000
    N168     N        0.48860    0.89730    0.55200    1.000
    C169     C        0.56800    0.90310    0.57320    1.000
    N170     N        0.27590    0.90200    0.65730    1.000
    C171     C        0.25610    0.91080    0.73420    1.000
    N172     N        0.87700    0.86670    0.46250    1.000
    C173     C        0.82620    0.88640    0.51110    1.000
    N174     N        0.29970    0.95520    0.44540    1.000
    C175     C        0.28760    0.99550    0.42380    1.000
    N176     N        0.36880    0.79620    0.55700    1.000
    C177     C        0.40100    0.76140    0.58300    1.000
    N179     N        0.04640    0.98400    0.25120    1.000
    C180     C        0.06780    0.94890    0.31180    1.000
    H181     H        0.09530    0.91980    0.28850    1.000
    C182     C        0.05000    0.95450    0.41190    1.000
    H183     H        0.06630    0.92890    0.45420    1.000
    C184     C        0.00910    0.99680    0.44970    1.000
    C185     C        0.98920    0.03420    0.38000    1.000
    H186     H        0.96340    0.06430    0.40040    1.000
    C187     C        0.00800    0.02620    0.28270    1.000
    H188     H        0.99290    0.05080    0.23760    1.000
    C189     C        0.06860    0.97780    0.14260    1.000
    H190     H        0.08720    0.94410    0.13000    1.000
    H191     H        0.01170    0.98580    0.10500    1.000
    H192     H        0.12080    0.99950    0.12450    1.000
    Cd193    Cd       0.83208    0.62519    0.49767    1.000
    Cd194    Cd       0.46977    0.69251    0.63680    1.000
    Cd195    Cd       0.22078    0.57675    0.39089    1.000
    N196     N        0.68070    0.65100    0.54330    1.000
    C197     C        0.60980    0.66710    0.57460    1.000
    N198     N        0.89440    0.64340    0.65400    1.000
    C199     C        0.92150    0.65870    0.72370    1.000
    N200     N        0.98860    0.60270    0.44800    1.000
    C201     C        0.06800    0.59690    0.42680    1.000
    N202     N        0.77590    0.59800    0.34270    1.000
    C203     C        0.75610    0.58920    0.26580    1.000
    N204     N        0.37700    0.63330    0.53750    1.000
    C205     C        0.32620    0.61360    0.48890    1.000
    N206     N        0.79970    0.54480    0.55460    1.000
    C207     C        0.78760    0.50450    0.57620    1.000
    N208     N        0.86880    0.70380    0.44300    1.000
    C209     C        0.90100    0.73860    0.41700    1.000
    N211     N        0.54640    0.51600    0.74880    1.000
    C212     C        0.56780    0.55110    0.68820    1.000
    H213     H        0.59530    0.58020    0.71150    1.000
    C214     C        0.55000    0.54550    0.58810    1.000
    H215     H        0.56630    0.57110    0.54580    1.000
    C216     C        0.50910    0.50320    0.55030    1.000
    C217     C        0.48920    0.46580    0.62000    1.000
    H218     H        0.46340    0.43570    0.59960    1.000
    C219     C        0.50800    0.47380    0.71730    1.000
    H220     H        0.49290    0.44920    0.76240    1.000
    C221     C        0.56860    0.52220    0.85740    1.000
    H222     H        0.58720    0.55590    0.87000    1.000
    H223     H        0.51170    0.51420    0.89500    1.000
    H224     H        0.62080    0.50050    0.87550    1.000
    Cd225    Cd       0.66792    0.37481    0.99767    1.000
    Cd226    Cd       0.03023    0.30749    0.13680    1.000
    Cd227    Cd       0.27922    0.42325    0.89089    1.000
    N228     N        0.81930    0.34900    0.04330    1.000
    C229     C        0.89020    0.33290    0.07460    1.000
    N230     N        0.60560    0.35660    0.15400    1.000
    C231     C        0.57850    0.34130    0.22370    1.000
    N232     N        0.51140    0.39730    0.94800    1.000
    C233     C        0.43200    0.40310    0.92680    1.000
    N234     N        0.72410    0.40200    0.84270    1.000
    C235     C        0.74390    0.41080    0.76580    1.000
    N236     N        0.12300    0.36670    0.03750    1.000
    C237     C        0.17380    0.38640    0.98890    1.000
    N238     N        0.70030    0.45520    0.05460    1.000
    C239     C        0.71240    0.49550    0.07620    1.000
    N240     N        0.63120    0.29620    0.94300    1.000
    C241     C        0.59900    0.26140    0.91700    1.000
    N243     N        0.95360    0.48400    0.24880    1.000
    C244     C        0.93220    0.44890    0.18820    1.000
    H245     H        0.90470    0.41980    0.21150    1.000
    C246     C        0.95000    0.45450    0.08810    1.000
    H247     H        0.93370    0.42890    0.04580    1.000
    C248     C        0.99090    0.49680    0.05030    1.000
    C249     C        0.01080    0.53420    0.12000    1.000
    H250     H        0.03660    0.56430    0.09960    1.000
    C251     C        0.99200    0.52620    0.21730    1.000
    H252     H        0.00710    0.55080    0.26240    1.000
    C253     C        0.93140    0.47780    0.35740    1.000
    H254     H        0.91280    0.44410    0.37000    1.000
    H255     H        0.98830    0.48580    0.39500    1.000
    H256     H        0.87920    0.49950    0.37550    1.000
