data_functionalizedCrystal
_audit_creation_method	'EQeq! by Chris Wilmer'
_symmetry_space_group_name_H-M	'P1'
_symmetry_Int_Tables_number	1
_symmetry_cell_setting	triclinic
loop_
_symmetry_equiv_pos_as_xyz
  x,y,z
_cell_length_a	19.6721
_cell_length_b	9.2201
_cell_length_c	9.7478
_cell_angle_alpha	90
_cell_angle_beta	95.6
_cell_angle_gamma	90
loop_
_atom_site_label
_atom_site_type_symbol
_atom_site_fract_x
_atom_site_fract_y
_atom_site_fract_z
_atom_site_charge
Mof_P 	P 	0.4205	0.1168	0.0771	1.749
Mof_P 	P 	0.4005	0.8318	0.7142	1.873
Mof_P 	P 	0.1617	0.8448	0.9858	1.716
Mof_P 	P 	0.0479	0.1536	0.2877	1.322
Mof_Al	Al	0.0563	0.0819	0.9913	5.853
Mof_Al	Al	0.5304	0.8722	0.2184	7.199
Mof_Al	Al	0.9196	0.3391	0.2651	7.159
Mof_Al	Al	0.3252	0.8699	0.9877	7.508
Mof_O 	O 	0.0783	0.1839	0.1497	-1.621
Mof_O 	O 	0.9703	0.1745	0.2687	-1.941
Mof_O 	O 	0.1307	0.9898	0.9356	-1.651
Mof_O 	O 	0.3515	0.8473	0.8246	-2.272
Mof_O 	O 	0.2382	0.8561	0.9744	-2.201
Mof_O 	O 	0.3611	0.7754	0.5831	-2.194
Mof_O 	O 	0.4762	0.0102	0.1288	-2.014
Mof_O 	O 	0.1328	0.72	0.8942	-1.785
Mof_O 	O 	0.4334	0.1818	0.9361	-2.019
Mof_O 	O 	0.4278	0.9821	0.6758	-1.897
Mof_O 	O 	0.065	0.9982	0.3412	-1.763
Mof_O 	O 	0.0293	0.9189	0.0861	-3.616
Mof_O 	O 	0.4126	0.2405	0.1807	-1.733
Mof_O 	O 	0.1531	0.816	0.1385	-1.936
Mof_O 	O 	0.3521	0.0358	0.0603	-2.165
Mof_O 	O 	0.456	0.7223	0.7657	-2.071
Mof_O 	O 	0.0817	0.2589	0.3936	-1.555
Mof_P 	P 	0.5795	0.6168	0.4229	1.739
Mof_P 	P 	0.5995	0.3318	0.7858	1.872
Mof_P 	P 	0.8383	0.3448	0.5142	1.737
Mof_P 	P 	0.9521	0.6536	0.2123	1.31
Mof_Al	Al	0.9437	0.5819	0.5087	6.247
Mof_Al	Al	0.4696	0.3722	0.2816	7.257
Mof_Al	Al	0.0804	0.8391	0.2349	7.147
Mof_Al	Al	0.6748	0.3699	0.5123	7.511
Mof_O 	O 	0.9217	0.6839	0.3503	-1.713
Mof_O 	O 	0.0297	0.6745	0.2313	-1.932
Mof_O 	O 	0.8693	0.4898	0.5644	-1.736
Mof_O 	O 	0.6485	0.3473	0.6754	-2.274
Mof_O 	O 	0.7618	0.3561	0.5256	-2.205
Mof_O 	O 	0.6389	0.2754	0.9169	-2.191
Mof_O 	O 	0.5238	0.5102	0.3712	-2.029
Mof_O 	O 	0.8672	0.22	0.6058	-1.785
Mof_O 	O 	0.5666	0.6818	0.5639	-2.016
Mof_O 	O 	0.5722	0.4821	0.8242	-1.906
Mof_O 	O 	0.935	0.4982	0.1588	-1.778
Mof_O 	O 	0.9707	0.4189	0.4139	-3.78
Mof_O 	O 	0.5874	0.7405	0.3193	-1.728
Mof_O 	O 	0.8469	0.316	0.3615	-1.95
Mof_O 	O 	0.6479	0.5358	0.4397	-2.175
Mof_O 	O 	0.544	0.2223	0.7343	-2.064
Mof_O 	O 	0.9183	0.7589	0.1064	-1.503
Mof_P 	P 	0.5795	0.8832	0.9229	1.749
Mof_P 	P 	0.5995	0.1682	0.2858	1.873
Mof_P 	P 	0.8383	0.1552	0.0142	1.716
Mof_P 	P 	0.9521	0.8464	0.7123	1.322
Mof_Al	Al	0.9437	0.9181	0.0087	5.853
Mof_Al	Al	0.4696	0.1278	0.7816	7.199
Mof_Al	Al	0.0804	0.6609	0.7349	7.159
Mof_Al	Al	0.6748	0.1301	0.0123	7.508
Mof_O 	O 	0.9217	0.8161	0.8503	-1.621
Mof_O 	O 	0.0297	0.8255	0.7313	-1.941
Mof_O 	O 	0.8693	0.0102	0.0644	-1.651
Mof_O 	O 	0.6485	0.1527	0.1754	-2.272
Mof_O 	O 	0.7618	0.1439	0.0256	-2.201
Mof_O 	O 	0.6389	0.2246	0.4169	-2.194
Mof_O 	O 	0.5238	0.9898	0.8712	-2.014
Mof_O 	O 	0.8672	0.28	0.1058	-1.785
Mof_O 	O 	0.5666	0.8182	0.0639	-2.019
Mof_O 	O 	0.5722	0.0179	0.3242	-1.897
Mof_O 	O 	0.935	0.0018	0.6588	-1.763
Mof_O 	O 	0.9707	0.0811	0.9139	-3.616
Mof_O 	O 	0.5874	0.7595	0.8193	-1.733
Mof_O 	O 	0.8469	0.184	0.8615	-1.936
Mof_O 	O 	0.6479	0.9642	0.9397	-2.165
Mof_O 	O 	0.544	0.2777	0.2343	-2.071
Mof_O 	O 	0.9183	0.7411	0.6064	-1.555
Mof_P 	P 	0.4205	0.3832	0.5771	1.739
Mof_P 	P 	0.4005	0.6682	0.2142	1.872
Mof_P 	P 	0.1617	0.6552	0.4858	1.737
Mof_P 	P 	0.0479	0.3464	0.7877	1.31
Mof_Al	Al	0.0563	0.4181	0.4913	6.247
Mof_Al	Al	0.5304	0.6278	0.7184	7.257
Mof_Al	Al	0.9196	0.1609	0.7651	7.147
Mof_Al	Al	0.3252	0.6301	0.4877	7.511
Mof_O 	O 	0.0783	0.3161	0.6497	-1.713
Mof_O 	O 	0.9703	0.3255	0.7687	-1.932
Mof_O 	O 	0.1307	0.5102	0.4356	-1.736
Mof_O 	O 	0.3515	0.6527	0.3246	-2.274
Mof_O 	O 	0.2382	0.6439	0.4744	-2.205
Mof_O 	O 	0.3611	0.7246	0.0831	-2.191
Mof_O 	O 	0.4762	0.4898	0.6288	-2.029
Mof_O 	O 	0.1328	0.78	0.3942	-1.785
Mof_O 	O 	0.4334	0.3182	0.4361	-2.016
Mof_O 	O 	0.4278	0.5179	0.1758	-1.906
Mof_O 	O 	0.065	0.5018	0.8412	-1.778
Mof_O 	O 	0.0293	0.5811	0.5861	-3.78
Mof_O 	O 	0.4126	0.2595	0.6807	-1.728
Mof_O 	O 	0.1531	0.684	0.6385	-1.95
Mof_O 	O 	0.3521	0.4642	0.5603	-2.175
Mof_O 	O 	0.456	0.7777	0.2657	-2.064
Mof_O 	O 	0.0817	0.2411	0.8936	-1.503
_end
