# CIF file generated by openbabel 3.1.0, see https://openbabel.org
data_I
_chemical_name_common 'image0'
_cell_length_a 9.9096
_cell_length_b 15.678
_cell_length_c 13.8022
_cell_angle_alpha 90
_cell_angle_beta 90
_cell_angle_gamma 90
_space_group_name_H-M_alt 'P 1'
_space_group_name_Hall 'P 1'
loop_
    _symmetry_equiv_pos_as_xyz
    x,y,z
loop_
    _atom_site_label
    _atom_site_type_symbol
    _atom_site_fract_x
    _atom_site_fract_y
    _atom_site_fract_z
    _atom_site_occupancy
    Zn1      Zn       0.04004    0.58253    0.60735    1.000
    P1       P        0.23491    0.61362    0.78443    1.000
    H1       H        0.27400    0.53300    0.77290    1.000
    P2       P        0.97169    0.38334    0.61392    1.000
    H2       H        0.87000    0.39590    0.68400    1.000
    O1       O        0.35740    0.66430    0.80520    1.000
    O2       O        0.16500    0.64020    0.69220    1.000
    O3       O        0.14670    0.61670    0.87370    1.000
    O4       O        0.05110    0.30390    0.64370    1.000
    O5       O        0.90200    0.37080    0.51710    1.000
    O6       O        0.06130    0.46040    0.61620    1.000
    Zn2      Zn       0.45996    0.91747    0.10735    1.000
    P3       P        0.26509    0.88638    0.28443    1.000
    H3       H        0.22600    0.96700    0.27290    1.000
    P4       P        0.52831    0.11666    0.11392    1.000
    H4       H        0.63000    0.10410    0.18400    1.000
    O7       O        0.14260    0.83570    0.30520    1.000
    O8       O        0.33500    0.85980    0.19220    1.000
    O9       O        0.35330    0.88330    0.37370    1.000
    O10      O        0.44890    0.19610    0.14370    1.000
    O11      O        0.59800    0.12920    0.01710    1.000
    O12      O        0.43870    0.03960    0.11620    1.000
    Zn3      Zn       0.95996    0.58253    0.89265    1.000
    P5       P        0.76509    0.61362    0.71557    1.000
    H5       H        0.72600    0.53300    0.72710    1.000
    P6       P        0.02831    0.38334    0.88608    1.000
    H6       H        0.13000    0.39590    0.81600    1.000
    O13      O        0.64260    0.66430    0.69480    1.000
    O14      O        0.83500    0.64020    0.80780    1.000
    O15      O        0.85330    0.61670    0.62630    1.000
    O16      O        0.94890    0.30390    0.85630    1.000
    O17      O        0.09800    0.37080    0.98290    1.000
    O18      O        0.93870    0.46040    0.88380    1.000
    Zn4      Zn       0.54004    0.91747    0.39265    1.000
    P7       P        0.73491    0.88638    0.21557    1.000
    H7       H        0.77400    0.96700    0.22710    1.000
    P8       P        0.47169    0.11666    0.38608    1.000
    H8       H        0.37000    0.10410    0.31600    1.000
    O19      O        0.85740    0.83570    0.19480    1.000
    O20      O        0.66500    0.85980    0.30780    1.000
    O21      O        0.64670    0.88330    0.12630    1.000
    O22      O        0.55110    0.19610    0.35630    1.000
    O23      O        0.40200    0.12920    0.48290    1.000
    O24      O        0.56130    0.03960    0.38380    1.000
    Zn5      Zn       0.95996    0.41747    0.39265    1.000
    P9       P        0.76509    0.38638    0.21557    1.000
    H9       H        0.72600    0.46700    0.22710    1.000
    P10      P        0.02831    0.61666    0.38608    1.000
    H10      H        0.13000    0.60410    0.31600    1.000
    O25      O        0.64260    0.33570    0.19480    1.000
    O26      O        0.83500    0.35980    0.30780    1.000
    O27      O        0.85330    0.38330    0.12630    1.000
    O28      O        0.94890    0.69610    0.35630    1.000
    O29      O        0.09800    0.62920    0.48290    1.000
    O30      O        0.93870    0.53960    0.38380    1.000
    Zn6      Zn       0.54004    0.08253    0.89265    1.000
    P11      P        0.73491    0.11362    0.71557    1.000
    H11      H        0.77400    0.03300    0.72710    1.000
    P12      P        0.47169    0.88334    0.88608    1.000
    H12      H        0.37000    0.89590    0.81600    1.000
    O31      O        0.85740    0.16430    0.69480    1.000
    O32      O        0.66500    0.14020    0.80780    1.000
    O33      O        0.64670    0.11670    0.62630    1.000
    O34      O        0.55110    0.80390    0.85630    1.000
    O35      O        0.40200    0.87080    0.98290    1.000
    O36      O        0.56130    0.96040    0.88380    1.000
    Zn7      Zn       0.04004    0.41747    0.10735    1.000
    P13      P        0.23491    0.38638    0.28443    1.000
    H13      H        0.27400    0.46700    0.27290    1.000
    P14      P        0.97169    0.61666    0.11392    1.000
    H14      H        0.87000    0.60410    0.18400    1.000
    O37      O        0.35740    0.33570    0.30520    1.000
    O38      O        0.16500    0.35980    0.19220    1.000
    O39      O        0.14670    0.38330    0.37370    1.000
    O40      O        0.05110    0.69610    0.14370    1.000
    O41      O        0.90200    0.62920    0.01710    1.000
    O42      O        0.06130    0.53960    0.11620    1.000
    Zn8      Zn       0.45996    0.08253    0.60735    1.000
    P15      P        0.26509    0.11362    0.78443    1.000
    H15      H        0.22600    0.03300    0.77290    1.000
    P16      P        0.52831    0.88334    0.61392    1.000
    H16      H        0.63000    0.89590    0.68400    1.000
    O43      O        0.14260    0.16430    0.80520    1.000
    O44      O        0.33500    0.14020    0.69220    1.000
    O45      O        0.35330    0.11670    0.87370    1.000
    O46      O        0.44890    0.80390    0.64370    1.000
    O47      O        0.59800    0.87080    0.51710    1.000
    O48      O        0.43870    0.96040    0.61620    1.000
    Zn9      Zn       0.00000    0.22788    0.75000    1.000
    Zn10     Zn       0.50000    0.27212    0.25000    1.000
    Zn11     Zn       0.00000    0.77212    0.25000    1.000
    Zn12     Zn       0.50000    0.72788    0.75000    1.000
