data_functionalizedCrystal
_audit_creation_method	'EQeq! by Chris Wilmer'
_symmetry_space_group_name_H-M	'P1'
_symmetry_Int_Tables_number	1
_symmetry_cell_setting	triclinic
loop_
_symmetry_equiv_pos_as_xyz
  x,y,z
_cell_length_a	10.7535
_cell_length_b	12.5101
_cell_length_c	12.5101
_cell_angle_alpha	91.9626
_cell_angle_beta	113.771
_cell_angle_gamma	113.771
loop_
_atom_site_label
_atom_site_type_symbol
_atom_site_fract_x
_atom_site_fract_y
_atom_site_fract_z
_atom_site_charge
Mof_Tb	Tb	0.5	0.79092	0.20908	2.174
Mof_Tb	Tb	0.5	0.20908	0.79092	2.174
Mof_Zn	Zn	0.5	0	-0	1.148
Mof_Zn	Zn	0.5	0.5	-0	1.18
Mof_Zn	Zn	0.5	0	0.5	1.18
Mof_H 	H 	0.39	0.1398	0.2592	0.155
Mof_H 	H 	0.9559	0.5824	0.0594	0.048
Mof_H 	H 	0.2447	0.219	0.0164	0.159
Mof_H 	H 	0.0441	0.4176	0.9406	0.176
Mof_H 	H 	0.0441	0.9406	0.4176	0.176
Mof_H 	H 	0.7553	0.9836	0.781	0.167
Mof_H 	H 	0.7824	0.7676	0.6	0.132
Mof_H 	H 	0.9947	0.7137	0.1117	0.07
Mof_H 	H 	0.7824	0.6	0.7676	0.132
Mof_H 	H 	0.61	0.7408	0.8602	0.12
Mof_H 	H 	0.2176	0.2324	0.4	0.144
Mof_H 	H 	0.2176	0.4	0.2324	0.144
Mof_H 	H 	0.9559	0.0594	0.5824	0.048
Mof_H 	H 	0.1444	0.1655	0.4791	0.135
Mof_H 	H 	0.61	0.8602	0.7408	0.12
Mof_H 	H 	0.0053	0.8883	0.2863	0.163
Mof_H 	H 	0.1444	0.4791	0.1655	0.135
Mof_H 	H 	0.0053	0.2863	0.8883	0.163
Mof_H 	H 	0.9947	0.1117	0.7137	0.07
Mof_H 	H 	0.7553	0.781	0.9836	0.167
Mof_H 	H 	0.8556	0.8345	0.5209	0.136
Mof_H 	H 	0.39	0.2592	0.1398	0.155
Mof_H 	H 	0.8556	0.5209	0.8345	0.136
Mof_H 	H 	0.2447	0.0164	0.219	0.159
Mof_C 	C 	0.6708	0.9376	0.7978	-0.271
Mof_C 	C 	0.815	0.8428	0.5756	-0.308
Mof_C 	C 	0.3237	0.4916	0.1362	0.501
Mof_C 	C 	0.9924	0.3341	0.9419	-0.306
Mof_C 	C 	0.3237	0.1362	0.4916	0.501
Mof_C 	C 	0.8233	0.8949	0.2971	0.395
Mof_C 	C 	0.815	0.5756	0.8428	-0.308
Mof_C 	C 	0.9852	0.9174	0.792	0.226
Mof_C 	C 	0.185	0.1572	0.4244	-0.346
Mof_C 	C 	0.0148	0.208	0.0826	0.087
Mof_C 	C 	0.1767	0.7029	0.1051	0.353
Mof_C 	C 	0.0076	0.6659	0.0581	-0.192
Mof_C 	C 	0.5737	0.7763	0.0019	0.401
Mof_C 	C 	0.0148	0.0826	0.208	0.087
Mof_C 	C 	0.9852	0.792	0.9174	0.226
Mof_C 	C 	0.1767	0.1051	0.7029	0.353
Mof_C 	C 	0.8508	0.0103	0.0103	-0.167
Mof_C 	C 	0.6763	0.5084	0.8638	0.494
Mof_C 	C 	0.4263	0.2237	0.9981	0.586
Mof_C 	C 	0.185	0.4244	0.1572	-0.346
Mof_C 	C 	0.1492	0.9897	0.9897	0.41
Mof_C 	C 	0.4263	0.9981	0.2237	0.586
Mof_C 	C 	0.6763	0.8638	0.5084	0.494
Mof_C 	C 	0.0076	0.0581	0.6659	-0.192
Mof_C 	C 	0.3292	0.2022	0.0624	-0.487
Mof_C 	C 	0.3292	0.0624	0.2022	-0.487
Mof_C 	C 	0.8233	0.2971	0.8949	0.395
Mof_C 	C 	0.6708	0.7978	0.9376	-0.271
Mof_C 	C 	0.5737	0.0019	0.7763	0.401
Mof_C 	C 	0.9924	0.9419	0.3341	-0.306
Mof_N 	N 	0.0647	0.06318	0.31982	-0.058
Mof_N 	N 	0.9353	0.68018	0.93682	-0.044
Mof_N 	N 	0.7324	0.9182	0.9182	0.058
Mof_N 	N 	0.9234	0.804	0.804	-0.183
Mof_N 	N 	0.0969	0.88084	0.01376	-0.239
Mof_N 	N 	0.2676	0.0818	0.0818	-0.12
Mof_N 	N 	0.0969	0.01376	0.88084	-0.239
Mof_N 	N 	0.9031	0.11916	0.98624	-0.051
Mof_N 	N 	0.0766	0.196	0.196	-0.14
Mof_N 	N 	0.0647	0.31982	0.06318	-0.058
Mof_N 	N 	0.9031	0.98624	0.11916	-0.051
Mof_N 	N 	0.9353	0.93682	0.68018	-0.044
Mof_O 	O 	0.3301	0.44437	0.05003	-0.54
Mof_O 	O 	0.5137	0.02111	0.67489	-0.561
Mof_O 	O 	0.5779	0.79059	0.40921	-0.546
Mof_O 	O 	0.5779	0.40921	0.79059	-0.546
Mof_O 	O 	0.4413	0.13827	0.95629	-0.628
Mof_O 	O 	0.7413	0.78323	0.26337	-0.474
Mof_O 	O 	0.5587	0.86173	0.04371	-0.593
Mof_O 	O 	0.5137	0.67489	0.02111	-0.561
Mof_O 	O 	0.6699	0.94997	0.55563	-0.461
Mof_O 	O 	0.2587	0.73663	0.21677	-0.445
Mof_O 	O 	0.4413	0.95629	0.13827	-0.628
Mof_O 	O 	0.2328	0.03509	0.69589	-0.445
Mof_O 	O 	0.4863	0.32511	0.97889	-0.545
Mof_O 	O 	0.4221	0.59079	0.20941	-0.559
Mof_O 	O 	0.5587	0.04371	0.86173	-0.593
Mof_O 	O 	0.3301	0.05003	0.44437	-0.54
Mof_O 	O 	0.4221	0.20941	0.59079	-0.559
Mof_O 	O 	0.7672	0.96491	0.30411	-0.406
Mof_O 	O 	0.2328	0.69589	0.03509	-0.445
Mof_O 	O 	0.7413	0.26337	0.78323	-0.474
Mof_O 	O 	0.6699	0.55563	0.94997	-0.461
Mof_O 	O 	0.4863	0.97889	0.32511	-0.545
Mof_O 	O 	0.2587	0.21677	0.73663	-0.445
Mof_O 	O 	0.7672	0.30411	0.96491	-0.406
_end
