# CIF file generated by openbabel 3.1.0, see https://openbabel.org
data_I
_chemical_name_common 'FARYAA_clean'
_cell_length_a 13.3399
_cell_length_b 13.3399
_cell_length_c 20.7773
_cell_angle_alpha 90
_cell_angle_beta 90
_cell_angle_gamma 108.342
_space_group_name_H-M_alt 'P 1'
_space_group_name_Hall 'P 1'
loop_
    _symmetry_equiv_pos_as_xyz
    x,y,z
loop_
    _atom_site_label
    _atom_site_type_symbol
    _atom_site_fract_x
    _atom_site_fract_y
    _atom_site_fract_z
    _atom_site_occupancy
    K1       K        0.12690    0.12690    0.00000    1.000
    K2       K        0.87310    0.87310    0.50000    1.000
    K3       K        0.87310    0.87310    0.00000    1.000
    K4       K        0.12690    0.12690    0.50000    1.000
    Nd1      Nd       0.62875    0.88165    0.25000    1.000
    Nd2      Nd       0.37125    0.11835    0.75000    1.000
    Nd3      Nd       0.11835    0.37125    0.25000    1.000
    Nd4      Nd       0.88165    0.62875    0.75000    1.000
    Re1      Re       0.25655    0.55989    0.95025    1.000
    Re2      Re       0.74345    0.44011    0.45025    1.000
    Re3      Re       0.44011    0.74345    0.54975    1.000
    Re4      Re       0.55989    0.25655    0.04975    1.000
    Re5      Re       0.74345    0.44011    0.04975    1.000
    Re6      Re       0.25655    0.55989    0.54975    1.000
    Re7      Re       0.55989    0.25655    0.45025    1.000
    Re8      Re       0.44011    0.74345    0.95025    1.000
    Re9      Re       0.29750    0.70250    0.05770    1.000
    Re10     Re       0.23464    0.76536    0.93386    1.000
    Re11     Re       0.70250    0.29750    0.55770    1.000
    Re12     Re       0.76536    0.23464    0.43386    1.000
    Re13     Re       0.29750    0.70250    0.44230    1.000
    Re14     Re       0.23464    0.76536    0.56614    1.000
    Re15     Re       0.70250    0.29750    0.94230    1.000
    Re16     Re       0.76536    0.23464    0.06614    1.000
    Te1      Te       0.10832    0.62054    0.00806    1.000
    Te2      Te       0.89168    0.37946    0.50806    1.000
    Te3      Te       0.37946    0.89168    0.49194    1.000
    Te4      Te       0.62054    0.10832    0.99194    1.000
    Te5      Te       0.89168    0.37946    0.99194    1.000
    Te6      Te       0.10832    0.62054    0.49194    1.000
    Te7      Te       0.62054    0.10832    0.50806    1.000
    Te8      Te       0.37946    0.89168    0.00806    1.000
    Te9      Te       0.32326    0.67674    0.84744    1.000
    Te10     Te       0.41624    0.58376    0.03031    1.000
    Te11     Te       0.67674    0.32326    0.34744    1.000
    Te12     Te       0.58376    0.41624    0.53031    1.000
    Te13     Te       0.32326    0.67674    0.65256    1.000
    Te14     Te       0.41624    0.58376    0.46969    1.000
    Te15     Te       0.67674    0.32326    0.15256    1.000
    Te16     Te       0.58376    0.41624    0.96969    1.000
    C1       C        0.41520    0.76380    0.12840    1.000
    C2       C        0.13110    0.47870    0.88950    1.000
    C3       C        0.32550    0.45790    0.90250    1.000
    C4       C        0.18690    0.41970    0.00190    1.000
    C5       C        0.28400    0.89340    0.86910    1.000
    C6       C        0.58480    0.23620    0.62840    1.000
    C7       C        0.86890    0.52130    0.38950    1.000
    C8       C        0.67450    0.54210    0.40250    1.000
    C9       C        0.81310    0.58030    0.50190    1.000
    C10      C        0.71600    0.10660    0.36910    1.000
    C11      C        0.23620    0.58480    0.37160    1.000
    C12      C        0.52130    0.86890    0.61050    1.000
    C13      C        0.54210    0.67450    0.59750    1.000
    C14      C        0.58030    0.81310    0.49810    1.000
    C15      C        0.10660    0.71600    0.63090    1.000
    C16      C        0.76380    0.41520    0.87160    1.000
    C17      C        0.47870    0.13110    0.11050    1.000
    C18      C        0.45790    0.32550    0.09750    1.000
    C19      C        0.41970    0.18690    0.99810    1.000
    C20      C        0.89340    0.28400    0.13090    1.000
    C21      C        0.58480    0.23620    0.87160    1.000
    C22      C        0.86890    0.52130    0.11050    1.000
    C23      C        0.67450    0.54210    0.09750    1.000
    C24      C        0.81310    0.58030    0.99810    1.000
    C25      C        0.71600    0.10660    0.13090    1.000
    C26      C        0.41520    0.76380    0.37160    1.000
    C27      C        0.13110    0.47870    0.61050    1.000
    C28      C        0.32550    0.45790    0.59750    1.000
    C29      C        0.18690    0.41970    0.49810    1.000
    C30      C        0.28400    0.89340    0.63090    1.000
    C31      C        0.76380    0.41520    0.62840    1.000
    C32      C        0.47870    0.13110    0.38950    1.000
    C33      C        0.45790    0.32550    0.40250    1.000
    C34      C        0.41970    0.18690    0.50190    1.000
    C35      C        0.89340    0.28400    0.36910    1.000
    C36      C        0.23620    0.58480    0.12840    1.000
    C37      C        0.52130    0.86890    0.88950    1.000
    C38      C        0.54210    0.67450    0.90250    1.000
    C39      C        0.58030    0.81310    0.00190    1.000
    C40      C        0.10660    0.71600    0.86910    1.000
    C41      C        0.21830    0.78170    0.11620    1.000
    C42      C        0.14280    0.85720    0.96920    1.000
    C43      C        0.78170    0.21830    0.61620    1.000
    C44      C        0.85720    0.14280    0.46920    1.000
    C45      C        0.21830    0.78170    0.38380    1.000
    C46      C        0.14280    0.85720    0.53080    1.000
    C47      C        0.78170    0.21830    0.88380    1.000
    C48      C        0.85720    0.14280    0.03080    1.000
    N1       N        0.48060    0.79780    0.16570    1.000
    N2       N        0.06340    0.43140    0.85790    1.000
    N3       N        0.36270    0.40430    0.87530    1.000
    N4       N        0.14580    0.34100    0.02640    1.000
    N5       N        0.31150    0.96350    0.83430    1.000
    N6       N        0.51940    0.20220    0.66570    1.000
    N7       N        0.93660    0.56860    0.35790    1.000
    N8       N        0.63730    0.59570    0.37530    1.000
    N9       N        0.85420    0.65900    0.52640    1.000
    N10      N        0.68850    0.03650    0.33430    1.000
    N11      N        0.20220    0.51940    0.33430    1.000
    N12      N        0.56860    0.93660    0.64210    1.000
    N13      N        0.59570    0.63730    0.62470    1.000
    N14      N        0.65900    0.85420    0.47360    1.000
    N15      N        0.03650    0.68850    0.66570    1.000
    N16      N        0.79780    0.48060    0.83430    1.000
    N17      N        0.43140    0.06340    0.14210    1.000
    N18      N        0.40430    0.36270    0.12470    1.000
    N19      N        0.34100    0.14580    0.97360    1.000
    N20      N        0.96350    0.31150    0.16570    1.000
    N21      N        0.51940    0.20220    0.83430    1.000
    N22      N        0.93660    0.56860    0.14210    1.000
    N23      N        0.63730    0.59570    0.12470    1.000
    N24      N        0.85420    0.65900    0.97360    1.000
    N25      N        0.68850    0.03650    0.16570    1.000
    N26      N        0.48060    0.79780    0.33430    1.000
    N27      N        0.06340    0.43140    0.64210    1.000
    N28      N        0.36270    0.40430    0.62470    1.000
    N29      N        0.14580    0.34100    0.47360    1.000
    N30      N        0.31150    0.96350    0.66570    1.000
    N31      N        0.79780    0.48060    0.66570    1.000
    N32      N        0.43140    0.06340    0.35790    1.000
    N33      N        0.40430    0.36270    0.37530    1.000
    N34      N        0.34100    0.14580    0.52640    1.000
    N35      N        0.96350    0.31150    0.33430    1.000
    N36      N        0.20220    0.51940    0.16570    1.000
    N37      N        0.56860    0.93660    0.85790    1.000
    N38      N        0.59570    0.63730    0.87530    1.000
    N39      N        0.65900    0.85420    0.02640    1.000
    N40      N        0.03650    0.68850    0.83430    1.000
    N41      N        0.17610    0.82390    0.14850    1.000
    N42      N        0.09280    0.90720    0.98420    1.000
    N43      N        0.82390    0.17610    0.64850    1.000
    N44      N        0.90720    0.09280    0.48420    1.000
    N45      N        0.17610    0.82390    0.35150    1.000
    N46      N        0.09280    0.90720    0.51580    1.000
    N47      N        0.82390    0.17610    0.85150    1.000
    N48      N        0.90720    0.09280    0.01580    1.000
