data_functionalizedCrystal
_audit_creation_method	'EQeq! by Chris Wilmer'
_symmetry_space_group_name_H-M	'P1'
_symmetry_Int_Tables_number	1
_symmetry_cell_setting	triclinic
loop_
_symmetry_equiv_pos_as_xyz
  x,y,z
_cell_length_a	6.685
_cell_length_b	9.905
_cell_length_c	20.666
_cell_angle_alpha	90
_cell_angle_beta	91.91
_cell_angle_gamma	90
loop_
_atom_site_label
_atom_site_type_symbol
_atom_site_fract_x
_atom_site_fract_y
_atom_site_fract_z
_atom_site_charge
Mof_Cu	Cu	0.32665	0.29581	0.72117	0.896
Mof_Cu	Cu	0.67335	0.79581	0.77883	0.9
Mof_Cu	Cu	0.67335	0.70419	0.27883	0.897
Mof_Cu	Cu	0.32665	0.20419	0.22117	0.893
Mof_Cu	Cu	-0	0	-0	0.824
Mof_Cu	Cu	5.9886e-33	0.5	0.5	0.858
Mof_H 	H 	0.8957	0.0549	0.7365	0.134
Mof_H 	H 	0.988	0.2283	0.9462	0.186
Mof_H 	H 	0.1855	0.1709	0.9345	0.12
Mof_H 	H 	0.4256	0.7568	0.6575	0.142
Mof_H 	H 	0.0952	0.1667	0.6447	0.097
Mof_H 	H 	0.2728	0.2013	0.6086	0.114
Mof_H 	H 	0.1043	0.5549	0.7635	0.11
Mof_H 	H 	0.012	0.7283	0.5538	0.093
Mof_H 	H 	0.8145	0.6709	0.5655	0.115
Mof_H 	H 	0.5744	0.2568	0.8425	0.136
Mof_H 	H 	0.9048	0.6667	0.8553	0.137
Mof_H 	H 	0.7272	0.7013	0.8914	0.134
Mof_H 	H 	0.1043	0.9451	0.2635	0.114
Mof_H 	H 	0.012	0.7717	0.0538	0.084
Mof_H 	H 	0.8145	0.8291	0.0655	0.11
Mof_H 	H 	0.5744	0.2432	0.3425	0.136
Mof_H 	H 	0.9048	0.8333	0.3553	0.138
Mof_H 	H 	0.7272	0.7987	0.3914	0.13
Mof_H 	H 	0.8957	0.4451	0.2365	0.139
Mof_H 	H 	0.988	0.2717	0.4462	0.177
Mof_H 	H 	0.1855	0.3291	0.4345	0.113
Mof_H 	H 	0.4256	0.7432	0.1575	0.144
Mof_H 	H 	0.0952	0.3333	0.1447	0.098
Mof_H 	H 	0.2728	0.2987	0.1086	0.111
Mof_C 	C 	0.886	0.9774	0.8756	0.283
Mof_C 	C 	0.998	0.149	0.8138	0.348
Mof_C 	C 	0.4314	0.0312	0.7176	0.221
Mof_C 	C 	0.3014	0.9241	0.628	0.316
Mof_C 	C 	0.114	0.4774	0.6244	0.241
Mof_C 	C 	0.002	0.649	0.6862	0.222
Mof_C 	C 	0.5686	0.5312	0.7824	0.263
Mof_C 	C 	0.6986	0.4241	0.872	0.289
Mof_C 	C 	0.114	0.0226	0.1244	0.207
Mof_C 	C 	0.002	0.851	0.1862	0.225
Mof_C 	C 	0.5686	0.9688	0.2824	0.298
Mof_C 	C 	0.6986	0.0759	0.372	0.256
Mof_C 	C 	0.886	0.5226	0.3756	0.249
Mof_C 	C 	0.998	0.351	0.3138	0.353
Mof_C 	C 	0.4314	0.4688	0.2176	0.254
Mof_C 	C 	0.3014	0.5759	0.128	0.284
Mof_N 	N 	0.907	0.0522	0.7781	-0.233
Mof_N 	N 	0.8324	0.9464	0.8152	-0.205
Mof_N 	N 	0.9806	0.1	0.8761	-0.178
Mof_N 	N 	0.0539	0.1526	0.9357	-0.348
Mof_N 	N 	0.4099	0.841	0.6659	-0.214
Mof_N 	N 	0.4961	0.9042	0.7211	-0.191
Mof_N 	N 	0.3132	0.0443	0.6619	-0.188
Mof_N 	N 	0.2297	0.1712	0.6468	-0.286
Mof_N 	N 	0.093	0.5522	0.7219	-0.198
Mof_N 	N 	0.1676	0.4464	0.6848	-0.222
Mof_N 	N 	0.0194	0.6	0.6239	-0.183
Mof_N 	N 	0.9461	0.6526	0.5643	-0.241
Mof_N 	N 	0.5901	0.341	0.8341	-0.209
Mof_N 	N 	0.5039	0.4042	0.7789	-0.212
Mof_N 	N 	0.6868	0.5443	0.8381	-0.165
Mof_N 	N 	0.7703	0.6712	0.8532	-0.296
Mof_N 	N 	0.093	0.9478	0.2219	-0.184
Mof_N 	N 	0.1676	0.0536	0.1848	-0.234
Mof_N 	N 	0.0194	0.9	0.1239	-0.165
Mof_N 	N 	0.9461	0.8474	0.0643	-0.233
Mof_N 	N 	0.5901	0.159	0.3341	-0.209
Mof_N 	N 	0.5039	0.0958	0.2789	-0.235
Mof_N 	N 	0.6868	0.9557	0.3381	-0.151
Mof_N 	N 	0.7703	0.8288	0.3532	-0.296
Mof_N 	N 	0.907	0.4478	0.2781	-0.22
Mof_N 	N 	0.8324	0.5536	0.3152	-0.217
Mof_N 	N 	0.9806	0.4	0.3761	-0.162
Mof_N 	N 	0.0539	0.3474	0.4357	-0.351
Mof_N 	N 	0.4099	0.659	0.1659	-0.214
Mof_N 	N 	0.4961	0.5958	0.2211	-0.214
Mof_N 	N 	0.3132	0.4557	0.1619	-0.175
Mof_N 	N 	0.2297	0.3288	0.1468	-0.286
Mof_O 	O 	0.859	0.9104	0.92676	-0.37
Mof_O 	O 	0.0776	0.2558	0.79733	-0.38
Mof_O 	O 	0.4644	0.1307	0.75395	-0.377
Mof_O 	O 	0.2121	0.9032	0.57611	-0.264
Mof_O 	O 	0.141	0.4104	0.57324	-0.422
Mof_O 	O 	0.9224	0.7558	0.70267	-0.266
Mof_O 	O 	0.5356	0.6307	0.74605	-0.375
Mof_O 	O 	0.7879	0.4032	0.92389	-0.239
Mof_O 	O 	0.141	0.0896	0.07324	-0.432
Mof_O 	O 	0.9224	0.7442	0.20267	-0.272
Mof_O 	O 	0.5356	0.8693	0.24605	-0.379
Mof_O 	O 	0.7879	0.0968	0.42389	-0.255
Mof_O 	O 	0.859	0.5896	0.42676	-0.394
Mof_O 	O 	0.0776	0.2442	0.29733	-0.389
Mof_O 	O 	0.4644	0.3693	0.25395	-0.381
Mof_O 	O 	0.2121	0.5968	0.07611	-0.279
_end
