data_functionalizedCrystal
_audit_creation_method	'EQeq! by Chris Wilmer'
_symmetry_space_group_name_H-M	'P1'
_symmetry_Int_Tables_number	1
_symmetry_cell_setting	triclinic
loop_
_symmetry_equiv_pos_as_xyz
  x,y,z
_cell_length_a	19.86
_cell_length_b	22.14
_cell_length_c	11.6844
_cell_angle_alpha	90
_cell_angle_beta	116.318
_cell_angle_gamma	90
loop_
_atom_site_label
_atom_site_type_symbol
_atom_site_fract_x
_atom_site_fract_y
_atom_site_fract_z
_atom_site_charge
Mof_Co	Co	0.31289	0.12295	0.61349	1.162
Mof_N 	N 	0.90633	0.31967	0.687	-0.243
Mof_N 	N 	0.1407	0.20892	0.9705	-0.12
Mof_N 	N 	0.2816	0.14144	0.4228	-0.252
Mof_O 	O 	0.31314	0.12376	0.8024	-0.359
Mof_O 	O 	0.23248	0.17575	0.6404	-0.381
Mof_O 	O 	0.23641	0.05012	0.5629	-0.342
Mof_O 	O 	0.38474	0.05017	0.6393	-0.361
Mof_C 	C 	0.9185	0.2741	0.6235	0.086
Mof_H 	H 	0.8807	0.2642	0.5434	-0.005
Mof_C 	C 	0.9838	0.2411	0.6699	-0.148
Mof_H 	H 	0.9901	0.2107	0.6206	0.086
Mof_C 	C 	0.04	0.2534	0.79	0.075
Mof_C 	C 	0.0273	0.2997	0.8596	-0.142
Mof_H 	H 	0.0633	0.3091	0.9416	0.094
Mof_C 	C 	0.9605	0.3311	0.8045	0.084
Mof_H 	H 	0.9527	0.3619	0.8514	0.004
Mof_C 	C 	0.1118	0.2201	0.8453	0.053
Mof_C 	C 	0.1472	0.2036	0.771	-0.076
Mof_H 	H 	0.1256	0.2123	0.6841	0.072
Mof_C 	C 	0.2155	0.17393	0.8292	-0.013
Mof_C 	C 	0.2448	0.16011	0.9574	-0.071
Mof_H 	H 	0.2897	0.1389	0.9975	0.07
Mof_C 	C 	0.206	0.1785	0.0256	0.05
Mof_C 	C 	0.3254	0.1304	0.365	0.093
Mof_H 	H 	0.3731	0.1145	0.4134	-0.009
Mof_C 	C 	0.3034	0.1413	0.2378	-0.154
Mof_H 	H 	0.3357	0.1327	0.2019	0.089
Mof_C 	C 	0.2331	0.16513	0.163	0.088
Mof_C 	C 	0.1887	0.177	0.2233	-0.153
Mof_H 	H 	0.141	0.1934	0.1776	0.098
Mof_C 	C 	0.2148	0.1646	0.3509	0.1
Mof_H 	H 	0.1835	0.173	0.389	-0.008
Mof_C 	C 	0.2565	0.15689	0.7528	0.287
Mof_Co	Co	0.81289	0.62295	0.61349	1.163
Mof_N 	N 	0.40633	0.81967	0.687	-0.242
Mof_N 	N 	0.6407	0.70892	0.9705	-0.12
Mof_N 	N 	0.7816	0.64144	0.4228	-0.252
Mof_O 	O 	0.81314	0.62376	0.8024	-0.356
Mof_O 	O 	0.73248	0.67575	0.6404	-0.38
Mof_O 	O 	0.73641	0.55012	0.5629	-0.344
Mof_O 	O 	0.88474	0.55017	0.6393	-0.363
Mof_C 	C 	0.4185	0.7741	0.6235	0.087
Mof_H 	H 	0.3807	0.7642	0.5434	-0.005
Mof_C 	C 	0.4838	0.7411	0.6699	-0.147
Mof_H 	H 	0.4901	0.7107	0.6206	0.087
Mof_C 	C 	0.54	0.7534	0.79	0.075
Mof_C 	C 	0.5273	0.7997	0.8596	-0.141
Mof_H 	H 	0.5633	0.8091	0.9416	0.094
Mof_C 	C 	0.4605	0.8311	0.8045	0.085
Mof_H 	H 	0.4527	0.8619	0.8514	0.006
Mof_C 	C 	0.6118	0.7201	0.8453	0.054
Mof_C 	C 	0.6472	0.7036	0.771	-0.076
Mof_H 	H 	0.6256	0.7123	0.6841	0.073
Mof_C 	C 	0.7155	0.67393	0.8292	-0.011
Mof_C 	C 	0.7448	0.66011	0.9574	-0.071
Mof_H 	H 	0.7897	0.6389	0.9975	0.072
Mof_C 	C 	0.706	0.6785	0.0256	0.052
Mof_C 	C 	0.8254	0.6304	0.365	0.095
Mof_H 	H 	0.8731	0.6145	0.4134	-0.007
Mof_C 	C 	0.8034	0.6413	0.2378	-0.153
Mof_H 	H 	0.8357	0.6327	0.2019	0.09
Mof_C 	C 	0.7331	0.66513	0.163	0.088
Mof_C 	C 	0.6887	0.677	0.2233	-0.152
Mof_H 	H 	0.641	0.6934	0.1776	0.098
Mof_C 	C 	0.7148	0.6646	0.3509	0.101
Mof_H 	H 	0.6835	0.673	0.389	-0.007
Mof_C 	C 	0.7565	0.65689	0.7528	0.287
Mof_Co	Co	0.31289	0.87705	0.61349	1.164
Mof_N 	N 	0.90633	0.68033	0.687	-0.242
Mof_N 	N 	0.1407	0.79108	0.9705	-0.119
Mof_N 	N 	0.2816	0.85856	0.4228	-0.251
Mof_O 	O 	0.31314	0.87624	0.8024	-0.353
Mof_O 	O 	0.23248	0.82425	0.6404	-0.379
Mof_O 	O 	0.23641	0.94988	0.5629	-0.321
Mof_O 	O 	0.38474	0.94983	0.6393	-0.34
Mof_C 	C 	0.9185	0.7259	0.6235	0.087
Mof_H 	H 	0.8807	0.7358	0.5434	-0.005
Mof_C 	C 	0.9838	0.7589	0.6699	-0.148
Mof_H 	H 	0.9901	0.7893	0.6206	0.088
Mof_C 	C 	0.04	0.7466	0.79	0.076
Mof_C 	C 	0.0273	0.7003	0.8596	-0.142
Mof_H 	H 	0.0633	0.6909	0.9416	0.094
Mof_C 	C 	0.9605	0.6689	0.8045	0.085
Mof_H 	H 	0.9527	0.6381	0.8514	0.004
Mof_C 	C 	0.1118	0.7799	0.8453	0.055
Mof_C 	C 	0.1472	0.7964	0.771	-0.076
Mof_H 	H 	0.1256	0.7877	0.6841	0.073
Mof_C 	C 	0.2155	0.82607	0.8292	-0.008
Mof_C 	C 	0.2448	0.83989	0.9574	-0.071
Mof_H 	H 	0.2897	0.8611	0.9975	0.074
Mof_C 	C 	0.206	0.8215	0.0256	0.053
Mof_C 	C 	0.3254	0.8696	0.365	0.097
Mof_H 	H 	0.3731	0.8855	0.4134	-0.004
Mof_C 	C 	0.3034	0.8587	0.2378	-0.152
Mof_H 	H 	0.3357	0.8673	0.2019	0.092
Mof_C 	C 	0.2331	0.83487	0.163	0.09
Mof_C 	C 	0.1887	0.823	0.2233	-0.151
Mof_H 	H 	0.141	0.8066	0.1776	0.099
Mof_C 	C 	0.2148	0.8354	0.3509	0.102
Mof_H 	H 	0.1835	0.827	0.389	-0.007
Mof_C 	C 	0.2565	0.84311	0.7528	0.286
Mof_Co	Co	0.81289	0.37705	0.61349	1.163
Mof_N 	N 	0.40633	0.18033	0.687	-0.243
Mof_N 	N 	0.6407	0.29108	0.9705	-0.12
Mof_N 	N 	0.7816	0.35856	0.4228	-0.252
Mof_O 	O 	0.81314	0.37624	0.8024	-0.356
Mof_O 	O 	0.73248	0.32425	0.6404	-0.38
Mof_O 	O 	0.73641	0.44988	0.5629	-0.344
Mof_O 	O 	0.88474	0.44983	0.6393	-0.363
Mof_C 	C 	0.4185	0.2259	0.6235	0.086
Mof_H 	H 	0.3807	0.2358	0.5434	-0.005
Mof_C 	C 	0.4838	0.2589	0.6699	-0.148
Mof_H 	H 	0.4901	0.2893	0.6206	0.087
Mof_C 	C 	0.54	0.2466	0.79	0.075
Mof_C 	C 	0.5273	0.2003	0.8596	-0.143
Mof_H 	H 	0.5633	0.1909	0.9416	0.093
Mof_C 	C 	0.4605	0.1689	0.8045	0.085
Mof_H 	H 	0.4527	0.1381	0.8514	0.002
Mof_C 	C 	0.6118	0.2799	0.8453	0.054
Mof_C 	C 	0.6472	0.2964	0.771	-0.076
Mof_H 	H 	0.6256	0.2877	0.6841	0.072
Mof_C 	C 	0.7155	0.32607	0.8292	-0.01
Mof_C 	C 	0.7448	0.33989	0.9574	-0.071
Mof_H 	H 	0.7897	0.3611	0.9975	0.072
Mof_C 	C 	0.706	0.3215	0.0256	0.052
Mof_C 	C 	0.8254	0.3696	0.365	0.095
Mof_H 	H 	0.8731	0.3855	0.4134	-0.006
Mof_C 	C 	0.8034	0.3587	0.2378	-0.153
Mof_H 	H 	0.8357	0.3673	0.2019	0.09
Mof_C 	C 	0.7331	0.33487	0.163	0.088
Mof_C 	C 	0.6887	0.323	0.2233	-0.152
Mof_H 	H 	0.641	0.3066	0.1776	0.099
Mof_C 	C 	0.7148	0.3354	0.3509	0.101
Mof_H 	H 	0.6835	0.327	0.389	-0.007
Mof_C 	C 	0.7565	0.34311	0.7528	0.287
Mof_C 	C 	0.2671	0	0.5786	0.197
Mof_C 	C 	0.3532	5.48164e-33	0.6227	0.199
Mof_C 	C 	0.7671	0.5	0.5786	0.223
Mof_C 	C 	0.8532	0.5	0.6227	0.224
Mof_Co	Co	0.68711	0.12295	0.38651	1.163
Mof_N 	N 	0.09367	0.31967	0.313	-0.242
Mof_N 	N 	0.8593	0.20892	0.0295	-0.12
Mof_N 	N 	0.7184	0.14144	0.5772	-0.252
Mof_O 	O 	0.68686	0.12376	0.1976	-0.359
Mof_O 	O 	0.76752	0.17575	0.3596	-0.381
Mof_O 	O 	0.76359	0.05012	0.4371	-0.342
Mof_O 	O 	0.61526	0.05017	0.3607	-0.361
Mof_C 	C 	0.0815	0.2741	0.3765	0.086
Mof_H 	H 	0.1193	0.2642	0.4566	-0.005
Mof_C 	C 	0.0162	0.2411	0.3301	-0.148
Mof_H 	H 	0.0099	0.2107	0.3794	0.086
Mof_C 	C 	0.96	0.2534	0.21	0.075
Mof_C 	C 	0.9727	0.2997	0.1404	-0.142
Mof_H 	H 	0.9367	0.3091	0.0584	0.094
Mof_C 	C 	0.0395	0.3311	0.1955	0.084
Mof_H 	H 	0.0473	0.3619	0.1486	0.004
Mof_C 	C 	0.8882	0.2201	0.1547	0.053
Mof_C 	C 	0.8528	0.2036	0.229	-0.076
Mof_H 	H 	0.8744	0.2123	0.3159	0.072
Mof_C 	C 	0.7845	0.17393	0.1708	-0.013
Mof_C 	C 	0.7552	0.16011	0.0426	-0.071
Mof_H 	H 	0.7103	0.1389	0.0025	0.07
Mof_C 	C 	0.794	0.1785	0.9744	0.05
Mof_C 	C 	0.6746	0.1304	0.635	0.093
Mof_H 	H 	0.6269	0.1145	0.5866	-0.009
Mof_C 	C 	0.6966	0.1413	0.7622	-0.154
Mof_H 	H 	0.6643	0.1327	0.7981	0.089
Mof_C 	C 	0.7669	0.16513	0.837	0.088
Mof_C 	C 	0.8113	0.177	0.7767	-0.153
Mof_H 	H 	0.859	0.1934	0.8224	0.098
Mof_C 	C 	0.7852	0.1646	0.6491	0.1
Mof_H 	H 	0.8165	0.173	0.611	-0.008
Mof_C 	C 	0.7435	0.15689	0.2472	0.287
Mof_Co	Co	0.18711	0.62295	0.38651	1.163
Mof_N 	N 	0.59367	0.81967	0.313	-0.242
Mof_N 	N 	0.3593	0.70892	0.0295	-0.12
Mof_N 	N 	0.2184	0.64144	0.5772	-0.252
Mof_O 	O 	0.18686	0.62376	0.1976	-0.356
Mof_O 	O 	0.26752	0.67575	0.3596	-0.38
Mof_O 	O 	0.26359	0.55012	0.4371	-0.344
Mof_O 	O 	0.11526	0.55017	0.3607	-0.363
Mof_C 	C 	0.5815	0.7741	0.3765	0.087
Mof_H 	H 	0.6193	0.7642	0.4566	-0.005
Mof_C 	C 	0.5162	0.7411	0.3301	-0.147
Mof_H 	H 	0.5099	0.7107	0.3794	0.087
Mof_C 	C 	0.46	0.7534	0.21	0.075
Mof_C 	C 	0.4727	0.7997	0.1404	-0.141
Mof_H 	H 	0.4367	0.8091	0.0584	0.094
Mof_C 	C 	0.5395	0.8311	0.1955	0.085
Mof_H 	H 	0.5473	0.8619	0.1486	0.006
Mof_C 	C 	0.3882	0.7201	0.1547	0.054
Mof_C 	C 	0.3528	0.7036	0.229	-0.076
Mof_H 	H 	0.3744	0.7123	0.3159	0.073
Mof_C 	C 	0.2845	0.67393	0.1708	-0.011
Mof_C 	C 	0.2552	0.66011	0.0426	-0.071
Mof_H 	H 	0.2103	0.6389	0.0025	0.072
Mof_C 	C 	0.294	0.6785	0.9744	0.052
Mof_C 	C 	0.1746	0.6304	0.635	0.095
Mof_H 	H 	0.1269	0.6145	0.5866	-0.007
Mof_C 	C 	0.1966	0.6413	0.7622	-0.153
Mof_H 	H 	0.1643	0.6327	0.7981	0.09
Mof_C 	C 	0.2669	0.66513	0.837	0.088
Mof_C 	C 	0.3113	0.677	0.7767	-0.152
Mof_H 	H 	0.359	0.6934	0.8224	0.098
Mof_C 	C 	0.2852	0.6646	0.6491	0.101
Mof_H 	H 	0.3165	0.673	0.611	-0.007
Mof_C 	C 	0.2435	0.65689	0.2472	0.287
Mof_Co	Co	0.68711	0.87705	0.38651	1.164
Mof_N 	N 	0.09367	0.68033	0.313	-0.242
Mof_N 	N 	0.8593	0.79108	0.0295	-0.119
Mof_N 	N 	0.7184	0.85856	0.5772	-0.251
Mof_O 	O 	0.68686	0.87624	0.1976	-0.353
Mof_O 	O 	0.76752	0.82425	0.3596	-0.379
Mof_O 	O 	0.76359	0.94988	0.4371	-0.321
Mof_O 	O 	0.61526	0.94983	0.3607	-0.34
Mof_C 	C 	0.0815	0.7259	0.3765	0.087
Mof_H 	H 	0.1193	0.7358	0.4566	-0.005
Mof_C 	C 	0.0162	0.7589	0.3301	-0.148
Mof_H 	H 	0.0099	0.7893	0.3794	0.088
Mof_C 	C 	0.96	0.7466	0.21	0.076
Mof_C 	C 	0.9727	0.7003	0.1404	-0.142
Mof_H 	H 	0.9367	0.6909	0.0584	0.094
Mof_C 	C 	0.0395	0.6689	0.1955	0.085
Mof_H 	H 	0.0473	0.6381	0.1486	0.004
Mof_C 	C 	0.8882	0.7799	0.1547	0.055
Mof_C 	C 	0.8528	0.7964	0.229	-0.076
Mof_H 	H 	0.8744	0.7877	0.3159	0.073
Mof_C 	C 	0.7845	0.82607	0.1708	-0.008
Mof_C 	C 	0.7552	0.83989	0.0426	-0.071
Mof_H 	H 	0.7103	0.8611	0.0025	0.074
Mof_C 	C 	0.794	0.8215	0.9744	0.053
Mof_C 	C 	0.6746	0.8696	0.635	0.097
Mof_H 	H 	0.6269	0.8855	0.5866	-0.004
Mof_C 	C 	0.6966	0.8587	0.7622	-0.152
Mof_H 	H 	0.6643	0.8673	0.7981	0.092
Mof_C 	C 	0.7669	0.83487	0.837	0.09
Mof_C 	C 	0.8113	0.823	0.7767	-0.151
Mof_H 	H 	0.859	0.8066	0.8224	0.099
Mof_C 	C 	0.7852	0.8354	0.6491	0.102
Mof_H 	H 	0.8165	0.827	0.611	-0.007
Mof_C 	C 	0.7435	0.84311	0.2472	0.286
Mof_Co	Co	0.18711	0.37705	0.38651	1.163
Mof_N 	N 	0.59367	0.18033	0.313	-0.243
Mof_N 	N 	0.3593	0.29108	0.0295	-0.12
Mof_N 	N 	0.2184	0.35856	0.5772	-0.252
Mof_O 	O 	0.18686	0.37624	0.1976	-0.356
Mof_O 	O 	0.26752	0.32425	0.3596	-0.38
Mof_O 	O 	0.26359	0.44988	0.4371	-0.344
Mof_O 	O 	0.11526	0.44983	0.3607	-0.363
Mof_C 	C 	0.5815	0.2259	0.3765	0.086
Mof_H 	H 	0.6193	0.2358	0.4566	-0.005
Mof_C 	C 	0.5162	0.2589	0.3301	-0.148
Mof_H 	H 	0.5099	0.2893	0.3794	0.087
Mof_C 	C 	0.46	0.2466	0.21	0.075
Mof_C 	C 	0.4727	0.2003	0.1404	-0.143
Mof_H 	H 	0.4367	0.1909	0.0584	0.093
Mof_C 	C 	0.5395	0.1689	0.1955	0.085
Mof_H 	H 	0.5473	0.1381	0.1486	0.002
Mof_C 	C 	0.3882	0.2799	0.1547	0.054
Mof_C 	C 	0.3528	0.2964	0.229	-0.076
Mof_H 	H 	0.3744	0.2877	0.3159	0.072
Mof_C 	C 	0.2845	0.32607	0.1708	-0.01
Mof_C 	C 	0.2552	0.33989	0.0426	-0.071
Mof_H 	H 	0.2103	0.3611	0.0025	0.072
Mof_C 	C 	0.294	0.3215	0.9744	0.052
Mof_C 	C 	0.1746	0.3696	0.635	0.095
Mof_H 	H 	0.1269	0.3855	0.5866	-0.006
Mof_C 	C 	0.1966	0.3587	0.7622	-0.153
Mof_H 	H 	0.1643	0.3673	0.7981	0.09
Mof_C 	C 	0.2669	0.33487	0.837	0.088
Mof_C 	C 	0.3113	0.323	0.7767	-0.152
Mof_H 	H 	0.359	0.3066	0.8224	0.099
Mof_C 	C 	0.2852	0.3354	0.6491	0.101
Mof_H 	H 	0.3165	0.327	0.611	-0.007
Mof_C 	C 	0.2435	0.34311	0.2472	0.287
Mof_C 	C 	0.7329	2.74082e-33	0.4214	0.197
Mof_C 	C 	0.6468	2.74082e-33	0.3773	0.199
Mof_C 	C 	0.2329	0.5	0.4214	0.223
Mof_C 	C 	0.1468	0.5	0.3773	0.224
_end
