data_functionalizedCrystal
_audit_creation_method	'EQeq! by Chris Wilmer'
_symmetry_space_group_name_H-M	'P1'
_symmetry_Int_Tables_number	1
_symmetry_cell_setting	triclinic
loop_
_symmetry_equiv_pos_as_xyz
  x,y,z
_cell_length_a	8.823
_cell_length_b	9.396
_cell_length_c	14.546
_cell_angle_alpha	81.85
_cell_angle_beta	72.798
_cell_angle_gamma	65.368
loop_
_atom_site_label
_atom_site_type_symbol
_atom_site_fract_x
_atom_site_fract_y
_atom_site_fract_z
_atom_site_charge
Mof_Nd	Nd	0.07647	0.18795	0.63437	2.266
Mof_Nd	Nd	0.92353	0.81205	0.36563	2.266
Mof_Cu	Cu	0.42703	0.38274	0.93446	0.903
Mof_Cu	Cu	0.57297	0.61726	0.06554	0.903
Mof_H 	H 	0.7238	0.2971	0.1474	-0.008
Mof_H 	H 	0.9788	0.0777	0.1113	0.1
Mof_H 	H 	0.5118	0.8969	0.9282	0.003
Mof_H 	H 	0.0419	0.5391	0.7742	0.076
Mof_H 	H 	0.6577	0.9645	0.7822	0.09
Mof_H 	H 	0.921	0.7826	0.7025	0.012
Mof_H 	H 	0.1844	0.0775	0.9699	-0.001
Mof_H 	H 	0.2762	0.7029	0.8526	-0.008
Mof_H 	H 	0.0212	0.9223	0.8887	0.1
Mof_H 	H 	0.4882	0.1031	0.0718	0.003
Mof_H 	H 	0.9581	0.4609	0.2258	0.076
Mof_H 	H 	0.3423	0.0355	0.2178	0.09
Mof_H 	H 	0.079	0.2174	0.2975	0.012
Mof_H 	H 	0.8156	0.9225	0.0301	-0.001
Mof_C 	C 	0.9598	0.4685	0.4717	0.269
Mof_C 	C 	0.8982	0.4247	0.949	0.09
Mof_C 	C 	0.8406	0.5767	0.8934	0.045
Mof_C 	C 	0.6916	0.3837	0.7839	0.237
Mof_C 	C 	0.754	0.2204	0.8333	0.253
Mof_C 	C 	0.8079	0.2962	0.0908	0.091
Mof_C 	C 	0.9596	0.1643	0.0696	-0.157
Mof_C 	C 	0.6194	0.8248	0.8966	0.085
Mof_C 	C 	0.9339	0.6118	0.8047	-0.107
Mof_C 	C 	0.705	0.8655	0.8094	-0.137
Mof_C 	C 	0.862	0.7579	0.7627	0.059
Mof_C 	C 	0.0534	0.294	0.9228	-0.2
Mof_C 	C 	0.1987	0.2763	0.8311	0.477
Mof_C 	C 	0.0812	0.1652	0.9855	0.098
Mof_C 	C 	0.908	0.0212	0.5333	0.285
Mof_C 	C 	0.0402	0.5315	0.5283	0.269
Mof_C 	C 	0.1018	0.5753	0.051	0.09
Mof_C 	C 	0.1594	0.4233	0.1066	0.045
Mof_C 	C 	0.3084	0.6163	0.2161	0.237
Mof_C 	C 	0.246	0.7796	0.1667	0.253
Mof_C 	C 	0.1921	0.7038	0.9092	0.091
Mof_C 	C 	0.0404	0.8357	0.9304	-0.157
Mof_C 	C 	0.3806	0.1752	0.1034	0.085
Mof_C 	C 	0.0661	0.3882	0.1953	-0.107
Mof_C 	C 	0.295	0.1345	0.1906	-0.137
Mof_C 	C 	0.138	0.2421	0.2373	0.059
Mof_C 	C 	0.9466	0.706	0.0772	-0.2
Mof_C 	C 	0.8013	0.7237	0.1689	0.477
Mof_C 	C 	0.9188	0.8348	0.0145	0.098
Mof_C 	C 	0.092	0.9788	0.4667	0.285
Mof_N 	N 	0.7787	0.4221	0.0322	-0.24
Mof_N 	N 	0.6863	0.6837	0.9378	-0.223
Mof_N 	N 	0.2213	0.5779	0.9678	-0.24
Mof_N 	N 	0.3137	0.3163	0.0622	-0.223
Mof_O 	O 	0.9612	0.334	0.4958	-0.436
Mof_O 	O 	0.6498	0.2015	0.9112	-0.365
Mof_O 	O 	0.5436	0.4815	0.8258	-0.368
Mof_O 	O 	0.7881	0.4071	0.7073	-0.402
Mof_O 	O 	0.1787	0.241	0.7576	-0.562
Mof_O 	O 	0.8988	0.1238	0.795	-0.43
Mof_O 	O 	0.3296	0.2902	0.8366	-0.394
Mof_O 	O 	0.8987	0.5563	0.4071	-0.455
Mof_O 	O 	0.8732	0.0884	0.6105	-0.45
Mof_O 	O 	0.8064	0.9866	0.5053	-0.504
Mof_O 	O 	0.0388	0.666	0.5042	-0.436
Mof_O 	O 	0.3502	0.7985	0.0888	-0.365
Mof_O 	O 	0.4564	0.5185	0.1742	-0.368
Mof_O 	O 	0.2119	0.5929	0.2927	-0.402
Mof_O 	O 	0.8213	0.759	0.2424	-0.562
Mof_O 	O 	0.1012	0.8762	0.205	-0.43
Mof_O 	O 	0.6704	0.7098	0.1634	-0.394
Mof_O 	O 	0.1013	0.4437	0.5929	-0.455
Mof_O 	O 	0.1268	0.9116	0.3895	-0.45
Mof_O 	O 	0.1936	0.0134	0.4947	-0.504
_end
