data_functionalizedCrystal
_audit_creation_method	'EQeq! by Chris Wilmer'
_symmetry_space_group_name_H-M	'P1'
_symmetry_Int_Tables_number	1
_symmetry_cell_setting	triclinic
loop_
_symmetry_equiv_pos_as_xyz
  x,y,z
_cell_length_a	12.109
_cell_length_b	9.209
_cell_length_c	16.081
_cell_angle_alpha	90
_cell_angle_beta	92.94
_cell_angle_gamma	90
loop_
_atom_site_label
_atom_site_type_symbol
_atom_site_fract_x
_atom_site_fract_y
_atom_site_fract_z
_atom_site_charge
Mof_Zn	Zn	0.00784	0.75695	0.79829	1.233
Mof_Zn	Zn	0.22118	0.75196	0.58678	1.23
Mof_Zn	Zn	0.2304	0.67382	0.99901	1.231
Mof_P 	P 	0.96237	0.8352	0.6053	0.497
Mof_H 	H 	0.964	0.96	0.567	-0.064
Mof_P 	P 	0.85636	0.6258	0.93653	0.451
Mof_H 	H 	0.942	0.663	0.983	-0.079
Mof_P 	P 	0.13742	0.9692	0.93287	0.461
Mof_H 	H 	0.074	0.074	0.959	-0.047
Mof_P 	P 	0.2044	0.5263	0.81517	0.459
Mof_H 	H 	0.271	0.55	0.755	-0.043
Mof_O 	O 	0.0635	0.7548	0.5843	-0.464
Mof_O 	O 	0.9439	0.8393	0.6961	-0.439
Mof_O 	O 	0.089	0.5761	0.7869	-0.444
Mof_O 	O 	0.081	0.9096	0.8555	-0.483
Mof_O 	O 	0.8762	0.6875	0.8504	-0.401
Mof_O 	O 	0.7551	0.6981	0.9709	-0.428
Mof_O 	O 	0.1999	0.3647	0.8299	-0.463
Mof_O 	O 	0.2429	0.0455	0.9148	-0.427
Mof_O 	O 	0.1531	0.8581	0.0022	-0.424
Mof_O 	O 	0.8661	0.7626	0.5564	-0.413
Mof_O 	O 	0.8473	0.4621	0.9355	-0.447
Mof_O 	O 	0.2557	0.6109	0.8872	-0.498
Mof_Zn	Zn	0.49216	0.25695	0.70171	1.237
Mof_Zn	Zn	0.27882	0.25196	0.91322	1.23
Mof_Zn	Zn	0.2696	0.17382	0.50099	1.235
Mof_P 	P 	0.53763	0.3352	0.8947	0.493
Mof_H 	H 	0.536	0.46	0.933	-0.065
Mof_P 	P 	0.64364	0.1258	0.56347	0.451
Mof_H 	H 	0.558	0.163	0.517	-0.083
Mof_P 	P 	0.36258	0.4692	0.56713	0.48
Mof_H 	H 	0.426	0.574	0.541	-0.049
Mof_P 	P 	0.2956	0.0263	0.68483	0.461
Mof_H 	H 	0.229	0.05	0.745	-0.043
Mof_O 	O 	0.4365	0.2548	0.9157	-0.461
Mof_O 	O 	0.5561	0.3393	0.8039	-0.442
Mof_O 	O 	0.411	0.0761	0.7131	-0.441
Mof_O 	O 	0.419	0.4096	0.6445	-0.481
Mof_O 	O 	0.6238	0.1875	0.6496	-0.404
Mof_O 	O 	0.7449	0.1981	0.5291	-0.43
Mof_O 	O 	0.3001	0.8647	0.6701	-0.464
Mof_O 	O 	0.2571	0.5455	0.5852	-0.431
Mof_O 	O 	0.3469	0.3581	0.4978	-0.436
Mof_O 	O 	0.6339	0.2626	0.9436	-0.411
Mof_O 	O 	0.6527	0.9621	0.5645	-0.45
Mof_O 	O 	0.2443	0.1109	0.6128	-0.495
Mof_Zn	Zn	0.99216	0.24305	0.20171	1.234
Mof_Zn	Zn	0.77882	0.24804	0.41322	1.231
Mof_Zn	Zn	0.7696	0.32618	0.00099	1.231
Mof_P 	P 	0.03763	0.1648	0.3947	0.497
Mof_H 	H 	0.036	0.04	0.433	-0.064
Mof_P 	P 	0.14364	0.3742	0.06347	0.451
Mof_H 	H 	0.058	0.337	0.017	-0.079
Mof_P 	P 	0.86258	0.0308	0.06713	0.461
Mof_H 	H 	0.926	0.926	0.041	-0.047
Mof_P 	P 	0.7956	0.4737	0.18483	0.459
Mof_H 	H 	0.729	0.45	0.245	-0.043
Mof_O 	O 	0.9365	0.2452	0.4157	-0.464
Mof_O 	O 	0.0561	0.1607	0.3039	-0.439
Mof_O 	O 	0.911	0.4239	0.2131	-0.444
Mof_O 	O 	0.919	0.0904	0.1445	-0.483
Mof_O 	O 	0.1238	0.3125	0.1496	-0.401
Mof_O 	O 	0.2449	0.3019	0.0291	-0.428
Mof_O 	O 	0.8001	0.6353	0.1701	-0.463
Mof_O 	O 	0.7571	0.9545	0.0852	-0.427
Mof_O 	O 	0.8469	0.1419	0.9978	-0.424
Mof_O 	O 	0.1339	0.2374	0.4436	-0.413
Mof_O 	O 	0.1527	0.5379	0.0645	-0.447
Mof_O 	O 	0.7443	0.3891	0.1128	-0.498
Mof_Zn	Zn	0.50784	0.74305	0.29829	1.237
Mof_Zn	Zn	0.72118	0.74804	0.08678	1.23
Mof_Zn	Zn	0.7304	0.82618	0.49901	1.235
Mof_P 	P 	0.46237	0.6648	0.1053	0.493
Mof_H 	H 	0.464	0.54	0.067	-0.065
Mof_P 	P 	0.35636	0.8742	0.43653	0.451
Mof_H 	H 	0.442	0.837	0.483	-0.083
Mof_P 	P 	0.63742	0.5308	0.43287	0.48
Mof_H 	H 	0.574	0.426	0.459	-0.049
Mof_P 	P 	0.7044	0.9737	0.31517	0.461
Mof_H 	H 	0.771	0.95	0.255	-0.043
Mof_O 	O 	0.5635	0.7452	0.0843	-0.461
Mof_O 	O 	0.4439	0.6607	0.1961	-0.442
Mof_O 	O 	0.589	0.9239	0.2869	-0.441
Mof_O 	O 	0.581	0.5904	0.3555	-0.481
Mof_O 	O 	0.3762	0.8125	0.3504	-0.404
Mof_O 	O 	0.2551	0.8019	0.4709	-0.43
Mof_O 	O 	0.6999	0.1353	0.3299	-0.464
Mof_O 	O 	0.7429	0.4545	0.4148	-0.431
Mof_O 	O 	0.6531	0.6419	0.5022	-0.436
Mof_O 	O 	0.3661	0.7374	0.0564	-0.411
Mof_O 	O 	0.3473	0.0379	0.4355	-0.45
Mof_O 	O 	0.7557	0.8891	0.3872	-0.495
_end
