data_functionalizedCrystal
_audit_creation_method	'EQeq! by Chris Wilmer'
_symmetry_space_group_name_H-M	'P1'
_symmetry_Int_Tables_number	1
_symmetry_cell_setting	triclinic
loop_
_symmetry_equiv_pos_as_xyz
  x,y,z
_cell_length_a	12.483
_cell_length_b	12.483
_cell_length_c	12.719
_cell_angle_alpha	90
_cell_angle_beta	90
_cell_angle_gamma	90
loop_
_atom_site_label
_atom_site_type_symbol
_atom_site_fract_x
_atom_site_fract_y
_atom_site_fract_z
_atom_site_charge
Mof_Cd	Cd	0.96046	0.2442	0.08709	0.279
Mof_C 	C 	0.0696	0.3455	0.1894	-0.059
Mof_C 	C 	0.8842	0.3708	0.9904	-0.074
Mof_C 	C 	0.0863	0.1451	0.0184	-0.073
Mof_C 	C 	0.8749	0.1645	0.2154	-0.073
Mof_Cd	Cd	0.03954	0.7558	0.58709	0.281
Mof_C 	C 	0.9304	0.6545	0.6894	-0.059
Mof_C 	C 	0.1158	0.6292	0.4904	-0.076
Mof_C 	C 	0.9137	0.8549	0.5184	-0.073
Mof_C 	C 	0.1251	0.8355	0.7154	-0.073
Mof_Cd	Cd	0.2558	0.46046	0.33709	0.282
Mof_C 	C 	0.1545	0.5696	0.4394	-0.06
Mof_C 	C 	0.1292	0.3842	0.2404	-0.076
Mof_C 	C 	0.3549	0.5863	0.2684	-0.073
Mof_C 	C 	0.3355	0.3749	0.4654	-0.073
Mof_Cd	Cd	0.7442	0.53954	0.83709	0.282
Mof_C 	C 	0.8455	0.4304	0.9394	-0.06
Mof_C 	C 	0.8708	0.6158	0.7404	-0.076
Mof_C 	C 	0.6451	0.4137	0.7684	-0.073
Mof_C 	C 	0.6645	0.6251	0.9654	-0.073
Mof_Cd	Cd	0.53954	0.7442	0.16291	0.282
Mof_C 	C 	0.4304	0.8455	0.0606	-0.06
Mof_C 	C 	0.6158	0.8708	0.2596	-0.076
Mof_C 	C 	0.4137	0.6451	0.2316	-0.073
Mof_C 	C 	0.6251	0.6645	0.0346	-0.073
Mof_Cd	Cd	0.46046	0.2558	0.66291	0.282
Mof_C 	C 	0.5696	0.1545	0.5606	-0.06
Mof_C 	C 	0.3842	0.1292	0.7596	-0.076
Mof_C 	C 	0.5863	0.3549	0.7316	-0.073
Mof_C 	C 	0.3749	0.3355	0.5346	-0.073
Mof_Cd	Cd	0.2442	0.96046	0.91291	0.279
Mof_C 	C 	0.3455	0.0696	0.8106	-0.059
Mof_C 	C 	0.3708	0.8842	0.0096	-0.074
Mof_C 	C 	0.1451	0.0863	0.9816	-0.073
Mof_C 	C 	0.1645	0.8749	0.7846	-0.073
Mof_Cd	Cd	0.7558	0.03954	0.41291	0.281
Mof_C 	C 	0.6545	0.9304	0.3106	-0.059
Mof_C 	C 	0.6292	0.1158	0.5096	-0.076
Mof_C 	C 	0.8549	0.9137	0.4816	-0.073
Mof_C 	C 	0.8355	0.1251	0.2846	-0.073
_end
