# CIF file generated by openbabel 3.1.0, see https://openbabel.org
data_I
_chemical_name_common 'image0'
_cell_length_a 8.417
_cell_length_b 9.716
_cell_length_c 10.117
_cell_angle_alpha 61.951
_cell_angle_beta 77.816
_cell_angle_gamma 74.279
_space_group_name_H-M_alt 'P 1'
_space_group_name_Hall 'P 1'
loop_
    _symmetry_equiv_pos_as_xyz
    x,y,z
loop_
    _atom_site_label
    _atom_site_type_symbol
    _atom_site_fract_x
    _atom_site_fract_y
    _atom_site_fract_z
    _atom_site_occupancy
    Nd1      Nd       0.32863    0.36995    0.83849    1.000
    O1       O        0.07400    0.30830    0.01370    1.000
    O2       O        0.31190    0.09190    0.92240    1.000
    O3       O        0.52670    0.30840    0.64720    1.000
    O4       O        0.53830    0.51820    0.81660    1.000
    O5       O        0.43000    0.83180    0.03310    1.000
    O6       O        0.87370    0.39380    0.15760    1.000
    O7       O        0.65600    0.60970    0.92750    1.000
    O8       O        0.65980    0.40150    0.41550    1.000
    C1       C        0.98570    0.41300    0.04900    1.000
    C2       C        0.42540    0.97660    0.98860    1.000
    C3       C        0.55350    0.41580    0.51740    1.000
    C4       C        0.55720    0.53670    0.92660    1.000
    Nd2      Nd       0.67137    0.63005    0.16151    1.000
    O9       O        0.92600    0.69170    0.98630    1.000
    O10      O        0.68810    0.90810    0.07760    1.000
    O11      O        0.47330    0.69160    0.35280    1.000
    O12      O        0.46170    0.48180    0.18340    1.000
    O13      O        0.57000    0.16820    0.96690    1.000
    O14      O        0.12630    0.60620    0.84240    1.000
    O15      O        0.34400    0.39030    0.07250    1.000
    O16      O        0.34020    0.59850    0.58450    1.000
    C5       C        0.01430    0.58700    0.95100    1.000
    C6       C        0.57460    0.02340    0.01140    1.000
    C7       C        0.44650    0.58420    0.48260    1.000
    C8       C        0.44280    0.46330    0.07340    1.000
