data_functionalizedCrystal
_audit_creation_method	'EQeq! by Chris Wilmer'
_symmetry_space_group_name_H-M	'P1'
_symmetry_Int_Tables_number	1
_symmetry_cell_setting	triclinic
loop_
_symmetry_equiv_pos_as_xyz
  x,y,z
_cell_length_a	14.297
_cell_length_b	17.164
_cell_length_c	27.333
_cell_angle_alpha	89.97
_cell_angle_beta	77.104
_cell_angle_gamma	74.591
loop_
_atom_site_label
_atom_site_type_symbol
_atom_site_fract_x
_atom_site_fract_y
_atom_site_fract_z
_atom_site_charge
Mof_Zn	Zn	0.4292	0.37255	0.99867	1.162
Mof_Zn	Zn	0.5016	0.69155	0.24291	1.163
Mof_Zn	Zn	0.9335	0.5589	0.64221	1.155
Mof_Zn	Zn	0.9858	0.84303	0.89533	1.163
Mof_Zn	Zn	0.1799	0.04578	0.27999	1.161
Mof_Zn	Zn	0.3011	0.2092	0.5636	1.263
Mof_I 	I 	0.35722	0.42895	0.92498	-0.374
Mof_I 	I 	0.60456	0.36198	0.00611	-0.406
Mof_I 	I 	0.41368	0.78062	0.32314	-0.386
Mof_I 	I 	0.47517	0.55379	0.22785	-0.361
Mof_I 	I 	0.0404	0.471	0.5749	0.304
Mof_I 	I 	0.0273	0.4324	0.5737	-0.645
Mof_I 	I 	0.96044	0.55173	0.73117	-0.374
Mof_I 	I 	0.88882	0.97777	0.87185	-0.399
Mof_I 	I 	0.90106	0.74537	0.94358	-0.379
Mof_I 	I 	0.084	0.17664	0.25151	-0.422
Mof_I 	I 	0.36126	0.02559	0.27871	-0.403
Mof_I 	I 	0.1865	0.1191	0.6407	2.011
Mof_I 	I 	0.1915	0.1493	0.6112	-2.393
Mof_I 	I 	0.2987	0.2872	0.4709	0.17
Mof_I 	I 	0.2505	0.2534	0.4963	-0.5
Mof_N 	N 	0.3051	0.0036	0.0013	-0.141
Mof_N 	N 	0.3982	0.9808	0.0637	-0.135
Mof_N 	N 	0.3167	0.8868	0.041	-0.129
Mof_C 	C 	0.2802	0.9355	0.0095	0.091
Mof_C 	C 	0.3616	0.0249	0.0304	0.097
Mof_C 	C 	0.374	0.9094	0.069	0.087
Mof_N 	N 	0.0842	0.8697	0.9342	-0.304
Mof_C 	C 	0.097	0.941	0.9356	0.112
Mof_H 	H 	0.0575	0.9811	0.9205	-0.028
Mof_C 	C 	0.166	0.964	0.9576	-0.178
Mof_H 	H 	0.1773	0.0143	0.9518	0.092
Mof_C 	C 	0.213	0.9174	0.985	0.096
Mof_C 	C 	0.198	0.8366	0.9829	-0.183
Mof_H 	H 	0.2331	0.7958	0.9994	0.12
Mof_C 	C 	0.134	0.8196	0.9575	0.153
Mof_H 	H 	0.127	0.7673	0.9576	-0.037
Mof_N 	N 	0.4091	0.2558	0.0076	-0.272
Mof_C 	C 	0.439	0.2126	0.0431	0.091
Mof_H 	H 	0.4698	0.2355	0.0639	-0.022
Mof_C 	C 	0.43	0.1325	0.0528	-0.135
Mof_H 	H 	0.4516	0.1032	0.0786	0.088
Mof_C 	C 	0.3839	0.103	0.02	0.07
Mof_C 	C 	0.353	0.1494	0.9836	-0.138
Mof_H 	H 	0.3206	0.1292	0.9628	0.089
Mof_C 	C 	0.3672	0.2236	0.9761	0.085
Mof_H 	H 	0.3482	0.2522	0.9494	-0.012
Mof_N 	N 	0.4705	0.7606	0.182	-0.28
Mof_C 	C 	0.4312	0.7373	0.1473	0.091
Mof_H 	H 	0.4216	0.6858	0.1483	-0.026
Mof_C 	C 	0.404	0.7849	0.1101	-0.168
Mof_H 	H 	0.3799	0.7637	0.0856	0.085
Mof_C 	C 	0.4107	0.8619	0.1078	0.086
Mof_C 	C 	0.456	0.8853	0.1427	-0.162
Mof_H 	H 	0.4702	0.9353	0.1413	0.094
Mof_C 	C 	0.4801	0.836	0.1785	0.096
Mof_H 	H 	0.5054	0.8556	0.2029	-0.023
Mof_N 	N 	0.4597	0.5208	0.6501	-0.148
Mof_N 	N 	0.2948	0.5563	0.7017	-0.134
Mof_N 	N 	0.4106	0.635	0.7111	-0.126
Mof_C 	C 	0.4765	0.5782	0.6712	0.097
Mof_C 	C 	0.32	0.6213	0.7225	0.066
Mof_C 	C 	0.372	0.5118	0.6679	0.091
Mof_N 	N 	0.7797	0.5777	0.6503	-0.272
Mof_C 	C 	0.744	0.546	0.6145	0.066
Mof_H 	H 	0.7889	0.5209	0.5851	-0.005
Mof_C 	C 	0.645	0.549	0.6198	-0.13
Mof_H 	H 	0.6239	0.5242	0.5956	0.082
Mof_C 	C 	0.5771	0.5908	0.6641	0.073
Mof_C 	C 	0.6131	0.6228	0.6984	-0.155
Mof_H 	H 	0.5703	0.6496	0.7279	0.101
Mof_C 	C 	0.7119	0.6154	0.6897	0.108
Mof_H 	H 	0.7339	0.6394	0.7138	-0.021
Mof_N 	N 	0.326	0.3034	0.6009	-0.267
Mof_C 	C 	0.406	0.319	0.5917	0.136
Mof_H 	H 	0.4587	0.2815	0.5707	-0.036
Mof_C 	C 	0.427	0.3877	0.6091	-0.184
Mof_H 	H 	0.4876	0.3987	0.5973	0.103
Mof_C 	C 	0.3521	0.4374	0.6444	0.077
Mof_C 	C 	0.264	0.4231	0.6559	-0.138
Mof_H 	H 	0.2111	0.4593	0.6781	0.081
Mof_C 	C 	0.2471	0.3535	0.635	0.052
Mof_H 	H 	0.1856	0.3423	0.6439	0.023
Mof_N 	N 	0.0944	0.7744	0.8359	-0.289
Mof_C 	C 	0.0846	0.7095	0.8144	0.147
Mof_H 	H 	0.0221	0.6999	0.8227	-0.023
Mof_C 	C 	0.1557	0.6567	0.7822	-0.21
Mof_H 	H 	0.1465	0.607	0.7742	0.123
Mof_C 	C 	0.238	0.6738	0.7616	0.125
Mof_C 	C 	0.2505	0.7454	0.7788	-0.176
Mof_H 	H 	0.3074	0.7612	0.7644	0.097
Mof_C 	C 	0.179	0.7934	0.8172	0.108
Mof_H 	H 	0.1898	0.8395	0.83	-0.032
Mof_N 	N 	0.1485	0.6764	0.1854	-0.133
Mof_N 	N 	0.9793	0.7353	0.2244	-0.149
Mof_N 	N 	0.0239	0.6067	0.1784	-0.127
Mof_C 	C 	0.118	0.6089	0.1705	0.086
Mof_C 	C 	0.076	0.7328	0.2125	0.1
Mof_C 	C 	0.9557	0.6712	0.2053	0.099
Mof_N 	N 	0.3317	0.4356	0.0627	-0.275
Mof_C 	C 	0.239	0.4314	0.0786	0.111
Mof_H 	H 	0.22	0.389	0.066	-0.012
Mof_C 	C 	0.171	0.4867	0.1122	-0.166
Mof_H 	H 	0.1049	0.4844	0.121	0.109
Mof_C 	C 	0.1982	0.5448	0.1331	0.099
Mof_C 	C 	0.2955	0.5447	0.1229	-0.14
Mof_H 	H 	0.3156	0.5818	0.14	0.093
Mof_C 	C 	0.3648	0.4895	0.087	0.07
Mof_H 	H 	0.4318	0.4887	0.0795	-0.018
Mof_N 	N 	0.1505	0.9408	0.2526	-0.282
Mof_C 	C 	0.054	0.949	0.25	0.063
Mof_H 	H 	0.0071	0.9992	0.2545	-0.03
Mof_C 	C 	0.033	0.8804	0.241	-0.126
Mof_H 	H 	0.9669	0.8821	0.2427	0.039
Mof_C 	C 	0.1051	0.8055	0.2291	0.076
Mof_C 	C 	0.1991	0.8021	0.2274	-0.178
Mof_H 	H 	0.2516	0.7557	0.217	0.088
Mof_C 	C 	0.211	0.875	0.2428	0.152
Mof_H 	H 	0.2752	0.8734	0.246	-0.049
Mof_N 	N 	0.6492	0.6782	0.2357	-0.274
Mof_C 	C 	0.6849	0.7384	0.2537	0.046
Mof_H 	H 	0.6391	0.7827	0.2729	-0.015
Mof_C 	C 	0.78	0.7354	0.2447	-0.105
Mof_H 	H 	0.7983	0.7782	0.2571	0.039
Mof_C 	C 	0.8525	0.6728	0.2181	0.042
Mof_C 	C 	0.822	0.6073	0.198	-0.116
Mof_H 	H 	0.8682	0.5609	0.181	0.089
Mof_C 	C 	0.7227	0.6192	0.206	0.07
Mof_H 	H 	0.7019	0.5825	0.189	0.001
Mof_N 	N 	0.7725	0.9315	0.5529	-0.137
Mof_N 	N 	0.9293	0.8991	0.4999	-0.119
Mof_N 	N 	0.8063	0.011	0.4846	-0.129
Mof_C 	C 	0.7442	0.9925	0.5244	0.095
Mof_C 	C 	0.8607	0.8873	0.5389	0.126
Mof_C 	C 	0.902	0.9664	0.4747	0.114
Mof_N 	N 	0.449	0.1359	0.5444	-0.26
Mof_C 	C 	0.508	0.124	0.5026	0.142
Mof_H 	H 	0.4859	0.1447	0.4746	-0.035
Mof_C 	C 	0.604	0.0797	0.4972	-0.179
Mof_H 	H 	0.6472	0.0787	0.466	0.094
Mof_C 	C 	0.642	0.0383	0.532	0.092
Mof_C 	C 	0.576	0.039	0.5762	-0.13
Mof_H 	H 	0.5974	0.0073	0.6012	0.092
Mof_C 	C 	0.477	0.087	0.5857	0.053
Mof_H 	H 	0.4313	0.0881	0.6161	-0.021
Mof_N 	N 	0.9266	0.6668	0.6131	-0.299
Mof_C 	C 	0.995	0.68	0.574	0.086
Mof_H 	H 	0.0591	0.6451	0.5666	-0.026
Mof_C 	C 	0.972	0.748	0.5451	-0.135
Mof_H 	H 	0.0088	0.7472	0.5125	0.114
Mof_C 	C 	0.8929	0.8144	0.565	0.089
Mof_C 	C 	0.84	0.803	0.6128	-0.172
Mof_H 	H 	0.791	0.8464	0.6307	0.079
Mof_C 	C 	0.858	0.734	0.6329	0.126
Mof_H 	H 	0.818	0.7316	0.6645	-0.036
Mof_N 	N 	0.0962	0.0314	0.3524	-0.286
Mof_C 	C 	0.005	0.0709	0.367	0.108
Mof_H 	H 	0.9808	0.1119	0.3472	-0.034
Mof_C 	C 	0.943	0.0594	0.4068	-0.164
Mof_H 	H 	0.8821	0.0978	0.4188	0.088
Mof_C 	C 	0.969	0.9871	0.4318	0.063
Mof_C 	C 	0.072	0.9423	0.4185	-0.137
Mof_H 	H 	0.0996	0.8993	0.4362	0.1
Mof_C 	C 	0.125	0.9687	0.3776	0.103
Mof_H 	H 	0.1911	0.938	0.3661	-0.016
Mof_Zn	Zn	0.5708	0.62745	0.00133	1.163
Mof_Zn	Zn	0.4984	0.30845	0.75709	1.164
Mof_Zn	Zn	0.0665	0.4411	0.35779	1.156
Mof_Zn	Zn	0.0142	0.15697	0.10467	1.164
Mof_Zn	Zn	0.8201	0.95422	0.72001	1.162
Mof_Zn	Zn	0.6989	0.7908	0.4364	1.264
Mof_I 	I 	0.64278	0.57105	0.07502	-0.373
Mof_I 	I 	0.39544	0.63802	0.99389	-0.405
Mof_I 	I 	0.58632	0.21938	0.67686	-0.386
Mof_I 	I 	0.52483	0.44621	0.77215	-0.361
Mof_I 	I 	0.9596	0.529	0.4251	0.304
Mof_I 	I 	0.9727	0.5676	0.4263	-0.645
Mof_I 	I 	0.03956	0.44827	0.26883	-0.374
Mof_I 	I 	0.11118	0.02223	0.12815	-0.399
Mof_I 	I 	0.09894	0.25463	0.05642	-0.379
Mof_I 	I 	0.916	0.82336	0.74849	-0.422
Mof_I 	I 	0.63874	0.97441	0.72129	-0.403
Mof_I 	I 	0.8135	0.8809	0.3593	2.011
Mof_I 	I 	0.8085	0.8507	0.3888	-2.393
Mof_I 	I 	0.7013	0.7128	0.5291	0.17
Mof_I 	I 	0.7495	0.7466	0.5037	-0.5
Mof_N 	N 	0.6949	0.9964	0.9987	-0.141
Mof_N 	N 	0.6018	0.0192	0.9363	-0.135
Mof_N 	N 	0.6833	0.1132	0.959	-0.129
Mof_C 	C 	0.7198	0.0645	0.9905	0.091
Mof_C 	C 	0.6384	0.9751	0.9696	0.097
Mof_C 	C 	0.626	0.0906	0.931	0.087
Mof_N 	N 	0.9158	0.1303	0.0658	-0.304
Mof_C 	C 	0.903	0.059	0.0644	0.112
Mof_H 	H 	0.9425	0.0189	0.0795	-0.028
Mof_C 	C 	0.834	0.036	0.0424	-0.178
Mof_H 	H 	0.8227	0.9857	0.0482	0.092
Mof_C 	C 	0.787	0.0826	0.015	0.096
Mof_C 	C 	0.802	0.1634	0.0171	-0.183
Mof_H 	H 	0.7669	0.2042	0.0006	0.12
Mof_C 	C 	0.866	0.1804	0.0425	0.153
Mof_H 	H 	0.873	0.2327	0.0424	-0.037
Mof_N 	N 	0.5909	0.7442	0.9924	-0.272
Mof_C 	C 	0.561	0.7874	0.9569	0.091
Mof_H 	H 	0.5302	0.7645	0.9361	-0.022
Mof_C 	C 	0.57	0.8675	0.9472	-0.135
Mof_H 	H 	0.5484	0.8968	0.9214	0.088
Mof_C 	C 	0.6161	0.897	0.98	0.07
Mof_C 	C 	0.647	0.8506	0.0164	-0.138
Mof_H 	H 	0.6794	0.8708	0.0372	0.089
Mof_C 	C 	0.6328	0.7764	0.0239	0.085
Mof_H 	H 	0.6518	0.7478	0.0506	-0.012
Mof_N 	N 	0.5295	0.2394	0.818	-0.28
Mof_C 	C 	0.5688	0.2627	0.8527	0.091
Mof_H 	H 	0.5784	0.3142	0.8517	-0.026
Mof_C 	C 	0.596	0.2151	0.8899	-0.168
Mof_H 	H 	0.6201	0.2363	0.9144	0.085
Mof_C 	C 	0.5893	0.1381	0.8922	0.086
Mof_C 	C 	0.544	0.1147	0.8573	-0.162
Mof_H 	H 	0.5298	0.0647	0.8587	0.094
Mof_C 	C 	0.5199	0.164	0.8215	0.096
Mof_H 	H 	0.4946	0.1444	0.7971	-0.023
Mof_N 	N 	0.5403	0.4792	0.3499	-0.148
Mof_N 	N 	0.7052	0.4437	0.2983	-0.134
Mof_N 	N 	0.5894	0.365	0.2889	-0.126
Mof_C 	C 	0.5235	0.4218	0.3288	0.097
Mof_C 	C 	0.68	0.3787	0.2775	0.066
Mof_C 	C 	0.628	0.4882	0.3321	0.091
Mof_N 	N 	0.2203	0.4223	0.3497	-0.272
Mof_C 	C 	0.256	0.454	0.3855	0.066
Mof_H 	H 	0.2111	0.4791	0.4149	-0.005
Mof_C 	C 	0.355	0.451	0.3802	-0.13
Mof_H 	H 	0.3761	0.4758	0.4044	0.082
Mof_C 	C 	0.4229	0.4092	0.3359	0.073
Mof_C 	C 	0.3869	0.3772	0.3016	-0.155
Mof_H 	H 	0.4297	0.3504	0.2721	0.101
Mof_C 	C 	0.2881	0.3846	0.3103	0.108
Mof_H 	H 	0.2661	0.3606	0.2862	-0.021
Mof_N 	N 	0.674	0.6966	0.3991	-0.267
Mof_C 	C 	0.594	0.681	0.4083	0.136
Mof_H 	H 	0.5413	0.7185	0.4293	-0.036
Mof_C 	C 	0.573	0.6123	0.3909	-0.184
Mof_H 	H 	0.5124	0.6013	0.4027	0.103
Mof_C 	C 	0.6479	0.5626	0.3556	0.077
Mof_C 	C 	0.736	0.5769	0.3441	-0.138
Mof_H 	H 	0.7889	0.5407	0.3219	0.081
Mof_C 	C 	0.7529	0.6465	0.365	0.052
Mof_H 	H 	0.8144	0.6577	0.3561	0.023
Mof_N 	N 	0.9056	0.2256	0.1641	-0.289
Mof_C 	C 	0.9154	0.2905	0.1856	0.147
Mof_H 	H 	0.9779	0.3001	0.1773	-0.023
Mof_C 	C 	0.8443	0.3433	0.2178	-0.21
Mof_H 	H 	0.8535	0.393	0.2258	0.123
Mof_C 	C 	0.762	0.3262	0.2384	0.125
Mof_C 	C 	0.7495	0.2546	0.2212	-0.176
Mof_H 	H 	0.6926	0.2388	0.2356	0.097
Mof_C 	C 	0.821	0.2066	0.1828	0.108
Mof_H 	H 	0.8102	0.1605	0.17	-0.032
Mof_N 	N 	0.8515	0.3236	0.8146	-0.133
Mof_N 	N 	0.0207	0.2647	0.7756	-0.149
Mof_N 	N 	0.9761	0.3933	0.8216	-0.127
Mof_C 	C 	0.882	0.3911	0.8295	0.086
Mof_C 	C 	0.924	0.2672	0.7875	0.1
Mof_C 	C 	0.0443	0.3288	0.7947	0.099
Mof_N 	N 	0.6683	0.5644	0.9373	-0.275
Mof_C 	C 	0.761	0.5686	0.9214	0.111
Mof_H 	H 	0.78	0.611	0.934	-0.012
Mof_C 	C 	0.829	0.5133	0.8878	-0.166
Mof_H 	H 	0.8951	0.5156	0.879	0.109
Mof_C 	C 	0.8018	0.4552	0.8669	0.099
Mof_C 	C 	0.7045	0.4553	0.8771	-0.14
Mof_H 	H 	0.6844	0.4182	0.86	0.093
Mof_C 	C 	0.6352	0.5105	0.913	0.07
Mof_H 	H 	0.5682	0.5113	0.9205	-0.018
Mof_N 	N 	0.8495	0.0592	0.7474	-0.282
Mof_C 	C 	0.946	0.051	0.75	0.063
Mof_H 	H 	0.9929	0.0008	0.7455	-0.03
Mof_C 	C 	0.967	0.1196	0.759	-0.126
Mof_H 	H 	0.0331	0.1179	0.7573	0.039
Mof_C 	C 	0.8949	0.1945	0.7709	0.076
Mof_C 	C 	0.8009	0.1979	0.7726	-0.178
Mof_H 	H 	0.7484	0.2443	0.783	0.088
Mof_C 	C 	0.789	0.125	0.7572	0.152
Mof_H 	H 	0.7248	0.1266	0.754	-0.049
Mof_N 	N 	0.3508	0.3218	0.7643	-0.274
Mof_C 	C 	0.3151	0.2616	0.7463	0.046
Mof_H 	H 	0.3609	0.2173	0.7271	-0.015
Mof_C 	C 	0.22	0.2646	0.7553	-0.105
Mof_H 	H 	0.2017	0.2218	0.7429	0.039
Mof_C 	C 	0.1475	0.3272	0.7819	0.042
Mof_C 	C 	0.178	0.3927	0.802	-0.116
Mof_H 	H 	0.1318	0.4391	0.819	0.089
Mof_C 	C 	0.2773	0.3808	0.794	0.07
Mof_H 	H 	0.2981	0.4175	0.811	0.001
Mof_N 	N 	0.2275	0.0685	0.4471	-0.137
Mof_N 	N 	0.0707	0.1009	0.5001	-0.119
Mof_N 	N 	0.1937	0.989	0.5154	-0.129
Mof_C 	C 	0.2558	0.0075	0.4756	0.095
Mof_C 	C 	0.1393	0.1127	0.4611	0.126
Mof_C 	C 	0.098	0.0336	0.5253	0.114
Mof_N 	N 	0.551	0.8641	0.4556	-0.26
Mof_C 	C 	0.492	0.876	0.4974	0.142
Mof_H 	H 	0.5141	0.8553	0.5254	-0.035
Mof_C 	C 	0.396	0.9203	0.5028	-0.179
Mof_H 	H 	0.3528	0.9213	0.534	0.094
Mof_C 	C 	0.358	0.9617	0.468	0.092
Mof_C 	C 	0.424	0.961	0.4238	-0.13
Mof_H 	H 	0.4026	0.9927	0.3988	0.092
Mof_C 	C 	0.523	0.913	0.4143	0.053
Mof_H 	H 	0.5687	0.9119	0.3839	-0.021
Mof_N 	N 	0.0734	0.3332	0.3869	-0.299
Mof_C 	C 	0.005	0.32	0.426	0.086
Mof_H 	H 	0.9409	0.3549	0.4334	-0.026
Mof_C 	C 	0.028	0.252	0.4549	-0.135
Mof_H 	H 	0.9912	0.2528	0.4875	0.114
Mof_C 	C 	0.1071	0.1856	0.435	0.089
Mof_C 	C 	0.16	0.197	0.3872	-0.172
Mof_H 	H 	0.209	0.1536	0.3693	0.079
Mof_C 	C 	0.142	0.266	0.3671	0.126
Mof_H 	H 	0.182	0.2684	0.3355	-0.036
Mof_N 	N 	0.9038	0.9686	0.6476	-0.286
Mof_C 	C 	0.995	0.9291	0.633	0.108
Mof_H 	H 	0.0192	0.8881	0.6528	-0.034
Mof_C 	C 	0.057	0.9406	0.5932	-0.164
Mof_H 	H 	0.1179	0.9022	0.5812	0.088
Mof_C 	C 	0.031	0.0129	0.5682	0.063
Mof_C 	C 	0.928	0.0577	0.5815	-0.137
Mof_H 	H 	0.9004	0.1007	0.5638	0.1
Mof_C 	C 	0.875	0.0313	0.6224	0.103
Mof_H 	H 	0.8089	0.062	0.6339	-0.016
_end
