# CIF file generated by openbabel 3.1.0, see https://openbabel.org
data_I
_chemical_name_common 'FUYZAB_ion_b'
_cell_length_a 20.319
_cell_length_b 20.319
_cell_length_c 18.2339
_cell_angle_alpha 90
_cell_angle_beta 90
_cell_angle_gamma 90
_space_group_name_H-M_alt 'P 1'
_space_group_name_Hall 'P 1'
loop_
    _symmetry_equiv_pos_as_xyz
    x,y,z
loop_
    _atom_site_label
    _atom_site_type_symbol
    _atom_site_fract_x
    _atom_site_fract_y
    _atom_site_fract_z
    _atom_site_occupancy
    Mo1      Mo       0.51343    0.00161    0.79039    1.000
    Mo2      Mo       0.62981    0.98657    0.85007    1.000
    Mo3      Mo       0.67263    0.07359    0.00559    1.000
    Mo4      Mo       0.58778    0.15487    0.06254    1.000
    Mo5      Mo       0.43035    0.17642    0.98691    1.000
    Mo6      Mo       0.40269    0.11229    0.86789    1.000
    Mn7      Mn       0.50553    0.28786    0.84320    1.000
    P8       P        0.56410    0.14373    0.87755    1.000
    P9       P        0.41947    0.10167    0.68433    1.000
    P10      P        0.77926    0.05377    0.86932    1.000
    P11      P        0.52723    0.30341    0.01963    1.000
    C12      C        0.36390    0.82110    0.35390    1.000
    H13      H        0.35720    0.84290    0.40060    1.000
    H14      H        0.37010    0.77450    0.36350    1.000
    C15      C        0.30370    0.83000    0.30750    1.000
    H16      H        0.31120    0.80900    0.26050    1.000
    H17      H        0.26720    0.80750    0.33100    1.000
    C18      C        0.21300    0.74940    0.12850    1.000
    H19      H        0.19790    0.70410    0.12800    1.000
    H20      H        0.19690    0.76990    0.17310    1.000
    C21      C        0.96450    0.99860    0.98740    1.000
    H22      H        0.93600    0.01380    0.02650    1.000
    H23      H        0.95290    0.95340    0.97620    1.000
    N24      N        0.42060    0.84600    0.32120    1.000
    H25      H        0.41840    0.86420    0.27870    1.000
    H26      H        0.45770    0.84330    0.34360    1.000
    N27      N        0.28500    0.89800    0.29480    1.000
    H28      H        0.30800    0.92940    0.31350    1.000
    H29      H        0.25090    0.90690    0.26870    1.000
    N30      N        0.18560    0.78460    0.06410    1.000
    H31      H        0.21150    0.80240    0.03260    1.000
    H32      H        0.14360    0.78710    0.05830    1.000
    N33      N        0.95440    0.04000    0.92140    1.000
    H34      H        0.98690    0.06150    0.90290    1.000
    H35      H        0.91610    0.04260    0.90160    1.000
    O36      O        0.54069    0.98009    0.89174    1.000
    O37      O        0.43459    0.08147    0.96429    1.000
    O38      O        0.64328    0.90867    0.82520    1.000
    O39      O        0.80802    0.10541    0.81914    1.000
    O40      O        0.62198    0.09714    0.88979    1.000
    O41      O        0.58060    0.06113    0.03506    1.000
    O42      O        0.60119    0.03012    0.75857    1.000
    O43      O        0.66347    0.98551    0.95381    1.000
    O44      O        0.42600    0.20468    0.88422    1.000
    O45      O        0.35380    0.18536    0.02084    1.000
    O46      O        0.50380    0.92648    0.75376    1.000
    O47      O        0.47553    0.05136    0.70049    1.000
    O48      O        0.71289    0.04693    0.08023    1.000
    O49      O        0.60800    0.15041    0.15151    1.000
    O50      O        0.67152    0.16908    0.01404    1.000
    O51      O        0.75160    0.08928    0.93943    1.000
    O52      O        0.55330    0.32016    0.94272    1.000
    O53      O        0.50876    0.10310    0.83976    1.000
    O54      O        0.41730    0.01369    0.83358    1.000
    O55      O        0.39865    0.13457    0.75757    1.000
    O56      O        0.57831    0.20373    0.83130    1.000
    O57      O        0.44780    0.15537    0.63549    1.000
    O58      O        0.36094    0.06850    0.64921    1.000
    O59      O        0.46059    0.26865    0.01152    1.000
    O60      O        0.82923    0.00195    0.89460    1.000
    O61      O        0.53884    0.16642    0.95390    1.000
    O62      O        0.48351    0.15292    0.08061    1.000
    O63      O        0.57720    0.25541    0.05781    1.000
    O64      O        0.52060    0.36389    0.06630    1.000
    O65      O        0.72244    0.01953    0.82750    1.000
    O66      O        0.32083    0.10903    0.87900    1.000
    O67      O        0.57354    0.35241    0.78435    1.000
    O68      O        0.47260    0.26059    0.73281    1.000
    Mo74     Mo       0.98657    0.49839    0.79039    1.000
    Mo75     Mo       0.87019    0.51343    0.85007    1.000
    Mo76     Mo       0.82737    0.42641    0.00559    1.000
    Mo77     Mo       0.91222    0.34513    0.06254    1.000
    Mo78     Mo       0.06965    0.32358    0.98691    1.000
    Mo79     Mo       0.09731    0.38771    0.86789    1.000
    Mn80     Mn       0.99447    0.21214    0.84320    1.000
    P81      P        0.93590    0.35627    0.87755    1.000
    P82      P        0.08053    0.39833    0.68433    1.000
    P83      P        0.72074    0.44623    0.86932    1.000
    P84      P        0.97277    0.19659    0.01963    1.000
    C85      C        0.13610    0.67890    0.35390    1.000
    H86      H        0.14280    0.65710    0.40060    1.000
    H87      H        0.12990    0.72550    0.36350    1.000
    C88      C        0.19630    0.67000    0.30750    1.000
    H89      H        0.18880    0.69100    0.26050    1.000
    H90      H        0.23280    0.69250    0.33100    1.000
    C91      C        0.28700    0.75060    0.12850    1.000
    H92      H        0.30210    0.79590    0.12800    1.000
    H93      H        0.30310    0.73010    0.17310    1.000
    C94      C        0.53550    0.50140    0.98740    1.000
    H95      H        0.56400    0.48620    0.02650    1.000
    H96      H        0.54710    0.54660    0.97620    1.000
    N97      N        0.07940    0.65400    0.32120    1.000
    H98      H        0.08160    0.63580    0.27870    1.000
    H99      H        0.04230    0.65670    0.34360    1.000
    N100     N        0.21500    0.60200    0.29480    1.000
    H101     H        0.19200    0.57060    0.31350    1.000
    H102     H        0.24910    0.59310    0.26870    1.000
    N103     N        0.31440    0.71540    0.06410    1.000
    H104     H        0.28850    0.69760    0.03260    1.000
    H105     H        0.35640    0.71290    0.05830    1.000
    N106     N        0.54560    0.46000    0.92140    1.000
    H107     H        0.51310    0.43850    0.90290    1.000
    H108     H        0.58390    0.45740    0.90160    1.000
    O109     O        0.95931    0.51991    0.89174    1.000
    O110     O        0.06541    0.41853    0.96429    1.000
    O111     O        0.85672    0.59133    0.82520    1.000
    O112     O        0.69198    0.39459    0.81914    1.000
    O113     O        0.87802    0.40286    0.88979    1.000
    O114     O        0.91940    0.43887    0.03506    1.000
    O115     O        0.89881    0.46988    0.75857    1.000
    O116     O        0.83653    0.51449    0.95381    1.000
    O117     O        0.07400    0.29532    0.88422    1.000
    O118     O        0.14620    0.31464    0.02084    1.000
    O119     O        0.99620    0.57352    0.75376    1.000
    O120     O        0.02447    0.44864    0.70049    1.000
    O121     O        0.78711    0.45307    0.08023    1.000
    O122     O        0.89200    0.34959    0.15151    1.000
    O123     O        0.82848    0.33092    0.01404    1.000
    O124     O        0.74840    0.41072    0.93943    1.000
    O125     O        0.94670    0.17984    0.94272    1.000
    O126     O        0.99124    0.39690    0.83976    1.000
    O127     O        0.08270    0.48631    0.83358    1.000
    O128     O        0.10135    0.36543    0.75757    1.000
    O129     O        0.92169    0.29627    0.83130    1.000
    O130     O        0.05220    0.34463    0.63549    1.000
    O131     O        0.13906    0.43150    0.64921    1.000
    O132     O        0.03941    0.23135    0.01152    1.000
    O133     O        0.67077    0.49805    0.89460    1.000
    O134     O        0.96116    0.33358    0.95390    1.000
    O135     O        0.01649    0.34708    0.08061    1.000
    O136     O        0.92280    0.24459    0.05781    1.000
    O137     O        0.97940    0.13611    0.06630    1.000
    O138     O        0.77756    0.48047    0.82750    1.000
    O139     O        0.17917    0.39097    0.87900    1.000
    O140     O        0.92646    0.14759    0.78435    1.000
    O141     O        0.02740    0.23941    0.73281    1.000
    Mo147    Mo       0.99839    0.01343    0.29039    1.000
    Mo148    Mo       0.01343    0.12981    0.35007    1.000
    Mo149    Mo       0.92641    0.17263    0.50559    1.000
    Mo150    Mo       0.84513    0.08778    0.56254    1.000
    Mo151    Mo       0.82358    0.93035    0.48691    1.000
    Mo152    Mo       0.88771    0.90269    0.36789    1.000
    Mn153    Mn       0.71214    0.00553    0.34320    1.000
    P154     P        0.85627    0.06410    0.37755    1.000
    P155     P        0.89833    0.91947    0.18433    1.000
    P156     P        0.94623    0.27926    0.36932    1.000
    P157     P        0.69659    0.02723    0.51963    1.000
    C158     C        0.17890    0.86390    0.85390    1.000
    H159     H        0.15710    0.85720    0.90060    1.000
    H160     H        0.22550    0.87010    0.86350    1.000
    C161     C        0.17000    0.80370    0.80750    1.000
    H162     H        0.19100    0.81120    0.76050    1.000
    H163     H        0.19250    0.76720    0.83100    1.000
    C164     C        0.25060    0.71300    0.62850    1.000
    H165     H        0.29590    0.69790    0.62800    1.000
    H166     H        0.23010    0.69690    0.67310    1.000
    C167     C        0.00140    0.46450    0.48740    1.000
    H168     H        0.98620    0.43600    0.52650    1.000
    H169     H        0.04660    0.45290    0.47620    1.000
    N170     N        0.15400    0.92060    0.82120    1.000
    H171     H        0.13580    0.91840    0.77870    1.000
    H172     H        0.15670    0.95770    0.84360    1.000
    N173     N        0.10200    0.78500    0.79480    1.000
    H174     H        0.07060    0.80800    0.81350    1.000
    H175     H        0.09310    0.75090    0.76870    1.000
    N176     N        0.21540    0.68560    0.56410    1.000
    H177     H        0.19760    0.71150    0.53260    1.000
    H178     H        0.21290    0.64360    0.55830    1.000
    N179     N        0.96000    0.45440    0.42140    1.000
    H180     H        0.93850    0.48690    0.40290    1.000
    H181     H        0.95740    0.41610    0.40160    1.000
    O182     O        0.01991    0.04069    0.39174    1.000
    O183     O        0.91853    0.93459    0.46429    1.000
    O184     O        0.09133    0.14328    0.32520    1.000
    O185     O        0.89459    0.30802    0.31914    1.000
    O186     O        0.90286    0.12198    0.38979    1.000
    O187     O        0.93887    0.08060    0.53506    1.000
    O188     O        0.96988    0.10119    0.25857    1.000
    O189     O        0.01449    0.16347    0.45381    1.000
    O190     O        0.79532    0.92600    0.38422    1.000
    O191     O        0.81464    0.85380    0.52084    1.000
    O192     O        0.07352    0.00380    0.25376    1.000
    O193     O        0.94864    0.97553    0.20049    1.000
    O194     O        0.95307    0.21289    0.58023    1.000
    O195     O        0.84959    0.10800    0.65151    1.000
    O196     O        0.83092    0.17152    0.51404    1.000
    O197     O        0.91072    0.25160    0.43943    1.000
    O198     O        0.67984    0.05330    0.44272    1.000
    O199     O        0.89690    0.00876    0.33976    1.000
    O200     O        0.98631    0.91730    0.33358    1.000
    O201     O        0.86543    0.89865    0.25757    1.000
    O202     O        0.79627    0.07831    0.33130    1.000
    O203     O        0.84463    0.94780    0.13549    1.000
    O204     O        0.93150    0.86094    0.14921    1.000
    O205     O        0.73135    0.96059    0.51152    1.000
    O206     O        0.99805    0.32923    0.39460    1.000
    O207     O        0.83358    0.03884    0.45390    1.000
    O208     O        0.84708    0.98351    0.58061    1.000
    O209     O        0.74459    0.07720    0.55781    1.000
    O210     O        0.63611    0.02060    0.56630    1.000
    O211     O        0.98047    0.22244    0.32750    1.000
    O212     O        0.89097    0.82083    0.37900    1.000
    O213     O        0.64759    0.07354    0.28435    1.000
    O214     O        0.73941    0.97260    0.23281    1.000
    Mo220    Mo       0.50161    0.48657    0.29039    1.000
    Mo221    Mo       0.48657    0.37019    0.35007    1.000
    Mo222    Mo       0.57359    0.32737    0.50559    1.000
    Mo223    Mo       0.65487    0.41222    0.56254    1.000
    Mo224    Mo       0.67642    0.56965    0.48691    1.000
    Mo225    Mo       0.61229    0.59731    0.36789    1.000
    Mn226    Mn       0.78786    0.49447    0.34320    1.000
    P227     P        0.64373    0.43590    0.37755    1.000
    P228     P        0.60167    0.58053    0.18433    1.000
    P229     P        0.55377    0.22074    0.36932    1.000
    P230     P        0.80341    0.47277    0.51963    1.000
    C231     C        0.32110    0.63610    0.85390    1.000
    H232     H        0.34290    0.64280    0.90060    1.000
    H233     H        0.27450    0.62990    0.86350    1.000
    C234     C        0.33000    0.69630    0.80750    1.000
    H235     H        0.30900    0.68880    0.76050    1.000
    H236     H        0.30750    0.73280    0.83100    1.000
    C237     C        0.24940    0.78700    0.62850    1.000
    H238     H        0.20410    0.80210    0.62800    1.000
    H239     H        0.26990    0.80310    0.67310    1.000
    C240     C        0.49860    0.03550    0.48740    1.000
    H241     H        0.51380    0.06400    0.52650    1.000
    H242     H        0.45340    0.04710    0.47620    1.000
    N243     N        0.34600    0.57940    0.82120    1.000
    H244     H        0.36420    0.58160    0.77870    1.000
    H245     H        0.34330    0.54230    0.84360    1.000
    N246     N        0.39800    0.71500    0.79480    1.000
    H247     H        0.42940    0.69200    0.81350    1.000
    H248     H        0.40690    0.74910    0.76870    1.000
    N249     N        0.28460    0.81440    0.56410    1.000
    H250     H        0.30240    0.78850    0.53260    1.000
    H251     H        0.28710    0.85640    0.55830    1.000
    N252     N        0.54000    0.04560    0.42140    1.000
    H253     H        0.56150    0.01310    0.40290    1.000
    H254     H        0.54260    0.08390    0.40160    1.000
    O255     O        0.48009    0.45931    0.39174    1.000
    O256     O        0.58147    0.56541    0.46429    1.000
    O257     O        0.40867    0.35672    0.32520    1.000
    O258     O        0.60541    0.19198    0.31914    1.000
    O259     O        0.59714    0.37802    0.38979    1.000
    O260     O        0.56113    0.41940    0.53506    1.000
    O261     O        0.53012    0.39881    0.25857    1.000
    O262     O        0.48551    0.33653    0.45381    1.000
    O263     O        0.70468    0.57400    0.38422    1.000
    O264     O        0.68536    0.64620    0.52084    1.000
    O265     O        0.42648    0.49620    0.25376    1.000
    O266     O        0.55136    0.52447    0.20049    1.000
    O267     O        0.54693    0.28711    0.58023    1.000
    O268     O        0.65041    0.39200    0.65151    1.000
    O269     O        0.66908    0.32848    0.51404    1.000
    O270     O        0.58928    0.24840    0.43943    1.000
    O271     O        0.82016    0.44670    0.44272    1.000
    O272     O        0.60310    0.49124    0.33976    1.000
    O273     O        0.51369    0.58270    0.33358    1.000
    O274     O        0.63457    0.60135    0.25757    1.000
    O275     O        0.70373    0.42169    0.33130    1.000
    O276     O        0.65537    0.55220    0.13549    1.000
    O277     O        0.56850    0.63906    0.14921    1.000
    O278     O        0.76865    0.53941    0.51152    1.000
    O279     O        0.50195    0.17077    0.39460    1.000
    O280     O        0.66642    0.46116    0.45390    1.000
    O281     O        0.65292    0.51649    0.58061    1.000
    O282     O        0.75541    0.42280    0.55781    1.000
    O283     O        0.86389    0.47940    0.56630    1.000
    O284     O        0.51953    0.27756    0.32750    1.000
    O285     O        0.60903    0.67917    0.37900    1.000
    O286     O        0.85241    0.42646    0.28435    1.000
    O287     O        0.76059    0.52740    0.23281    1.000
    Mo293    Mo       0.48657    0.99839    0.20961    1.000
    Mo294    Mo       0.37019    0.01343    0.14993    1.000
    Mo295    Mo       0.32737    0.92641    0.99441    1.000
    Mo296    Mo       0.41222    0.84513    0.93746    1.000
    Mo297    Mo       0.56965    0.82358    0.01309    1.000
    Mo298    Mo       0.59731    0.88771    0.13211    1.000
    Mn299    Mn       0.49447    0.71214    0.15680    1.000
    P300     P        0.43590    0.85627    0.12245    1.000
    P301     P        0.58053    0.89833    0.31567    1.000
    P302     P        0.22074    0.94623    0.13068    1.000
    P303     P        0.47277    0.69659    0.98037    1.000
    C304     C        0.63610    0.17890    0.64610    1.000
    H305     H        0.64280    0.15710    0.59940    1.000
    H306     H        0.62990    0.22550    0.63650    1.000
    C307     C        0.69630    0.17000    0.69250    1.000
    H308     H        0.68880    0.19100    0.73950    1.000
    H309     H        0.73280    0.19250    0.66900    1.000
    C310     C        0.78700    0.25060    0.87150    1.000
    H311     H        0.80210    0.29590    0.87200    1.000
    H312     H        0.80310    0.23010    0.82690    1.000
    C313     C        0.03550    0.00140    0.01260    1.000
    H314     H        0.06400    0.98620    0.97350    1.000
    H315     H        0.04710    0.04660    0.02380    1.000
    N316     N        0.57940    0.15400    0.67880    1.000
    H317     H        0.58160    0.13580    0.72130    1.000
    H318     H        0.54230    0.15670    0.65640    1.000
    N319     N        0.71500    0.10200    0.70520    1.000
    H320     H        0.69200    0.07060    0.68650    1.000
    H321     H        0.74910    0.09310    0.73130    1.000
    N322     N        0.81440    0.21540    0.93590    1.000
    H323     H        0.78850    0.19760    0.96740    1.000
    H324     H        0.85640    0.21290    0.94170    1.000
    N325     N        0.04560    0.96000    0.07860    1.000
    H326     H        0.01310    0.93850    0.09710    1.000
    H327     H        0.08390    0.95740    0.09840    1.000
    O328     O        0.45931    0.01991    0.10826    1.000
    O329     O        0.56541    0.91853    0.03571    1.000
    O330     O        0.35672    0.09133    0.17480    1.000
    O331     O        0.19198    0.89459    0.18086    1.000
    O332     O        0.37802    0.90286    0.11021    1.000
    O333     O        0.41940    0.93887    0.96494    1.000
    O334     O        0.39881    0.96988    0.24143    1.000
    O335     O        0.33653    0.01449    0.04619    1.000
    O336     O        0.57400    0.79532    0.11578    1.000
    O337     O        0.64620    0.81464    0.97916    1.000
    O338     O        0.49620    0.07352    0.24624    1.000
    O339     O        0.52447    0.94864    0.29951    1.000
    O340     O        0.28711    0.95307    0.91977    1.000
    O341     O        0.39200    0.84959    0.84849    1.000
    O342     O        0.32848    0.83092    0.98596    1.000
    O343     O        0.24840    0.91072    0.06057    1.000
    O344     O        0.44670    0.67984    0.05728    1.000
    O345     O        0.49124    0.89690    0.16024    1.000
    O346     O        0.58270    0.98631    0.16642    1.000
    O347     O        0.60135    0.86543    0.24243    1.000
    O348     O        0.42169    0.79627    0.16870    1.000
    O349     O        0.55220    0.84463    0.36451    1.000
    O350     O        0.63906    0.93150    0.35079    1.000
    O351     O        0.53941    0.73135    0.98848    1.000
    O352     O        0.17077    0.99805    0.10540    1.000
    O353     O        0.46116    0.83358    0.04610    1.000
    O354     O        0.51649    0.84708    0.91939    1.000
    O355     O        0.42280    0.74459    0.94219    1.000
    O356     O        0.47940    0.63611    0.93370    1.000
    O357     O        0.27756    0.98047    0.17250    1.000
    O358     O        0.67917    0.89097    0.12100    1.000
    O359     O        0.42646    0.64759    0.21565    1.000
    O360     O        0.52740    0.73941    0.26719    1.000
    Mo366    Mo       0.01343    0.50161    0.20961    1.000
    Mo367    Mo       0.12981    0.48657    0.14993    1.000
    Mo368    Mo       0.17263    0.57359    0.99441    1.000
    Mo369    Mo       0.08778    0.65487    0.93746    1.000
    Mo370    Mo       0.93035    0.67642    0.01309    1.000
    Mo371    Mo       0.90269    0.61229    0.13211    1.000
    Mn372    Mn       0.00553    0.78786    0.15680    1.000
    P373     P        0.06410    0.64373    0.12245    1.000
    P374     P        0.91947    0.60167    0.31567    1.000
    P375     P        0.27926    0.55377    0.13068    1.000
    P376     P        0.02723    0.80341    0.98037    1.000
    C377     C        0.86390    0.32110    0.64610    1.000
    H378     H        0.85720    0.34290    0.59940    1.000
    H379     H        0.87010    0.27450    0.63650    1.000
    C380     C        0.80370    0.33000    0.69250    1.000
    H381     H        0.81120    0.30900    0.73950    1.000
    H382     H        0.76720    0.30750    0.66900    1.000
    C383     C        0.71300    0.24940    0.87150    1.000
    H384     H        0.69790    0.20410    0.87200    1.000
    H385     H        0.69690    0.26990    0.82690    1.000
    C386     C        0.46450    0.49860    0.01260    1.000
    H387     H        0.43600    0.51380    0.97350    1.000
    H388     H        0.45290    0.45340    0.02380    1.000
    N389     N        0.92060    0.34600    0.67880    1.000
    H390     H        0.91840    0.36420    0.72130    1.000
    H391     H        0.95770    0.34330    0.65640    1.000
    N392     N        0.78500    0.39800    0.70520    1.000
    H393     H        0.80800    0.42940    0.68650    1.000
    H394     H        0.75090    0.40690    0.73130    1.000
    N395     N        0.68560    0.28460    0.93590    1.000
    H396     H        0.71150    0.30240    0.96740    1.000
    H397     H        0.64360    0.28710    0.94170    1.000
    N398     N        0.45440    0.54000    0.07860    1.000
    H399     H        0.48690    0.56150    0.09710    1.000
    H400     H        0.41610    0.54260    0.09840    1.000
    O401     O        0.04069    0.48009    0.10826    1.000
    O402     O        0.93459    0.58147    0.03571    1.000
    O403     O        0.14328    0.40867    0.17480    1.000
    O404     O        0.30802    0.60541    0.18086    1.000
    O405     O        0.12198    0.59714    0.11021    1.000
    O406     O        0.08060    0.56113    0.96494    1.000
    O407     O        0.10119    0.53012    0.24143    1.000
    O408     O        0.16347    0.48551    0.04619    1.000
    O409     O        0.92600    0.70468    0.11578    1.000
    O410     O        0.85380    0.68536    0.97916    1.000
    O411     O        0.00380    0.42648    0.24624    1.000
    O412     O        0.97553    0.55136    0.29951    1.000
    O413     O        0.21289    0.54693    0.91977    1.000
    O414     O        0.10800    0.65041    0.84849    1.000
    O415     O        0.17152    0.66908    0.98596    1.000
    O416     O        0.25160    0.58928    0.06057    1.000
    O417     O        0.05330    0.82016    0.05728    1.000
    O418     O        0.00876    0.60310    0.16024    1.000
    O419     O        0.91730    0.51369    0.16642    1.000
    O420     O        0.89865    0.63457    0.24243    1.000
    O421     O        0.07831    0.70373    0.16870    1.000
    O422     O        0.94780    0.65537    0.36451    1.000
    O423     O        0.86094    0.56850    0.35079    1.000
    O424     O        0.96059    0.76865    0.98848    1.000
    O425     O        0.32923    0.50195    0.10540    1.000
    O426     O        0.03884    0.66642    0.04610    1.000
    O427     O        0.98351    0.65292    0.91939    1.000
    O428     O        0.07720    0.75541    0.94219    1.000
    O429     O        0.02060    0.86389    0.93370    1.000
    O430     O        0.22244    0.51953    0.17250    1.000
    O431     O        0.82083    0.60903    0.12100    1.000
    O432     O        0.07354    0.85241    0.21565    1.000
    O433     O        0.97260    0.76059    0.26719    1.000
    Mo439    Mo       0.00161    0.98657    0.70961    1.000
    Mo440    Mo       0.98657    0.87019    0.64993    1.000
    Mo441    Mo       0.07359    0.82737    0.49441    1.000
    Mo442    Mo       0.15487    0.91222    0.43746    1.000
    Mo443    Mo       0.17642    0.06965    0.51309    1.000
    Mo444    Mo       0.11229    0.09731    0.63211    1.000
    Mn445    Mn       0.28786    0.99447    0.65680    1.000
    P446     P        0.14373    0.93590    0.62245    1.000
    P447     P        0.10167    0.08053    0.81567    1.000
    P448     P        0.05377    0.72074    0.63068    1.000
    P449     P        0.30341    0.97277    0.48037    1.000
    C450     C        0.82110    0.13610    0.14610    1.000
    H451     H        0.84290    0.14280    0.09940    1.000
    H452     H        0.77450    0.12990    0.13650    1.000
    C453     C        0.83000    0.19630    0.19250    1.000
    H454     H        0.80900    0.18880    0.23950    1.000
    H455     H        0.80750    0.23280    0.16900    1.000
    C456     C        0.74940    0.28700    0.37150    1.000
    H457     H        0.70410    0.30210    0.37200    1.000
    H458     H        0.76990    0.30310    0.32690    1.000
    C459     C        0.99860    0.53550    0.51260    1.000
    H460     H        0.01380    0.56400    0.47350    1.000
    H461     H        0.95340    0.54710    0.52380    1.000
    N462     N        0.84600    0.07940    0.17880    1.000
    H463     H        0.86420    0.08160    0.22130    1.000
    H464     H        0.84330    0.04230    0.15640    1.000
    N465     N        0.89800    0.21500    0.20520    1.000
    H466     H        0.92940    0.19200    0.18650    1.000
    H467     H        0.90690    0.24910    0.23130    1.000
    N468     N        0.78460    0.31440    0.43590    1.000
    H469     H        0.80240    0.28850    0.46740    1.000
    H470     H        0.78710    0.35640    0.44170    1.000
    N471     N        0.04000    0.54560    0.57860    1.000
    H472     H        0.06150    0.51310    0.59710    1.000
    H473     H        0.04260    0.58390    0.59840    1.000
    O474     O        0.98009    0.95931    0.60826    1.000
    O475     O        0.08147    0.06541    0.53571    1.000
    O476     O        0.90867    0.85672    0.67480    1.000
    O477     O        0.10541    0.69198    0.68086    1.000
    O478     O        0.09714    0.87802    0.61021    1.000
    O479     O        0.06113    0.91940    0.46494    1.000
    O480     O        0.03012    0.89881    0.74143    1.000
    O481     O        0.98551    0.83653    0.54619    1.000
    O482     O        0.20468    0.07400    0.61578    1.000
    O483     O        0.18536    0.14620    0.47916    1.000
    O484     O        0.92648    0.99620    0.74624    1.000
    O485     O        0.05136    0.02447    0.79951    1.000
    O486     O        0.04693    0.78711    0.41977    1.000
    O487     O        0.15041    0.89200    0.34849    1.000
    O488     O        0.16908    0.82848    0.48596    1.000
    O489     O        0.08928    0.74840    0.56057    1.000
    O490     O        0.32016    0.94670    0.55728    1.000
    O491     O        0.10310    0.99124    0.66024    1.000
    O492     O        0.01369    0.08270    0.66642    1.000
    O493     O        0.13457    0.10135    0.74243    1.000
    O494     O        0.20373    0.92169    0.66870    1.000
    O495     O        0.15537    0.05220    0.86451    1.000
    O496     O        0.06850    0.13906    0.85079    1.000
    O497     O        0.26865    0.03941    0.48848    1.000
    O498     O        0.00195    0.67077    0.60540    1.000
    O499     O        0.16642    0.96116    0.54610    1.000
    O500     O        0.15292    0.01649    0.41939    1.000
    O501     O        0.25541    0.92280    0.44219    1.000
    O502     O        0.36389    0.97940    0.43370    1.000
    O503     O        0.01953    0.77756    0.67250    1.000
    O504     O        0.10903    0.17917    0.62100    1.000
    O505     O        0.35241    0.92646    0.71565    1.000
    O506     O        0.26059    0.02740    0.76719    1.000
    Mo512    Mo       0.49839    0.51343    0.70961    1.000
    Mo513    Mo       0.51343    0.62981    0.64993    1.000
    Mo514    Mo       0.42641    0.67263    0.49441    1.000
    Mo515    Mo       0.34513    0.58778    0.43746    1.000
    Mo516    Mo       0.32358    0.43035    0.51309    1.000
    Mo517    Mo       0.38771    0.40269    0.63211    1.000
    Mn518    Mn       0.21214    0.50553    0.65680    1.000
    P519     P        0.35627    0.56410    0.62245    1.000
    P520     P        0.39833    0.41947    0.81567    1.000
    P521     P        0.44623    0.77926    0.63068    1.000
    P522     P        0.19659    0.52723    0.48037    1.000
    C523     C        0.67890    0.36390    0.14610    1.000
    H524     H        0.65710    0.35720    0.09940    1.000
    H525     H        0.72550    0.37010    0.13650    1.000
    C526     C        0.67000    0.30370    0.19250    1.000
    H527     H        0.69100    0.31120    0.23950    1.000
    H528     H        0.69250    0.26720    0.16900    1.000
    C529     C        0.75060    0.21300    0.37150    1.000
    H530     H        0.79590    0.19790    0.37200    1.000
    H531     H        0.73010    0.19690    0.32690    1.000
    C532     C        0.50140    0.96450    0.51260    1.000
    H533     H        0.48620    0.93600    0.47350    1.000
    H534     H        0.54660    0.95290    0.52380    1.000
    N535     N        0.65400    0.42060    0.17880    1.000
    H536     H        0.63580    0.41840    0.22130    1.000
    H537     H        0.65670    0.45770    0.15640    1.000
    N538     N        0.60200    0.28500    0.20520    1.000
    H539     H        0.57060    0.30800    0.18650    1.000
    H540     H        0.59310    0.25090    0.23130    1.000
    N541     N        0.71540    0.18560    0.43590    1.000
    H542     H        0.69760    0.21150    0.46740    1.000
    H543     H        0.71290    0.14360    0.44170    1.000
    N544     N        0.46000    0.95440    0.57860    1.000
    H545     H        0.43850    0.98690    0.59710    1.000
    H546     H        0.45740    0.91610    0.59840    1.000
    O547     O        0.51991    0.54069    0.60826    1.000
    O548     O        0.41853    0.43459    0.53571    1.000
    O549     O        0.59133    0.64328    0.67480    1.000
    O550     O        0.39459    0.80802    0.68086    1.000
    O551     O        0.40286    0.62198    0.61021    1.000
    O552     O        0.43887    0.58060    0.46494    1.000
    O553     O        0.46988    0.60119    0.74143    1.000
    O554     O        0.51449    0.66347    0.54619    1.000
    O555     O        0.29532    0.42600    0.61578    1.000
    O556     O        0.31464    0.35380    0.47916    1.000
    O557     O        0.57352    0.50380    0.74624    1.000
    O558     O        0.44864    0.47553    0.79951    1.000
    O559     O        0.45307    0.71289    0.41977    1.000
    O560     O        0.34959    0.60800    0.34849    1.000
    O561     O        0.33092    0.67152    0.48596    1.000
    O562     O        0.41072    0.75160    0.56057    1.000
    O563     O        0.17984    0.55330    0.55728    1.000
    O564     O        0.39690    0.50876    0.66024    1.000
    O565     O        0.48631    0.41730    0.66642    1.000
    O566     O        0.36543    0.39865    0.74243    1.000
    O567     O        0.29627    0.57831    0.66870    1.000
    O568     O        0.34463    0.44780    0.86451    1.000
    O569     O        0.43150    0.36094    0.85079    1.000
    O570     O        0.23135    0.46059    0.48848    1.000
    O571     O        0.49805    0.82923    0.60540    1.000
    O572     O        0.33358    0.53884    0.54610    1.000
    O573     O        0.34708    0.48351    0.41939    1.000
    O574     O        0.24459    0.57720    0.44219    1.000
    O575     O        0.13611    0.52060    0.43370    1.000
    O576     O        0.48047    0.72244    0.67250    1.000
    O577     O        0.39097    0.32083    0.62100    1.000
    O578     O        0.14759    0.57354    0.71565    1.000
    O579     O        0.23941    0.47260    0.76719    1.000
    Mn585    Mn       0.50000    0.00000    0.00000    1.000
    Mn586    Mn       0.00000    0.50000    0.00000    1.000
    Mn587    Mn       0.00000    0.00000    0.50000    1.000
    Mn588    Mn       0.50000    0.50000    0.50000    1.000
