data_functionalizedCrystal
_audit_creation_method	'EQeq! by Chris Wilmer'
_symmetry_space_group_name_H-M	'P1'
_symmetry_Int_Tables_number	1
_symmetry_cell_setting	triclinic
loop_
_symmetry_equiv_pos_as_xyz
  x,y,z
_cell_length_a	9.275
_cell_length_b	12.922
_cell_length_c	14.564
_cell_angle_alpha	105.06
_cell_angle_beta	97.194
_cell_angle_gamma	96.254
loop_
_atom_site_label
_atom_site_type_symbol
_atom_site_fract_x
_atom_site_fract_y
_atom_site_fract_z
_atom_site_charge
Mof_Co	Co	0.44528	0.91885	0.71791	1.166
Mof_Co	Co	0.95294	0.70279	0.87317	1.137
Mof_Co	Co	0.55472	0.08115	0.28209	1.139
Mof_Co	Co	0.04706	0.29721	0.12683	1.082
Mof_Co	Co	-0	0	-0	1.032
Mof_H 	H 	0.7007	0.3562	0.8337	0.046
Mof_H 	H 	0.5667	0.1361	0.5803	0.035
Mof_H 	H 	0.753	0.4332	0.5889	0.048
Mof_H 	H 	0.0444	0.945	0.2107	0.009
Mof_H 	H 	0.6938	0.0187	0.8924	-0.065
Mof_H 	H 	0.1933	0.7413	0.7386	-0.031
Mof_H 	H 	0.2729	0.1222	0.9463	0.16
Mof_H 	H 	0.3671	0.1047	0.8696	0.158
Mof_H 	H 	0.9138	0.565	0.0113	0.134
Mof_H 	H 	0.9254	0.5759	0.1165	0.159
Mof_H 	H 	0.5406	0.6857	0.674	0.169
Mof_H 	H 	0.6608	0.6342	0.7137	0.171
Mof_H 	H 	0.2993	0.6438	0.1663	0.018
Mof_H 	H 	0.4333	0.8639	0.4197	0.049
Mof_H 	H 	0.247	0.5668	0.4111	0.033
Mof_H 	H 	0.9556	0.055	0.7893	-0.032
Mof_H 	H 	0.3062	0.9813	0.1076	0.032
Mof_H 	H 	0.8067	0.2587	0.2614	-0.018
Mof_H 	H 	0.7271	0.8778	0.0537	0.135
Mof_H 	H 	0.6329	0.8953	0.1304	0.153
Mof_H 	H 	0.0862	0.435	0.9887	0.164
Mof_H 	H 	0.0746	0.4241	0.8835	0.147
Mof_H 	H 	0.4594	0.3143	0.326	0.164
Mof_H 	H 	0.3392	0.3658	0.2863	0.166
Mof_C 	C 	0.8176	0.5216	0.7773	0.296
Mof_C 	C 	0.741	0.4093	0.7197	-0.095
Mof_C 	C 	0.6908	0.3364	0.7668	0.047
Mof_C 	C 	0.6246	0.232	0.713	-0.115
Mof_C 	C 	0.6096	0.2057	0.616	0.057
Mof_C 	C 	0.6571	0.2807	0.568	-0.115
Mof_C 	C 	0.7219	0.3824	0.62	0.045
Mof_C 	C 	0.6345	0.2491	0.4605	0.35
Mof_C 	C 	0.5674	0.1505	0.7637	0.364
Mof_C 	C 	0.9658	0.7111	0.0885	0.215
Mof_C 	C 	0.0217	0.8802	0.1619	0.048
Mof_C 	C 	0.6721	0.7856	0.7818	0.208
Mof_C 	C 	0.7071	0.947	0.8677	0.183
Mof_C 	C 	0.238	0.9722	0.8648	0.223
Mof_C 	C 	0.1921	0.8068	0.7837	0.09
Mof_C 	C 	0.1824	0.4784	0.2227	0.308
Mof_C 	C 	0.259	0.5907	0.2803	-0.125
Mof_C 	C 	0.3092	0.6636	0.2332	0.057
Mof_C 	C 	0.3754	0.768	0.287	-0.124
Mof_C 	C 	0.3904	0.7943	0.384	0.06
Mof_C 	C 	0.3429	0.7193	0.432	-0.121
Mof_C 	C 	0.2781	0.6176	0.38	0.055
Mof_C 	C 	0.3655	0.7509	0.5395	0.348
Mof_C 	C 	0.4326	0.8495	0.2363	0.367
Mof_C 	C 	0.0342	0.2889	0.9115	0.207
Mof_C 	C 	0.9783	0.1198	0.8381	0.168
Mof_C 	C 	0.3279	0.2144	0.2182	0.192
Mof_C 	C 	0.2929	0.053	0.1323	-0.009
Mof_C 	C 	0.762	0.0278	0.1352	0.136
Mof_C 	C 	0.8079	0.1932	0.2163	0.09
Mof_N 	N 	0.1058	0.8195	0.8492	-0.239
Mof_N 	N 	0.1355	0.9268	0.9029	-0.225
Mof_N 	N 	0.2792	0.8999	0.7893	-0.288
Mof_N 	N 	0.3005	0.08	0.8977	-0.364
Mof_N 	N 	0.0124	0.873	0.0711	-0.233
Mof_N 	N 	0.9773	0.7643	0.0218	-0.243
Mof_N 	N 	0.9941	0.7819	0.1766	-0.113
Mof_N 	N 	0.9309	0.605	0.0699	-0.338
Mof_N 	N 	0.8124	0.9063	0.9029	-0.209
Mof_N 	N 	0.7936	0.7976	0.8489	-0.226
Mof_N 	N 	0.6159	0.8779	0.7913	-0.299
Mof_N 	N 	0.6179	0.6902	0.715	-0.35
Mof_N 	N 	0.8942	0.1805	0.1508	-0.221
Mof_N 	N 	0.8645	0.0732	0.0971	-0.233
Mof_N 	N 	0.7208	0.1001	0.2107	-0.286
Mof_N 	N 	0.6995	0.92	0.1023	-0.305
Mof_N 	N 	0.9876	0.127	0.9289	-0.191
Mof_N 	N 	0.0227	0.2357	0.9782	-0.252
Mof_N 	N 	0.0059	0.2181	0.8234	-0.192
Mof_N 	N 	0.0691	0.395	0.9301	-0.342
Mof_N 	N 	0.1876	0.0937	0.0971	-0.239
Mof_N 	N 	0.2064	0.2024	0.1511	-0.251
Mof_N 	N 	0.3841	0.1221	0.2087	-0.287
Mof_N 	N 	0.3821	0.3098	0.285	-0.351
Mof_O 	O 	0.8197	0.5528	0.8667	-0.386
Mof_O 	O 	0.8787	0.5826	0.7343	-0.38
Mof_O 	O 	0.4976	0.0626	0.7064	-0.479
Mof_O 	O 	0.5893	0.1722	0.8513	-0.306
Mof_O 	O 	0.5955	0.148	0.4193	-0.456
Mof_O 	O 	0.6532	0.3184	0.4171	-0.31
Mof_O 	O 	0.1803	0.4472	0.1333	-0.446
Mof_O 	O 	0.1213	0.4174	0.2657	-0.42
Mof_O 	O 	0.5024	0.9374	0.2936	-0.432
Mof_O 	O 	0.4107	0.8278	0.1487	-0.325
Mof_O 	O 	0.4045	0.852	0.5807	-0.436
Mof_O 	O 	0.3468	0.6816	0.5829	-0.317
_end
