data_functionalizedCrystal
_audit_creation_method	'EQeq! by Chris Wilmer'
_symmetry_space_group_name_H-M	'P1'
_symmetry_Int_Tables_number	1
_symmetry_cell_setting	triclinic
loop_
_symmetry_equiv_pos_as_xyz
  x,y,z
_cell_length_a	18.3085
_cell_length_b	9.0788
_cell_length_c	19.6464
_cell_angle_alpha	90
_cell_angle_beta	97.068
_cell_angle_gamma	90
loop_
_atom_site_label
_atom_site_type_symbol
_atom_site_fract_x
_atom_site_fract_y
_atom_site_fract_z
_atom_site_charge
Mof_O 	O 	0.09341	0.5939	0.96614	-0.543
Mof_O 	O 	0.36748	0.5537	0.99047	-0.502
Mof_O 	O 	0.40657	0.3299	0.95942	-0.515
Mof_C 	C 	0.35771	0.4271	0.96656	0.433
Mof_Dy	Dy	0.97154	0.21224	0.9978	2.083
Mof_O 	O 	0.99321	0.9589	0.0748	-0.615
Mof_O 	O 	0.225	0.4697	0.95546	-0.145
Mof_O 	O 	0.97247	0.1764	0.11941	-0.442
Mof_C 	C 	0.17733	0.2644	0.90267	-0.002
Mof_H 	H 	0.1439	0.1944	0.8833	0.035
Mof_O 	O 	0.03425	0.381	0.93884	-0.551
Mof_C 	C 	0.98673	0.0415	0.1259	0.418
Mof_C 	C 	0.25443	0.2558	0.9073	-0.036
Mof_H 	H 	0.2819	0.1807	0.8906	0.051
Mof_C 	C 	0.99731	0.8329	0.21319	-0.031
Mof_H 	H 	0.9955	0.7505	0.1849	0.031
Mof_C 	C 	0.09056	0.4621	0.94686	0.485
Mof_C 	C 	0.99539	0.9749	0.19277	-0.036
Mof_C 	C 	0.28106	0.3795	0.9411	-0.01
Mof_C 	C 	0.16066	0.394	0.93176	-0.043
Mof_O 	O 	0.59341	0.0939	0.96614	-0.545
Mof_O 	O 	0.86748	0.0537	0.99047	-0.498
Mof_O 	O 	0.90657	0.8299	0.95942	-0.521
Mof_C 	C 	0.85771	0.9271	0.96656	0.426
Mof_Dy	Dy	0.47154	0.71224	0.9978	2.123
Mof_O 	O 	0.49321	0.4589	0.0748	-0.624
Mof_O 	O 	0.725	0.9697	0.95546	-0.149
Mof_O 	O 	0.47247	0.6764	0.11941	-0.448
Mof_C 	C 	0.67733	0.7644	0.90267	-0.004
Mof_H 	H 	0.6439	0.6944	0.8833	0.033
Mof_O 	O 	0.53425	0.881	0.93884	-0.563
Mof_C 	C 	0.48673	0.5415	0.1259	0.425
Mof_C 	C 	0.75443	0.7558	0.9073	-0.039
Mof_H 	H 	0.7819	0.6807	0.8906	0.049
Mof_C 	C 	0.49731	0.3329	0.21319	-0.025
Mof_H 	H 	0.4955	0.2505	0.1849	0.029
Mof_C 	C 	0.59056	0.9621	0.94686	0.482
Mof_C 	C 	0.49539	0.4749	0.19277	-0.041
Mof_C 	C 	0.78106	0.8795	0.9411	-0.011
Mof_C 	C 	0.66066	0.894	0.93176	-0.046
Mof_O 	O 	0.90659	0.5939	0.53386	-0.549
Mof_O 	O 	0.63252	0.5537	0.50953	-0.503
Mof_O 	O 	0.59343	0.3299	0.54058	-0.517
Mof_C 	C 	0.64229	0.4271	0.53344	0.433
Mof_Dy	Dy	0.02846	0.21224	0.5022	2.14
Mof_O 	O 	0.00679	0.9589	0.4252	-0.619
Mof_O 	O 	0.775	0.4697	0.54454	-0.147
Mof_O 	O 	0.02753	0.1764	0.38059	-0.448
Mof_C 	C 	0.82267	0.2644	0.59733	-0.003
Mof_H 	H 	0.8561	0.1944	0.6167	0.033
Mof_O 	O 	0.96575	0.381	0.56116	-0.568
Mof_C 	C 	0.01327	0.0415	0.3741	0.423
Mof_C 	C 	0.74557	0.2558	0.5927	-0.038
Mof_H 	H 	0.7181	0.1807	0.6094	0.05
Mof_C 	C 	0.00269	0.8329	0.28681	-0.022
Mof_H 	H 	0.0045	0.7505	0.3151	0.029
Mof_C 	C 	0.90944	0.4621	0.55314	0.488
Mof_C 	C 	0.00461	0.9749	0.30723	-0.038
Mof_C 	C 	0.71894	0.3795	0.5589	-0.011
Mof_C 	C 	0.83934	0.394	0.56824	-0.047
Mof_O 	O 	0.40659	0.0939	0.53386	-0.549
Mof_O 	O 	0.13252	0.0537	0.50953	-0.504
Mof_O 	O 	0.09343	0.8299	0.54058	-0.512
Mof_C 	C 	0.14229	0.9271	0.53344	0.432
Mof_Dy	Dy	0.52846	0.71224	0.5022	2.121
Mof_O 	O 	0.50679	0.4589	0.4252	-0.624
Mof_O 	O 	0.275	0.9697	0.54454	-0.147
Mof_O 	O 	0.52753	0.6764	0.38059	-0.448
Mof_C 	C 	0.32267	0.7644	0.59733	-0.002
Mof_H 	H 	0.3561	0.6944	0.6167	0.033
Mof_O 	O 	0.46575	0.881	0.56116	-0.563
Mof_C 	C 	0.51327	0.5415	0.3741	0.426
Mof_C 	C 	0.24557	0.7558	0.5927	-0.038
Mof_H 	H 	0.2181	0.6807	0.6094	0.051
Mof_C 	C 	0.50269	0.3329	0.28681	-0.025
Mof_H 	H 	0.5045	0.2505	0.3151	0.029
Mof_C 	C 	0.40944	0.9621	0.55314	0.486
Mof_C 	C 	0.50461	0.4749	0.30723	-0.041
Mof_C 	C 	0.21894	0.8795	0.5589	-0.01
Mof_C 	C 	0.33934	0.894	0.56824	-0.046
Mof_O 	O 	0.90659	0.4061	0.03386	-0.542
Mof_O 	O 	0.63252	0.4463	0.00953	-0.502
Mof_O 	O 	0.59343	0.6701	0.04058	-0.516
Mof_C 	C 	0.64229	0.5729	0.03344	0.433
Mof_Dy	Dy	0.02846	0.78776	0.0022	2.111
Mof_O 	O 	0.00679	0.0411	0.9252	-0.607
Mof_O 	O 	0.775	0.5303	0.04454	-0.146
Mof_O 	O 	0.02753	0.8236	0.88059	-0.441
Mof_C 	C 	0.82267	0.7356	0.09733	-0.002
Mof_H 	H 	0.8561	0.8056	0.1167	0.034
Mof_O 	O 	0.96575	0.619	0.06116	-0.56
Mof_C 	C 	0.01327	0.9585	0.8741	0.418
Mof_C 	C 	0.74557	0.7442	0.0927	-0.036
Mof_H 	H 	0.7181	0.8193	0.1094	0.051
Mof_C 	C 	0.00269	0.1671	0.78681	-0.01
Mof_H 	H 	0.0045	0.2495	0.8151	0.027
Mof_C 	C 	0.90944	0.5379	0.05314	0.485
Mof_C 	C 	0.00461	0.0251	0.80723	-0.037
Mof_C 	C 	0.71894	0.6205	0.0589	-0.01
Mof_C 	C 	0.83934	0.606	0.06824	-0.044
Mof_O 	O 	0.40659	0.9061	0.03386	-0.547
Mof_O 	O 	0.13252	0.9463	0.00953	-0.501
Mof_O 	O 	0.09343	0.1701	0.04058	-0.514
Mof_C 	C 	0.14229	0.0729	0.03344	0.426
Mof_Dy	Dy	0.52846	0.28776	0.0022	2.119
Mof_O 	O 	0.50679	0.5411	0.9252	-0.624
Mof_O 	O 	0.275	0.0303	0.04454	-0.149
Mof_O 	O 	0.52753	0.3236	0.88059	-0.448
Mof_C 	C 	0.32267	0.2356	0.09733	-0.003
Mof_H 	H 	0.3561	0.3056	0.1167	0.033
Mof_O 	O 	0.46575	0.119	0.06116	-0.563
Mof_C 	C 	0.51327	0.4585	0.8741	0.426
Mof_C 	C 	0.24557	0.2442	0.0927	-0.039
Mof_H 	H 	0.2181	0.3193	0.1094	0.05
Mof_C 	C 	0.50269	0.6671	0.78681	-0.025
Mof_H 	H 	0.5045	0.7495	0.8151	0.029
Mof_C 	C 	0.40944	0.0379	0.05314	0.483
Mof_C 	C 	0.50461	0.5251	0.80723	-0.041
Mof_C 	C 	0.21894	0.1205	0.0589	-0.01
Mof_C 	C 	0.33934	0.106	0.06824	-0.046
Mof_O 	O 	0.09341	0.4061	0.46614	-0.55
Mof_O 	O 	0.36748	0.4463	0.49047	-0.503
Mof_O 	O 	0.40657	0.6701	0.45942	-0.517
Mof_C 	C 	0.35771	0.5729	0.46656	0.433
Mof_Dy	Dy	0.97154	0.78776	0.4978	2.106
Mof_O 	O 	0.99321	0.0411	0.5748	-0.627
Mof_O 	O 	0.225	0.5303	0.45546	-0.147
Mof_O 	O 	0.97247	0.8236	0.61941	-0.45
Mof_C 	C 	0.17733	0.7356	0.40267	-0.003
Mof_H 	H 	0.1439	0.8056	0.3833	0.033
Mof_O 	O 	0.03425	0.619	0.43884	-0.559
Mof_C 	C 	0.98673	0.9585	0.6259	0.423
Mof_C 	C 	0.25443	0.7442	0.4073	-0.037
Mof_H 	H 	0.2819	0.8193	0.3906	0.05
Mof_C 	C 	0.99731	0.1671	0.71319	-0.041
Mof_H 	H 	0.9955	0.2495	0.6849	0.032
Mof_C 	C 	0.09056	0.5379	0.44686	0.487
Mof_C 	C 	0.99539	0.0251	0.69277	-0.044
Mof_C 	C 	0.28106	0.6205	0.4411	-0.011
Mof_C 	C 	0.16066	0.606	0.43176	-0.046
Mof_O 	O 	0.59341	0.9061	0.46614	-0.549
Mof_O 	O 	0.86748	0.9463	0.49047	-0.503
Mof_O 	O 	0.90657	0.1701	0.45942	-0.521
Mof_C 	C 	0.85771	0.0729	0.46656	0.433
Mof_Dy	Dy	0.47154	0.28776	0.4978	2.121
Mof_O 	O 	0.49321	0.5411	0.5748	-0.624
Mof_O 	O 	0.725	0.0303	0.45546	-0.147
Mof_O 	O 	0.47247	0.3236	0.61941	-0.448
Mof_C 	C 	0.67733	0.2356	0.40267	-0.003
Mof_H 	H 	0.6439	0.3056	0.3833	0.033
Mof_O 	O 	0.53425	0.119	0.43884	-0.563
Mof_C 	C 	0.48673	0.4585	0.6259	0.426
Mof_C 	C 	0.75443	0.2442	0.4073	-0.037
Mof_H 	H 	0.7819	0.3193	0.3906	0.05
Mof_C 	C 	0.49731	0.6671	0.71319	-0.025
Mof_H 	H 	0.4955	0.7495	0.6849	0.029
Mof_C 	C 	0.59056	0.0379	0.44686	0.487
Mof_C 	C 	0.49539	0.5251	0.69277	-0.041
Mof_C 	C 	0.78106	0.1205	0.4411	-0.011
Mof_C 	C 	0.66066	0.106	0.43176	-0.046
Mof_O 	O 	-4.38499e-18	0.0656	0.25	-0.134
Mof_O 	O 	0.5	0.5656	0.25	-0.132
Mof_O 	O 	-1.754e-17	0.9344	0.75	-0.127
Mof_O 	O 	0.5	0.4344	0.75	-0.132
_end
