data_functionalizedCrystal
_audit_creation_method	'EQeq! by Chris Wilmer'
_symmetry_space_group_name_H-M	'P1'
_symmetry_Int_Tables_number	1
_symmetry_cell_setting	triclinic
loop_
_symmetry_equiv_pos_as_xyz
  x,y,z
_cell_length_a	10.4195
_cell_length_b	11.1743
_cell_length_c	12.569
_cell_angle_alpha	102.198
_cell_angle_beta	108.537
_cell_angle_gamma	98.944
loop_
_atom_site_label
_atom_site_type_symbol
_atom_site_fract_x
_atom_site_fract_y
_atom_site_fract_z
_atom_site_charge
Mof_Nd	Nd	0.39829	0.9556	0.31927	2.23
Mof_Nd	Nd	0.60171	0.0444	0.68073	2.23
Mof_H 	H 	0.5687	0.3736	0.7069	0.284
Mof_H 	H 	0.2391	0.1022	0.7474	0.281
Mof_H 	H 	0.4943	0.3577	0.3351	0.069
Mof_H 	H 	0.1014	0.9386	0.3651	0.05
Mof_H 	H 	0.4313	0.6264	0.2931	0.283
Mof_H 	H 	0.7609	0.8978	0.2526	0.28
Mof_H 	H 	0.5057	0.6423	0.6649	0.069
Mof_H 	H 	0.8986	0.0614	0.6349	0.05
Mof_C 	C 	0.5456	0.2514	0.5061	0.497
Mof_C 	C 	0.5249	0.3817	0.5057	-0.19
Mof_C 	C 	0.4963	0.4148	0.4016	-0.081
Mof_C 	C 	0.5292	0.4685	0.6049	0.235
Mof_C 	C 	0.1388	0.5173	0.011	0.021
Mof_C 	C 	0.9565	0.5931	0.0636	0.134
Mof_C 	C 	0.0958	0.611	0.0744	-0.12
Mof_C 	C 	0.2001	0.7308	0.1534	0.349
Mof_C 	C 	0.2974	0.0338	0.5729	0.466
Mof_C 	C 	0.1443	0.0157	0.5362	-0.191
Mof_C 	C 	0.0824	0.0521	0.6184	0.239
Mof_C 	C 	0.0605	0.9636	0.4192	-0.075
Mof_C 	C 	0.4544	0.7486	0.4939	0.497
Mof_C 	C 	0.4751	0.6183	0.4943	-0.19
Mof_C 	C 	0.5037	0.5852	0.5984	-0.081
Mof_C 	C 	0.4708	0.5315	0.3951	0.235
Mof_C 	C 	0.8612	0.4827	0.989	0.021
Mof_C 	C 	0.0435	0.4069	0.9364	0.134
Mof_C 	C 	0.9042	0.389	0.9256	-0.12
Mof_C 	C 	0.7999	0.2692	0.8466	0.349
Mof_C 	C 	0.7026	0.9662	0.4271	0.466
Mof_C 	C 	0.8557	0.9843	0.4638	-0.191
Mof_C 	C 	0.9176	0.9479	0.3816	0.239
Mof_C 	C 	0.9395	0.0364	0.5808	-0.075
Mof_O 	O 	0.5223	0.174	0.4097	-0.578
Mof_O 	O 	0.5845	0.2288	0.6043	-0.528
Mof_O 	O 	0.5565	0.445	0.712	-0.424
Mof_O 	O 	0.3212	0.7527	0.1537	-0.452
Mof_O 	O 	0.3528	0.0091	0.4973	-0.64
Mof_O 	O 	0.371	0.0719	0.681	-0.532
Mof_O 	O 	0.157	0.1028	0.7344	-0.427
Mof_O 	O 	0.1607	0.8092	0.2173	-0.457
Mof_O 	O 	0.8991	0.6759	0.1178	-0.159
Mof_O 	O 	0.4777	0.826	0.5903	-0.578
Mof_O 	O 	0.4155	0.7712	0.3957	-0.528
Mof_O 	O 	0.4435	0.555	0.288	-0.424
Mof_O 	O 	0.6788	0.2473	0.8463	-0.452
Mof_O 	O 	0.6472	0.9909	0.5027	-0.64
Mof_O 	O 	0.629	0.9281	0.319	-0.532
Mof_O 	O 	0.843	0.8972	0.2656	-0.427
Mof_O 	O 	0.8393	0.1908	0.7827	-0.457
Mof_O 	O 	0.1009	0.3241	0.8822	-0.159
_end
