# CIF file generated by openbabel 3.1.0, see https://openbabel.org
data_I
_chemical_name_common 'OXOLAP_clean5b'
_cell_length_a 28.1747
_cell_length_b 28.1747
_cell_length_c 28.1747
_cell_angle_alpha 60
_cell_angle_beta 60
_cell_angle_gamma 60
_space_group_name_H-M_alt 'P 1'
_space_group_name_Hall 'P 1'
loop_
    _symmetry_equiv_pos_as_xyz
    x,y,z
loop_
    _atom_site_label
    _atom_site_type_symbol
    _atom_site_fract_x
    _atom_site_fract_y
    _atom_site_fract_z
    _atom_site_occupancy
    H1       H        0.18202    0.02714    0.33552    1.000
    H2       H        0.19083    0.92891    0.34461    1.000
    C3       C        0.21903    0.00505    0.30251    1.000
    C4       C        0.22408    0.95074    0.30772    1.000
    C5       C        0.32280    0.74260    0.24440    1.000
    O6       O        0.21009    0.11141    0.29115    1.000
    H7       H        0.36067    0.75973    0.21274    1.000
    H8       H        0.72286    0.56798    0.41448    1.000
    H9       H        0.82109    0.55917    0.40539    1.000
    C10      C        0.74495    0.53097    0.44749    1.000
    C11      C        0.79926    0.52592    0.44228    1.000
    C12      C        0.00740    0.42720    0.50560    1.000
    O13      O        0.63859    0.53991    0.45885    1.000
    H14      H        0.99027    0.38933    0.53726    1.000
    H15      H        0.02714    0.18202    0.45532    1.000
    H16      H        0.92891    0.19083    0.53565    1.000
    C17      C        0.00505    0.21903    0.47341    1.000
    C18      C        0.95074    0.22408    0.51746    1.000
    C19      C        0.74260    0.32280    0.69020    1.000
    O20      O        0.11141    0.21009    0.38735    1.000
    H21      H        0.75973    0.36067    0.66687    1.000
    H22      H        0.56798    0.72286    0.29468    1.000
    H23      H        0.55917    0.82109    0.21435    1.000
    C24      C        0.53097    0.74495    0.27659    1.000
    C25      C        0.52592    0.79926    0.23254    1.000
    C26      C        0.42720    0.00740    0.05980    1.000
    O27      O        0.53991    0.63859    0.36265    1.000
    H28      H        0.38933    0.99027    0.08313    1.000
    H29      H        0.33552    0.45532    0.18202    1.000
    H30      H        0.34461    0.53565    0.19083    1.000
    C31      C        0.30251    0.47341    0.21903    1.000
    C32      C        0.30772    0.51746    0.22408    1.000
    C33      C        0.24440    0.69020    0.32280    1.000
    O34      O        0.29115    0.38735    0.21009    1.000
    H35      H        0.21274    0.66687    0.36067    1.000
    H36      H        0.41448    0.29468    0.72286    1.000
    H37      H        0.40539    0.21435    0.82109    1.000
    C38      C        0.44749    0.27659    0.74495    1.000
    C39      C        0.44228    0.23254    0.79926    1.000
    C40      C        0.50560    0.05980    0.00740    1.000
    O41      O        0.45885    0.36265    0.63859    1.000
    H42      H        0.53726    0.08313    0.99027    1.000
    H43      H        0.45532    0.33552    0.02714    1.000
    H44      H        0.53565    0.34461    0.92891    1.000
    C45      C        0.47341    0.30251    0.00505    1.000
    C46      C        0.51746    0.30772    0.95074    1.000
    C47      C        0.69020    0.24440    0.74260    1.000
    O48      O        0.38735    0.29115    0.11141    1.000
    H49      H        0.66687    0.21274    0.75973    1.000
    H50      H        0.29468    0.41448    0.56798    1.000
    H51      H        0.21435    0.40539    0.55917    1.000
    C52      C        0.27659    0.44749    0.53097    1.000
    C53      C        0.23254    0.44228    0.52592    1.000
    C54      C        0.05980    0.50560    0.42720    1.000
    O55      O        0.36265    0.45885    0.53991    1.000
    H56      H        0.08313    0.53726    0.38933    1.000
    H57      H        0.33552    0.18202    0.02714    1.000
    H58      H        0.34461    0.19083    0.92891    1.000
    C59      C        0.30251    0.21903    0.00505    1.000
    C60      C        0.30772    0.22408    0.95074    1.000
    C61      C        0.24440    0.32280    0.74260    1.000
    O62      O        0.29115    0.21009    0.11141    1.000
    H63      H        0.21274    0.36067    0.75973    1.000
    H64      H        0.41448    0.72286    0.56798    1.000
    H65      H        0.40539    0.82109    0.55917    1.000
    C66      C        0.44749    0.74495    0.53097    1.000
    C67      C        0.44228    0.79926    0.52592    1.000
    C68      C        0.50560    0.00740    0.42720    1.000
    O69      O        0.45885    0.63859    0.53991    1.000
    H70      H        0.53726    0.99027    0.38933    1.000
    H71      H        0.45532    0.02714    0.18202    1.000
    H72      H        0.53565    0.92891    0.19083    1.000
    C73      C        0.47341    0.00505    0.21903    1.000
    C74      C        0.51746    0.95074    0.22408    1.000
    C75      C        0.69020    0.74260    0.32280    1.000
    O76      O        0.38735    0.11141    0.21009    1.000
    H77      H        0.66687    0.75973    0.36067    1.000
    H78      H        0.29468    0.56798    0.72286    1.000
    H79      H        0.21435    0.55917    0.82109    1.000
    C80      C        0.27659    0.53097    0.74495    1.000
    C81      C        0.23254    0.52592    0.79926    1.000
    C82      C        0.05980    0.42720    0.00740    1.000
    O83      O        0.36265    0.53991    0.63859    1.000
    H84      H        0.08313    0.38933    0.99027    1.000
    H85      H        0.18202    0.33552    0.45532    1.000
    H86      H        0.19083    0.34461    0.53565    1.000
    C87      C        0.21903    0.30251    0.47341    1.000
    C88      C        0.22408    0.30772    0.51746    1.000
    C89      C        0.32280    0.24440    0.69020    1.000
    O90      O        0.21009    0.29115    0.38735    1.000
    H91      H        0.36067    0.21274    0.66687    1.000
    H92      H        0.72286    0.41448    0.29468    1.000
    H93      H        0.82109    0.40539    0.21435    1.000
    C94      C        0.74495    0.44749    0.27659    1.000
    C95      C        0.79926    0.44228    0.23254    1.000
    C96      C        0.00740    0.50560    0.05980    1.000
    O97      O        0.63859    0.45885    0.36265    1.000
    H98      H        0.99027    0.53726    0.08313    1.000
    H99      H        0.02714    0.45532    0.33552    1.000
    H100     H        0.92891    0.53565    0.34461    1.000
    C101     C        0.00505    0.47341    0.30251    1.000
    C102     C        0.95074    0.51746    0.30772    1.000
    C103     C        0.74260    0.69020    0.24440    1.000
    O104     O        0.11141    0.38735    0.29115    1.000
    H105     H        0.75973    0.66687    0.21274    1.000
    H106     H        0.56798    0.29468    0.41448    1.000
    H107     H        0.55917    0.21435    0.40539    1.000
    C108     C        0.53097    0.27659    0.44749    1.000
    C109     C        0.52592    0.23254    0.44228    1.000
    C110     C        0.42720    0.05980    0.50560    1.000
    O111     O        0.53991    0.36265    0.45885    1.000
    H112     H        0.38933    0.08313    0.53726    1.000
    H113     H        0.02714    0.33552    0.18202    1.000
    H114     H        0.92891    0.34461    0.19083    1.000
    C115     C        0.00505    0.30251    0.21903    1.000
    C116     C        0.95074    0.30772    0.22408    1.000
    C117     C        0.74260    0.24440    0.32280    1.000
    O118     O        0.11141    0.29115    0.21009    1.000
    H119     H        0.75973    0.21274    0.36067    1.000
    H120     H        0.56798    0.41448    0.72286    1.000
    H121     H        0.55917    0.40539    0.82109    1.000
    C122     C        0.53097    0.44749    0.74495    1.000
    C123     C        0.52592    0.44228    0.79926    1.000
    C124     C        0.42720    0.50560    0.00740    1.000
    O125     O        0.53991    0.45885    0.63859    1.000
    H126     H        0.38933    0.53726    0.99027    1.000
    H127     H        0.18202    0.45532    0.02714    1.000
    H128     H        0.19083    0.53565    0.92891    1.000
    C129     C        0.21903    0.47341    0.00505    1.000
    C130     C        0.22408    0.51746    0.95074    1.000
    C131     C        0.32280    0.69020    0.74260    1.000
    O132     O        0.21009    0.38735    0.11141    1.000
    H133     H        0.36067    0.66687    0.75973    1.000
    H134     H        0.72286    0.29468    0.56798    1.000
    H135     H        0.82109    0.21435    0.55917    1.000
    C136     C        0.74495    0.27659    0.53097    1.000
    C137     C        0.79926    0.23254    0.52592    1.000
    C138     C        0.00740    0.05980    0.42720    1.000
    O139     O        0.63859    0.36265    0.53991    1.000
    H140     H        0.99027    0.08313    0.38933    1.000
    H141     H        0.45532    0.18202    0.33552    1.000
    H142     H        0.53565    0.19083    0.34461    1.000
    C143     C        0.47341    0.21903    0.30251    1.000
    C144     C        0.51746    0.22408    0.30772    1.000
    C145     C        0.69020    0.32280    0.24440    1.000
    O146     O        0.38735    0.21009    0.29115    1.000
    H147     H        0.66687    0.36067    0.21274    1.000
    H148     H        0.29468    0.72286    0.41448    1.000
    H149     H        0.21435    0.82109    0.40539    1.000
    C150     C        0.27659    0.74495    0.44749    1.000
    C151     C        0.23254    0.79926    0.44228    1.000
    C152     C        0.05980    0.00740    0.50560    1.000
    O153     O        0.36265    0.63859    0.45885    1.000
    H154     H        0.08313    0.99027    0.53726    1.000
    H155     H        0.33552    0.02714    0.45532    1.000
    H156     H        0.34461    0.92891    0.53565    1.000
    C157     C        0.30251    0.00505    0.47341    1.000
    C158     C        0.30772    0.95074    0.51746    1.000
    C159     C        0.24440    0.74260    0.69020    1.000
    O160     O        0.29115    0.11141    0.38735    1.000
    H161     H        0.21274    0.75973    0.66687    1.000
    H162     H        0.41448    0.56798    0.29468    1.000
    H163     H        0.40539    0.55917    0.21435    1.000
    C164     C        0.44749    0.53097    0.27659    1.000
    C165     C        0.44228    0.52592    0.23254    1.000
    C166     C        0.50560    0.42720    0.05980    1.000
    O167     O        0.45885    0.53991    0.36265    1.000
    H168     H        0.53726    0.38933    0.08313    1.000
    H169     H        0.02714    0.18202    0.33552    1.000
    H170     H        0.92891    0.19083    0.34461    1.000
    C171     C        0.00505    0.21903    0.30251    1.000
    C172     C        0.95074    0.22408    0.30772    1.000
    C173     C        0.74260    0.32280    0.24440    1.000
    O174     O        0.11141    0.21009    0.29115    1.000
    H175     H        0.75973    0.36067    0.21274    1.000
    H176     H        0.56798    0.72286    0.41448    1.000
    H177     H        0.55917    0.82109    0.40539    1.000
    C178     C        0.53097    0.74495    0.44749    1.000
    C179     C        0.52592    0.79926    0.44228    1.000
    C180     C        0.42720    0.00740    0.50560    1.000
    O181     O        0.53991    0.63859    0.45885    1.000
    H182     H        0.38933    0.99027    0.53726    1.000
    H183     H        0.18202    0.02714    0.45532    1.000
    H184     H        0.19083    0.92891    0.53565    1.000
    C185     C        0.21903    0.00505    0.47341    1.000
    C186     C        0.22408    0.95074    0.51746    1.000
    C187     C        0.32280    0.74260    0.69020    1.000
    O188     O        0.21009    0.11141    0.38735    1.000
    H189     H        0.36067    0.75973    0.66687    1.000
    H190     H        0.72286    0.56798    0.29468    1.000
    H191     H        0.82109    0.55917    0.21435    1.000
    C192     C        0.74495    0.53097    0.27659    1.000
    C193     C        0.79926    0.52592    0.23254    1.000
    C194     C        0.00740    0.42720    0.05980    1.000
    O195     O        0.63859    0.53991    0.36265    1.000
    H196     H        0.99027    0.38933    0.08313    1.000
    H197     H        0.45532    0.33552    0.18202    1.000
    H198     H        0.53565    0.34461    0.19083    1.000
    C199     C        0.47341    0.30251    0.21903    1.000
    C200     C        0.51746    0.30772    0.22408    1.000
    C201     C        0.69020    0.24440    0.32280    1.000
    O202     O        0.38735    0.29115    0.21009    1.000
    H203     H        0.66687    0.21274    0.36067    1.000
    H204     H        0.29468    0.41448    0.72286    1.000
    H205     H        0.21435    0.40539    0.82109    1.000
    C206     C        0.27659    0.44749    0.74495    1.000
    C207     C        0.23254    0.44228    0.79926    1.000
    C208     C        0.05980    0.50560    0.00740    1.000
    O209     O        0.36265    0.45885    0.63859    1.000
    H210     H        0.08313    0.53726    0.99027    1.000
    H211     H        0.33552    0.45532    0.02714    1.000
    H212     H        0.34461    0.53565    0.92891    1.000
    C213     C        0.30251    0.47341    0.00505    1.000
    C214     C        0.30772    0.51746    0.95074    1.000
    C215     C        0.24440    0.69020    0.74260    1.000
    O216     O        0.29115    0.38735    0.11141    1.000
    H217     H        0.21274    0.66687    0.75973    1.000
    H218     H        0.41448    0.29468    0.56798    1.000
    H219     H        0.40539    0.21435    0.55917    1.000
    C220     C        0.44749    0.27659    0.53097    1.000
    C221     C        0.44228    0.23254    0.52592    1.000
    C222     C        0.50560    0.05980    0.42720    1.000
    O223     O        0.45885    0.36265    0.53991    1.000
    H224     H        0.53726    0.08313    0.38933    1.000
    H225     H        0.18202    0.33552    0.02714    1.000
    H226     H        0.19083    0.34461    0.92891    1.000
    C227     C        0.21903    0.30251    0.00505    1.000
    C228     C        0.22408    0.30772    0.95074    1.000
    C229     C        0.32280    0.24440    0.74260    1.000
    O230     O        0.21009    0.29115    0.11141    1.000
    H231     H        0.36067    0.21274    0.75973    1.000
    H232     H        0.72286    0.41448    0.56798    1.000
    H233     H        0.82109    0.40539    0.55917    1.000
    C234     C        0.74495    0.44749    0.53097    1.000
    C235     C        0.79926    0.44228    0.52592    1.000
    C236     C        0.00740    0.50560    0.42720    1.000
    O237     O        0.63859    0.45885    0.53991    1.000
    H238     H        0.99027    0.53726    0.38933    1.000
    H239     H        0.02714    0.45532    0.18202    1.000
    H240     H        0.92891    0.53565    0.19083    1.000
    C241     C        0.00505    0.47341    0.21903    1.000
    C242     C        0.95074    0.51746    0.22408    1.000
    C243     C        0.74260    0.69020    0.32280    1.000
    O244     O        0.11141    0.38735    0.21009    1.000
    H245     H        0.75973    0.66687    0.36067    1.000
    H246     H        0.56798    0.29468    0.72286    1.000
    H247     H        0.55917    0.21435    0.82109    1.000
    C248     C        0.53097    0.27659    0.74495    1.000
    C249     C        0.52592    0.23254    0.79926    1.000
    C250     C        0.42720    0.05980    0.00740    1.000
    O251     O        0.53991    0.36265    0.63859    1.000
    H252     H        0.38933    0.08313    0.99027    1.000
    H253     H        0.33552    0.18202    0.45532    1.000
    H254     H        0.34461    0.19083    0.53565    1.000
    C255     C        0.30251    0.21903    0.47341    1.000
    C256     C        0.30772    0.22408    0.51746    1.000
    C257     C        0.24440    0.32280    0.69020    1.000
    O258     O        0.29115    0.21009    0.38735    1.000
    H259     H        0.21274    0.36067    0.66687    1.000
    H260     H        0.41448    0.72286    0.29468    1.000
    H261     H        0.40539    0.82109    0.21435    1.000
    C262     C        0.44749    0.74495    0.27659    1.000
    C263     C        0.44228    0.79926    0.23254    1.000
    C264     C        0.50560    0.00740    0.05980    1.000
    O265     O        0.45885    0.63859    0.36265    1.000
    H266     H        0.53726    0.99027    0.08313    1.000
    H267     H        0.45532    0.02714    0.33552    1.000
    H268     H        0.53565    0.92891    0.34461    1.000
    C269     C        0.47341    0.00505    0.30251    1.000
    C270     C        0.51746    0.95074    0.30772    1.000
    C271     C        0.69020    0.74260    0.24440    1.000
    O272     O        0.38735    0.11141    0.29115    1.000
    H273     H        0.66687    0.75973    0.21274    1.000
    H274     H        0.29468    0.56798    0.41448    1.000
    H275     H        0.21435    0.55917    0.40539    1.000
    C276     C        0.27659    0.53097    0.44749    1.000
    C277     C        0.23254    0.52592    0.44228    1.000
    C278     C        0.05980    0.42720    0.50560    1.000
    O279     O        0.36265    0.53991    0.45885    1.000
    H280     H        0.08313    0.38933    0.53726    1.000
    H281     H        0.33552    0.02714    0.18202    1.000
    H282     H        0.34461    0.92891    0.19083    1.000
    C283     C        0.30251    0.00505    0.21903    1.000
    C284     C        0.30772    0.95074    0.22408    1.000
    C285     C        0.24440    0.74260    0.32280    1.000
    O286     O        0.29115    0.11141    0.21009    1.000
    H287     H        0.21274    0.75973    0.36067    1.000
    H288     H        0.41448    0.56798    0.72286    1.000
    H289     H        0.40539    0.55917    0.82109    1.000
    C290     C        0.44749    0.53097    0.74495    1.000
    C291     C        0.44228    0.52592    0.79926    1.000
    C292     C        0.50560    0.42720    0.00740    1.000
    O293     O        0.45885    0.53991    0.63859    1.000
    H294     H        0.53726    0.38933    0.99027    1.000
    H295     H        0.45532    0.18202    0.02714    1.000
    H296     H        0.53565    0.19083    0.92891    1.000
    C297     C        0.47341    0.21903    0.00505    1.000
    C298     C        0.51746    0.22408    0.95074    1.000
    C299     C        0.69020    0.32280    0.74260    1.000
    O300     O        0.38735    0.21009    0.11141    1.000
    H301     H        0.66687    0.36067    0.75973    1.000
    H302     H        0.29468    0.72286    0.56798    1.000
    H303     H        0.21435    0.82109    0.55917    1.000
    C304     C        0.27659    0.74495    0.53097    1.000
    C305     C        0.23254    0.79926    0.52592    1.000
    C306     C        0.05980    0.00740    0.42720    1.000
    O307     O        0.36265    0.63859    0.53991    1.000
    H308     H        0.08313    0.99027    0.38933    1.000
    H309     H        0.18202    0.45532    0.33552    1.000
    H310     H        0.19083    0.53565    0.34461    1.000
    C311     C        0.21903    0.47341    0.30251    1.000
    C312     C        0.22408    0.51746    0.30772    1.000
    C313     C        0.32280    0.69020    0.24440    1.000
    O314     O        0.21009    0.38735    0.29115    1.000
    H315     H        0.36067    0.66687    0.21274    1.000
    H316     H        0.72286    0.29468    0.41448    1.000
    H317     H        0.82109    0.21435    0.40539    1.000
    C318     C        0.74495    0.27659    0.44749    1.000
    C319     C        0.79926    0.23254    0.44228    1.000
    C320     C        0.00740    0.05980    0.50560    1.000
    O321     O        0.63859    0.36265    0.45885    1.000
    H322     H        0.99027    0.08313    0.53726    1.000
    H323     H        0.02714    0.33552    0.45532    1.000
    H324     H        0.92891    0.34461    0.53565    1.000
    C325     C        0.00505    0.30251    0.47341    1.000
    C326     C        0.95074    0.30772    0.51746    1.000
    C327     C        0.74260    0.24440    0.69020    1.000
    O328     O        0.11141    0.29115    0.38735    1.000
    H329     H        0.75973    0.21274    0.66687    1.000
    H330     H        0.56798    0.41448    0.29468    1.000
    H331     H        0.55917    0.40539    0.21435    1.000
    C332     C        0.53097    0.44749    0.27659    1.000
    C333     C        0.52592    0.44228    0.23254    1.000
    C334     C        0.42720    0.50560    0.05980    1.000
    O335     O        0.53991    0.45885    0.36265    1.000
    H336     H        0.38933    0.53726    0.08313    1.000
    Zr337    Zr       0.18779    0.18779    0.31221    1.000
    Zr338    Zr       0.31221    0.31221    0.18779    1.000
    Zr339    Zr       0.31221    0.18779    0.18779    1.000
    Zr340    Zr       0.18779    0.31221    0.31221    1.000
    Zr341    Zr       0.18779    0.31221    0.18779    1.000
    Zr342    Zr       0.31221    0.18779    0.31221    1.000
    Zr343    Zr       0.56221    0.56221    0.43779    1.000
    Zr344    Zr       0.43779    0.43779    0.56221    1.000
    Zr345    Zr       0.43779    0.56221    0.56221    1.000
    Zr346    Zr       0.56221    0.43779    0.43779    1.000
    Zr347    Zr       0.56221    0.43779    0.56221    1.000
    Zr348    Zr       0.43779    0.56221    0.43779    1.000
    C349     C        0.25339    0.08893    0.25339    1.000
    C350     C        0.25816    0.03158    0.25816    1.000
    C351     C        0.08893    0.25339    0.40429    1.000
    C352     C        0.03158    0.25816    0.45210    1.000
    C353     C        0.25339    0.40429    0.25339    1.000
    C354     C        0.25816    0.45210    0.25816    1.000
    C355     C        0.40429    0.25339    0.08893    1.000
    C356     C        0.45210    0.25816    0.03158    1.000
    C357     C        0.25339    0.25339    0.08893    1.000
    C358     C        0.25816    0.25816    0.03158    1.000
    C359     C        0.40429    0.08893    0.25339    1.000
    C360     C        0.45210    0.03158    0.25816    1.000
    C361     C        0.25339    0.25339    0.40429    1.000
    C362     C        0.25816    0.25816    0.45210    1.000
    C363     C        0.08893    0.40429    0.25339    1.000
    C364     C        0.03158    0.45210    0.25816    1.000
    C365     C        0.08893    0.25339    0.25339    1.000
    C366     C        0.03158    0.25816    0.25816    1.000
    C367     C        0.25339    0.40429    0.08893    1.000
    C368     C        0.25816    0.45210    0.03158    1.000
    C369     C        0.40429    0.25339    0.25339    1.000
    C370     C        0.45210    0.25816    0.25816    1.000
    C371     C        0.25339    0.08893    0.40429    1.000
    C372     C        0.25816    0.03158    0.45210    1.000
    C373     C        0.26880    0.92312    0.26880    1.000
    C374     C        0.27400    0.86792    0.27400    1.000
    C375     C        0.27810    0.82192    0.27810    1.000
    C376     C        0.28010    0.76968    0.28010    1.000
    C377     C        0.92312    0.26880    0.53928    1.000
    C378     C        0.86792    0.27400    0.58408    1.000
    C379     C        0.82192    0.27810    0.62188    1.000
    C380     C        0.76968    0.28010    0.67012    1.000
    C381     C        0.26880    0.53928    0.26880    1.000
    C382     C        0.27400    0.58408    0.27400    1.000
    C383     C        0.27810    0.62188    0.27810    1.000
    C384     C        0.28010    0.67012    0.28010    1.000
    C385     C        0.53928    0.26880    0.92312    1.000
    C386     C        0.58408    0.27400    0.86792    1.000
    C387     C        0.62188    0.27810    0.82192    1.000
    C388     C        0.67012    0.28010    0.76968    1.000
    C389     C        0.26880    0.26880    0.92312    1.000
    C390     C        0.27400    0.27400    0.86792    1.000
    C391     C        0.27810    0.27810    0.82192    1.000
    C392     C        0.28010    0.28010    0.76968    1.000
    C393     C        0.53928    0.92312    0.26880    1.000
    C394     C        0.58408    0.86792    0.27400    1.000
    C395     C        0.62188    0.82192    0.27810    1.000
    C396     C        0.67012    0.76968    0.28010    1.000
    C397     C        0.26880    0.26880    0.53928    1.000
    C398     C        0.27400    0.27400    0.58408    1.000
    C399     C        0.27810    0.27810    0.62188    1.000
    C400     C        0.28010    0.28010    0.67012    1.000
    C401     C        0.92312    0.53928    0.26880    1.000
    C402     C        0.86792    0.58408    0.27400    1.000
    C403     C        0.82192    0.62188    0.27810    1.000
    C404     C        0.76968    0.67012    0.28010    1.000
    C405     C        0.92312    0.26880    0.26880    1.000
    C406     C        0.86792    0.27400    0.27400    1.000
    C407     C        0.82192    0.27810    0.27810    1.000
    C408     C        0.76968    0.28010    0.28010    1.000
    C409     C        0.26880    0.53928    0.92312    1.000
    C410     C        0.27400    0.58408    0.86792    1.000
    C411     C        0.27810    0.62188    0.82192    1.000
    C412     C        0.28010    0.67012    0.76968    1.000
    C413     C        0.53928    0.26880    0.26880    1.000
    C414     C        0.58408    0.27400    0.27400    1.000
    C415     C        0.62188    0.27810    0.27810    1.000
    C416     C        0.67012    0.28010    0.28010    1.000
    C417     C        0.26880    0.92312    0.53928    1.000
    C418     C        0.27400    0.86792    0.58408    1.000
    C419     C        0.27810    0.82192    0.62188    1.000
    C420     C        0.28010    0.76968    0.67012    1.000
    C421     C        0.66107    0.49661    0.49661    1.000
    C422     C        0.71842    0.49184    0.49184    1.000
    C423     C        0.82688    0.48120    0.48120    1.000
    C424     C        0.88208    0.47600    0.47600    1.000
    C425     C        0.92808    0.47190    0.47190    1.000
    C426     C        0.98032    0.46990    0.46990    1.000
    C427     C        0.49661    0.66107    0.34571    1.000
    C428     C        0.49184    0.71842    0.29790    1.000
    C429     C        0.48120    0.82688    0.21072    1.000
    C430     C        0.47600    0.88208    0.16592    1.000
    C431     C        0.47190    0.92808    0.12812    1.000
    C432     C        0.46990    0.98032    0.07988    1.000
    C433     C        0.49661    0.34571    0.66107    1.000
    C434     C        0.49184    0.29790    0.71842    1.000
    C435     C        0.48120    0.21072    0.82688    1.000
    C436     C        0.47600    0.16592    0.88208    1.000
    C437     C        0.47190    0.12812    0.92808    1.000
    C438     C        0.46990    0.07988    0.98032    1.000
    C439     C        0.34571    0.49661    0.49661    1.000
    C440     C        0.29790    0.49184    0.49184    1.000
    C441     C        0.21072    0.48120    0.48120    1.000
    C442     C        0.16592    0.47600    0.47600    1.000
    C443     C        0.12812    0.47190    0.47190    1.000
    C444     C        0.07988    0.46990    0.46990    1.000
    C445     C        0.49661    0.66107    0.49661    1.000
    C446     C        0.49184    0.71842    0.49184    1.000
    C447     C        0.48120    0.82688    0.48120    1.000
    C448     C        0.47600    0.88208    0.47600    1.000
    C449     C        0.47190    0.92808    0.47190    1.000
    C450     C        0.46990    0.98032    0.46990    1.000
    C451     C        0.34571    0.49661    0.66107    1.000
    C452     C        0.29790    0.49184    0.71842    1.000
    C453     C        0.21072    0.48120    0.82688    1.000
    C454     C        0.16592    0.47600    0.88208    1.000
    C455     C        0.12812    0.47190    0.92808    1.000
    C456     C        0.07988    0.46990    0.98032    1.000
    C457     C        0.66107    0.49661    0.34571    1.000
    C458     C        0.71842    0.49184    0.29790    1.000
    C459     C        0.82688    0.48120    0.21072    1.000
    C460     C        0.88208    0.47600    0.16592    1.000
    C461     C        0.92808    0.47190    0.12812    1.000
    C462     C        0.98032    0.46990    0.07988    1.000
    C463     C        0.49661    0.34571    0.49661    1.000
    C464     C        0.49184    0.29790    0.49184    1.000
    C465     C        0.48120    0.21072    0.48120    1.000
    C466     C        0.47600    0.16592    0.47600    1.000
    C467     C        0.47190    0.12812    0.47190    1.000
    C468     C        0.46990    0.07988    0.46990    1.000
    C469     C        0.49661    0.49661    0.66107    1.000
    C470     C        0.49184    0.49184    0.71842    1.000
    C471     C        0.48120    0.48120    0.82688    1.000
    C472     C        0.47600    0.47600    0.88208    1.000
    C473     C        0.47190    0.47190    0.92808    1.000
    C474     C        0.46990    0.46990    0.98032    1.000
    C475     C        0.66107    0.34571    0.49661    1.000
    C476     C        0.71842    0.29790    0.49184    1.000
    C477     C        0.82688    0.21072    0.48120    1.000
    C478     C        0.88208    0.16592    0.47600    1.000
    C479     C        0.92808    0.12812    0.47190    1.000
    C480     C        0.98032    0.07988    0.46990    1.000
    C481     C        0.34571    0.66107    0.49661    1.000
    C482     C        0.29790    0.71842    0.49184    1.000
    C483     C        0.21072    0.82688    0.48120    1.000
    C484     C        0.16592    0.88208    0.47600    1.000
    C485     C        0.12812    0.92808    0.47190    1.000
    C486     C        0.07988    0.98032    0.46990    1.000
    C487     C        0.49661    0.49661    0.34571    1.000
    C488     C        0.49184    0.49184    0.29790    1.000
    C489     C        0.48120    0.48120    0.21072    1.000
    C490     C        0.47600    0.47600    0.16592    1.000
    C491     C        0.47190    0.47190    0.12812    1.000
    C492     C        0.46990    0.46990    0.07988    1.000
    O493     O        0.16267    0.27911    0.27911    1.000
    O494     O        0.27911    0.16267    0.27911    1.000
    O495     O        0.27911    0.27911    0.16267    1.000
    O496     O        0.27911    0.27911    0.27911    1.000
    O497     O        0.47089    0.58733    0.47089    1.000
    O498     O        0.58733    0.47089    0.47089    1.000
    O499     O        0.47089    0.47089    0.47089    1.000
    O500     O        0.47089    0.47089    0.58733    1.000
    O501     O        0.21741    0.21741    0.34777    1.000
    H502     H        0.20353    0.20353    0.38941    1.000
    O503     O        0.21741    0.21741    0.21741    1.000
    H504     H        0.20353    0.20353    0.20353    1.000
    O505     O        0.34777    0.21741    0.21741    1.000
    H506     H        0.38941    0.20353    0.20353    1.000
    O507     O        0.21741    0.34777    0.21741    1.000
    H508     H        0.20353    0.38941    0.20353    1.000
    O509     O        0.53259    0.53259    0.40223    1.000
    O510     O        0.53259    0.53259    0.53259    1.000
    O511     O        0.40223    0.53259    0.53259    1.000
    O512     O        0.53259    0.40223    0.53259    1.000
    H513     H        0.54422    0.54422    0.54422    1.000
    H514     H        0.54422    0.54422    0.36734    1.000
    H515     H        0.54422    0.36734    0.54422    1.000
    H516     H        0.36734    0.54422    0.54422    1.000
