data_functionalizedCrystal
_audit_creation_method	'EQeq! by Chris Wilmer'
_symmetry_space_group_name_H-M	'P1'
_symmetry_Int_Tables_number	1
_symmetry_cell_setting	triclinic
loop_
_symmetry_equiv_pos_as_xyz
  x,y,z
_cell_length_a	10.549
_cell_length_b	10.842
_cell_length_c	13.8
_cell_angle_alpha	87.135
_cell_angle_beta	72.428
_cell_angle_gamma	66.412
loop_
_atom_site_label
_atom_site_type_symbol
_atom_site_fract_x
_atom_site_fract_y
_atom_site_fract_z
_atom_site_charge
Mof_Co	Co	0.50362	0.31822	0.15793	1.126
Mof_Co	Co	0.49638	0.68178	0.84207	1.126
Mof_Mo	Mo	0.97495	0.4986	0.13399	1.424
Mof_Mo	Mo	0.67558	0.79088	0.13127	1.034
Mof_Mo	Mo	0.98996	0.77085	0.9825	0.937
Mof_Mo	Mo	0.71856	0.51632	0.01517	2.062
Mof_Mo	Mo	0.02505	0.5014	0.86601	1.425
Mof_Mo	Mo	0.32442	0.20912	0.86873	1.035
Mof_Mo	Mo	0.01004	0.22915	0.0175	0.937
Mof_Mo	Mo	0.28144	0.48368	0.98483	2.062
Mof_H 	H 	0.4986	0.5864	0.2742	-0.001
Mof_H 	H 	0.318	0.7452	0.4855	0.068
Mof_H 	H 	0.3547	0.8208	0.3881	0.054
Mof_H 	H 	0.9932	0.2288	0.3262	0.032
Mof_H 	H 	0.8541	0.3061	0.4181	0.056
Mof_H 	H 	0.7343	0.0403	0.2014	-0.038
Mof_H 	H 	0.677	0.3915	0.3037	-0.018
Mof_H 	H 	0.1323	0.0265	0.249	0.006
Mof_H 	H 	0.2613	0.907	0.2733	0.023
Mof_H 	H 	0.3174	0.1386	0.1478	-0.096
Mof_H 	H 	0.4035	0.2243	0.3818	-0.01
Mof_H 	H 	0.5014	0.4136	0.7258	-0.001
Mof_H 	H 	0.682	0.2548	0.5145	0.068
Mof_H 	H 	0.6453	0.1792	0.6119	0.054
Mof_H 	H 	0.0068	0.7712	0.6738	0.032
Mof_H 	H 	0.1459	0.6939	0.5819	0.056
Mof_H 	H 	0.2657	0.9597	0.7986	-0.038
Mof_H 	H 	0.323	0.6085	0.6963	-0.018
Mof_H 	H 	0.8677	0.9735	0.751	0.006
Mof_H 	H 	0.7387	0.093	0.7267	0.023
Mof_H 	H 	0.6826	0.8614	0.8522	-0.096
Mof_H 	H 	0.5965	0.7757	0.6182	-0.01
Mof_C 	C 	0.4066	0.5851	0.2947	0.099
Mof_C 	C 	0.2325	0.5288	0.3167	0.049
Mof_C 	C 	0.2876	0.7828	0.427	-0.092
Mof_C 	C 	0.1375	0.8932	0.4634	0.026
Mof_C 	C 	0.0905	0.0002	0.4022	-0.013
Mof_C 	C 	0.9557	0.1054	0.4395	0.023
Mof_C 	C 	0.908	0.2225	0.3746	-0.08
Mof_C 	C 	0.7448	0.107	0.234	0.054
Mof_C 	C 	0.7111	0.299	0.2886	0.093
Mof_C 	C 	0.1894	0.9984	0.2958	-0.037
Mof_C 	C 	0.3221	0.1448	0.2135	0.07
Mof_C 	C 	0.3671	0.1896	0.3415	0.078
Mof_C 	C 	0.5934	0.4149	0.7053	0.099
Mof_C 	C 	0.7675	0.4712	0.6833	0.049
Mof_C 	C 	0.7124	0.2172	0.573	-0.092
Mof_C 	C 	0.8625	0.1068	0.5366	0.026
Mof_C 	C 	0.9095	0.9998	0.5978	-0.013
Mof_C 	C 	0.0443	0.8946	0.5605	0.023
Mof_C 	C 	0.092	0.7775	0.6254	-0.08
Mof_C 	C 	0.2552	0.893	0.766	0.054
Mof_C 	C 	0.2889	0.701	0.7114	0.093
Mof_C 	C 	0.8106	0.0016	0.7042	-0.037
Mof_C 	C 	0.6779	0.8552	0.7865	0.07
Mof_C 	C 	0.6329	0.8104	0.6585	0.078
Mof_N 	N 	0.3872	0.21	0.2423	-0.277
Mof_N 	N 	0.2632	0.0879	0.2935	-0.118
Mof_N 	N 	0.2922	0.1168	0.3768	-0.101
Mof_N 	N 	0.6619	0.2429	0.2343	-0.27
Mof_N 	N 	0.8164	0.2051	0.3191	-0.107
Mof_N 	N 	0.8391	0.0801	0.2836	-0.108
Mof_N 	N 	0.3773	0.4949	0.2581	-0.245
Mof_N 	N 	0.295	0.674	0.3631	-0.097
Mof_N 	N 	0.1799	0.6319	0.3869	-0.094
Mof_N 	N 	0.6128	0.79	0.7577	-0.277
Mof_N 	N 	0.7368	0.9121	0.7065	-0.118
Mof_N 	N 	0.7078	0.8832	0.6232	-0.101
Mof_N 	N 	0.3381	0.7571	0.7657	-0.27
Mof_N 	N 	0.1836	0.7949	0.6809	-0.107
Mof_N 	N 	0.1609	0.9199	0.7164	-0.108
Mof_N 	N 	0.6227	0.5051	0.7419	-0.245
Mof_N 	N 	0.705	0.326	0.6369	-0.097
Mof_N 	N 	0.8201	0.3681	0.6131	-0.094
Mof_O 	O 	0.1291	0.6031	0.8923	-0.697
Mof_O 	O 	0.1236	0.3844	0.9949	-0.712
Mof_O 	O 	0.6225	0.6402	0.1301	-0.695
Mof_O 	O 	0.6452	0.6093	0.9262	-0.789
Mof_O 	O 	0.6303	0.4117	0.0536	-0.755
Mof_O 	O 	0.9064	0.398	0.9178	-0.735
Mof_O 	O 	0.8228	0.6313	0.2095	-0.55
Mof_O 	O 	0.8355	0.8409	0.106	-0.58
Mof_O 	O 	0.8709	0.3969	0.1077	-0.697
Mof_O 	O 	0.8764	0.6156	0.0051	-0.712
Mof_O 	O 	0.3775	0.3598	0.8699	-0.695
Mof_O 	O 	0.3548	0.3907	0.0738	-0.789
Mof_O 	O 	0.3697	0.5883	0.9464	-0.755
Mof_O 	O 	0.0936	0.602	0.0822	-0.735
Mof_O 	O 	0.1772	0.3687	0.7905	-0.55
Mof_O 	O 	0.1645	0.1591	0.894	-0.58
_end
