# CIF file generated by openbabel 3.1.0, see https://openbabel.org
data_I
_chemical_name_common 'YARBUQ_clean'
_cell_length_a 13.983
_cell_length_b 23.7756
_cell_length_c 23.7756
_cell_angle_alpha 76.6763
_cell_angle_beta 72.8988
_cell_angle_gamma 72.8987
_space_group_name_H-M_alt 'P 1'
_space_group_name_Hall 'P 1'
loop_
    _symmetry_equiv_pos_as_xyz
    x,y,z
loop_
    _atom_site_label
    _atom_site_type_symbol
    _atom_site_fract_x
    _atom_site_fract_y
    _atom_site_fract_z
    _atom_site_occupancy
    Ni1      Ni       0.92433    0.24338    0.64506    1.000
    Ni2      Ni       0.80370    0.06798    0.32162    1.000
    Ni3      Ni       0.68723    0.74338    0.14506    1.000
    Ni4      Ni       0.30670    0.56798    0.82162    1.000
    H1       H        0.74030    0.06600    0.74760    1.000
    H2       H        0.63020    0.89440    0.03460    1.000
    H3       H        0.04220    0.04340    0.34940    1.000
    H4       H        0.55900    0.04630    0.35050    1.000
    H5       H        0.87820    0.16480    0.82960    1.000
    H6       H        0.85960    0.17020    0.92940    1.000
    H7       H        0.84300    0.12250    0.02830    1.000
    H8       H        0.75420    0.04860    0.06060    1.000
    H9       H        0.71320    0.00540    0.99520    1.000
    H10      H        0.68060    0.98150    0.86290    1.000
    H11      H        0.64830    0.99350    0.92870    1.000
    H12      H        0.92990    0.77710    0.97210    1.000
    H13      H        0.06370    0.78140    0.88140    1.000
    H14      H        0.12710    0.83070    0.78750    1.000
    H15      H        0.03060    0.92190    0.75110    1.000
    H16      H        0.87070    0.96410    0.80850    1.000
    H17      H        0.98540    0.22590    0.37010    1.000
    H18      H        0.08760    0.28430    0.38510    1.000
    H19      H        0.24380    0.29270    0.39350    1.000
    H20      H        0.38580    0.21170    0.38530    1.000
    H21      H        0.37160    0.12240    0.36860    1.000
    H22      H        0.32970    0.03400    0.38680    1.000
    H23      H        0.26900    0.00660    0.35900    1.000
    H24      H        0.61770    0.02530    0.16110    1.000
    H25      H        0.51370    0.01030    0.10370    1.000
    H26      H        0.35680    0.00160    0.09680    1.000
    H27      H        0.21660    0.00880    0.17880    1.000
    H28      H        0.23340    0.02470    0.26770    1.000
    H29      H        0.04370    0.39220    0.82400    1.000
    H30      H        0.95040    0.37040    0.86980    1.000
    H31      H        0.96260    0.36080    0.66240    1.000
    H32      H        0.99180    0.40300    0.73280    1.000
    H33      H        0.00770    0.24670    0.84370    1.000
    H34      H        0.97840    0.20460    0.77340    1.000
    H35      H        0.08280    0.27450    0.88350    1.000
    H36      H        0.07090    0.32530    0.91890    1.000
    H37      H        0.22100    0.30520    0.81100    1.000
    H38      H        0.24590    0.28580    0.87340    1.000
    H39      H        0.34920    0.47000    0.74560    1.000
    H40      H        0.30350    0.38160    0.75480    1.000
    H41      H        0.17490    0.38630    0.92910    1.000
    H42      H        0.22060    0.47490    0.91990    1.000
    H43      H        0.07210    0.14810    0.69810    1.000
    H44      H        0.24330    0.10180    0.67620    1.000
    H45      H        0.27540    0.19050    0.51110    1.000
    H46      H        0.10380    0.23680    0.53220    1.000
    H47      H        0.42380    0.12310    0.60270    1.000
    H48      H        0.42310    0.12530    0.53690    1.000
    H49      H        0.42970    0.02940    0.54940    1.000
    H50      H        0.38650    0.02490    0.61850    1.000
    H51      H        0.55600    0.04100    0.61820    1.000
    H52      H        0.55710    0.97690    0.60890    1.000
    H53      H        0.67230    0.98340    0.40220    1.000
    H54      H        0.58100    0.96510    0.49830    1.000
    H55      H        0.66050    0.09570    0.53790    1.000
    H56      H        0.69080    0.13460    0.43540    1.000
    H57      H        0.94610    0.56600    0.24760    1.000
    H58      H        0.94080    0.39440    0.53460    1.000
    H59      H        0.06500    0.54340    0.84940    1.000
    H60      H        0.54420    0.54630    0.85050    1.000
    H61      H        0.62740    0.66480    0.32960    1.000
    H62      H        0.54080    0.67020    0.42940    1.000
    H63      H        0.50620    0.62250    0.52830    1.000
    H64      H        0.63660    0.54860    0.56060    1.000
    H65      H        0.78620    0.50540    0.49520    1.000
    H66      H        0.97500    0.48150    0.36290    1.000
    H67      H        0.92950    0.49350    0.42870    1.000
    H68      H        0.82090    0.27710    0.47210    1.000
    H69      H        0.77350    0.28140    0.38140    1.000
    H70      H        0.75470    0.33070    0.28750    1.000
    H71      H        0.79640    0.42190    0.25110    1.000
    H72      H        0.85670    0.46410    0.30850    1.000
    H73      H        0.91860    0.72590    0.87010    1.000
    H74      H        0.74300    0.78430    0.88510    1.000
    H75      H        0.57000    0.79270    0.89350    1.000
    H76      H        0.51720    0.71170    0.88530    1.000
    H77      H        0.63740    0.62240    0.86860    1.000
    H78      H        0.74950    0.53400    0.88680    1.000
    H79      H        0.86540    0.50660    0.85900    1.000
    H80      H        0.69590    0.52530    0.66110    1.000
    H81      H        0.87230    0.51030    0.60370    1.000
    H82      H        0.04480    0.50160    0.59680    1.000
    H83      H        0.09580    0.50880    0.67880    1.000
    H84      H        0.97420    0.52470    0.76770    1.000
    H85      H        0.24010    0.89220    0.32400    1.000
    H86      H        0.30940    0.87040    0.36980    1.000
    H87      H        0.51420    0.86080    0.16240    1.000
    H88      H        0.37240    0.90300    0.23280    1.000
    H89      H        0.40190    0.74670    0.34370    1.000
    H90      H        0.54360    0.70460    0.27340    1.000
    H91      H        0.25920    0.77450    0.38350    1.000
    H92      H        0.18490    0.82530    0.41890    1.000
    H93      H        0.16280    0.80520    0.31100    1.000
    H94      H        0.09490    0.78580    0.37340    1.000
    H95      H        0.93520    0.97000    0.24560    1.000
    H96      H        0.06010    0.88160    0.25480    1.000
    H97      H        0.00970    0.88630    0.42910    1.000
    H98      H        0.88460    0.97490    0.41990    1.000
    H99      H        0.58170    0.64810    0.19810    1.000
    H100     H        0.47870    0.60180    0.17620    1.000
    H101     H        0.52300    0.69050    0.01110    1.000
    H102     H        0.62720    0.73680    0.03220    1.000
    H103     H        0.35040    0.62310    0.10270    1.000
    H104     H        0.41470    0.62530    0.03690    1.000
    H105     H        0.49150    0.52940    0.04940    1.000
    H106     H        0.47010    0.52490    0.11850    1.000
    H107     H        0.28480    0.54100    0.11820    1.000
    H108     H        0.35710    0.47690    0.10890    1.000
    H109     H        0.44210    0.48340    0.90220    1.000
    H110     H        0.45560    0.46510    0.99830    1.000
    H111     H        0.20590    0.59570    0.03790    1.000
    H112     H        0.23920    0.63460    0.93540    1.000
    C1       C        0.83560    0.14530    0.73470    1.000
    C2       C        0.74030    0.80180    0.05560    1.000
    C3       C        0.84340    0.13460    0.84060    1.000
    C4       C        0.81950    0.11430    0.79670    1.000
    C5       C        0.77290    0.06590    0.81790    1.000
    C6       C        0.75920    0.03500    0.87600    1.000
    C7       C        0.77320    0.06010    0.92070    1.000
    C8       C        0.81590    0.11020    0.90040    1.000
    C9       C        0.83630    0.13560    0.94180    1.000
    C10      C        0.82050    0.10940    0.00160    1.000
    C11      C        0.77150    0.06300    0.02000    1.000
    C12      C        0.74600    0.03660    0.98160    1.000
    C13      C        0.70690    0.98430    0.89530    1.000
    C14      C        0.89120    0.81370    0.95750    1.000
    C15      C        0.79550    0.83890    0.99190    1.000
    C16      C        0.73770    0.89360    0.97000    1.000
    C17      C        0.77560    0.92320    0.91380    1.000
    C18      C        0.87150    0.89790    0.87930    1.000
    C19      C        0.92920    0.84320    0.90120    1.000
    C20      C        0.02500    0.81800    0.86680    1.000
    C21      C        0.06300    0.84750    0.81050    1.000
    C22      C        0.00520    0.90230    0.78870    1.000
    C23      C        0.90940    0.92750    0.82310    1.000
    C24      C        0.92880    0.14010    0.35510    1.000
    C25      C        0.67730    0.04190    0.24930    1.000
    C26      C        0.04230    0.19340    0.36680    1.000
    C27      C        0.03370    0.14000    0.35680    1.000
    C28      C        0.11880    0.09150    0.35190    1.000
    C29      C        0.21240    0.09640    0.35700    1.000
    C30      C        0.22100    0.14990    0.36690    1.000
    C31      C        0.13590    0.19840    0.37180    1.000
    C32      C        0.14450    0.25180    0.38180    1.000
    C33      C        0.23800    0.25690    0.38690    1.000
    C34      C        0.32320    0.20830    0.38190    1.000
    C35      C        0.31460    0.15490    0.37190    1.000
    C36      C        0.29940    0.03990    0.35350    1.000
    C37      C        0.56160    0.02810    0.19390    1.000
    C38      C        0.57150    0.03770    0.24730    1.000
    C39      C        0.48760    0.04200    0.29640    1.000
    C40      C        0.39360    0.03680    0.29220    1.000
    C41      C        0.38350    0.02720    0.23900    1.000
    C42      C        0.46760    0.02280    0.18980    1.000
    C43      C        0.45750    0.01320    0.13660    1.000
    C44      C        0.36350    0.00800    0.13240    1.000
    C45      C        0.27950    0.01230    0.18150    1.000
    C46      C        0.28960    0.02180    0.23480    1.000
    C47      C        0.01680    0.35730    0.84310    1.000
    C48      C        0.97160    0.33800    0.69880    1.000
    C49      C        0.98910    0.36320    0.74100    1.000
    C50      C        0.00270    0.32900    0.79520    1.000
    C51      C        0.99860    0.26960    0.80740    1.000
    C52      C        0.98110    0.24430    0.76530    1.000
    C53      C        0.08990    0.31480    0.87940    1.000
    C54      C        0.20370    0.31640    0.85020    1.000
    C55      C        0.31430    0.45330    0.78230    1.000
    C56      C        0.28690    0.40030    0.78790    1.000
    C57      C        0.23470    0.37520    0.84280    1.000
    C58      C        0.20990    0.40310    0.89230    1.000
    C59      C        0.23720    0.45620    0.88680    1.000
    C60      C        0.11240    0.15710    0.66010    1.000
    C61      C        0.21600    0.12920    0.64680    1.000
    C62      C        0.28010    0.14060    0.59120    1.000
    C63      C        0.23460    0.18170    0.54910    1.000
    C64      C        0.13120    0.20970    0.56190    1.000
    C65      C        0.39320    0.10970    0.57790    1.000
    C66      C        0.43250    0.04250    0.58450    1.000
    C67      C        0.54210    0.01900    0.59280    1.000
    C68      C        0.66660    0.00780    0.42900    1.000
    C69      C        0.61200    0.99690    0.48710    1.000
    C70      C        0.60180    0.03080    0.52960    1.000
    C71      C        0.65130    0.07710    0.51030    1.000
    C72      C        0.68650    0.09540    0.44960    1.000
    C73      C        0.78440    0.64530    0.23470    1.000
    C74      C        0.90230    0.30180    0.55560    1.000
    C75      C        0.68140    0.63460    0.34060    1.000
    C76      C        0.76950    0.61430    0.29670    1.000
    C77      C        0.84330    0.56590    0.31790    1.000
    C78      C        0.82980    0.53500    0.37600    1.000
    C79      C        0.74600    0.56010    0.42070    1.000
    C80      C        0.67350    0.61020    0.40040    1.000
    C81      C        0.58630    0.63560    0.44180    1.000
    C82      C        0.56850    0.60940    0.50160    1.000
    C83      C        0.64550    0.56300    0.52000    1.000
    C84      C        0.73580    0.53660    0.48160    1.000
    C85      C        0.91350    0.48430    0.39530    1.000
    C86      C        0.83760    0.31370    0.45750    1.000
    C87      C        0.87370    0.33890    0.49190    1.000
    C88      C        0.89870    0.39360    0.47000    1.000
    C89      C        0.88740    0.42320    0.41380    1.000
    C90      C        0.85130    0.39790    0.37930    1.000
    C91      C        0.82640    0.34320    0.40120    1.000
    C92      C        0.79020    0.31800    0.36680    1.000
    C93      C        0.77900    0.34750    0.31050    1.000
    C94      C        0.80380    0.40230    0.28870    1.000
    C95      C        0.84000    0.42750    0.32310    1.000
    C96      C        0.07600    0.64010    0.85510    1.000
    C97      C        0.53150    0.54190    0.74930    1.000
    C98      C        0.89750    0.69340    0.86680    1.000
    C99      C        0.96950    0.64000    0.85680    1.000
    C100     C        0.93780    0.59150    0.85190    1.000
    C101     C        0.83420    0.59640    0.85700    1.000
    C102     C        0.76220    0.64990    0.86690    1.000
    C103     C        0.79390    0.69840    0.87180    1.000
    C104     C        0.72190    0.75180    0.88180    1.000
    C105     C        0.61820    0.75690    0.88690    1.000
    C106     C        0.58660    0.70830    0.88190    1.000
    C107     C        0.65860    0.65490    0.87190    1.000
    C108     C        0.80720    0.53990    0.85350    1.000
    C109     C        0.71640    0.52810    0.69390    1.000
    C110     C        0.64350    0.53770    0.74730    1.000
    C111     C        0.67400    0.54200    0.79640    1.000
    C112     C        0.77740    0.53680    0.79220    1.000
    C113     C        0.85030    0.52720    0.73900    1.000
    C114     C        0.81980    0.52280    0.68980    1.000
    C115     C        0.89270    0.51320    0.63660    1.000
    C116     C        0.99610    0.50800    0.63240    1.000
    C117     C        0.02670    0.51230    0.68150    1.000
    C118     C        0.95380    0.52180    0.73480    1.000
    C119     C        0.28280    0.85730    0.34310    1.000
    C120     C        0.49160    0.83800    0.19880    1.000
    C121     C        0.40670    0.86320    0.24100    1.000
    C122     C        0.37310    0.82900    0.29520    1.000
    C123     C        0.42440    0.76960    0.30740    1.000
    C124     C        0.50930    0.74430    0.26530    1.000
    C125     C        0.21590    0.81480    0.37940    1.000
    C126     C        0.12970    0.81640    0.35020    1.000
    C127     C        0.95010    0.95330    0.28230    1.000
    C128     C        0.02490    0.90030    0.28790    1.000
    C129     C        0.04730    0.87520    0.34280    1.000
    C130     C        0.99470    0.90310    0.39230    1.000
    C131     C        0.91980    0.95620    0.38680    1.000
    C132     C        0.57040    0.65710    0.16010    1.000
    C133     C        0.50800    0.62920    0.14680    1.000
    C134     C        0.48810    0.64060    0.09120    1.000
    C135     C        0.53460    0.68170    0.04910    1.000
    C136     C        0.59720    0.70970    0.06190    1.000
    C137     C        0.41920    0.60970    0.07790    1.000
    C138     C        0.44050    0.54250    0.08450    1.000
    C139     C        0.34610    0.51900    0.09280    1.000
    C140     C        0.39660    0.50780    0.92900    1.000
    C141     C        0.40400    0.49690    0.98710    1.000
    C142     C        0.33780    0.53080    0.02960    1.000
    C143     C        0.26130    0.57710    0.01030    1.000
    C144     C        0.26850    0.59540    0.94960    1.000
    N1       N        0.06760    0.19820    0.61760    1.000
    N2       N        0.71420    0.05500    0.41020    1.000
    N3       N        0.96770    0.27850    0.71090    1.000
    N4       N        0.28940    0.48130    0.83190    1.000
    N5       N        0.61660    0.69820    0.11760    1.000
    N6       N        0.32060    0.55500    0.91020    1.000
    N7       N        0.54290    0.77850    0.21090    1.000
    N8       N        0.89740    0.98130    0.33190    1.000
    O1       O        0.88490    0.18140    0.71260    1.000
    O2       O        0.81910    0.12580    0.69580    1.000
    O3       O        0.66380    0.82140    0.08160    1.000
    O4       O        0.80600    0.75030    0.06330    1.000
    O5       O        0.73610    0.04400    0.78000    1.000
    O6       O        0.64170    0.91620    0.00260    1.000
    O7       O        0.91900    0.09060    0.34780    1.000
    O8       O        0.85570    0.18320    0.35980    1.000
    O9       O        0.69070    0.04830    0.29890    1.000
    O10      O        0.74770    0.04560    0.20160    1.000
    O11      O        0.10280    0.03870    0.34930    1.000
    O12      O        0.50030    0.04360    0.35400    1.000
    O13      O        0.72110    0.68140    0.21260    1.000
    O14      O        0.85930    0.62580    0.19580    1.000
    O15      O        0.93320    0.32140    0.58160    1.000
    O16      O        0.88040    0.25030    0.56330    1.000
    O17      O        0.93990    0.54400    0.28000    1.000
    O18      O        0.93950    0.41620    0.50260    1.000
    O19      O        0.14260    0.59060    0.84780    1.000
    O20      O        0.10130    0.68320    0.85980    1.000
    O21      O        0.46210    0.54830    0.79890    1.000
    O22      O        0.50510    0.54560    0.70160    1.000
    O23      O        0.00920    0.53870    0.84930    1.000
    O24      O        0.60210    0.54360    0.85400    1.000
    Ni5      Ni       0.18723    0.64506    0.24338    1.000
    Ni6      Ni       0.80670    0.32162    0.06798    1.000
    Ni7      Ni       0.42433    0.14506    0.74338    1.000
    Ni8      Ni       0.30370    0.82162    0.56798    1.000
    H113     H        0.44610    0.74760    0.06600    1.000
    H114     H        0.44080    0.03460    0.89440    1.000
    H115     H        0.56500    0.34940    0.04340    1.000
    H116     H        0.04420    0.35050    0.04630    1.000
    H117     H        0.12740    0.82960    0.16480    1.000
    H118     H        0.04080    0.92940    0.17020    1.000
    H119     H        0.00620    0.02830    0.12250    1.000
    H120     H        0.13660    0.06060    0.04860    1.000
    H121     H        0.28620    0.99520    0.00540    1.000
    H122     H        0.47500    0.86290    0.98150    1.000
    H123     H        0.42950    0.92870    0.99350    1.000
    H124     H        0.32090    0.97210    0.77710    1.000
    H125     H        0.27350    0.88140    0.78140    1.000
    H126     H        0.25470    0.78750    0.83070    1.000
    H127     H        0.29640    0.75110    0.92190    1.000
    H128     H        0.35670    0.80850    0.96410    1.000
    H129     H        0.41860    0.37010    0.22590    1.000
    H130     H        0.24300    0.38510    0.28430    1.000
    H131     H        0.07000    0.39350    0.29270    1.000
    H132     H        0.01720    0.38530    0.21170    1.000
    H133     H        0.13740    0.36860    0.12240    1.000
    H134     H        0.24950    0.38680    0.03400    1.000
    H135     H        0.36540    0.35900    0.00660    1.000
    H136     H        0.19590    0.16110    0.02530    1.000
    H137     H        0.37230    0.10370    0.01030    1.000
    H138     H        0.54480    0.09680    0.00160    1.000
    H139     H        0.59580    0.17880    0.00880    1.000
    H140     H        0.47420    0.26770    0.02470    1.000
    H141     H        0.74010    0.82400    0.39220    1.000
    H142     H        0.80940    0.86980    0.37040    1.000
    H143     H        0.01420    0.66240    0.36080    1.000
    H144     H        0.87240    0.73280    0.40300    1.000
    H145     H        0.90190    0.84370    0.24670    1.000
    H146     H        0.04360    0.77340    0.20460    1.000
    H147     H        0.75920    0.88350    0.27450    1.000
    H148     H        0.68490    0.91890    0.32530    1.000
    H149     H        0.66280    0.81100    0.30520    1.000
    H150     H        0.59490    0.87340    0.28580    1.000
    H151     H        0.43520    0.74560    0.47000    1.000
    H152     H        0.56010    0.75480    0.38160    1.000
    H153     H        0.50970    0.92910    0.38630    1.000
    H154     H        0.38460    0.91990    0.47490    1.000
    H155     H        0.08170    0.69810    0.14810    1.000
    H156     H        0.97870    0.67620    0.10180    1.000
    H157     H        0.02300    0.51110    0.19050    1.000
    H158     H        0.12720    0.53220    0.23680    1.000
    H159     H        0.85040    0.60270    0.12310    1.000
    H160     H        0.91470    0.53690    0.12530    1.000
    H161     H        0.99150    0.54940    0.02940    1.000
    H162     H        0.97010    0.61850    0.02490    1.000
    H163     H        0.78480    0.61820    0.04100    1.000
    H164     H        0.85710    0.60890    0.97690    1.000
    H165     H        0.94210    0.40220    0.98340    1.000
    H166     H        0.95560    0.49830    0.96510    1.000
    H167     H        0.70590    0.53790    0.09570    1.000
    H168     H        0.73920    0.43540    0.13460    1.000
    H169     H        0.24030    0.24760    0.56600    1.000
    H170     H        0.13020    0.53460    0.39440    1.000
    H171     H        0.54220    0.84940    0.54340    1.000
    H172     H        0.05900    0.85050    0.54630    1.000
    H173     H        0.37820    0.32960    0.66480    1.000
    H174     H        0.35960    0.42940    0.67020    1.000
    H175     H        0.34300    0.52830    0.62250    1.000
    H176     H        0.25420    0.56060    0.54860    1.000
    H177     H        0.21320    0.49520    0.50540    1.000
    H178     H        0.18060    0.36290    0.48150    1.000
    H179     H        0.14830    0.42870    0.49350    1.000
    H180     H        0.42990    0.47210    0.27710    1.000
    H181     H        0.56370    0.38140    0.28140    1.000
    H182     H        0.62710    0.28750    0.33070    1.000
    H183     H        0.53060    0.25110    0.42190    1.000
    H184     H        0.37070    0.30850    0.46410    1.000
    H185     H        0.48540    0.87010    0.72590    1.000
    H186     H        0.58760    0.88510    0.78430    1.000
    H187     H        0.74380    0.89350    0.79270    1.000
    H188     H        0.88580    0.88530    0.71170    1.000
    H189     H        0.87160    0.86860    0.62240    1.000
    H190     H        0.82970    0.88680    0.53400    1.000
    H191     H        0.76900    0.85900    0.50660    1.000
    H192     H        0.11770    0.66110    0.52530    1.000
    H193     H        0.01370    0.60370    0.51030    1.000
    H194     H        0.85680    0.59680    0.50160    1.000
    H195     H        0.71660    0.67880    0.50880    1.000
    H196     H        0.73340    0.76770    0.52470    1.000
    H197     H        0.54370    0.32400    0.89220    1.000
    H198     H        0.45040    0.36980    0.87040    1.000
    H199     H        0.46260    0.16240    0.86080    1.000
    H200     H        0.49180    0.23280    0.90300    1.000
    H201     H        0.50770    0.34370    0.74670    1.000
    H202     H        0.47840    0.27340    0.70460    1.000
    H203     H        0.58280    0.38350    0.77450    1.000
    H204     H        0.57090    0.41890    0.82530    1.000
    H205     H        0.72100    0.31100    0.80520    1.000
    H206     H        0.74590    0.37340    0.78580    1.000
    H207     H        0.84920    0.24560    0.97000    1.000
    H208     H        0.80350    0.25480    0.88160    1.000
    H209     H        0.67490    0.42910    0.88630    1.000
    H210     H        0.72060    0.41990    0.97490    1.000
    H211     H        0.57210    0.19810    0.64810    1.000
    H212     H        0.74330    0.17620    0.60180    1.000
    H213     H        0.77540    0.01110    0.69050    1.000
    H214     H        0.60380    0.03220    0.73680    1.000
    H215     H        0.92380    0.10270    0.62310    1.000
    H216     H        0.92310    0.03690    0.62530    1.000
    H217     H        0.92970    0.04940    0.52940    1.000
    H218     H        0.88650    0.11850    0.52490    1.000
    H219     H        0.05600    0.11820    0.54100    1.000
    H220     H        0.05710    0.10890    0.47690    1.000
    H221     H        0.17230    0.90220    0.48340    1.000
    H222     H        0.08100    0.99830    0.46510    1.000
    H223     H        0.16050    0.03790    0.59570    1.000
    H224     H        0.19080    0.93540    0.63460    1.000
    C145     C        0.28440    0.73470    0.14530    1.000
    C146     C        0.40230    0.05560    0.80180    1.000
    C147     C        0.18140    0.84060    0.13460    1.000
    C148     C        0.26950    0.79670    0.11430    1.000
    C149     C        0.34330    0.81790    0.06590    1.000
    C150     C        0.32980    0.87600    0.03500    1.000
    C151     C        0.24600    0.92070    0.06010    1.000
    C152     C        0.17350    0.90040    0.11020    1.000
    C153     C        0.08630    0.94180    0.13560    1.000
    C154     C        0.06850    0.00160    0.10940    1.000
    C155     C        0.14550    0.02000    0.06300    1.000
    C156     C        0.23580    0.98160    0.03660    1.000
    C157     C        0.41350    0.89530    0.98430    1.000
    C158     C        0.33760    0.95750    0.81370    1.000
    C159     C        0.37370    0.99190    0.83890    1.000
    C160     C        0.39870    0.97000    0.89360    1.000
    C161     C        0.38740    0.91380    0.92320    1.000
    C162     C        0.35130    0.87930    0.89790    1.000
    C163     C        0.32640    0.90120    0.84320    1.000
    C164     C        0.29020    0.86680    0.81800    1.000
    C165     C        0.27900    0.81050    0.84750    1.000
    C166     C        0.30380    0.78870    0.90230    1.000
    C167     C        0.34000    0.82310    0.92750    1.000
    C168     C        0.57600    0.35510    0.14010    1.000
    C169     C        0.03150    0.24930    0.04190    1.000
    C170     C        0.39750    0.36680    0.19340    1.000
    C171     C        0.46950    0.35680    0.14000    1.000
    C172     C        0.43780    0.35190    0.09150    1.000
    C173     C        0.33420    0.35700    0.09640    1.000
    C174     C        0.26220    0.36690    0.14990    1.000
    C175     C        0.29390    0.37180    0.19840    1.000
    C176     C        0.22190    0.38180    0.25180    1.000
    C177     C        0.11820    0.38690    0.25690    1.000
    C178     C        0.08660    0.38190    0.20830    1.000
    C179     C        0.15860    0.37190    0.15490    1.000
    C180     C        0.30720    0.35350    0.03990    1.000
    C181     C        0.21640    0.19390    0.02810    1.000
    C182     C        0.14350    0.24730    0.03770    1.000
    C183     C        0.17400    0.29640    0.04200    1.000
    C184     C        0.27740    0.29220    0.03680    1.000
    C185     C        0.35030    0.23900    0.02720    1.000
    C186     C        0.31980    0.18980    0.02280    1.000
    C187     C        0.39270    0.13660    0.01320    1.000
    C188     C        0.49610    0.13240    0.00800    1.000
    C189     C        0.52670    0.18150    0.01230    1.000
    C190     C        0.45380    0.23480    0.02180    1.000
    C191     C        0.78280    0.84310    0.35730    1.000
    C192     C        0.99160    0.69880    0.33800    1.000
    C193     C        0.90670    0.74100    0.36320    1.000
    C194     C        0.87310    0.79520    0.32900    1.000
    C195     C        0.92440    0.80740    0.26960    1.000
    C196     C        0.00930    0.76530    0.24430    1.000
    C197     C        0.71590    0.87940    0.31480    1.000
    C198     C        0.62970    0.85020    0.31640    1.000
    C199     C        0.45010    0.78230    0.45330    1.000
    C200     C        0.52490    0.78790    0.40030    1.000
    C201     C        0.54730    0.84280    0.37520    1.000
    C202     C        0.49470    0.89230    0.40310    1.000
    C203     C        0.41980    0.88680    0.45620    1.000
    C204     C        0.07040    0.66010    0.15710    1.000
    C205     C        0.00800    0.64680    0.12920    1.000
    C206     C        0.98810    0.59120    0.14060    1.000
    C207     C        0.03460    0.54910    0.18170    1.000
    C208     C        0.09720    0.56190    0.20970    1.000
    C209     C        0.91920    0.57790    0.10970    1.000
    C210     C        0.94050    0.58450    0.04250    1.000
    C211     C        0.84610    0.59280    0.01900    1.000
    C212     C        0.89660    0.42900    0.00780    1.000
    C213     C        0.90400    0.48710    0.99690    1.000
    C214     C        0.83780    0.52960    0.03080    1.000
    C215     C        0.76130    0.51030    0.07710    1.000
    C216     C        0.76850    0.44960    0.09540    1.000
    C217     C        0.33560    0.23470    0.64530    1.000
    C218     C        0.24030    0.55560    0.30180    1.000
    C219     C        0.34340    0.34060    0.63460    1.000
    C220     C        0.31950    0.29670    0.61430    1.000
    C221     C        0.27290    0.31790    0.56590    1.000
    C222     C        0.25920    0.37600    0.53500    1.000
    C223     C        0.27320    0.42070    0.56010    1.000
    C224     C        0.31590    0.40040    0.61020    1.000
    C225     C        0.33630    0.44180    0.63560    1.000
    C226     C        0.32050    0.50160    0.60940    1.000
    C227     C        0.27150    0.52000    0.56300    1.000
    C228     C        0.24600    0.48160    0.53660    1.000
    C229     C        0.20690    0.39530    0.48430    1.000
    C230     C        0.39120    0.45750    0.31370    1.000
    C231     C        0.29550    0.49190    0.33890    1.000
    C232     C        0.23770    0.47000    0.39360    1.000
    C233     C        0.27560    0.41380    0.42320    1.000
    C234     C        0.37150    0.37930    0.39790    1.000
    C235     C        0.42920    0.40120    0.34320    1.000
    C236     C        0.52500    0.36680    0.31800    1.000
    C237     C        0.56300    0.31050    0.34750    1.000
    C238     C        0.50520    0.28870    0.40230    1.000
    C239     C        0.40940    0.32310    0.42750    1.000
    C240     C        0.42880    0.85510    0.64010    1.000
    C241     C        0.17730    0.74930    0.54190    1.000
    C242     C        0.54230    0.86680    0.69340    1.000
    C243     C        0.53370    0.85680    0.64000    1.000
    C244     C        0.61880    0.85190    0.59150    1.000
    C245     C        0.71240    0.85700    0.59640    1.000
    C246     C        0.72100    0.86690    0.64990    1.000
    C247     C        0.63590    0.87180    0.69840    1.000
    C248     C        0.64450    0.88180    0.75180    1.000
    C249     C        0.73800    0.88690    0.75690    1.000
    C250     C        0.82320    0.88190    0.70830    1.000
    C251     C        0.81460    0.87190    0.65490    1.000
    C252     C        0.79940    0.85350    0.53990    1.000
    C253     C        0.06160    0.69390    0.52810    1.000
    C254     C        0.07150    0.74730    0.53770    1.000
    C255     C        0.98760    0.79640    0.54200    1.000
    C256     C        0.89360    0.79220    0.53680    1.000
    C257     C        0.88350    0.73900    0.52720    1.000
    C258     C        0.96760    0.68980    0.52280    1.000
    C259     C        0.95750    0.63660    0.51320    1.000
    C260     C        0.86350    0.63240    0.50800    1.000
    C261     C        0.77950    0.68150    0.51230    1.000
    C262     C        0.78960    0.73480    0.52180    1.000
    C263     C        0.51680    0.34310    0.85730    1.000
    C264     C        0.47160    0.19880    0.83800    1.000
    C265     C        0.48910    0.24100    0.86320    1.000
    C266     C        0.50270    0.29520    0.82900    1.000
    C267     C        0.49860    0.30740    0.76960    1.000
    C268     C        0.48110    0.26530    0.74430    1.000
    C269     C        0.58990    0.37940    0.81480    1.000
    C270     C        0.70370    0.35020    0.81640    1.000
    C271     C        0.81430    0.28230    0.95330    1.000
    C272     C        0.78690    0.28790    0.90030    1.000
    C273     C        0.73470    0.34280    0.87520    1.000
    C274     C        0.70990    0.39230    0.90310    1.000
    C275     C        0.73720    0.38680    0.95620    1.000
    C276     C        0.61240    0.16010    0.65710    1.000
    C277     C        0.71600    0.14680    0.62920    1.000
    C278     C        0.78010    0.09120    0.64060    1.000
    C279     C        0.73460    0.04910    0.68170    1.000
    C280     C        0.63120    0.06190    0.70970    1.000
    C281     C        0.89320    0.07790    0.60970    1.000
    C282     C        0.93250    0.08450    0.54250    1.000
    C283     C        0.04210    0.09280    0.51900    1.000
    C284     C        0.16660    0.92900    0.50780    1.000
    C285     C        0.11200    0.98710    0.49690    1.000
    C286     C        0.10180    0.02960    0.53080    1.000
    C287     C        0.15130    0.01030    0.57710    1.000
    C288     C        0.18650    0.94960    0.59540    1.000
    N9       N        0.11660    0.61760    0.19820    1.000
    N10      N        0.82060    0.41020    0.05500    1.000
    N11      N        0.04290    0.71090    0.27850    1.000
    N12      N        0.39740    0.83190    0.48130    1.000
    N13      N        0.56760    0.11760    0.69820    1.000
    N14      N        0.21420    0.91020    0.55500    1.000
    N15      N        0.46770    0.21090    0.77850    1.000
    N16      N        0.78940    0.33190    0.98130    1.000
    O25      O        0.22110    0.71260    0.18140    1.000
    O26      O        0.35930    0.69580    0.12580    1.000
    O27      O        0.43320    0.08160    0.82140    1.000
    O28      O        0.38040    0.06330    0.75030    1.000
    O29      O        0.43990    0.78000    0.04400    1.000
    O30      O        0.43950    0.00260    0.91620    1.000
    O31      O        0.64260    0.34780    0.09060    1.000
    O32      O        0.60130    0.35980    0.18320    1.000
    O33      O        0.96210    0.29890    0.04830    1.000
    O34      O        0.00510    0.20160    0.04560    1.000
    O35      O        0.50920    0.34930    0.03870    1.000
    O36      O        0.10210    0.35400    0.04360    1.000
    O37      O        0.38490    0.21260    0.68140    1.000
    O38      O        0.31910    0.19580    0.62580    1.000
    O39      O        0.16380    0.58160    0.32140    1.000
    O40      O        0.30600    0.56330    0.25030    1.000
    O41      O        0.23610    0.28000    0.54400    1.000
    O42      O        0.14170    0.50260    0.41620    1.000
    O43      O        0.41900    0.84780    0.59060    1.000
    O44      O        0.35570    0.85980    0.68320    1.000
    O45      O        0.19070    0.79890    0.54830    1.000
    O46      O        0.24770    0.70160    0.54560    1.000
    O47      O        0.60280    0.84930    0.53870    1.000
    O48      O        0.00030    0.85400    0.54360    1.000
