data_functionalizedCrystal
_audit_creation_method	'EQeq! by Chris Wilmer'
_symmetry_space_group_name_H-M	'P1'
_symmetry_Int_Tables_number	1
_symmetry_cell_setting	triclinic
loop_
_symmetry_equiv_pos_as_xyz
  x,y,z
_cell_length_a	8.857
_cell_length_b	16.097
_cell_length_c	31.574
_cell_angle_alpha	90
_cell_angle_beta	90
_cell_angle_gamma	92.152
loop_
_atom_site_label
_atom_site_type_symbol
_atom_site_fract_x
_atom_site_fract_y
_atom_site_fract_z
_atom_site_charge
Mof_Ni	Ni	0.32423	0.01747	0.33393	1.095
Mof_Ni	Ni	0.82423	0.51747	0.16607	1.095
Mof_Ni	Ni	0.67577	0.98253	0.66607	1.094
Mof_Ni	Ni	0.17577	0.48253	0.83393	1.094
Mof_H 	H 	0.4908	0.2172	0.4635	0.078
Mof_H 	H 	0.0179	0.6251	0.4451	0.028
Mof_H 	H 	0.2928	0.935	0.8673	0.027
Mof_H 	H 	0.7037	0.0081	0.3457	0.026
Mof_H 	H 	0.8447	0.0927	0.0551	0.085
Mof_H 	H 	0.5135	0.9466	0.2037	0.056
Mof_H 	H 	0.5336	0.7659	0.2932	0.057
Mof_H 	H 	0.0818	0.8875	0.1767	0.079
Mof_H 	H 	0.6477	0.3816	0.8835	0.036
Mof_H 	H 	0.0435	0.0266	0.6623	0.025
Mof_H 	H 	0.8313	0.533	0.4542	0.084
Mof_H 	H 	0.4182	0.6125	0.6767	0.082
Mof_H 	H 	0.2796	0.1514	0.9335	0.097
Mof_H 	H 	0.2107	0.032	0.725	0.039
Mof_H 	H 	0.5092	0.7828	0.5365	0.078
Mof_H 	H 	0.9967	0.8837	0.1066	0.036
Mof_H 	H 	0.0374	0.0024	0.5409	0.025
Mof_H 	H 	0.9821	0.3749	0.5549	0.028
Mof_H 	H 	0.2046	0.2357	0.4718	0.032
Mof_H 	H 	0.4753	0.6618	0.4965	0.029
Mof_H 	H 	0.268	0.6409	0.8889	-0.002
Mof_H 	H 	0.1274	0.7447	0.4149	0.076
Mof_H 	H 	0.8523	0.1184	0.3835	0.036
Mof_H 	H 	0.0033	0.1163	0.8934	0.036
Mof_H 	H 	0.5435	0.5266	0.8377	0.025
Mof_H 	H 	0.2893	0.468	0.225	0.04
Mof_H 	H 	0.3523	0.6184	0.1165	0.036
Mof_H 	H 	0.1	0.6001	0.5644	0.028
Mof_H 	H 	0.2954	0.2643	0.9718	0.032
Mof_H 	H 	0.4865	0.0534	0.7963	0.056
Mof_H 	H 	0.9865	0.5534	0.7037	0.057
Mof_H 	H 	0.7963	0.4919	0.8457	0.026
Mof_H 	H 	0.1355	0.7202	0.6053	0.085
Mof_H 	H 	0.7119	0.4336	0.7031	0.084
Mof_H 	H 	0.8726	0.2553	0.5851	0.076
Mof_H 	H 	0.6553	0.4073	0.5551	0.086
Mof_H 	H 	0.8645	0.2798	0.3947	0.085
Mof_H 	H 	0.768	0.1409	0.6111	-0.002
Mof_H 	H 	0.3645	0.7798	0.1053	0.085
Mof_H 	H 	0.0247	0.8382	0.9965	0.03
Mof_H 	H 	0.4565	0.4734	0.1623	0.025
Mof_H 	H 	0.6274	0.2447	0.0851	0.076
Mof_H 	H 	0.2184	0.9892	0.2368	0.004
Mof_H 	H 	0.3447	0.5927	0.4449	0.086
Mof_H 	H 	0.7881	0.0664	0.2031	0.082
Mof_H 	H 	0.6295	0.6755	0.2425	0.048
Mof_H 	H 	0.4626	0.4976	0.0409	0.028
Mof_H 	H 	0.2119	0.9336	0.7969	0.082
Mof_H 	H 	0.7072	0.065	0.1327	0.027
Mof_H 	H 	0.5374	0.5024	0.9591	0.028
Mof_H 	H 	0.0336	0.2659	0.2068	0.058
Mof_H 	H 	0.1136	0.0897	0.4112	0.041
Mof_H 	H 	0.9182	0.1125	0.8233	0.079
Mof_H 	H 	0.0135	0.4466	0.2963	0.057
Mof_H 	H 	0.4821	0.8749	0.9451	0.026
Mof_H 	H 	0.2072	0.565	0.3673	0.025
Mof_H 	H 	0.5818	0.3875	0.3233	0.082
Mof_H 	H 	0.3864	0.4103	0.9112	0.039
Mof_H 	H 	0.4664	0.2341	0.7068	0.057
Mof_H 	H 	0.4967	0.3837	0.3934	0.034
Mof_H 	H 	0.8705	0.8245	0.7425	0.048
Mof_H 	H 	0.7928	0.435	0.6327	0.025
Mof_H 	H 	0.6	0.1001	0.9356	0.029
Mof_H 	H 	0.7954	0.7643	0.5282	0.032
Mof_H 	H 	0.7184	0.4892	0.2632	0.004
Mof_H 	H 	0.9	0.3999	0.4356	0.028
Mof_H 	H 	0.1687	0.467	0.5458	0.084
Mof_H 	H 	0.1295	0.1755	0.2575	0.048
Mof_H 	H 	0.5964	0.8534	0.1524	0.044
Mof_H 	H 	0.0092	0.2828	0.9635	0.076
Mof_H 	H 	0.6136	0.5897	0.0888	0.039
Mof_H 	H 	0.7204	0.8486	0.0665	0.097
Mof_H 	H 	0.4	0.8999	0.0644	0.029
Mof_H 	H 	0.732	0.3591	0.1111	-0.002
Mof_H 	H 	0.2037	0.5081	0.1543	0.026
Mof_H 	H 	0.7796	0.6514	0.5665	0.098
Mof_H 	H 	0.5884	0.8393	0.6041	0.008
Mof_H 	H 	0.8864	0.9103	0.5888	0.041
Mof_H 	H 	0.4036	0.1466	0.8476	0.044
Mof_H 	H 	0.1477	0.8816	0.6165	0.036
Mof_H 	H 	0.2881	0.5664	0.2969	0.084
Mof_H 	H 	0.2816	0.5108	0.7368	0.004
Mof_H 	H 	0.1001	0.1158	0.5028	0.076
Mof_H 	H 	0.7816	0.0108	0.7632	0.004
Mof_H 	H 	0.3999	0.3842	0.0028	0.076
Mof_H 	H 	0.3313	0.033	0.0458	0.084
Mof_H 	H 	0.3726	0.7553	0.9149	0.076
Mof_H 	H 	0.9626	0.9976	0.4591	0.025
Mof_H 	H 	0.232	0.8591	0.3889	-0.002
Mof_H 	H 	0.0964	0.3534	0.3476	0.044
Mof_H 	H 	0.6687	0.967	0.9542	0.084
Mof_H 	H 	0.7893	0.968	0.275	0.039
Mof_H 	H 	0.2963	0.9919	0.6543	0.026
Mof_H 	H 	0.2204	0.3486	0.4335	0.098
Mof_H 	H 	0.9036	0.6466	0.6524	0.044
Mof_H 	H 	0.5033	0.6163	0.6066	0.034
Mof_H 	H 	0.0884	0.3393	0.8959	0.006
Mof_H 	H 	0.7107	0.532	0.775	0.04
Mof_H 	H 	0.4116	0.1607	0.3959	0.008
Mof_H 	H 	0.9116	0.6607	0.1041	0.006
Mof_H 	H 	0.6355	0.2202	0.8947	0.085
Mof_H 	H 	0.9908	0.7172	0.0365	0.076
Mof_H 	H 	0.5179	0.1251	0.0549	0.026
Mof_H 	H 	0.1553	0.9073	0.9449	0.085
Mof_H 	H 	0.9565	0.9734	0.3377	0.025
Mof_H 	H 	0.9753	0.1618	0.0035	0.03
Mof_H 	H 	0.8999	0.8842	0.4972	0.076
Mof_H 	H 	0.6001	0.6158	0.9972	0.076
Mof_H 	H 	0.7046	0.7357	0.0282	0.032
Mof_H 	H 	0.5247	0.3382	0.5035	0.029
Mof_H 	H 	0.9664	0.7341	0.7932	0.058
Mof_H 	H 	0.3705	0.3245	0.7575	0.048
Mof_C 	C 	0.7094	0.52872	0.5675	0.101
Mof_C 	C 	0.9233	0.83133	0.48613	-0.128
Mof_C 	C 	0.1952	0.95737	0.95722	-0.156
Mof_C 	C 	0.5193	0.32636	0.048	0.124
Mof_C 	C 	0.4626	0.92562	0.28625	0.269
Mof_C 	C 	0.105	0.23029	0.26545	-0.01
Mof_C 	C 	0.3901	0.18195	0.01114	-0.051
Mof_C 	C 	0.1799	0.39553	0.49232	0.098
Mof_C 	C 	0.594	0.32673	0.4815	0.012
Mof_C 	C 	0.4891	0.4752	0.19095	0.007
Mof_C 	C 	0.0767	0.16867	0.51387	-0.128
Mof_C 	C 	0.5109	0.5248	0.80905	0.007
Mof_C 	C 	0.5767	0.66867	0.98613	-0.126
Mof_C 	C 	0.3304	0.52921	0.31658	-0.132
Mof_C 	C 	0.4128	0.1638	0.81889	-0.011
Mof_C 	C 	0.427	0.74506	0.54251	-0.127
Mof_C 	C 	0.4405	0.47614	0.30368	0.128
Mof_C 	C 	0.5374	0.07438	0.71375	0.269
Mof_C 	C 	0.6989	0.96817	0.98305	-0.153
Mof_C 	C 	0.663	0.05333	0.36074	0.014
Mof_C 	C 	0.8304	0.02921	0.18342	-0.126
Mof_C 	C 	0.6183	0.53085	0.08744	-0.004
Mof_C 	C 	0.8201	0.60447	0.50768	0.098
Mof_C 	C 	0.0081	0.32204	0.54432	0.011
Mof_C 	C 	0.7842	0.11775	0.97365	-0.05
Mof_C 	C 	0.8286	0.26194	0.92479	0.123
Mof_C 	C 	0.8158	0.36315	0.44111	0.014
Mof_C 	C 	0.5362	0.89148	0.21158	-0.037
Mof_C 	C 	0.8966	0.9722	0.27484	0.006
Mof_C 	C 	0.9638	0.60852	0.71158	-0.037
Mof_C 	C 	0.4919	0.17796	0.04432	0.014
Mof_C 	C 	0.6574	0.52722	0.61256	-0.054
Mof_C 	C 	0.4638	0.10852	0.78842	-0.037
Mof_C 	C 	0.282	0.52806	0.35834	0.014
Mof_C 	C 	0.0032	0.63595	0.11196	0.092
Mof_C 	C 	0.5185	0.8661	0.25357	-0.043
Mof_C 	C 	0.782	0.02806	0.14166	0.01
Mof_C 	C 	0.5356	0.48067	0.06084	0.007
Mof_C 	C 	0.6714	0.23806	0.42479	0.124
Mof_C 	C 	0.8682	0.01651	0.74554	0.103
Mof_C 	C 	0.0498	0.28441	0.23506	-0.037
Mof_C 	C 	0.4502	0.21559	0.73506	-0.036
Mof_C 	C 	0.2094	0.02872	0.9325	0.098
Mof_C 	C 	0.6952	0.45737	0.54278	-0.158
Mof_C 	C 	0.2453	0.61337	0.11846	0.001
Mof_C 	C 	0.605	0.73029	0.23455	-0.01
Mof_C 	C 	0.7289	0.89759	0.04975	-0.161
Mof_C 	C 	0.6696	0.47079	0.68342	-0.132
Mof_C 	C 	0.1244	0.2562	0.30742	-0.069
Mof_C 	C 	0.8123	0.80302	0.65992	0.333
Mof_C 	C 	0.163	0.55333	0.13926	0.014
Mof_C 	C 	0.0461	0.07894	0.87391	0.006
Mof_C 	C 	0.3168	0.59448	0.90045	0.09
Mof_C 	C 	0.406	0.67327	0.5185	0.012
Mof_C 	C 	0.5032	0.13595	0.38804	0.089
Mof_C 	C 	0.0595	0.02386	0.80368	0.12
Mof_C 	C 	0.1877	0.19698	0.34008	0.333
Mof_C 	C 	0.443	0.75077	0.93743	-0.128
Mof_C 	C 	0.5081	0.82204	0.95568	0.014
Mof_C 	C 	0.395	0.26971	0.76545	-0.01
Mof_C 	C 	0.1034	0.0278	0.72516	0.006
Mof_C 	C 	0.9891	0.9752	0.30905	0.004
Mof_C 	C 	0.0042	0.92278	0.16786	-0.118
Mof_C 	C 	0.0356	0.98067	0.43916	0.014
Mof_C 	C 	0.1714	0.73806	0.07521	0.123
Mof_C 	C 	0.0374	0.57438	0.78625	0.268
Mof_C 	C 	0.4644	0.51933	0.93916	0.007
Mof_C 	C 	0.7048	0.20821	0.91663	-0.128
Mof_C 	C 	0.7386	0.45786	0.50018	0.099
Mof_C 	C 	0.895	0.76971	0.73455	-0.01
Mof_C 	C 	0.2547	0.88663	0.61846	0.001
Mof_C 	C 	0.8426	0.97278	0.11256	-0.05
Mof_C 	C 	0.573	0.25494	0.45749	-0.127
Mof_C 	C 	0.8901	0.68195	0.48886	-0.05
Mof_C 	C 	0.3817	0.46915	0.91256	-0.004
Mof_C 	C 	0.6397	0.74034	0.00446	0.013
Mof_C 	C 	0.0193	0.82636	0.452	0.125
Mof_C 	C 	0.0185	0.3661	0.24643	-0.041
Mof_C 	C 	0.2614	0.54214	0.49982	0.099
Mof_C 	C 	0.9968	0.36405	0.88804	0.092
Mof_C 	C 	0.7614	0.04214	0.00018	0.098
Mof_C 	C 	0.6244	0.7562	0.19258	-0.069
Mof_C 	C 	0.2386	0.95786	0.99982	0.098
Mof_C 	C 	0.8011	0.53183	0.48305	-0.153
Mof_C 	C 	0.2711	0.10241	0.95025	-0.161
Mof_C 	C 	0.718	0.47194	0.64166	0.014
Mof_C 	C 	0.1832	0.90552	0.40045	0.09
Mof_C 	C 	0.7952	0.29179	0.41663	-0.129
Mof_C 	C 	0.6034	0.5278	0.77484	0.005
Mof_C 	C 	0.4807	0.67364	0.952	0.124
Mof_C 	C 	0.9405	0.97614	0.19632	0.12
Mof_C 	C 	0.6877	0.69698	0.15992	0.332
Mof_C 	C 	0.557	0.24923	0.06257	-0.128
Mof_C 	C 	0.9815	0.6339	0.75357	-0.041
Mof_C 	C 	0.9502	0.71559	0.76494	-0.037
Mof_C 	C 	0.4233	0.33133	0.01387	-0.126
Mof_C 	C 	0.5042	0.42278	0.33214	-0.13
Mof_C 	C 	0.2048	0.70821	0.58337	-0.129
Mof_C 	C 	0.3201	0.10447	0.99232	0.098
Mof_C 	C 	0.5461	0.57894	0.62609	0.015
Mof_C 	C 	0.337	0.94667	0.63926	0.014
Mof_C 	C 	0.5595	0.52386	0.69632	0.128
Mof_C 	C 	0.6099	0.81805	0.98886	-0.051
Mof_C 	C 	0.0362	0.39148	0.28842	-0.037
Mof_C 	C 	0.3682	0.51651	0.75446	0.1
Mof_C 	C 	0.5872	0.8362	0.18111	-0.011
Mof_C 	C 	0.6842	0.13685	0.94111	0.013
Mof_C 	C 	0.1574	0.02722	0.88744	-0.05
Mof_C 	C 	0.7453	0.11337	0.38154	0.001
Mof_C 	C 	0.906	0.17327	0.9815	0.011
Mof_C 	C 	0.1099	0.31805	0.51114	-0.05
Mof_C 	C 	0.218	0.97194	0.85834	0.01
Mof_C 	C 	0.057	0.74923	0.43743	-0.127
Mof_C 	C 	0.0872	0.3362	0.31889	-0.011
Mof_C 	C 	0.6318	0.48349	0.24554	0.1
Mof_C 	C 	0.1696	0.97079	0.81658	-0.126
Mof_C 	C 	0.943	0.25077	0.56257	-0.127
Mof_C 	C 	0.2952	0.79179	0.08337	-0.128
Mof_C 	C 	0.9539	0.92106	0.12609	0.006
Mof_C 	C 	0.3286	0.76194	0.57521	0.124
Mof_C 	C 	0.9958	0.07722	0.83214	-0.118
Mof_C 	C 	0.2906	0.47128	0.4325	0.101
Mof_C 	C 	0.3011	0.03183	0.01695	-0.153
Mof_C 	C 	0.2289	0.39759	0.45025	-0.163
Mof_C 	C 	0.3966	0.4722	0.22516	0.005
Mof_C 	C 	0.9644	0.01933	0.56084	0.014
Mof_C 	C 	0.3123	0.30302	0.84008	0.332
Mof_C 	C 	0.4958	0.57722	0.66786	-0.13
Mof_C 	C 	0.4815	0.1339	0.74643	-0.043
Mof_C 	C 	0.837	0.44667	0.86074	0.014
Mof_C 	C 	0.7547	0.38663	0.88154	0.001
Mof_C 	C 	0.073	0.75494	0.04251	-0.124
Mof_C 	C 	0.9807	0.17364	0.548	0.125
Mof_C 	C 	0.8048	0.04263	0.04278	-0.156
Mof_C 	C 	0.7158	0.38225	0.47365	-0.051
Mof_C 	C 	0.3158	0.86315	0.05889	0.013
Mof_C 	C 	0.8603	0.75966	0.50446	0.013
Mof_C 	C 	0.9919	0.67796	0.45568	0.011
Mof_C 	C 	0.6832	0.40552	0.09955	0.09
Mof_C 	C 	0.8756	0.7438	0.69258	-0.069
Mof_C 	C 	0.3048	0.54263	0.45722	-0.158
Mof_C 	C 	0.4539	0.42106	0.37391	0.015
Mof_C 	C 	0.7906	0.97128	0.0675	0.098
Mof_C 	C 	0.1183	0.03085	0.41256	-0.01
Mof_C 	C 	0.2158	0.88225	0.02635	-0.05
Mof_C 	C 	0.5498	0.78441	0.26494	-0.036
Mof_C 	C 	0.1989	0.46817	0.51695	-0.153
Mof_C 	C 	0.1842	0.63685	0.55889	0.014
Mof_C 	C 	0.3756	0.2438	0.80742	-0.069
Mof_C 	C 	0.927	0.24506	0.95749	-0.124
Mof_C 	C 	0.9128	0.6638	0.68111	-0.011
Mof_C 	C 	0.3603	0.25966	0.99554	0.013
Mof_C 	C 	0.0109	0.0248	0.69095	0.004
Mof_C 	C 	0.4968	0.86405	0.61196	0.089
Mof_C 	C 	0.2842	0.61775	0.52635	-0.051
Mof_C 	C 	0.9626	0.42562	0.21375	0.268
Mof_C 	C 	0.1318	0.98349	0.25446	0.103
Mof_C 	C 	0.6799	0.89553	0.00768	0.098
Mof_C 	C 	0.8817	0.96915	0.58744	-0.01
Mof_C 	C 	0.094	0.82673	0.0185	0.011
Mof_C 	C 	0.1397	0.24034	0.49554	0.013
Mof_C 	C 	0.7711	0.60241	0.54975	-0.163
Mof_C 	C 	0.8168	0.09448	0.59955	0.09
Mof_C 	C 	0.3426	0.47278	0.38744	-0.054
Mof_N 	N 	0.85714	0.33423	0.89936	-0.138
Mof_N 	N 	0.98909	0.43194	0.86471	-0.222
Mof_N 	N 	0.01143	0.02358	0.76018	-0.142
Mof_N 	N 	0.51143	0.52358	0.73982	-0.141
Mof_N 	N 	0.51091	0.06806	0.36471	-0.222
Mof_N 	N 	0.57788	0.40068	0.06835	-0.141
Mof_N 	N 	0.07788	0.90068	0.43165	-0.142
Mof_N 	N 	0.64286	0.16577	0.39936	-0.138
Mof_N 	N 	0.92212	0.09932	0.56835	-0.142
Mof_N 	N 	0.20906	0.98362	0.38816	-0.227
Mof_N 	N 	0.14286	0.66577	0.10064	-0.138
Mof_N 	N 	0.98857	0.97642	0.23982	-0.142
Mof_N 	N 	0.48909	0.93194	0.63529	-0.222
Mof_N 	N 	0.01091	0.56806	0.13529	-0.222
Mof_N 	N 	0.29094	0.51638	0.88816	-0.228
Mof_N 	N 	0.36306	0.51855	0.7961	-0.214
Mof_N 	N 	0.79094	0.01638	0.61184	-0.227
Mof_N 	N 	0.48857	0.47642	0.26018	-0.141
Mof_N 	N 	0.86306	0.01855	0.7039	-0.212
Mof_N 	N 	0.70906	0.48362	0.11184	-0.228
Mof_N 	N 	0.13694	0.98145	0.2961	-0.212
Mof_N 	N 	0.63694	0.48145	0.2039	-0.214
Mof_N 	N 	0.42212	0.59932	0.93165	-0.141
Mof_N 	N 	0.35714	0.83423	0.60064	-0.138
Mof_O 	O 	0.92106	0.3993	0.17763	-0.365
Mof_O 	O 	0.24879	0.13406	0.32429	-0.404
Mof_O 	O 	0.07894	0.6007	0.82237	-0.365
Mof_O 	O 	0.75121	0.86594	0.67571	-0.404
Mof_O 	O 	0.42106	0.8993	0.32237	-0.365
Mof_O 	O 	0.74879	0.63406	0.17571	-0.404
Mof_O 	O 	0.25121	0.36594	0.82429	-0.404
Mof_O 	O 	0.32532	0.28575	0.87851	-0.28
Mof_O 	O 	0.95509	0.50179	0.22349	-0.354
Mof_O 	O 	0.82532	0.78575	0.62149	-0.28
Mof_O 	O 	0.57894	0.1007	0.67763	-0.365
Mof_O 	O 	0.67468	0.71425	0.12149	-0.28
Mof_O 	O 	0.17468	0.21425	0.37851	-0.28
Mof_O 	O 	0.45509	0.00179	0.27651	-0.354
Mof_O 	O 	0.54491	0.99821	0.72349	-0.354
Mof_O 	O 	0.04491	0.49821	0.77651	-0.354
_end
