data_functionalizedCrystal
_audit_creation_method	'EQeq! by Chris Wilmer'
_symmetry_space_group_name_H-M	'P1'
_symmetry_Int_Tables_number	1
_symmetry_cell_setting	triclinic
loop_
_symmetry_equiv_pos_as_xyz
  x,y,z
_cell_length_a	21.858
_cell_length_b	21.858
_cell_length_c	23.333
_cell_angle_alpha	90
_cell_angle_beta	90
_cell_angle_gamma	120
loop_
_atom_site_label
_atom_site_type_symbol
_atom_site_fract_x
_atom_site_fract_y
_atom_site_fract_z
_atom_site_charge
Mof_Cd	Cd	0.59352	0.12951	0.87132	0.431
Mof_Cd	Cd	0.40648	0.53599	0.79535	0.431
Mof_Co	Co	0.52615	0.88986	0.85288	1.171
Mof_Co	Co	0.47385	0.36371	0.81379	1.171
Mof_H 	H 	0.4538	0.0973	0.8138	0.005
Mof_H 	H 	0.3797	0.0481	0.7363	0.114
Mof_H 	H 	0.359	0.9372	0.7036	-0.003
Mof_H 	H 	0.4479	0.9122	0.7177	0.113
Mof_H 	H 	0.7206	0.9798	0.7215	0.074
Mof_H 	H 	0.7644	0.9043	0.76	0.031
Mof_H 	H 	0.7012	0.8257	0.8377	0.067
Mof_H 	H 	0.449	0.6889	0.9237	0.087
Mof_H 	H 	0.3832	0.6355	0.0024	0.07
Mof_H 	H 	0.3831	0.7072	0.0811	0.056
Mof_H 	H 	0.5255	0.8758	0.0017	0.055
Mof_H 	H 	0.7509	0.1692	0.8664	0.035
Mof_H 	H 	0.8322	0.1314	0.8947	0.081
Mof_H 	H 	0.7887	0.023	0.9419	0.007
Mof_H 	H 	0.6654	0.9468	0.9461	0.095
Mof_H 	H 	0.3877	0.9736	0.9491	0.061
Mof_H 	H 	0.279	0.8819	0.913	0.027
Mof_H 	H 	0.2809	0.8053	0.8444	0.076
Mof_H 	H 	0.5381	0.6499	0.7102	0.036
Mof_H 	H 	0.5769	0.76	0.6709	0.044
Mof_H 	H 	0.5369	0.8342	0.7091	0.066
Mof_H 	H 	0.4245	0.6828	0.8254	0.072
Mof_H 	H 	0.5462	0.6435	0.85287	0.005
Mof_H 	H 	0.6203	0.6684	0.93037	0.114
Mof_H 	H 	0.641	0.5782	0.96307	-0.003
Mof_H 	H 	0.5521	0.4643	0.94897	0.113
Mof_H 	H 	0.2794	0.2592	0.94517	0.074
Mof_H 	H 	0.2356	0.1399	0.90667	0.032
Mof_H 	H 	0.2988	0.1245	0.82897	0.067
Mof_H 	H 	0.551	0.2399	0.74297	0.087
Mof_H 	H 	0.6168	0.2523	0.66427	0.07
Mof_H 	H 	0.6169	0.3241	0.58557	0.056
Mof_H 	H 	0.4745	0.3503	0.66497	0.055
Mof_H 	H 	0.2491	0.4183	0.80027	0.035
Mof_H 	H 	0.1678	0.2992	0.77197	0.081
Mof_H 	H 	0.2113	0.2343	0.72477	0.007
Mof_H 	H 	0.3346	0.2814	0.72057	0.095
Mof_H 	H 	0.6123	0.5859	0.71757	0.061
Mof_H 	H 	0.721	0.6029	0.75367	0.027
Mof_H 	H 	0.7191	0.5244	0.82227	0.076
Mof_H 	H 	0.4619	0.1118	0.95647	0.036
Mof_H 	H 	0.4231	0.1831	0.99577	0.044
Mof_H 	H 	0.4631	0.2973	0.95757	0.066
Mof_H 	H 	0.5755	0.2583	0.84127	0.072
Mof_C 	C 	0.4548	0.061	0.7922	0.121
Mof_C 	C 	0.4072	0.0286	0.7499	-0.181
Mof_C 	C 	0.3987	0.9668	0.7267	0.131
Mof_C 	C 	0.4485	0.9503	0.7378	-0.211
Mof_C 	C 	0.5026	0.988	0.7789	0.201
Mof_C 	C 	0.6026	0.9801	0.7622	0.155
Mof_C 	C 	0.641	0.9426	0.7803	0.039
Mof_C 	C 	0.6986	0.9487	0.7529	-0.08
Mof_C 	C 	0.7238	0.9032	0.7758	0.003
Mof_C 	C 	0.6865	0.8567	0.8226	-0.077
Mof_C 	C 	0.6313	0.8579	0.8444	0.029
Mof_C 	C 	0.5865	0.8129	0.8955	0.172
Mof_C 	C 	0.4902	0.7876	0.9531	0.085
Mof_C 	C 	0.4498	0.7166	0.9554	-0.082
Mof_C 	C 	0.4117	0.6855	0.001	-0.019
Mof_C 	C 	0.4135	0.7282	0.0492	0.03
Mof_C 	C 	0.4946	0.826	0.0018	-0.026
Mof_C 	C 	0.7337	0.1233	0.882	0.071
Mof_C 	C 	0.7829	0.1016	0.9005	-0.127
Mof_C 	C 	0.7574	0.0371	0.9266	0.078
Mof_C 	C 	0.6843	0.9926	0.93	-0.186
Mof_C 	C 	0.6393	0.0158	0.9098	0.171
Mof_C 	C 	0.5203	0.9888	0.9244	0.163
Mof_C 	C 	0.4478	0.9354	0.9094	0.023
Mof_C 	C 	0.3857	0.9378	0.9248	-0.07
Mof_C 	C 	0.3225	0.8851	0.9023	0.011
Mof_C 	C 	0.3232	0.837	0.8639	-0.086
Mof_C 	C 	0.379	0.8342	0.8542	0.042
Mof_C 	C 	0.3916	0.7878	0.8113	0.164
Mof_C 	C 	0.5224	0.6797	0.7262	0.021
Mof_C 	C 	0.5457	0.745	0.7028	-0.03
Mof_C 	C 	0.5235	0.7897	0.7261	-0.088
Mof_C 	C 	0.4809	0.7669	0.7753	0.086
Mof_C 	C 	0.4571	0.6997	0.7944	-0.036
Mof_C 	C 	0.5452	0.6062	0.87447	0.121
Mof_C 	C 	0.5928	0.6214	0.91677	-0.181
Mof_C 	C 	0.6013	0.5681	0.93997	0.132
Mof_C 	C 	0.5515	0.5018	0.92887	-0.211
Mof_C 	C 	0.4974	0.4854	0.88777	0.202
Mof_C 	C 	0.3974	0.3775	0.90447	0.155
Mof_C 	C 	0.359	0.3016	0.88637	0.039
Mof_C 	C 	0.3014	0.2501	0.91377	-0.08
Mof_C 	C 	0.2762	0.1794	0.89087	0.003
Mof_C 	C 	0.3135	0.1702	0.84407	-0.077
Mof_C 	C 	0.3687	0.2266	0.82227	0.029
Mof_C 	C 	0.4135	0.2264	0.77117	0.172
Mof_C 	C 	0.5098	0.2974	0.71357	0.085
Mof_C 	C 	0.5502	0.2668	0.71127	-0.082
Mof_C 	C 	0.5883	0.2738	0.66567	-0.019
Mof_C 	C 	0.5865	0.3147	0.61747	0.03
Mof_C 	C 	0.5054	0.3314	0.66487	-0.026
Mof_C 	C 	0.2663	0.3896	0.78467	0.071
Mof_C 	C 	0.2171	0.3187	0.76617	-0.126
Mof_C 	C 	0.2426	0.2797	0.74007	0.077
Mof_C 	C 	0.3157	0.3083	0.73667	-0.185
Mof_C 	C 	0.3607	0.3765	0.75687	0.17
Mof_C 	C 	0.4797	0.4685	0.74227	0.163
Mof_C 	C 	0.5522	0.4876	0.75727	0.023
Mof_C 	C 	0.6143	0.5521	0.74187	-0.069
Mof_C 	C 	0.6775	0.5626	0.76437	0.011
Mof_C 	C 	0.6768	0.5138	0.80277	-0.086
Mof_C 	C 	0.621	0.4552	0.81247	0.042
Mof_C 	C 	0.6084	0.3962	0.85537	0.164
Mof_C 	C 	0.4776	0.1573	0.94047	0.021
Mof_C 	C 	0.4543	0.1993	0.96387	-0.03
Mof_C 	C 	0.4765	0.2662	0.94057	-0.088
Mof_C 	C 	0.5191	0.286	0.89137	0.086
Mof_C 	C 	0.5429	0.2426	0.87227	-0.036
Mof_N 	N 	0.5032	0.0426	0.8042	-0.174
Mof_N 	N 	0.5453	0.962	0.7941	-0.284
Mof_N 	N 	0.6081	0.898	0.8226	-0.261
Mof_N 	N 	0.5355	0.823	0.9047	-0.275
Mof_N 	N 	0.4575	0.7957	0.0478	-0.112
Mof_N 	N 	0.6632	0.0788	0.8869	-0.162
Mof_N 	N 	0.5663	0.9679	0.908	-0.281
Mof_N 	N 	0.4422	0.8829	0.8772	-0.257
Mof_N 	N 	0.4599	0.8109	0.804	-0.268
Mof_N 	N 	0.4775	0.656	0.7716	-0.117
Mof_N 	N 	0.4968	0.5394	0.86247	-0.174
Mof_N 	N 	0.4547	0.4167	0.87257	-0.284
Mof_N 	N 	0.3919	0.2899	0.84407	-0.261
Mof_N 	N 	0.4645	0.2875	0.76197	-0.275
Mof_N 	N 	0.5425	0.3382	0.61887	-0.112
Mof_N 	N 	0.3368	0.4156	0.77977	-0.162
Mof_N 	N 	0.4337	0.4016	0.75867	-0.281
Mof_N 	N 	0.5578	0.4407	0.78947	-0.257
Mof_N 	N 	0.5401	0.351	0.86267	-0.268
Mof_N 	N 	0.5225	0.1785	0.89507	-0.117
Mof_Cl	Cl	0.66453	0.21583	0.79571	-0.341
Mof_Cl	Cl	0.33547	0.5513	0.87096	-0.341
Mof_O 	O 	0.628	0.0251	0.7226	-0.187
Mof_O 	O 	0.6035	0.7721	0.9202	-0.216
Mof_O 	O 	0.5338	0.0461	0.9478	-0.235
Mof_O 	O 	0.3409	0.7368	0.7882	-0.2
Mof_O 	O 	0.372	0.3971	0.94407	-0.187
Mof_O 	O 	0.3965	0.1686	0.74647	-0.216
Mof_O 	O 	0.4662	0.5123	0.71887	-0.235
Mof_O 	O 	0.6591	0.3959	0.87847	-0.2
Mof_Cd	Cd	0.53599	0.40648	0.53799	0.432
Mof_Cd	Cd	0.12951	0.59352	0.46201	0.432
Mof_Co	Co	0.36371	0.47385	0.51955	1.171
Mof_Co	Co	0.88986	0.52615	0.48045	1.171
Mof_H 	H 	0.6435	0.5462	0.48047	0.005
Mof_H 	H 	0.6684	0.6203	0.40297	0.114
Mof_H 	H 	0.5782	0.641	0.37027	-0.003
Mof_H 	H 	0.4643	0.5521	0.38437	0.113
Mof_H 	H 	0.2592	0.2794	0.38817	0.074
Mof_H 	H 	0.1399	0.2356	0.42667	0.031
Mof_H 	H 	0.1245	0.2988	0.50437	0.067
Mof_H 	H 	0.2399	0.551	0.59037	0.087
Mof_H 	H 	0.2523	0.6168	0.66907	0.07
Mof_H 	H 	0.3241	0.6169	0.74777	0.056
Mof_H 	H 	0.3503	0.4745	0.66837	0.055
Mof_H 	H 	0.4183	0.2491	0.53307	0.035
Mof_H 	H 	0.2992	0.1678	0.56137	0.081
Mof_H 	H 	0.2343	0.2113	0.60857	0.007
Mof_H 	H 	0.2814	0.3346	0.61277	0.095
Mof_H 	H 	0.5859	0.6123	0.61577	0.061
Mof_H 	H 	0.6029	0.721	0.57967	0.027
Mof_H 	H 	0.5244	0.7191	0.51107	0.076
Mof_H 	H 	0.1118	0.4619	0.37687	0.036
Mof_H 	H 	0.1831	0.4231	0.33757	0.044
Mof_H 	H 	0.2973	0.4631	0.37577	0.066
Mof_H 	H 	0.2583	0.5755	0.49207	0.072
Mof_H 	H 	0.0973	0.4538	0.51953	0.005
Mof_H 	H 	0.0481	0.3797	0.59703	0.114
Mof_H 	H 	0.9372	0.359	0.62973	-0.003
Mof_H 	H 	0.9122	0.4479	0.61563	0.113
Mof_H 	H 	0.9798	0.7206	0.61183	0.074
Mof_H 	H 	0.9043	0.7644	0.57333	0.031
Mof_H 	H 	0.8257	0.7012	0.49563	0.067
Mof_H 	H 	0.6889	0.449	0.40963	0.087
Mof_H 	H 	0.6355	0.3832	0.33093	0.07
Mof_H 	H 	0.7072	0.3831	0.25223	0.056
Mof_H 	H 	0.8758	0.5255	0.33163	0.055
Mof_H 	H 	0.1692	0.7509	0.46693	0.035
Mof_H 	H 	0.1314	0.8322	0.43863	0.081
Mof_H 	H 	0.023	0.7887	0.39143	0.007
Mof_H 	H 	0.9468	0.6654	0.38723	0.095
Mof_H 	H 	0.9736	0.3877	0.38423	0.061
Mof_H 	H 	0.8819	0.279	0.42033	0.027
Mof_H 	H 	0.8053	0.2809	0.48893	0.076
Mof_H 	H 	0.6499	0.5381	0.62313	0.036
Mof_H 	H 	0.76	0.5769	0.66243	0.044
Mof_H 	H 	0.8342	0.5369	0.62423	0.066
Mof_H 	H 	0.6828	0.4245	0.50793	0.072
Mof_C 	C 	0.6062	0.5452	0.45887	0.121
Mof_C 	C 	0.6214	0.5928	0.41657	-0.181
Mof_C 	C 	0.5681	0.6013	0.39337	0.132
Mof_C 	C 	0.5018	0.5515	0.40447	-0.211
Mof_C 	C 	0.4854	0.4974	0.44557	0.202
Mof_C 	C 	0.3775	0.3974	0.42887	0.155
Mof_C 	C 	0.3016	0.359	0.44697	0.039
Mof_C 	C 	0.2501	0.3014	0.41957	-0.08
Mof_C 	C 	0.1794	0.2762	0.44247	0.003
Mof_C 	C 	0.1702	0.3135	0.48927	-0.077
Mof_C 	C 	0.2266	0.3687	0.51107	0.029
Mof_C 	C 	0.2264	0.4135	0.56217	0.172
Mof_C 	C 	0.2974	0.5098	0.61977	0.085
Mof_C 	C 	0.2668	0.5502	0.62207	-0.082
Mof_C 	C 	0.2738	0.5883	0.66767	-0.019
Mof_C 	C 	0.3147	0.5865	0.71587	0.03
Mof_C 	C 	0.3314	0.5054	0.66847	-0.026
Mof_C 	C 	0.3896	0.2663	0.54867	0.071
Mof_C 	C 	0.3187	0.2171	0.56717	-0.126
Mof_C 	C 	0.2797	0.2426	0.59327	0.077
Mof_C 	C 	0.3083	0.3157	0.59667	-0.185
Mof_C 	C 	0.3765	0.3607	0.57647	0.17
Mof_C 	C 	0.4685	0.4797	0.59107	0.163
Mof_C 	C 	0.4876	0.5522	0.57607	0.023
Mof_C 	C 	0.5521	0.6143	0.59147	-0.069
Mof_C 	C 	0.5626	0.6775	0.56897	0.011
Mof_C 	C 	0.5138	0.6768	0.53057	-0.086
Mof_C 	C 	0.4552	0.621	0.52087	0.042
Mof_C 	C 	0.3962	0.6084	0.47797	0.164
Mof_C 	C 	0.1573	0.4776	0.39287	0.021
Mof_C 	C 	0.1993	0.4543	0.36947	-0.03
Mof_C 	C 	0.2662	0.4765	0.39277	-0.088
Mof_C 	C 	0.286	0.5191	0.44197	0.086
Mof_C 	C 	0.2426	0.5429	0.46107	-0.036
Mof_C 	C 	0.061	0.4548	0.54113	0.121
Mof_C 	C 	0.0286	0.4072	0.58343	-0.18
Mof_C 	C 	0.9668	0.3987	0.60663	0.131
Mof_C 	C 	0.9503	0.4485	0.59553	-0.211
Mof_C 	C 	0.988	0.5026	0.55443	0.201
Mof_C 	C 	0.9801	0.6026	0.57113	0.155
Mof_C 	C 	0.9426	0.641	0.55303	0.039
Mof_C 	C 	0.9487	0.6986	0.58043	-0.08
Mof_C 	C 	0.9032	0.7238	0.55753	0.003
Mof_C 	C 	0.8567	0.6865	0.51073	-0.077
Mof_C 	C 	0.8579	0.6313	0.48893	0.029
Mof_C 	C 	0.8129	0.5865	0.43783	0.172
Mof_C 	C 	0.7876	0.4902	0.38023	0.085
Mof_C 	C 	0.7166	0.4498	0.37793	-0.082
Mof_C 	C 	0.6855	0.4117	0.33233	-0.019
Mof_C 	C 	0.7282	0.4135	0.28413	0.03
Mof_C 	C 	0.826	0.4946	0.33153	-0.026
Mof_C 	C 	0.1233	0.7337	0.45133	0.071
Mof_C 	C 	0.1016	0.7829	0.43283	-0.127
Mof_C 	C 	0.0371	0.7574	0.40673	0.077
Mof_C 	C 	0.9926	0.6843	0.40333	-0.185
Mof_C 	C 	0.0158	0.6393	0.42353	0.17
Mof_C 	C 	0.9888	0.5203	0.40893	0.163
Mof_C 	C 	0.9354	0.4478	0.42393	0.023
Mof_C 	C 	0.9378	0.3857	0.40853	-0.069
Mof_C 	C 	0.8851	0.3225	0.43103	0.011
Mof_C 	C 	0.837	0.3232	0.46943	-0.086
Mof_C 	C 	0.8342	0.379	0.47913	0.042
Mof_C 	C 	0.7878	0.3916	0.52203	0.164
Mof_C 	C 	0.6797	0.5224	0.60713	0.021
Mof_C 	C 	0.745	0.5457	0.63053	-0.03
Mof_C 	C 	0.7897	0.5235	0.60723	-0.088
Mof_C 	C 	0.7669	0.4809	0.55803	0.086
Mof_C 	C 	0.6997	0.4571	0.53893	-0.036
Mof_N 	N 	0.5394	0.4968	0.47087	-0.174
Mof_N 	N 	0.4167	0.4547	0.46077	-0.284
Mof_N 	N 	0.2899	0.3919	0.48927	-0.261
Mof_N 	N 	0.2875	0.4645	0.57137	-0.275
Mof_N 	N 	0.3382	0.5425	0.71447	-0.112
Mof_N 	N 	0.4156	0.3368	0.55357	-0.162
Mof_N 	N 	0.4016	0.4337	0.57467	-0.281
Mof_N 	N 	0.4407	0.5578	0.54387	-0.257
Mof_N 	N 	0.351	0.5401	0.47067	-0.268
Mof_N 	N 	0.1785	0.5225	0.43827	-0.117
Mof_N 	N 	0.0426	0.5032	0.52913	-0.174
Mof_N 	N 	0.962	0.5453	0.53923	-0.284
Mof_N 	N 	0.898	0.6081	0.51073	-0.261
Mof_N 	N 	0.823	0.5355	0.42863	-0.275
Mof_N 	N 	0.7957	0.4575	0.28553	-0.112
Mof_N 	N 	0.0788	0.6632	0.44643	-0.162
Mof_N 	N 	0.9679	0.5663	0.42533	-0.281
Mof_N 	N 	0.8829	0.4422	0.45613	-0.257
Mof_N 	N 	0.8109	0.4599	0.52933	-0.268
Mof_N 	N 	0.656	0.4775	0.56173	-0.117
Mof_Cl	Cl	0.5513	0.33547	0.46238	-0.341
Mof_Cl	Cl	0.21583	0.66453	0.53762	-0.341
Mof_O 	O 	0.3971	0.372	0.38927	-0.188
Mof_O 	O 	0.1686	0.3965	0.58687	-0.216
Mof_O 	O 	0.5123	0.4662	0.61447	-0.235
Mof_O 	O 	0.3959	0.6591	0.45487	-0.2
Mof_O 	O 	0.0251	0.628	0.61073	-0.187
Mof_O 	O 	0.7721	0.6035	0.41313	-0.216
Mof_O 	O 	0.0461	0.5338	0.38553	-0.235
Mof_O 	O 	0.7368	0.3409	0.54513	-0.2
Mof_Cd	Cd	0.87049	0.46401	0.20465	0.432
Mof_Cd	Cd	0.46401	0.87049	0.12868	0.432
Mof_Co	Co	0.11014	0.63629	0.18621	1.171
Mof_Co	Co	0.63629	0.11014	0.14712	1.171
Mof_H 	H 	0.9027	0.3565	0.14713	0.005
Mof_H 	H 	0.9519	0.3316	0.06963	0.114
Mof_H 	H 	0.0628	0.4218	0.03693	-0.003
Mof_H 	H 	0.0878	0.5357	0.05103	0.113
Mof_H 	H 	0.0202	0.7408	0.05483	0.074
Mof_H 	H 	0.0957	0.8601	0.09333	0.031
Mof_H 	H 	0.1743	0.8755	0.17103	0.067
Mof_H 	H 	0.3111	0.7601	0.25703	0.087
Mof_H 	H 	0.3645	0.7477	0.33573	0.07
Mof_H 	H 	0.2928	0.6759	0.41443	0.056
Mof_H 	H 	0.1242	0.6497	0.33503	0.055
Mof_H 	H 	0.8308	0.5817	0.19973	0.035
Mof_H 	H 	0.8686	0.7008	0.22803	0.081
Mof_H 	H 	0.977	0.7657	0.27523	0.007
Mof_H 	H 	0.0532	0.7186	0.27943	0.095
Mof_H 	H 	0.0264	0.4141	0.28243	0.061
Mof_H 	H 	0.1181	0.3971	0.24633	0.027
Mof_H 	H 	0.1947	0.4756	0.17773	0.076
Mof_H 	H 	0.3501	0.8882	0.04353	0.036
Mof_H 	H 	0.24	0.8169	0.00423	0.044
Mof_H 	H 	0.1658	0.7027	0.04243	0.066
Mof_H 	H 	0.3172	0.7417	0.15873	0.072
Mof_H 	H 	0.3565	0.9027	0.1862	0.005
Mof_H 	H 	0.3316	0.9519	0.2637	0.114
Mof_H 	H 	0.4218	0.0628	0.2964	-0.003
Mof_H 	H 	0.5357	0.0878	0.2823	0.113
Mof_H 	H 	0.7408	0.0202	0.2785	0.074
Mof_H 	H 	0.8601	0.0957	0.24	0.031
Mof_H 	H 	0.8755	0.1743	0.1623	0.067
Mof_H 	H 	0.7601	0.3111	0.0763	0.087
Mof_H 	H 	0.7477	0.3645	0.9976	0.07
Mof_H 	H 	0.6759	0.2928	0.9189	0.056
Mof_H 	H 	0.6497	0.1242	0.9983	0.055
Mof_H 	H 	0.5817	0.8308	0.1336	0.035
Mof_H 	H 	0.7008	0.8686	0.1053	0.081
Mof_H 	H 	0.7657	0.977	0.0581	0.007
Mof_H 	H 	0.7186	0.0532	0.0539	0.096
Mof_H 	H 	0.4141	0.0264	0.0509	0.061
Mof_H 	H 	0.3971	0.1181	0.087	0.027
Mof_H 	H 	0.4756	0.1947	0.1556	0.076
Mof_H 	H 	0.8882	0.3501	0.2898	0.036
Mof_H 	H 	0.8169	0.24	0.3291	0.044
Mof_H 	H 	0.7027	0.1658	0.2909	0.066
Mof_H 	H 	0.7417	0.3172	0.1746	0.072
Mof_C 	C 	0.939	0.3938	0.12553	0.121
Mof_C 	C 	0.9714	0.3786	0.08323	-0.18
Mof_C 	C 	0.0332	0.4319	0.06003	0.131
Mof_C 	C 	0.0497	0.4982	0.07113	-0.211
Mof_C 	C 	0.012	0.5146	0.11223	0.201
Mof_C 	C 	0.0199	0.6225	0.09553	0.155
Mof_C 	C 	0.0574	0.6984	0.11363	0.039
Mof_C 	C 	0.0513	0.7499	0.08623	-0.08
Mof_C 	C 	0.0968	0.8206	0.10913	0.003
Mof_C 	C 	0.1433	0.8298	0.15593	-0.077
Mof_C 	C 	0.1421	0.7734	0.17773	0.029
Mof_C 	C 	0.1871	0.7736	0.22883	0.172
Mof_C 	C 	0.2124	0.7026	0.28643	0.085
Mof_C 	C 	0.2834	0.7332	0.28873	-0.082
Mof_C 	C 	0.3145	0.7262	0.33433	-0.019
Mof_C 	C 	0.2718	0.6853	0.38253	0.03
Mof_C 	C 	0.174	0.6686	0.33513	-0.026
Mof_C 	C 	0.8767	0.6104	0.21533	0.071
Mof_C 	C 	0.8984	0.6813	0.23383	-0.126
Mof_C 	C 	0.9629	0.7203	0.25993	0.077
Mof_C 	C 	0.0074	0.6917	0.26333	-0.185
Mof_C 	C 	0.9842	0.6235	0.24313	0.17
Mof_C 	C 	0.0112	0.5315	0.25773	0.163
Mof_C 	C 	0.0646	0.5124	0.24273	0.023
Mof_C 	C 	0.0622	0.4479	0.25813	-0.069
Mof_C 	C 	0.1149	0.4374	0.23563	0.011
Mof_C 	C 	0.163	0.4862	0.19723	-0.086
Mof_C 	C 	0.1658	0.5448	0.18753	0.042
Mof_C 	C 	0.2122	0.6038	0.14463	0.164
Mof_C 	C 	0.3203	0.8427	0.05953	0.021
Mof_C 	C 	0.255	0.8007	0.03613	-0.03
Mof_C 	C 	0.2103	0.7338	0.05943	-0.088
Mof_C 	C 	0.2331	0.714	0.10863	0.086
Mof_C 	C 	0.3003	0.7574	0.12773	-0.036
Mof_C 	C 	0.3938	0.939	0.2078	0.121
Mof_C 	C 	0.3786	0.9714	0.2501	-0.181
Mof_C 	C 	0.4319	0.0332	0.2733	0.131
Mof_C 	C 	0.4982	0.0497	0.2622	-0.211
Mof_C 	C 	0.5146	0.012	0.2211	0.201
Mof_C 	C 	0.6225	0.0199	0.2378	0.155
Mof_C 	C 	0.6984	0.0574	0.2197	0.039
Mof_C 	C 	0.7499	0.0513	0.2471	-0.08
Mof_C 	C 	0.8206	0.0968	0.2242	0.003
Mof_C 	C 	0.8298	0.1433	0.1774	-0.077
Mof_C 	C 	0.7734	0.1421	0.1556	0.029
Mof_C 	C 	0.7736	0.1871	0.1045	0.172
Mof_C 	C 	0.7026	0.2124	0.0469	0.085
Mof_C 	C 	0.7332	0.2834	0.0446	-0.082
Mof_C 	C 	0.7262	0.3145	0.999	-0.02
Mof_C 	C 	0.6853	0.2718	0.9508	0.03
Mof_C 	C 	0.6686	0.174	0.9982	-0.026
Mof_C 	C 	0.6104	0.8767	0.118	0.071
Mof_C 	C 	0.6813	0.8984	0.0995	-0.127
Mof_C 	C 	0.7203	0.9629	0.0734	0.077
Mof_C 	C 	0.6917	0.0074	0.07	-0.186
Mof_C 	C 	0.6235	0.9842	0.0902	0.171
Mof_C 	C 	0.5315	0.0112	0.0756	0.163
Mof_C 	C 	0.5124	0.0646	0.0906	0.023
Mof_C 	C 	0.4479	0.0622	0.0752	-0.07
Mof_C 	C 	0.4374	0.1149	0.0977	0.011
Mof_C 	C 	0.4862	0.163	0.1361	-0.086
Mof_C 	C 	0.5448	0.1658	0.1458	0.042
Mof_C 	C 	0.6038	0.2122	0.1887	0.164
Mof_C 	C 	0.8427	0.3203	0.2738	0.021
Mof_C 	C 	0.8007	0.255	0.2972	-0.03
Mof_C 	C 	0.7338	0.2103	0.2739	-0.088
Mof_C 	C 	0.714	0.2331	0.2247	0.086
Mof_C 	C 	0.7574	0.3003	0.2056	-0.036
Mof_N 	N 	0.9574	0.4606	0.13753	-0.174
Mof_N 	N 	0.038	0.5833	0.12743	-0.284
Mof_N 	N 	0.102	0.7101	0.15593	-0.261
Mof_N 	N 	0.177	0.7125	0.23803	-0.275
Mof_N 	N 	0.2043	0.6618	0.38113	-0.112
Mof_N 	N 	0.9212	0.5844	0.22023	-0.162
Mof_N 	N 	0.0321	0.5984	0.24133	-0.281
Mof_N 	N 	0.1171	0.5593	0.21053	-0.257
Mof_N 	N 	0.1891	0.649	0.13733	-0.268
Mof_N 	N 	0.344	0.8215	0.10493	-0.117
Mof_N 	N 	0.4606	0.9574	0.1958	-0.174
Mof_N 	N 	0.5833	0.038	0.2059	-0.284
Mof_N 	N 	0.7101	0.102	0.1774	-0.261
Mof_N 	N 	0.7125	0.177	0.0953	-0.275
Mof_N 	N 	0.6618	0.2043	0.9522	-0.112
Mof_N 	N 	0.5844	0.9212	0.1131	-0.162
Mof_N 	N 	0.5984	0.0321	0.092	-0.281
Mof_N 	N 	0.5593	0.1171	0.1228	-0.257
Mof_N 	N 	0.649	0.1891	0.196	-0.268
Mof_N 	N 	0.8215	0.344	0.2284	-0.117
Mof_Cl	Cl	0.78417	0.4487	0.12904	-0.341
Mof_Cl	Cl	0.4487	0.78417	0.20429	-0.341
Mof_O 	O 	0.9749	0.6029	0.05593	-0.187
Mof_O 	O 	0.2279	0.8314	0.25353	-0.216
Mof_O 	O 	0.9539	0.4877	0.28113	-0.235
Mof_O 	O 	0.2632	0.6041	0.12153	-0.2
Mof_O 	O 	0.6029	0.9749	0.2774	-0.187
Mof_O 	O 	0.8314	0.2279	0.0798	-0.216
Mof_O 	O 	0.4877	0.9539	0.0522	-0.235
Mof_O 	O 	0.6041	0.2632	0.2118	-0.2
_end
