data_functionalizedCrystal
_audit_creation_method	'EQeq! by Chris Wilmer'
_symmetry_space_group_name_H-M	'P1'
_symmetry_Int_Tables_number	1
_symmetry_cell_setting	triclinic
loop_
_symmetry_equiv_pos_as_xyz
  x,y,z
_cell_length_a	9.0722
_cell_length_b	9.0722
_cell_length_c	14.582
_cell_angle_alpha	79.9172
_cell_angle_beta	79.9176
_cell_angle_gamma	115.926
loop_
_atom_site_label
_atom_site_type_symbol
_atom_site_fract_x
_atom_site_fract_y
_atom_site_fract_z
_atom_site_charge
Mof_Nd	Nd	0.49059	0.74059	0.01882	2.373
Mof_Nd	Nd	0.25941	0.50941	0.48118	2.377
Mof_Nd	Nd	0.50941	0.25941	0.98118	2.373
Mof_Nd	Nd	0.74059	0.49059	0.51882	2.377
Mof_H 	H 	0.9078	0.3124	0.0296	0.085
Mof_H 	H 	0.8369	0.2227	0.1412	0.078
Mof_H 	H 	0.0626	0.158	0.0296	0.084
Mof_H 	H 	0.0219	0.1361	0.1412	0.076
Mof_H 	H 	0.6876	0.0922	0.4704	0.083
Mof_H 	H 	0.7773	0.1631	0.3588	0.076
Mof_H 	H 	0.842	0.9374	0.4704	0.083
Mof_H 	H 	0.8639	0.9781	0.3588	0.075
Mof_H 	H 	0.0922	0.6876	0.9704	0.085
Mof_H 	H 	0.1631	0.7773	0.8588	0.078
Mof_H 	H 	0.9374	0.842	0.9704	0.084
Mof_H 	H 	0.9781	0.8639	0.8588	0.076
Mof_H 	H 	0.3124	0.9078	0.5296	0.083
Mof_H 	H 	0.2227	0.8369	0.6412	0.076
Mof_H 	H 	0.158	0.0626	0.5296	0.083
Mof_H 	H 	0.1361	0.0219	0.6412	0.075
Mof_C 	C 	0.7447	0.0615	0.0622	0.502
Mof_C 	C 	0.882	0.2112	0.079	-0.265
Mof_C 	C 	0.1931	0.3763	0.0622	0.495
Mof_C 	C 	0.039	0.2098	0.079	-0.255
Mof_C 	C 	0.9385	0.2553	0.4378	0.494
Mof_C 	C 	0.7888	0.118	0.421	-0.259
Mof_C 	C 	0.6237	0.8069	0.4378	0.496
Mof_C 	C 	0.7902	0.961	0.421	-0.259
Mof_C 	C 	0.2553	0.9385	0.9378	0.502
Mof_C 	C 	0.118	0.7888	0.921	-0.265
Mof_C 	C 	0.8069	0.6237	0.9378	0.495
Mof_C 	C 	0.961	0.7902	0.921	-0.255
Mof_C 	C 	0.0615	0.7447	0.5622	0.494
Mof_C 	C 	0.2112	0.882	0.579	-0.259
Mof_C 	C 	0.3763	0.1931	0.5622	0.496
Mof_C 	C 	0.2098	0.039	0.579	-0.259
Mof_C 	C 	0.4254	0.5746	0.25	0.302
Mof_C 	C 	0.3246	0.6754	0.25	0.302
Mof_C 	C 	0.5746	0.4254	0.75	0.302
Mof_C 	C 	0.6754	0.3246	0.75	0.302
Mof_O 	O 	0.73571	0.91929	0.079	-0.547
Mof_O 	O 	0.63412	0.08584	0.03284	-0.698
Mof_O 	O 	0.49023	0.56771	0.17026	-0.493
Mof_O 	O 	0.18529	0.50171	0.079	-0.542
Mof_O 	O 	0.33304	0.38132	0.03284	-0.697
Mof_O 	O 	0.33951	0.76203	0.17026	-0.495
Mof_O 	O 	0.08071	0.26429	0.421	-0.541
Mof_O 	O 	0.91416	0.36588	0.46716	-0.7
Mof_O 	O 	0.43229	0.50977	0.32974	-0.493
Mof_O 	O 	0.49829	0.81471	0.421	-0.543
Mof_O 	O 	0.61868	0.66696	0.46716	-0.7
Mof_O 	O 	0.23797	0.66049	0.32974	-0.494
Mof_O 	O 	0.26429	0.08071	0.921	-0.547
Mof_O 	O 	0.36588	0.91416	0.96716	-0.698
Mof_O 	O 	0.50977	0.43229	0.82974	-0.493
Mof_O 	O 	0.81471	0.49829	0.921	-0.542
Mof_O 	O 	0.66696	0.61868	0.96716	-0.697
Mof_O 	O 	0.66049	0.23797	0.82974	-0.495
Mof_O 	O 	0.91929	0.73571	0.579	-0.541
Mof_O 	O 	0.08584	0.63412	0.53284	-0.7
Mof_O 	O 	0.56771	0.49023	0.67026	-0.493
Mof_O 	O 	0.50171	0.18529	0.579	-0.543
Mof_O 	O 	0.38132	0.33304	0.53284	-0.7
Mof_O 	O 	0.76203	0.33951	0.67026	-0.494
_end
