# CIF file generated by openbabel 3.1.0, see https://openbabel.org
data_I
_chemical_name_common 'image0'
_cell_length_a 9.7192
_cell_length_b 10.4517
_cell_length_c 16.4217
_cell_angle_alpha 90
_cell_angle_beta 112.58
_cell_angle_gamma 90
_space_group_name_H-M_alt 'P 1'
_space_group_name_Hall 'P 1'
loop_
    _symmetry_equiv_pos_as_xyz
    x,y,z
loop_
    _atom_site_label
    _atom_site_type_symbol
    _atom_site_fract_x
    _atom_site_fract_y
    _atom_site_fract_z
    _atom_site_occupancy
    C1       C        0.67900    0.05980    0.96850    1.000
    H1       H        0.60960    0.11690    0.93160    1.000
    C2       C        0.64200    0.93270    0.96850    1.000
    H2       H        0.54830    0.90330    0.93190    1.000
    C3       C        0.74640    0.85020    0.02340    1.000
    H3       H        0.72380    0.76390    0.02430    1.000
    C4       C        0.88320    0.89490    0.07660    1.000
    H4       H        0.95310    0.83840    0.11390    1.000
    C5       C        0.92010    0.02240    0.07610    1.000
    C6       C        0.06780    0.07670    0.12980    1.000
    H5       H        0.09360    0.14040    0.09510    1.000
    H6       H        0.14180    0.00910    0.14390    1.000
    C7       C        0.92780    0.96870    0.46710    1.000
    C8       C        0.51720    0.93820    0.52730    1.000
    Dy1      Dy       0.17842    0.89428    0.39302    1.000
    N1       N        0.81430    0.10200    0.02140    1.000
    O1       O        0.06030    0.04760    0.29190    1.000
    O2       O        0.23500    0.21110    0.27090    1.000
    H7       H        0.28720    0.17070    0.31470    1.000
    O3       O        0.95950    0.25190    0.21000    1.000
    O4       O        0.84640    0.22490    0.01770    1.000
    O5       O        0.81400    0.97940    0.48470    1.000
    O6       O        0.93670    0.91360    0.40240    1.000
    O7       O        0.42260    0.85120    0.50440    1.000
    O8       O        0.64110    0.93520    0.59110    1.000
    P1       P        0.07480    0.14983    0.23131    1.000
    C9       C        0.32100    0.55980    0.53150    1.000
    H8       H        0.39040    0.61690    0.56840    1.000
    C10      C        0.35800    0.43270    0.53150    1.000
    H9       H        0.45170    0.40330    0.56810    1.000
    C11      C        0.25360    0.35020    0.47660    1.000
    H10      H        0.27620    0.26390    0.47570    1.000
    C12      C        0.11680    0.39490    0.42340    1.000
    H11      H        0.04690    0.33840    0.38610    1.000
    C13      C        0.07990    0.52240    0.42390    1.000
    C14      C        0.93220    0.57670    0.37020    1.000
    H12      H        0.90640    0.64040    0.40490    1.000
    H13      H        0.85820    0.50910    0.35610    1.000
    C15      C        0.07220    0.46870    0.03290    1.000
    C16      C        0.48280    0.43820    0.97270    1.000
    Dy2      Dy       0.82158    0.39428    0.10698    1.000
    N2       N        0.18570    0.60200    0.47860    1.000
    O9       O        0.93970    0.54760    0.20810    1.000
    O10      O        0.76500    0.71110    0.22910    1.000
    H14      H        0.71280    0.67070    0.18530    1.000
    O11      O        0.04050    0.75190    0.29000    1.000
    O12      O        0.15360    0.72490    0.48230    1.000
    O13      O        0.18600    0.47940    0.01530    1.000
    O14      O        0.06330    0.41360    0.09760    1.000
    O15      O        0.57740    0.35120    0.99560    1.000
    O16      O        0.35890    0.43520    0.90890    1.000
    P2       P        0.92520    0.64983    0.26869    1.000
    C17      C        0.32100    0.94020    0.03150    1.000
    H15      H        0.39040    0.88310    0.06840    1.000
    C18      C        0.35800    0.06730    0.03150    1.000
    H16      H        0.45170    0.09670    0.06810    1.000
    C19      C        0.25360    0.14980    0.97660    1.000
    H17      H        0.27620    0.23610    0.97570    1.000
    C20      C        0.11680    0.10510    0.92340    1.000
    H18      H        0.04690    0.16160    0.88610    1.000
    C21      C        0.07990    0.97760    0.92390    1.000
    C22      C        0.93220    0.92330    0.87020    1.000
    H19      H        0.90640    0.85960    0.90490    1.000
    H20      H        0.85820    0.99090    0.85610    1.000
    C23      C        0.07220    0.03130    0.53290    1.000
    C24      C        0.48280    0.06180    0.47270    1.000
    Dy3      Dy       0.82158    0.10572    0.60698    1.000
    N3       N        0.18570    0.89800    0.97860    1.000
    O17      O        0.93970    0.95240    0.70810    1.000
    O18      O        0.76500    0.78890    0.72910    1.000
    H21      H        0.71280    0.82930    0.68530    1.000
    O19      O        0.04050    0.74810    0.79000    1.000
    O20      O        0.15360    0.77510    0.98230    1.000
    O21      O        0.18600    0.02060    0.51530    1.000
    O22      O        0.06330    0.08640    0.59760    1.000
    O23      O        0.57740    0.14880    0.49560    1.000
    O24      O        0.35890    0.06480    0.40890    1.000
    P3       P        0.92520    0.85017    0.76869    1.000
    C25      C        0.67900    0.44020    0.46850    1.000
    H22      H        0.60960    0.38310    0.43160    1.000
    C26      C        0.64200    0.56730    0.46850    1.000
    H23      H        0.54830    0.59670    0.43190    1.000
    C27      C        0.74640    0.64980    0.52340    1.000
    H24      H        0.72380    0.73610    0.52430    1.000
    C28      C        0.88320    0.60510    0.57660    1.000
    H25      H        0.95310    0.66160    0.61390    1.000
    C29      C        0.92010    0.47760    0.57610    1.000
    C30      C        0.06780    0.42330    0.62980    1.000
    H26      H        0.09360    0.35960    0.59510    1.000
    H27      H        0.14180    0.49090    0.64390    1.000
    C31      C        0.92780    0.53130    0.96710    1.000
    C32      C        0.51720    0.56180    0.02730    1.000
    Dy4      Dy       0.17842    0.60572    0.89302    1.000
    N4       N        0.81430    0.39800    0.52140    1.000
    O25      O        0.06030    0.45240    0.79190    1.000
    O26      O        0.23500    0.28890    0.77090    1.000
    H28      H        0.28720    0.32930    0.81470    1.000
    O27      O        0.95950    0.24810    0.71000    1.000
    O28      O        0.84640    0.27510    0.51770    1.000
    O29      O        0.81400    0.52060    0.98470    1.000
    O30      O        0.93670    0.58640    0.90240    1.000
    O31      O        0.42260    0.64880    0.00440    1.000
    O32      O        0.64110    0.56480    0.09110    1.000
    P4       P        0.07480    0.35017    0.73131    1.000
