# CIF file generated by openbabel 3.1.0, see https://openbabel.org
data_I
_chemical_name_common 'WEWGAH_clean'
_cell_length_a 7.621
_cell_length_b 9.634
_cell_length_c 10.5
_cell_angle_alpha 106.409
_cell_angle_beta 105.273
_cell_angle_gamma 100.88
_space_group_name_H-M_alt 'P 1'
_space_group_name_Hall 'P 1'
loop_
    _symmetry_equiv_pos_as_xyz
    x,y,z
loop_
    _atom_site_label
    _atom_site_type_symbol
    _atom_site_fract_x
    _atom_site_fract_y
    _atom_site_fract_z
    _atom_site_occupancy
    Ho1      Ho       0.75333    0.96738    0.54823    1.000
    Ho2      Ho       0.24667    0.03262    0.45177    1.000
    H1       H        0.53790    0.80040    0.04820    1.000
    H2       H        0.81580    0.48880    0.96380    1.000
    H3       H        0.54840    0.62280    0.65400    1.000
    H4       H        0.36380    0.87600    0.87750    1.000
    H5       H        0.26140    0.73670    0.73290    1.000
    H6       H        0.63550    0.67730    0.21590    1.000
    H7       H        0.76740    0.56840    0.19080    1.000
    H8       H        0.85040    0.39750    0.73560    1.000
    H9       H        0.77530    0.47070    0.62010    1.000
    H10      H        0.46210    0.19960    0.95180    1.000
    H11      H        0.18420    0.51120    0.03620    1.000
    H12      H        0.45160    0.37720    0.34600    1.000
    H13      H        0.63620    0.12400    0.12250    1.000
    H14      H        0.73860    0.26330    0.26710    1.000
    H15      H        0.36450    0.32270    0.78410    1.000
    H16      H        0.23260    0.43160    0.80920    1.000
    H17      H        0.14960    0.60250    0.26440    1.000
    H18      H        0.22470    0.52930    0.37990    1.000
    C1       C        0.52220    0.72610    0.84480    1.000
    C2       C        0.57750    0.73420    0.98300    1.000
    C3       C        0.68850    0.64930    0.02970    1.000
    C4       C        0.74260    0.55040    0.93350    1.000
    C5       C        0.69140    0.54040    0.79430    1.000
    C6       C        0.58250    0.62850    0.74940    1.000
    C7       C        0.38470    0.81140    0.79420    1.000
    C8       C        0.44360    0.90910    0.71480    1.000
    C9       C        0.74300    0.66330    0.18230    1.000
    C10      C        0.91720    0.79380    0.27500    1.000
    C11      C        0.73990    0.42530    0.68670    1.000
    C12      C        0.57540    0.28580    0.60590    1.000
    C13      C        0.47780    0.27390    0.15520    1.000
    C14      C        0.42250    0.26580    0.01700    1.000
    C15      C        0.31150    0.35070    0.97030    1.000
    C16      C        0.25740    0.44960    0.06650    1.000
    C17      C        0.30860    0.45960    0.20570    1.000
    C18      C        0.41750    0.37150    0.25060    1.000
    C19      C        0.61530    0.18860    0.20580    1.000
    C20      C        0.55640    0.09090    0.28520    1.000
    C21      C        0.25700    0.33670    0.81770    1.000
    C22      C        0.08280    0.20620    0.72500    1.000
    C23      C        0.26010    0.57470    0.31330    1.000
    C24      C        0.42460    0.71420    0.39410    1.000
    O1       O        0.60770    0.93180    0.70840    1.000
    O2       O        0.31470    0.96080    0.65540    1.000
    O3       O        0.04390    0.83380    0.22770    1.000
    O4       O        0.93670    0.86220    0.40410    1.000
    O5       O        0.41150    0.29620    0.55850    1.000
    O6       O        0.60070    0.15500    0.58340    1.000
    O7       O        0.39230    0.06820    0.29160    1.000
    O8       O        0.68530    0.03920    0.34460    1.000
    O9       O        0.95610    0.16620    0.77230    1.000
    O10      O        0.06330    0.13780    0.59590    1.000
    O11      O        0.58850    0.70380    0.44150    1.000
    O12      O        0.39930    0.84500    0.41660    1.000
