# CIF file generated by openbabel 3.1.0, see https://openbabel.org
data_I
_chemical_name_common 'image0'
_cell_length_a 12.997
_cell_length_b 13.106
_cell_length_c 17.213
_cell_angle_alpha 93.895
_cell_angle_beta 107.639
_cell_angle_gamma 95.018
_space_group_name_H-M_alt 'P 1'
_space_group_name_Hall 'P 1'
loop_
    _symmetry_equiv_pos_as_xyz
    x,y,z
loop_
    _atom_site_label
    _atom_site_type_symbol
    _atom_site_fract_x
    _atom_site_fract_y
    _atom_site_fract_z
    _atom_site_occupancy
    C1       C        0.17240    0.59640    0.57920    1.000
    H1       H        0.11940    0.54020    0.56030    1.000
    C2       C        0.25070    0.59570    0.65470    1.000
    H2       H        0.24810    0.54140    0.68630    1.000
    C3       C        0.33230    0.67660    0.68250    1.000
    C4       C        0.32920    0.75830    0.63430    1.000
    H3       H        0.38200    0.81480    0.65170    1.000
    C5       C        0.24700    0.75490    0.56040    1.000
    H4       H        0.24520    0.81020    0.52920    1.000
    C6       C        0.42460    0.67400    0.75990    1.000
    C7       C        0.52650    0.65430    0.75360    1.000
    C8       C        0.54530    0.62950    0.67680    1.000
    H5       H        0.48800    0.62660    0.62840    1.000
    C9       C        0.64370    0.61020    0.67310    1.000
    H6       H        0.65330    0.59360    0.62250    1.000
    C10      C        0.73270    0.61480    0.74520    1.000
    H7       H        0.80090    0.60340    0.74170    1.000
    C11      C        0.71950    0.63570    0.81990    1.000
    H8       H        0.77890    0.63810    0.86680    1.000
    C12      C        0.61690    0.65400    0.82740    1.000
    C13      C        0.59860    0.67050    0.90430    1.000
    C14      C        0.49650    0.68680    0.91020    1.000
    C15      C        0.47680    0.70360    0.98730    1.000
    H9       H        0.53350    0.70260    0.03560    1.000
    C16      C        0.37620    0.72120    0.99140    1.000
    H10      H        0.36540    0.73240    0.04210    1.000
    C17      C        0.28870    0.72250    0.91900    1.000
    H11      H        0.22020    0.73290    0.92220    1.000
    C18      C        0.30440    0.70840    0.84430    1.000
    H12      H        0.24630    0.71110    0.79730    1.000
    C19      C        0.40700    0.68980    0.83630    1.000
    C20      C        0.69180    0.66630    0.98060    1.000
    C21      C        0.76460    0.75140    0.01420    1.000
    H13      H        0.75690    0.81270    0.98990    1.000
    C22      C        0.85090    0.74560    0.08520    1.000
    H14      H        0.89960    0.80430    0.10730    1.000
    C23      C        0.79410    0.57850    0.08990    1.000
    H15      H        0.80280    0.51820    0.11560    1.000
    C24      C        0.70690    0.57960    0.01960    1.000
    H16      H        0.65840    0.52050    0.99910    1.000
    C25      C        0.00630    0.46680    0.31160    1.000
    C26      C        0.00670    0.35190    0.30290    1.000
    C27      C        0.97970    0.29820    0.22420    1.000
    H17      H        0.96090    0.33400    0.17800    1.000
    C28      C        0.98110    0.19340    0.21530    1.000
    H18      H        0.96300    0.15890    0.16310    1.000
    C29      C        0.00950    0.13740    0.28450    1.000
    C30      C        0.03710    0.19140    0.36400    1.000
    C31      C        0.03520    0.29900    0.37150    1.000
    H19      H        0.05340    0.33460    0.42330    1.000
    C32      C        0.06570    0.13450    0.43390    1.000
    H20      H        0.08280    0.16870    0.48610    1.000
    C33      C        0.06820    0.03110    0.42500    1.000
    H21      H        0.08870    0.99550    0.47130    1.000
    C34      C        0.03970    0.97650    0.34570    1.000
    C35      C        0.01100    0.02940    0.27700    1.000
    H22      H        0.99250    0.99360    0.22530    1.000
    C36      C        0.83880    0.66190    0.35840    1.000
    C37      C        0.03600    0.86170    0.33720    1.000
    C38      C        0.20290    0.66580    0.29480    1.000
    C39      C        0.31790    0.66300    0.29270    1.000
    C40      C        0.40030    0.66380    0.36430    1.000
    H23      H        0.38470    0.66590    0.41360    1.000
    C41      C        0.50880    0.66150    0.36470    1.000
    C42      C        0.53110    0.65850    0.28850    1.000
    C43      C        0.44260    0.64410    0.21420    1.000
    H24      H        0.45570    0.63220    0.16440    1.000
    C44      C        0.33850    0.64770    0.21620    1.000
    H25      H        0.28110    0.64020    0.16750    1.000
    C45      C        0.64070    0.65960    0.28950    1.000
    H26      H        0.65630    0.65900    0.24020    1.000
    C46      C        0.72400    0.66150    0.36070    1.000
    C47      C        0.70060    0.66050    0.43580    1.000
    H27      H        0.75660    0.65970    0.48440    1.000
    C48      C        0.59570    0.66080    0.43710    1.000
    H28      H        0.58160    0.66050    0.48690    1.000
    N1       N        0.16980    0.67440    0.53253    1.000
    N2       N        0.86640    0.66160    0.12213    1.000
    O1       O        0.04028    0.51202    0.38323    1.000
    O2       O        0.97280    0.50940    0.24681    1.000
    O3       O        0.12920    0.66210    0.22784    1.000
    O4       O        0.18916    0.67190    0.36329    1.000
    O5       O        0.00720    0.81660    0.26552    1.000
    O6       O        0.06080    0.81840    0.40261    1.000
    O7       O        0.85234    0.66580    0.28917    1.000
    O8       O        0.91283    0.65948    0.42541    1.000
    Zn1      Zn       0.97565    0.66275    0.23558    1.000
    Zn2      Zn       0.06664    0.66628    0.41677    1.000
    C49      C        0.44950    0.68700    0.21960    1.000
    H29      H        0.46790    0.70570    0.17390    1.000
    C50      C        0.34450    0.68700    0.22020    1.000
    H30      H        0.29090    0.70260    0.17430    1.000
    C51      C        0.82760    0.40360    0.42080    1.000
    H31      H        0.88060    0.45980    0.43970    1.000
    C52      C        0.74930    0.40430    0.34530    1.000
    H32      H        0.75190    0.45860    0.31370    1.000
    C53      C        0.66770    0.32340    0.31750    1.000
    C54      C        0.67080    0.24170    0.36570    1.000
    H33      H        0.61800    0.18520    0.34830    1.000
    C55      C        0.75300    0.24510    0.43960    1.000
    H34      H        0.75480    0.18980    0.47080    1.000
    C56      C        0.57540    0.32600    0.24010    1.000
    C57      C        0.47350    0.34570    0.24640    1.000
    C58      C        0.45470    0.37050    0.32320    1.000
    H35      H        0.51200    0.37340    0.37160    1.000
    C59      C        0.35630    0.38980    0.32690    1.000
    H36      H        0.34670    0.40640    0.37750    1.000
    C60      C        0.26730    0.38520    0.25480    1.000
    H37      H        0.19910    0.39660    0.25830    1.000
    C61      C        0.28050    0.36430    0.18010    1.000
    H38      H        0.22110    0.36190    0.13320    1.000
    C62      C        0.38310    0.34600    0.17260    1.000
    C63      C        0.40140    0.32950    0.09570    1.000
    C64      C        0.50350    0.31320    0.08980    1.000
    C65      C        0.52320    0.29640    0.01270    1.000
    H39      H        0.46650    0.29740    0.96440    1.000
    C66      C        0.62380    0.27880    0.00860    1.000
    H40      H        0.63460    0.26760    0.95790    1.000
    C67      C        0.71130    0.27750    0.08100    1.000
    H41      H        0.77980    0.26710    0.07780    1.000
    C68      C        0.69560    0.29160    0.15570    1.000
    H42      H        0.75370    0.28890    0.20270    1.000
    C69      C        0.59300    0.31020    0.16370    1.000
    C70      C        0.30820    0.33370    0.01940    1.000
    C71      C        0.23540    0.24860    0.98580    1.000
    H43      H        0.24310    0.18730    0.01010    1.000
    C72      C        0.14910    0.25440    0.91480    1.000
    H44      H        0.10040    0.19570    0.89270    1.000
    C73      C        0.20590    0.42150    0.91010    1.000
    H45      H        0.19720    0.48180    0.88440    1.000
    C74      C        0.29310    0.42040    0.98040    1.000
    H46      H        0.34160    0.47950    0.00090    1.000
    C75      C        0.99370    0.53320    0.68840    1.000
    C76      C        0.99330    0.64810    0.69710    1.000
    C77      C        0.02030    0.70180    0.77580    1.000
    H47      H        0.03910    0.66600    0.82200    1.000
    C78      C        0.01890    0.80660    0.78470    1.000
    H48      H        0.03700    0.84110    0.83690    1.000
    C79      C        0.99050    0.86260    0.71550    1.000
    C80      C        0.96290    0.80860    0.63600    1.000
    C81      C        0.96480    0.70100    0.62850    1.000
    H49      H        0.94660    0.66540    0.57670    1.000
    C82      C        0.93430    0.86550    0.56610    1.000
    H50      H        0.91720    0.83130    0.51390    1.000
    C83      C        0.93180    0.96890    0.57500    1.000
    H51      H        0.91130    0.00450    0.52870    1.000
    C84      C        0.96030    0.02350    0.65430    1.000
    C85      C        0.98900    0.97060    0.72300    1.000
    H52      H        0.00750    0.00640    0.77470    1.000
    C86      C        0.16120    0.33810    0.64160    1.000
    C87      C        0.96400    0.13830    0.66280    1.000
    C88      C        0.79710    0.33420    0.70520    1.000
    C89      C        0.68210    0.33700    0.70730    1.000
    C90      C        0.59970    0.33620    0.63570    1.000
    H53      H        0.61530    0.33410    0.58640    1.000
    C91      C        0.49120    0.33850    0.63530    1.000
    C92      C        0.46890    0.34150    0.71150    1.000
    C93      C        0.55740    0.35590    0.78580    1.000
    H54      H        0.54430    0.36780    0.83560    1.000
    C94      C        0.66150    0.35230    0.78380    1.000
    H55      H        0.71890    0.35980    0.83250    1.000
    C95      C        0.35930    0.34040    0.71050    1.000
    H56      H        0.34370    0.34100    0.75980    1.000
    C96      C        0.27600    0.33850    0.63930    1.000
    C97      C        0.29940    0.33950    0.56420    1.000
    H57      H        0.24340    0.34030    0.51560    1.000
    C98      C        0.40430    0.33920    0.56290    1.000
    H58      H        0.41840    0.33950    0.51310    1.000
    N3       N        0.83020    0.32560    0.46747    1.000
    N4       N        0.13360    0.33840    0.87787    1.000
    O9       O        0.95972    0.48798    0.61677    1.000
    O10      O        0.02720    0.49060    0.75319    1.000
    O11      O        0.87080    0.33790    0.77216    1.000
    O12      O        0.81084    0.32810    0.63671    1.000
    O13      O        0.99280    0.18340    0.73448    1.000
    O14      O        0.93920    0.18160    0.59739    1.000
    O15      O        0.14766    0.33420    0.71083    1.000
    O16      O        0.08717    0.34052    0.57459    1.000
    Zn3      Zn       0.02435    0.33725    0.76442    1.000
    Zn4      Zn       0.93336    0.33372    0.58323    1.000
    C99      C        0.55050    0.31300    0.78040    1.000
    H59      H        0.53210    0.29430    0.82610    1.000
    C100     C        0.65550    0.31300    0.77980    1.000
    H60      H        0.70910    0.29740    0.82570    1.000
