data_functionalizedCrystal
_audit_creation_method	'EQeq! by Chris Wilmer'
_symmetry_space_group_name_H-M	'P1'
_symmetry_Int_Tables_number	1
_symmetry_cell_setting	triclinic
loop_
_symmetry_equiv_pos_as_xyz
  x,y,z
_cell_length_a	19.67
_cell_length_b	22.239
_cell_length_c	11.6392
_cell_angle_alpha	90
_cell_angle_beta	116.746
_cell_angle_gamma	90
loop_
_atom_site_label
_atom_site_type_symbol
_atom_site_fract_x
_atom_site_fract_y
_atom_site_fract_z
_atom_site_charge
Mof_Ni	Ni	0.18936	0.1204	0.38787	1.102
Mof_N 	N 	0.2188	0.1383	0.5756	-0.241
Mof_N 	N 	0.3596	0.2094	0.0303	-0.121
Mof_N 	N 	0.5981	0.3212	0.3153	-0.232
Mof_O 	O 	0.268	0.17687	0.3636	-0.364
Mof_O 	O 	0.1904	0.1199	0.2036	-0.352
Mof_O 	O 	0.26734	0.05006	0.4407	-0.333
Mof_O 	O 	0.11638	0.0501	0.3645	-0.352
Mof_C 	C 	0.174	0.1282	0.6326	0.088
Mof_H 	H 	0.126	0.1119	0.5834	-0.002
Mof_C 	C 	0.1954	0.1406	0.7599	-0.142
Mof_H 	H 	0.1619	0.1329	0.7945	0.085
Mof_C 	C 	0.2674	0.1646	0.8375	0.075
Mof_C 	C 	0.3133	0.1756	0.7784	-0.136
Mof_H 	H 	0.3615	0.1922	0.825	0.093
Mof_C 	C 	0.2874	0.1619	0.6497	0.085
Mof_H 	H 	0.3196	0.1694	0.6123	0.002
Mof_C 	C 	0.2949	0.1788	0.9755	0.059
Mof_C 	C 	0.2563	0.1601	0.0452	-0.079
Mof_H 	H 	0.2112	0.1384	0.005	0.073
Mof_C 	C 	0.2858	0.1742	0.1739	-0.004
Mof_C 	C 	0.3547	0.2046	0.2323	-0.081
Mof_H 	H 	0.3768	0.2135	0.3197	0.073
Mof_C 	C 	0.39	0.2213	0.1565	0.056
Mof_C 	C 	0.5878	0.2752	0.3808	0.077
Mof_H 	H 	0.6269	0.2651	0.4608	0.003
Mof_C 	C 	0.5206	0.2423	0.3326	-0.138
Mof_H 	H 	0.5146	0.2118	0.3819	0.083
Mof_C 	C 	0.4629	0.2546	0.2124	0.069
Mof_C 	C 	0.4748	0.3016	0.1427	-0.137
Mof_H 	H 	0.438	0.3111	0.0602	0.092
Mof_C 	C 	0.5421	0.3335	0.1989	0.083
Mof_H 	H 	0.5489	0.3653	0.1531	0.006
Mof_C 	C 	0.2451	0.1558	0.2512	0.274
Mof_Ni	Ni	0.68936	0.6204	0.38787	1.101
Mof_N 	N 	0.7188	0.6383	0.5756	-0.241
Mof_N 	N 	0.8596	0.7094	0.0303	-0.122
Mof_N 	N 	0.0981	0.8212	0.3153	-0.233
Mof_O 	O 	0.768	0.67687	0.3636	-0.363
Mof_O 	O 	0.6904	0.6199	0.2036	-0.349
Mof_O 	O 	0.76734	0.55006	0.4407	-0.334
Mof_O 	O 	0.61638	0.5501	0.3645	-0.354
Mof_C 	C 	0.674	0.6282	0.6326	0.089
Mof_H 	H 	0.626	0.6119	0.5834	0
Mof_C 	C 	0.6954	0.6406	0.7599	-0.141
Mof_H 	H 	0.6619	0.6329	0.7945	0.086
Mof_C 	C 	0.7674	0.6646	0.8375	0.076
Mof_C 	C 	0.8133	0.6756	0.7784	-0.135
Mof_H 	H 	0.8615	0.6922	0.825	0.094
Mof_C 	C 	0.7874	0.6619	0.6497	0.086
Mof_H 	H 	0.8196	0.6694	0.6123	0.002
Mof_C 	C 	0.7949	0.6788	0.9755	0.06
Mof_C 	C 	0.7563	0.6601	0.0452	-0.079
Mof_H 	H 	0.7112	0.6384	0.005	0.075
Mof_C 	C 	0.7858	0.6742	0.1739	-0.002
Mof_C 	C 	0.8547	0.7046	0.2323	-0.081
Mof_H 	H 	0.8768	0.7135	0.3197	0.074
Mof_C 	C 	0.89	0.7213	0.1565	0.057
Mof_C 	C 	0.0878	0.7752	0.3808	0.078
Mof_H 	H 	0.1269	0.7651	0.4608	0.003
Mof_C 	C 	0.0206	0.7423	0.3326	-0.138
Mof_H 	H 	0.0146	0.7118	0.3819	0.084
Mof_C 	C 	0.9629	0.7546	0.2124	0.07
Mof_C 	C 	0.9748	0.8016	0.1427	-0.136
Mof_H 	H 	0.938	0.8111	0.0602	0.092
Mof_C 	C 	0.0421	0.8335	0.1989	0.083
Mof_H 	H 	0.0489	0.8653	0.1531	0.008
Mof_C 	C 	0.7451	0.6558	0.2512	0.274
Mof_Ni	Ni	0.18936	0.8796	0.38787	1.102
Mof_N 	N 	0.2188	0.8617	0.5756	-0.241
Mof_N 	N 	0.3596	0.7906	0.0303	-0.122
Mof_N 	N 	0.5981	0.6788	0.3153	-0.233
Mof_O 	O 	0.268	0.82313	0.3636	-0.362
Mof_O 	O 	0.1904	0.8801	0.2036	-0.346
Mof_O 	O 	0.26734	0.94994	0.4407	-0.312
Mof_O 	O 	0.11638	0.9499	0.3645	-0.332
Mof_C 	C 	0.174	0.8718	0.6326	0.091
Mof_H 	H 	0.126	0.8881	0.5834	0.002
Mof_C 	C 	0.1954	0.8594	0.7599	-0.14
Mof_H 	H 	0.1619	0.8671	0.7945	0.088
Mof_C 	C 	0.2674	0.8354	0.8375	0.077
Mof_C 	C 	0.3133	0.8244	0.7784	-0.134
Mof_H 	H 	0.3615	0.8078	0.825	0.095
Mof_C 	C 	0.2874	0.8381	0.6497	0.088
Mof_H 	H 	0.3196	0.8306	0.6123	0.003
Mof_C 	C 	0.2949	0.8212	0.9755	0.062
Mof_C 	C 	0.2563	0.8399	0.0452	-0.079
Mof_H 	H 	0.2112	0.8616	0.005	0.077
Mof_C 	C 	0.2858	0.8258	0.1739	0
Mof_C 	C 	0.3547	0.7954	0.2323	-0.081
Mof_H 	H 	0.3768	0.7865	0.3197	0.074
Mof_C 	C 	0.39	0.7787	0.1565	0.058
Mof_C 	C 	0.5878	0.7248	0.3808	0.078
Mof_H 	H 	0.6269	0.7349	0.4608	0.003
Mof_C 	C 	0.5206	0.7577	0.3326	-0.138
Mof_H 	H 	0.5146	0.7882	0.3819	0.085
Mof_C 	C 	0.4629	0.7454	0.2124	0.07
Mof_C 	C 	0.4748	0.6984	0.1427	-0.137
Mof_H 	H 	0.438	0.6889	0.0602	0.092
Mof_C 	C 	0.5421	0.6665	0.1989	0.084
Mof_H 	H 	0.5489	0.6347	0.1531	0.006
Mof_C 	C 	0.2451	0.8442	0.2512	0.273
Mof_Ni	Ni	0.68936	0.3796	0.38787	1.101
Mof_N 	N 	0.7188	0.3617	0.5756	-0.241
Mof_N 	N 	0.8596	0.2906	0.0303	-0.122
Mof_N 	N 	0.0981	0.1788	0.3153	-0.234
Mof_O 	O 	0.768	0.32313	0.3636	-0.363
Mof_O 	O 	0.6904	0.3801	0.2036	-0.349
Mof_O 	O 	0.76734	0.44994	0.4407	-0.334
Mof_O 	O 	0.61638	0.4499	0.3645	-0.354
Mof_C 	C 	0.674	0.3718	0.6326	0.089
Mof_H 	H 	0.626	0.3881	0.5834	0
Mof_C 	C 	0.6954	0.3594	0.7599	-0.141
Mof_H 	H 	0.6619	0.3671	0.7945	0.086
Mof_C 	C 	0.7674	0.3354	0.8375	0.076
Mof_C 	C 	0.8133	0.3244	0.7784	-0.135
Mof_H 	H 	0.8615	0.3078	0.825	0.094
Mof_C 	C 	0.7874	0.3381	0.6497	0.086
Mof_H 	H 	0.8196	0.3306	0.6123	0.002
Mof_C 	C 	0.7949	0.3212	0.9755	0.06
Mof_C 	C 	0.7563	0.3399	0.0452	-0.078
Mof_H 	H 	0.7112	0.3616	0.005	0.075
Mof_C 	C 	0.7858	0.3258	0.1739	-0.002
Mof_C 	C 	0.8547	0.2954	0.2323	-0.08
Mof_H 	H 	0.8768	0.2865	0.3197	0.074
Mof_C 	C 	0.89	0.2787	0.1565	0.057
Mof_C 	C 	0.0878	0.2248	0.3808	0.077
Mof_H 	H 	0.1269	0.2349	0.4608	0.003
Mof_C 	C 	0.0206	0.2577	0.3326	-0.139
Mof_H 	H 	0.0146	0.2882	0.3819	0.084
Mof_C 	C 	0.9629	0.2454	0.2124	0.07
Mof_C 	C 	0.9748	0.1984	0.1427	-0.138
Mof_H 	H 	0.938	0.1889	0.0602	0.091
Mof_C 	C 	0.0421	0.1665	0.1989	0.083
Mof_H 	H 	0.0489	0.1347	0.1531	0.004
Mof_C 	C 	0.7451	0.3442	0.2512	0.274
Mof_C 	C 	0.2359	0	0.4249	0.192
Mof_C 	C 	0.1484	0	0.381	0.197
Mof_C 	C 	0.7359	0.5	0.4249	0.217
Mof_C 	C 	0.6484	0.5	0.381	0.221
Mof_Ni	Ni	0.81064	0.1204	0.61213	1.101
Mof_N 	N 	0.7812	0.1383	0.4244	-0.242
Mof_N 	N 	0.6404	0.2094	0.9697	-0.122
Mof_N 	N 	0.4019	0.3212	0.6847	-0.233
Mof_O 	O 	0.732	0.17687	0.6364	-0.364
Mof_O 	O 	0.8096	0.1199	0.7964	-0.352
Mof_O 	O 	0.73266	0.05006	0.5593	-0.333
Mof_O 	O 	0.88362	0.0501	0.6355	-0.352
Mof_C 	C 	0.826	0.1282	0.3674	0.088
Mof_H 	H 	0.874	0.1119	0.4166	-0.002
Mof_C 	C 	0.8046	0.1406	0.2401	-0.142
Mof_H 	H 	0.8381	0.1329	0.2055	0.085
Mof_C 	C 	0.7326	0.1646	0.1625	0.075
Mof_C 	C 	0.6867	0.1756	0.2216	-0.136
Mof_H 	H 	0.6385	0.1922	0.175	0.093
Mof_C 	C 	0.7126	0.1619	0.3503	0.085
Mof_H 	H 	0.6804	0.1694	0.3877	0.002
Mof_C 	C 	0.7051	0.1788	0.0245	0.059
Mof_C 	C 	0.7437	0.1601	0.9548	-0.079
Mof_H 	H 	0.7888	0.1384	0.995	0.073
Mof_C 	C 	0.7142	0.1742	0.8261	-0.004
Mof_C 	C 	0.6453	0.2046	0.7677	-0.081
Mof_H 	H 	0.6232	0.2135	0.6803	0.073
Mof_C 	C 	0.61	0.2213	0.8435	0.056
Mof_C 	C 	0.4122	0.2752	0.6192	0.077
Mof_H 	H 	0.3731	0.2651	0.5392	0.003
Mof_C 	C 	0.4794	0.2423	0.6674	-0.138
Mof_H 	H 	0.4854	0.2118	0.6181	0.083
Mof_C 	C 	0.5371	0.2546	0.7876	0.069
Mof_C 	C 	0.5252	0.3016	0.8573	-0.137
Mof_H 	H 	0.562	0.3111	0.9398	0.092
Mof_C 	C 	0.4579	0.3335	0.8011	0.083
Mof_H 	H 	0.4511	0.3653	0.8469	0.006
Mof_C 	C 	0.7549	0.1558	0.7488	0.274
Mof_Ni	Ni	0.31064	0.6204	0.61213	1.101
Mof_N 	N 	0.2812	0.6383	0.4244	-0.241
Mof_N 	N 	0.1404	0.7094	0.9697	-0.122
Mof_N 	N 	0.9019	0.8212	0.6847	-0.233
Mof_O 	O 	0.232	0.67687	0.6364	-0.363
Mof_O 	O 	0.3096	0.6199	0.7964	-0.349
Mof_O 	O 	0.23266	0.55006	0.5593	-0.334
Mof_O 	O 	0.38362	0.5501	0.6355	-0.354
Mof_C 	C 	0.326	0.6282	0.3674	0.089
Mof_H 	H 	0.374	0.6119	0.4166	0
Mof_C 	C 	0.3046	0.6406	0.2401	-0.141
Mof_H 	H 	0.3381	0.6329	0.2055	0.086
Mof_C 	C 	0.2326	0.6646	0.1625	0.076
Mof_C 	C 	0.1867	0.6756	0.2216	-0.135
Mof_H 	H 	0.1385	0.6922	0.175	0.094
Mof_C 	C 	0.2126	0.6619	0.3503	0.086
Mof_H 	H 	0.1804	0.6694	0.3877	0.002
Mof_C 	C 	0.2051	0.6788	0.0245	0.06
Mof_C 	C 	0.2437	0.6601	0.9548	-0.079
Mof_H 	H 	0.2888	0.6384	0.995	0.075
Mof_C 	C 	0.2142	0.6742	0.8261	-0.002
Mof_C 	C 	0.1453	0.7046	0.7677	-0.081
Mof_H 	H 	0.1232	0.7135	0.6803	0.074
Mof_C 	C 	0.11	0.7213	0.8435	0.057
Mof_C 	C 	0.9122	0.7752	0.6192	0.078
Mof_H 	H 	0.8731	0.7651	0.5392	0.003
Mof_C 	C 	0.9794	0.7423	0.6674	-0.138
Mof_H 	H 	0.9854	0.7118	0.6181	0.084
Mof_C 	C 	0.0371	0.7546	0.7876	0.07
Mof_C 	C 	0.0252	0.8016	0.8573	-0.136
Mof_H 	H 	0.062	0.8111	0.9398	0.092
Mof_C 	C 	0.9579	0.8335	0.8011	0.083
Mof_H 	H 	0.9511	0.8653	0.8469	0.008
Mof_C 	C 	0.2549	0.6558	0.7488	0.274
Mof_Ni	Ni	0.81064	0.8796	0.61213	1.102
Mof_N 	N 	0.7812	0.8617	0.4244	-0.241
Mof_N 	N 	0.6404	0.7906	0.9697	-0.122
Mof_N 	N 	0.4019	0.6788	0.6847	-0.233
Mof_O 	O 	0.732	0.82313	0.6364	-0.362
Mof_O 	O 	0.8096	0.8801	0.7964	-0.346
Mof_O 	O 	0.73266	0.94994	0.5593	-0.312
Mof_O 	O 	0.88362	0.9499	0.6355	-0.332
Mof_C 	C 	0.826	0.8718	0.3674	0.091
Mof_H 	H 	0.874	0.8881	0.4166	0.002
Mof_C 	C 	0.8046	0.8594	0.2401	-0.14
Mof_H 	H 	0.8381	0.8671	0.2055	0.088
Mof_C 	C 	0.7326	0.8354	0.1625	0.077
Mof_C 	C 	0.6867	0.8244	0.2216	-0.134
Mof_H 	H 	0.6385	0.8078	0.175	0.095
Mof_C 	C 	0.7126	0.8381	0.3503	0.088
Mof_H 	H 	0.6804	0.8306	0.3877	0.003
Mof_C 	C 	0.7051	0.8212	0.0245	0.062
Mof_C 	C 	0.7437	0.8399	0.9548	-0.079
Mof_H 	H 	0.7888	0.8616	0.995	0.077
Mof_C 	C 	0.7142	0.8258	0.8261	0
Mof_C 	C 	0.6453	0.7954	0.7677	-0.081
Mof_H 	H 	0.6232	0.7865	0.6803	0.074
Mof_C 	C 	0.61	0.7787	0.8435	0.058
Mof_C 	C 	0.4122	0.7248	0.6192	0.078
Mof_H 	H 	0.3731	0.7349	0.5392	0.003
Mof_C 	C 	0.4794	0.7577	0.6674	-0.138
Mof_H 	H 	0.4854	0.7882	0.6181	0.085
Mof_C 	C 	0.5371	0.7454	0.7876	0.07
Mof_C 	C 	0.5252	0.6984	0.8573	-0.137
Mof_H 	H 	0.562	0.6889	0.9398	0.092
Mof_C 	C 	0.4579	0.6665	0.8011	0.084
Mof_H 	H 	0.4511	0.6347	0.8469	0.006
Mof_C 	C 	0.7549	0.8442	0.7488	0.273
Mof_Ni	Ni	0.31064	0.3796	0.61213	1.101
Mof_N 	N 	0.2812	0.3617	0.4244	-0.241
Mof_N 	N 	0.1404	0.2906	0.9697	-0.122
Mof_N 	N 	0.9019	0.1788	0.6847	-0.234
Mof_O 	O 	0.232	0.32313	0.6364	-0.363
Mof_O 	O 	0.3096	0.3801	0.7964	-0.349
Mof_O 	O 	0.23266	0.44994	0.5593	-0.334
Mof_O 	O 	0.38362	0.4499	0.6355	-0.354
Mof_C 	C 	0.326	0.3718	0.3674	0.089
Mof_H 	H 	0.374	0.3881	0.4166	0
Mof_C 	C 	0.3046	0.3594	0.2401	-0.141
Mof_H 	H 	0.3381	0.3671	0.2055	0.086
Mof_C 	C 	0.2326	0.3354	0.1625	0.076
Mof_C 	C 	0.1867	0.3244	0.2216	-0.135
Mof_H 	H 	0.1385	0.3078	0.175	0.094
Mof_C 	C 	0.2126	0.3381	0.3503	0.086
Mof_H 	H 	0.1804	0.3306	0.3877	0.002
Mof_C 	C 	0.2051	0.3212	0.0245	0.06
Mof_C 	C 	0.2437	0.3399	0.9548	-0.078
Mof_H 	H 	0.2888	0.3616	0.995	0.075
Mof_C 	C 	0.2142	0.3258	0.8261	-0.002
Mof_C 	C 	0.1453	0.2954	0.7677	-0.08
Mof_H 	H 	0.1232	0.2865	0.6803	0.074
Mof_C 	C 	0.11	0.2787	0.8435	0.057
Mof_C 	C 	0.9122	0.2248	0.6192	0.077
Mof_H 	H 	0.8731	0.2349	0.5392	0.003
Mof_C 	C 	0.9794	0.2577	0.6674	-0.139
Mof_H 	H 	0.9854	0.2882	0.6181	0.084
Mof_C 	C 	0.0371	0.2454	0.7876	0.07
Mof_C 	C 	0.0252	0.1984	0.8573	-0.138
Mof_H 	H 	0.062	0.1889	0.9398	0.091
Mof_C 	C 	0.9579	0.1665	0.8011	0.083
Mof_H 	H 	0.9511	0.1347	0.8469	0.004
Mof_C 	C 	0.2549	0.3442	0.7488	0.274
Mof_C 	C 	0.7641	5.55202e-33	0.5751	0.192
Mof_C 	C 	0.8516	5.55202e-33	0.619	0.197
Mof_C 	C 	0.2641	0.5	0.5751	0.217
Mof_C 	C 	0.3516	0.5	0.619	0.221
_end
