data_functionalizedCrystal
_audit_creation_method	'EQeq! by Chris Wilmer'
_symmetry_space_group_name_H-M	'P1'
_symmetry_Int_Tables_number	1
_symmetry_cell_setting	triclinic
loop_
_symmetry_equiv_pos_as_xyz
  x,y,z
_cell_length_a	26.1243
_cell_length_b	26.1243
_cell_length_c	6.8752
_cell_angle_alpha	90
_cell_angle_beta	90
_cell_angle_gamma	120
loop_
_atom_site_label
_atom_site_type_symbol
_atom_site_fract_x
_atom_site_fract_y
_atom_site_fract_z
_atom_site_charge
Mof_Fe	Fe	0.38284	0.3518	0.1479	0.857
Mof_O 	O 	0.32708	0.29516	0.3619	-0.456
Mof_O 	O 	0.30065	0.22525	0.5929	-0.345
Mof_O 	O 	0.35544	0.2736	0.0059	-0.398
Mof_C 	C 	0.31936	0.24711	0.4234	0.412
Mof_C 	C 	0.32668	0.20573	0.2872	-0.135
Mof_C 	C 	0.34574	0.22231	0.0956	0.215
Mof_C 	C 	0.35073	0.18081	0.9768	-0.04
Mof_H 	H 	0.3632	0.1931	0.8308	0.086
Mof_O 	O 	0.4704	0.3515	0.249	0.114
Mof_N 	N 	0.51756	0.39191	0.2133	-0.017
Mof_N 	N 	0.561	0.4309	0.1635	-0.263
Mof_N 	N 	0.509	0.3732	0.3327	0.021
Mof_O 	O 	0.5591	0.4027	0.402	-0.085
Mof_N 	N 	0.4619	0.3481	0.2853	-0.069
Mof_N 	N 	0.4711	0.363	0.2683	-0.134
Mof_O 	O 	0.5657	0.4187	0.142	0.25
Mof_Fe	Fe	0.04951	0.68513	0.48123	0.857
Mof_O 	O 	0.99375	0.62849	0.69523	-0.455
Mof_O 	O 	0.96732	0.55858	0.92623	-0.345
Mof_O 	O 	0.02211	0.60693	0.33923	-0.398
Mof_C 	C 	0.98603	0.58044	0.75673	0.412
Mof_C 	C 	0.99335	0.53906	0.62053	-0.135
Mof_C 	C 	0.01241	0.55564	0.42893	0.215
Mof_C 	C 	0.0174	0.51414	0.31013	-0.039
Mof_H 	H 	0.02987	0.52643	0.16413	0.086
Mof_O 	O 	0.13707	0.68483	0.58233	0.113
Mof_N 	N 	0.18423	0.72524	0.54663	-0.018
Mof_N 	N 	0.22767	0.76423	0.49683	-0.264
Mof_N 	N 	0.17567	0.70653	0.66603	0.02
Mof_O 	O 	0.22577	0.73603	0.73533	-0.085
Mof_N 	N 	0.12857	0.68143	0.61863	-0.07
Mof_N 	N 	0.13777	0.69633	0.60163	-0.135
Mof_O 	O 	0.23237	0.75203	0.47533	0.249
Mof_Fe	Fe	0.71617	0.01847	0.81457	0.856
Mof_O 	O 	0.66041	0.96183	0.02857	-0.456
Mof_O 	O 	0.63398	0.89192	0.25957	-0.346
Mof_O 	O 	0.68877	0.94027	0.67257	-0.399
Mof_C 	C 	0.65269	0.91378	0.09007	0.411
Mof_C 	C 	0.66001	0.8724	0.95387	-0.136
Mof_C 	C 	0.67907	0.88898	0.76227	0.214
Mof_C 	C 	0.68406	0.84748	0.64347	-0.04
Mof_H 	H 	0.69653	0.85977	0.49747	0.085
Mof_O 	O 	0.80373	0.01817	0.91567	0.113
Mof_N 	N 	0.85089	0.05858	0.87997	-0.018
Mof_N 	N 	0.89433	0.09757	0.83017	-0.264
Mof_N 	N 	0.84233	0.03987	0.99937	0.02
Mof_O 	O 	0.89243	0.06937	0.06867	-0.085
Mof_N 	N 	0.79523	0.01477	0.95197	-0.07
Mof_N 	N 	0.80443	0.02967	0.93497	-0.134
Mof_O 	O 	0.89903	0.08537	0.80867	0.249
Mof_Fe	Fe	0.6482	0.03104	0.1479	0.856
Mof_O 	O 	0.70484	0.03192	0.3619	-0.456
Mof_O 	O 	0.77475	0.0754	0.5929	-0.346
Mof_O 	O 	0.7264	0.08184	0.0059	-0.399
Mof_C 	C 	0.75289	0.07225	0.4234	0.411
Mof_C 	C 	0.79427	0.12095	0.2872	-0.136
Mof_C 	C 	0.77769	0.12343	0.0956	0.214
Mof_C 	C 	0.81919	0.16992	0.9768	-0.041
Mof_H 	H 	0.8069	0.1701	0.8308	0.085
Mof_O 	O 	0.6485	0.1189	0.249	0.113
Mof_N 	N 	0.60809	0.12565	0.2133	-0.018
Mof_N 	N 	0.5691	0.1301	0.1635	-0.264
Mof_N 	N 	0.6268	0.1358	0.3327	0.02
Mof_O 	O 	0.5973	0.1564	0.402	-0.086
Mof_N 	N 	0.6519	0.1138	0.2853	-0.07
Mof_N 	N 	0.637	0.1081	0.2683	-0.135
Mof_O 	O 	0.5813	0.147	0.142	0.249
Mof_Fe	Fe	0.31487	0.36437	0.48123	0.856
Mof_O 	O 	0.37151	0.36525	0.69523	-0.456
Mof_O 	O 	0.44142	0.40873	0.92623	-0.346
Mof_O 	O 	0.39307	0.41517	0.33923	-0.399
Mof_C 	C 	0.41956	0.40558	0.75673	0.411
Mof_C 	C 	0.46094	0.45428	0.62053	-0.136
Mof_C 	C 	0.44436	0.45676	0.42893	0.214
Mof_C 	C 	0.48586	0.50325	0.31013	-0.04
Mof_H 	H 	0.47357	0.50343	0.16413	0.085
Mof_O 	O 	0.31517	0.45223	0.58233	0.113
Mof_N 	N 	0.27476	0.45898	0.54663	-0.018
Mof_N 	N 	0.23577	0.46343	0.49683	-0.264
Mof_N 	N 	0.29347	0.46913	0.66603	0.02
Mof_O 	O 	0.26397	0.48973	0.73533	-0.085
Mof_N 	N 	0.31857	0.44713	0.61863	-0.07
Mof_N 	N 	0.30367	0.44143	0.60163	-0.135
Mof_O 	O 	0.24797	0.48033	0.47533	0.249
Mof_Fe	Fe	0.98153	0.69771	0.81457	0.856
Mof_O 	O 	0.03817	0.69859	0.02857	-0.456
Mof_O 	O 	0.10808	0.74207	0.25957	-0.346
Mof_O 	O 	0.05973	0.74851	0.67257	-0.399
Mof_C 	C 	0.08622	0.73892	0.09007	0.411
Mof_C 	C 	0.1276	0.78762	0.95387	-0.136
Mof_C 	C 	0.11102	0.7901	0.76227	0.214
Mof_C 	C 	0.15252	0.83659	0.64347	-0.04
Mof_H 	H 	0.14023	0.83677	0.49747	0.085
Mof_O 	O 	0.98183	0.78557	0.91567	0.113
Mof_N 	N 	0.94142	0.79232	0.87997	-0.018
Mof_N 	N 	0.90243	0.79677	0.83017	-0.264
Mof_N 	N 	0.96013	0.80247	0.99937	0.02
Mof_O 	O 	0.93063	0.82307	0.06867	-0.085
Mof_N 	N 	0.98523	0.78047	0.95197	-0.07
Mof_N 	N 	0.97033	0.77477	0.93497	-0.134
Mof_O 	O 	0.91463	0.81367	0.80867	0.249
Mof_Fe	Fe	0.96896	0.61716	0.1479	0.856
Mof_O 	O 	0.96808	0.67292	0.3619	-0.456
Mof_O 	O 	0.9246	0.69935	0.5929	-0.346
Mof_O 	O 	0.91816	0.64456	0.0059	-0.399
Mof_C 	C 	0.92775	0.68064	0.4234	0.411
Mof_C 	C 	0.87905	0.67332	0.2872	-0.136
Mof_C 	C 	0.87657	0.65426	0.0956	0.214
Mof_C 	C 	0.83008	0.64927	0.9768	-0.041
Mof_H 	H 	0.8299	0.6368	0.8308	0.085
Mof_O 	O 	0.8811	0.5296	0.249	0.113
Mof_N 	N 	0.87435	0.48244	0.2133	-0.018
Mof_N 	N 	0.8699	0.439	0.1635	-0.264
Mof_N 	N 	0.8642	0.491	0.3327	0.02
Mof_O 	O 	0.8436	0.4409	0.402	-0.086
Mof_N 	N 	0.8862	0.5381	0.2853	-0.07
Mof_N 	N 	0.8919	0.5289	0.2683	-0.135
Mof_O 	O 	0.853	0.4343	0.142	0.249
Mof_Fe	Fe	0.63563	0.95049	0.48123	0.856
Mof_O 	O 	0.63475	0.00625	0.69523	-0.456
Mof_O 	O 	0.59127	0.03268	0.92623	-0.346
Mof_O 	O 	0.58483	0.97789	0.33923	-0.399
Mof_C 	C 	0.59442	0.01397	0.75673	0.411
Mof_C 	C 	0.54572	0.00665	0.62053	-0.136
Mof_C 	C 	0.54324	0.98759	0.42893	0.214
Mof_C 	C 	0.49675	0.9826	0.31013	-0.04
Mof_H 	H 	0.49657	0.97013	0.16413	0.085
Mof_O 	O 	0.54777	0.86293	0.58233	0.113
Mof_N 	N 	0.54102	0.81577	0.54663	-0.018
Mof_N 	N 	0.53657	0.77233	0.49683	-0.264
Mof_N 	N 	0.53087	0.82433	0.66603	0.02
Mof_O 	O 	0.51027	0.77423	0.73533	-0.085
Mof_N 	N 	0.55287	0.87143	0.61863	-0.07
Mof_N 	N 	0.55857	0.86223	0.60163	-0.135
Mof_O 	O 	0.51967	0.76763	0.47533	0.249
Mof_Fe	Fe	0.30229	0.28383	0.81457	0.856
Mof_O 	O 	0.30141	0.33959	0.02857	-0.456
Mof_O 	O 	0.25793	0.36602	0.25957	-0.346
Mof_O 	O 	0.25149	0.31123	0.67257	-0.399
Mof_C 	C 	0.26108	0.34731	0.09007	0.41
Mof_C 	C 	0.21238	0.33999	0.95387	-0.135
Mof_C 	C 	0.2099	0.32093	0.76227	0.214
Mof_C 	C 	0.16341	0.31594	0.64347	-0.04
Mof_H 	H 	0.16323	0.30347	0.49747	0.085
Mof_O 	O 	0.21443	0.19627	0.91567	0.113
Mof_N 	N 	0.20768	0.14911	0.87997	-0.018
Mof_N 	N 	0.20323	0.10567	0.83017	-0.264
Mof_N 	N 	0.19753	0.15767	0.99937	0.02
Mof_O 	O 	0.17693	0.10757	0.06867	-0.085
Mof_N 	N 	0.21953	0.20477	0.95197	-0.069
Mof_N 	N 	0.22523	0.19557	0.93497	-0.135
Mof_O 	O 	0.18633	0.10097	0.80867	0.249
Mof_Fe	Fe	0.61716	0.6482	0.8521	0.856
Mof_O 	O 	0.67292	0.70484	0.6381	-0.457
Mof_O 	O 	0.69935	0.77475	0.4071	-0.346
Mof_O 	O 	0.64456	0.7264	0.9941	-0.399
Mof_C 	C 	0.68064	0.75289	0.5766	0.411
Mof_C 	C 	0.67332	0.79427	0.7128	-0.136
Mof_C 	C 	0.65426	0.77769	0.9044	0.214
Mof_C 	C 	0.64927	0.81919	0.0232	-0.041
Mof_H 	H 	0.6368	0.8069	0.1692	0.085
Mof_O 	O 	0.5296	0.6485	0.751	0.113
Mof_N 	N 	0.48244	0.60809	0.7867	-0.018
Mof_N 	N 	0.439	0.5691	0.8365	-0.264
Mof_N 	N 	0.491	0.6268	0.6673	0.02
Mof_O 	O 	0.4409	0.5973	0.598	-0.086
Mof_N 	N 	0.5381	0.6519	0.7147	-0.07
Mof_N 	N 	0.5289	0.637	0.7317	-0.135
Mof_O 	O 	0.4343	0.5813	0.858	0.249
Mof_Fe	Fe	0.28383	0.98153	0.18543	0.856
Mof_O 	O 	0.33959	0.03817	0.97143	-0.456
Mof_O 	O 	0.36602	0.10808	0.74043	-0.346
Mof_O 	O 	0.31123	0.05973	0.32743	-0.399
Mof_C 	C 	0.34731	0.08622	0.90993	0.411
Mof_C 	C 	0.33999	0.1276	0.04613	-0.136
Mof_C 	C 	0.32093	0.11102	0.23773	0.214
Mof_C 	C 	0.31594	0.15252	0.35653	-0.04
Mof_H 	H 	0.30347	0.14023	0.50253	0.085
Mof_O 	O 	0.19627	0.98183	0.08433	0.113
Mof_N 	N 	0.14911	0.94142	0.12003	-0.018
Mof_N 	N 	0.10567	0.90243	0.16983	-0.264
Mof_N 	N 	0.15767	0.96013	0.00063	0.02
Mof_O 	O 	0.10757	0.93063	0.93133	-0.085
Mof_N 	N 	0.20477	0.98523	0.04803	-0.07
Mof_N 	N 	0.19557	0.97033	0.06503	-0.134
Mof_O 	O 	0.10097	0.91463	0.19133	0.249
Mof_Fe	Fe	0.95049	0.31487	0.51877	0.856
Mof_O 	O 	0.00625	0.37151	0.30477	-0.456
Mof_O 	O 	0.03268	0.44142	0.07377	-0.346
Mof_O 	O 	0.97789	0.39307	0.66077	-0.399
Mof_C 	C 	0.01397	0.41956	0.24327	0.411
Mof_C 	C 	0.00665	0.46094	0.37947	-0.136
Mof_C 	C 	0.98759	0.44436	0.57107	0.214
Mof_C 	C 	0.9826	0.48586	0.68987	-0.04
Mof_H 	H 	0.97013	0.47357	0.83587	0.085
Mof_O 	O 	0.86293	0.31517	0.41767	0.113
Mof_N 	N 	0.81577	0.27476	0.45337	-0.018
Mof_N 	N 	0.77233	0.23577	0.50317	-0.264
Mof_N 	N 	0.82433	0.29347	0.33397	0.02
Mof_O 	O 	0.77423	0.26397	0.26467	-0.085
Mof_N 	N 	0.87143	0.31857	0.38137	-0.07
Mof_N 	N 	0.86223	0.30367	0.39837	-0.135
Mof_O 	O 	0.76763	0.24797	0.52467	0.249
Mof_Fe	Fe	0.3518	0.96896	0.8521	0.856
Mof_O 	O 	0.29516	0.96808	0.6381	-0.456
Mof_O 	O 	0.22525	0.9246	0.4071	-0.346
Mof_O 	O 	0.2736	0.91816	0.9941	-0.399
Mof_C 	C 	0.24711	0.92775	0.5766	0.411
Mof_C 	C 	0.20573	0.87905	0.7128	-0.136
Mof_C 	C 	0.22231	0.87657	0.9044	0.214
Mof_C 	C 	0.18081	0.83008	0.0232	-0.041
Mof_H 	H 	0.1931	0.8299	0.1692	0.085
Mof_O 	O 	0.3515	0.8811	0.751	0.113
Mof_N 	N 	0.39191	0.87435	0.7867	-0.018
Mof_N 	N 	0.4309	0.8699	0.8365	-0.264
Mof_N 	N 	0.3732	0.8642	0.6673	0.02
Mof_O 	O 	0.4027	0.8436	0.598	-0.086
Mof_N 	N 	0.3481	0.8862	0.7147	-0.07
Mof_N 	N 	0.363	0.8919	0.7317	-0.135
Mof_O 	O 	0.4187	0.853	0.858	0.249
Mof_Fe	Fe	0.01847	0.30229	0.18543	0.856
Mof_O 	O 	0.96183	0.30141	0.97143	-0.456
Mof_O 	O 	0.89192	0.25793	0.74043	-0.346
Mof_O 	O 	0.94027	0.25149	0.32743	-0.399
Mof_C 	C 	0.91378	0.26108	0.90993	0.411
Mof_C 	C 	0.8724	0.21238	0.04613	-0.136
Mof_C 	C 	0.88898	0.2099	0.23773	0.214
Mof_C 	C 	0.84748	0.16341	0.35653	-0.04
Mof_H 	H 	0.85977	0.16323	0.50253	0.085
Mof_O 	O 	0.01817	0.21443	0.08433	0.113
Mof_N 	N 	0.05858	0.20768	0.12003	-0.018
Mof_N 	N 	0.09757	0.20323	0.16983	-0.264
Mof_N 	N 	0.03987	0.19753	0.00063	0.02
Mof_O 	O 	0.06937	0.17693	0.93133	-0.085
Mof_N 	N 	0.01477	0.21953	0.04803	-0.07
Mof_N 	N 	0.02967	0.22523	0.06503	-0.134
Mof_O 	O 	0.08537	0.18633	0.19133	0.249
Mof_Fe	Fe	0.68513	0.63563	0.51877	0.856
Mof_O 	O 	0.62849	0.63475	0.30477	-0.456
Mof_O 	O 	0.55858	0.59127	0.07377	-0.346
Mof_O 	O 	0.60693	0.58483	0.66077	-0.399
Mof_C 	C 	0.58044	0.59442	0.24327	0.411
Mof_C 	C 	0.53906	0.54572	0.37947	-0.136
Mof_C 	C 	0.55564	0.54324	0.57107	0.214
Mof_C 	C 	0.51414	0.49675	0.68987	-0.04
Mof_H 	H 	0.52643	0.49657	0.83587	0.085
Mof_O 	O 	0.68483	0.54777	0.41767	0.113
Mof_N 	N 	0.72524	0.54102	0.45337	-0.018
Mof_N 	N 	0.76423	0.53657	0.50317	-0.264
Mof_N 	N 	0.70653	0.53087	0.33397	0.02
Mof_O 	O 	0.73603	0.51027	0.26467	-0.085
Mof_N 	N 	0.68143	0.55287	0.38137	-0.07
Mof_N 	N 	0.69633	0.55857	0.39837	-0.135
Mof_O 	O 	0.75203	0.51967	0.52467	0.249
Mof_Fe	Fe	0.03104	0.38284	0.8521	0.856
Mof_O 	O 	0.03192	0.32708	0.6381	-0.456
Mof_O 	O 	0.0754	0.30065	0.4071	-0.346
Mof_O 	O 	0.08184	0.35544	0.9941	-0.399
Mof_C 	C 	0.07225	0.31936	0.5766	0.411
Mof_C 	C 	0.12095	0.32668	0.7128	-0.136
Mof_C 	C 	0.12343	0.34574	0.9044	0.214
Mof_C 	C 	0.16992	0.35073	0.0232	-0.041
Mof_H 	H 	0.1701	0.3632	0.1692	0.085
Mof_O 	O 	0.1189	0.4704	0.751	0.113
Mof_N 	N 	0.12565	0.51756	0.7867	-0.018
Mof_N 	N 	0.1301	0.561	0.8365	-0.264
Mof_N 	N 	0.1358	0.509	0.6673	0.02
Mof_O 	O 	0.1564	0.5591	0.598	-0.086
Mof_N 	N 	0.1138	0.4619	0.7147	-0.07
Mof_N 	N 	0.1081	0.4711	0.7317	-0.135
Mof_O 	O 	0.147	0.5657	0.858	0.249
Mof_Fe	Fe	0.69771	0.71617	0.18543	0.856
Mof_O 	O 	0.69859	0.66041	0.97143	-0.456
Mof_O 	O 	0.74207	0.63398	0.74043	-0.346
Mof_O 	O 	0.74851	0.68877	0.32743	-0.399
Mof_C 	C 	0.73892	0.65269	0.90993	0.41
Mof_C 	C 	0.78762	0.66001	0.04613	-0.135
Mof_C 	C 	0.7901	0.67907	0.23773	0.214
Mof_C 	C 	0.83659	0.68406	0.35653	-0.04
Mof_H 	H 	0.83677	0.69653	0.50253	0.085
Mof_O 	O 	0.78557	0.80373	0.08433	0.113
Mof_N 	N 	0.79232	0.85089	0.12003	-0.018
Mof_N 	N 	0.79677	0.89433	0.16983	-0.264
Mof_N 	N 	0.80247	0.84233	0.00063	0.02
Mof_O 	O 	0.82307	0.89243	0.93133	-0.085
Mof_N 	N 	0.78047	0.79523	0.04803	-0.069
Mof_N 	N 	0.77477	0.80443	0.06503	-0.135
Mof_O 	O 	0.81367	0.89903	0.19133	0.249
Mof_Fe	Fe	0.36437	0.04951	0.51877	0.856
Mof_O 	O 	0.36525	0.99375	0.30477	-0.456
Mof_O 	O 	0.40873	0.96732	0.07377	-0.346
Mof_O 	O 	0.41517	0.02211	0.66077	-0.399
Mof_C 	C 	0.40558	0.98603	0.24327	0.411
Mof_C 	C 	0.45428	0.99335	0.37947	-0.136
Mof_C 	C 	0.45676	0.01241	0.57107	0.214
Mof_C 	C 	0.50325	0.0174	0.68987	-0.04
Mof_H 	H 	0.50343	0.02987	0.83587	0.085
Mof_O 	O 	0.45223	0.13707	0.41767	0.113
Mof_N 	N 	0.45898	0.18423	0.45337	-0.018
Mof_N 	N 	0.46343	0.22767	0.50317	-0.264
Mof_N 	N 	0.46913	0.17567	0.33397	0.02
Mof_O 	O 	0.48973	0.22577	0.26467	-0.085
Mof_N 	N 	0.44713	0.12857	0.38137	-0.07
Mof_N 	N 	0.44143	0.13777	0.39837	-0.135
Mof_O 	O 	0.48033	0.23237	0.52467	0.249
_end
