data_functionalizedCrystal
_audit_creation_method	'EQeq! by Chris Wilmer'
_symmetry_space_group_name_H-M	'P1'
_symmetry_Int_Tables_number	1
_symmetry_cell_setting	triclinic
loop_
_symmetry_equiv_pos_as_xyz
  x,y,z
_cell_length_a	10.672
_cell_length_b	10.7194
_cell_length_c	11.9351
_cell_angle_alpha	70.341
_cell_angle_beta	77.928
_cell_angle_gamma	60.8544
loop_
_atom_site_label
_atom_site_type_symbol
_atom_site_fract_x
_atom_site_fract_y
_atom_site_fract_z
_atom_site_charge
Mof_Tb	Tb	0.54938	0.99827	0.16246	2.253
Mof_Tb	Tb	0.45062	0.00173	0.83754	1.932
Mof_Cu	Cu	-0	0	-0	0.803
Mof_Cu	Cu	2.5348e-17	0	0.5	0.818
Mof_H 	H 	0.0106	0.2708	0.5148	-0.115
Mof_H 	H 	0.914	0.521	0.4285	0.133
Mof_H 	H 	0.6855	0.4794	0.2331	0.093
Mof_H 	H 	0.7811	0.2312	0.3288	-0.022
Mof_H 	H 	0.9948	0.7215	0.1769	0.12
Mof_H 	H 	0.1314	0.4692	0.2206	0.01
Mof_H 	H 	0.3934	0.5305	0.9365	0.054
Mof_H 	H 	0.2518	0.7793	0.9006	0.008
Mof_H 	H 	0.9894	0.7292	0.4852	0.12
Mof_H 	H 	0.086	0.479	0.5715	0.018
Mof_H 	H 	0.3145	0.5206	0.7669	0.068
Mof_H 	H 	0.2189	0.7688	0.6712	0.025
Mof_H 	H 	0.0052	0.2785	0.8231	-0.109
Mof_H 	H 	0.8686	0.5308	0.7794	0.151
Mof_H 	H 	0.6066	0.4695	0.0635	0.107
Mof_H 	H 	0.7482	0.2207	0.0994	-0.049
Mof_C 	C 	0.1782	0.9772	0.2831	-0.052
Mof_C 	C 	0.1729	0.9882	0.1651	0.054
Mof_C 	C 	0.2837	0.9652	0.3581	0.405
Mof_C 	C 	0.2647	0.0019	0.0553	0.246
Mof_C 	C 	0.9437	0.3134	0.4573	0.259
Mof_C 	C 	0.8863	0.4638	0.4053	-0.205
Mof_C 	C 	0.7886	0.5302	0.3196	0.065
Mof_C 	C 	0.7512	0.4396	0.291	-0.143
Mof_C 	C 	0.8104	0.29	0.3478	0.107
Mof_C 	C 	0.7239	0.6936	0.257	0.273
Mof_C 	C 	0.0766	0.6819	0.1287	-0.127
Mof_C 	C 	0.1573	0.5305	0.1547	0.033
Mof_C 	C 	0.2783	0.4691	0.0817	-0.126
Mof_C 	C 	0.3126	0.5669	0.9864	0.008
Mof_C 	C 	0.2281	0.7157	0.9659	0.072
Mof_C 	C 	0.3706	0.3054	0.1083	0.333
Mof_C 	C 	0.8218	0.0228	0.7169	-0.009
Mof_C 	C 	0.8271	0.0118	0.8349	-0.128
Mof_C 	C 	0.7163	0.0348	0.6419	0.359
Mof_C 	C 	0.7353	0.9981	0.9447	0.514
Mof_C 	C 	0.0563	0.6866	0.5427	-0.102
Mof_C 	C 	0.1137	0.5362	0.5947	0.007
Mof_C 	C 	0.2114	0.4698	0.6804	-0.059
Mof_C 	C 	0.2488	0.5604	0.709	-0.049
Mof_C 	C 	0.1896	0.71	0.6522	0.039
Mof_C 	C 	0.2761	0.3064	0.743	0.313
Mof_C 	C 	0.9234	0.3181	0.8713	0.276
Mof_C 	C 	0.8427	0.4695	0.8453	-0.23
Mof_C 	C 	0.7217	0.5309	0.9183	0.127
Mof_C 	C 	0.6874	0.4331	0.0136	-0.217
Mof_C 	C 	0.7719	0.2843	0.0341	0.108
Mof_C 	C 	0.6294	0.6946	0.8917	0.237
Mof_N 	N 	0.0548	0.9761	0.3377	-0.17
Mof_N 	N 	0.9761	0.9815	0.2613	-0.009
Mof_N 	N 	0.0476	0.9897	0.1553	-0.186
Mof_N 	N 	0.9072	0.2266	0.4283	-0.241
Mof_N 	N 	0.1115	0.7747	0.0364	-0.193
Mof_N 	N 	0.9452	0.0239	0.6623	-0.134
Mof_N 	N 	0.0239	0.0185	0.7387	-0.143
Mof_N 	N 	0.9524	0.0103	0.8447	-0.113
Mof_N 	N 	0.0928	0.7734	0.5717	-0.167
Mof_N 	N 	0.8885	0.2253	0.9636	-0.225
Mof_O 	O 	0.2346	0.9918	0.4559	-0.318
Mof_O 	O 	0.4136	0.9231	0.3192	-0.496
Mof_O 	O 	0.3818	0.0041	0.0563	-0.63
Mof_O 	O 	0.2232	0.0129	0.9588	-0.477
Mof_O 	O 	0.7396	0.7811	0.2949	-0.409
Mof_O 	O 	0.6499	0.7403	0.1692	-0.428
Mof_O 	O 	0.4863	0.2552	0.0475	-0.495
Mof_O 	O 	0.3325	0.2195	0.1925	-0.492
Mof_O 	O 	0.7654	0.0082	0.5441	-0.365
Mof_O 	O 	0.5864	0.0769	0.6808	-0.495
Mof_O 	O 	0.6182	0.9959	0.9437	-0.547
Mof_O 	O 	0.7768	0.9871	0.0412	-0.527
Mof_O 	O 	0.2604	0.2189	0.7051	-0.421
Mof_O 	O 	0.3501	0.2597	0.8308	-0.411
Mof_O 	O 	0.5137	0.7448	0.9525	-0.359
Mof_O 	O 	0.6675	0.7805	0.8075	-0.355
_end
