data_functionalizedCrystal
_audit_creation_method	'EQeq! by Chris Wilmer'
_symmetry_space_group_name_H-M	'P1'
_symmetry_Int_Tables_number	1
_symmetry_cell_setting	triclinic
loop_
_symmetry_equiv_pos_as_xyz
  x,y,z
_cell_length_a	12.0751
_cell_length_b	18.9705
_cell_length_c	19.4783
_cell_angle_alpha	90
_cell_angle_beta	90
_cell_angle_gamma	90
loop_
_atom_site_label
_atom_site_type_symbol
_atom_site_fract_x
_atom_site_fract_y
_atom_site_fract_z
_atom_site_charge
Mof_Co	Co	0.64724	0.81279	0.83787	1.185
Mof_Co	Co	0.14724	0.68721	0.16213	1.185
Mof_Co	Co	0.35276	0.18721	0.33787	1.185
Mof_Co	Co	0.85276	0.31279	0.66213	1.185
Mof_Co	Co	0.35276	0.18721	0.16213	1.185
Mof_Co	Co	0.85276	0.31279	0.83787	1.185
Mof_Co	Co	0.64724	0.81279	0.66213	1.186
Mof_Co	Co	0.14724	0.68721	0.33787	1.186
Mof_Co	Co	0.40731	0.65548	0.25	1.164
Mof_Co	Co	0.90731	0.84452	0.75	1.164
Mof_Co	Co	0.59269	0.34452	0.75	1.164
Mof_Co	Co	0.09269	0.15548	0.25	1.164
Mof_H 	H 	0.5597	0.6488	0.04	0.058
Mof_H 	H 	0.6493	0.6906	0.9421	0.028
Mof_H 	H 	0.4553	0.8563	0.9349	0.028
Mof_H 	H 	0.3519	0.8155	0.027	0.06
Mof_H 	H 	0.3466	0.4136	0.3489	0.051
Mof_H 	H 	0.372	0.5351	0.3456	0.004
Mof_H 	H 	0.8017	0.7167	0.3358	0.049
Mof_H 	H 	0.6084	0.715	0.3349	0.015
Mof_H 	H 	0.661	0.0136	0.8926	-0.018
Mof_H 	H 	0.6868	0.9844	0.819	-0.045
Mof_H 	H 	0.4647	0.0026	0.8518	0.134
Mof_H 	H 	0.5257	0.0106	0.7791	0.107
Mof_H 	H 	0.5894	0.1199	0.8038	-0.021
Mof_H 	H 	0.584	0.1071	0.8851	-0.03
Mof_H 	H 	0.4396	0.1838	0.8521	0.199
Mof_H 	H 	0.3936	0.1261	0.7994	0.184
Mof_H 	H 	0.3873	0.1119	0.8803	0.193
Mof_H 	H 	0.7254	0.9204	0.8702	0.196
Mof_H 	H 	0.0597	0.8512	0.96	0.058
Mof_H 	H 	0.1493	0.8094	0.0579	0.028
Mof_H 	H 	0.9553	0.6437	0.0651	0.027
Mof_H 	H 	0.8519	0.6845	0.973	0.06
Mof_H 	H 	0.8466	0.0864	0.6511	0.051
Mof_H 	H 	0.872	0.9649	0.6544	0.004
Mof_H 	H 	0.3017	0.7833	0.6642	0.049
Mof_H 	H 	0.1084	0.785	0.6651	0.015
Mof_H 	H 	0.161	0.4864	0.1074	-0.019
Mof_H 	H 	0.1868	0.5156	0.181	-0.045
Mof_H 	H 	0.9647	0.4974	0.1482	0.134
Mof_H 	H 	0.0257	0.4894	0.2209	0.107
Mof_H 	H 	0.0894	0.3801	0.1962	-0.021
Mof_H 	H 	0.084	0.3929	0.1149	-0.03
Mof_H 	H 	0.9396	0.3162	0.1479	0.199
Mof_H 	H 	0.8936	0.3739	0.2006	0.184
Mof_H 	H 	0.8873	0.3881	0.1197	0.193
Mof_H 	H 	0.2254	0.5796	0.1298	0.196
Mof_H 	H 	0.4403	0.3512	0.54	0.058
Mof_H 	H 	0.3507	0.3094	0.4421	0.028
Mof_H 	H 	0.5447	0.1437	0.4349	0.028
Mof_H 	H 	0.6481	0.1845	0.527	0.06
Mof_H 	H 	0.6534	0.5864	0.8489	0.051
Mof_H 	H 	0.628	0.4649	0.8456	0.004
Mof_H 	H 	0.1983	0.2833	0.8358	0.049
Mof_H 	H 	0.3916	0.285	0.8349	0.015
Mof_H 	H 	0.339	0.9864	0.3926	-0.018
Mof_H 	H 	0.3132	0.0156	0.319	-0.045
Mof_H 	H 	0.5353	0.9974	0.3518	0.134
Mof_H 	H 	0.4743	0.9894	0.2791	0.107
Mof_H 	H 	0.4106	0.8801	0.3038	-0.021
Mof_H 	H 	0.416	0.8929	0.3851	-0.03
Mof_H 	H 	0.5604	0.8162	0.3521	0.199
Mof_H 	H 	0.6064	0.8739	0.2994	0.184
Mof_H 	H 	0.6127	0.8881	0.3803	0.193
Mof_H 	H 	0.2746	0.0796	0.3702	0.196
Mof_H 	H 	0.9403	0.1488	0.46	0.058
Mof_H 	H 	0.8507	0.1906	0.5579	0.028
Mof_H 	H 	0.0447	0.3563	0.5651	0.028
Mof_H 	H 	0.1481	0.3155	0.473	0.06
Mof_H 	H 	0.1534	0.9136	0.1511	0.051
Mof_H 	H 	0.128	0.0351	0.1544	0.004
Mof_H 	H 	0.6983	0.2167	0.1642	0.049
Mof_H 	H 	0.8916	0.215	0.1651	0.016
Mof_H 	H 	0.839	0.5136	0.6074	-0.019
Mof_H 	H 	0.8132	0.4844	0.681	-0.045
Mof_H 	H 	0.0353	0.5026	0.6482	0.134
Mof_H 	H 	0.9743	0.5106	0.7209	0.107
Mof_H 	H 	0.9106	0.6199	0.6962	-0.021
Mof_H 	H 	0.916	0.6071	0.6149	-0.03
Mof_H 	H 	0.0604	0.6838	0.6479	0.199
Mof_H 	H 	0.1064	0.6261	0.7006	0.184
Mof_H 	H 	0.1127	0.6119	0.6197	0.193
Mof_H 	H 	0.7746	0.4204	0.6298	0.196
Mof_H 	H 	0.4403	0.3512	0.96	0.058
Mof_H 	H 	0.3507	0.3094	0.0579	0.028
Mof_H 	H 	0.5447	0.1437	0.0651	0.028
Mof_H 	H 	0.6481	0.1845	0.973	0.06
Mof_H 	H 	0.6534	0.5864	0.6511	0.051
Mof_H 	H 	0.628	0.4649	0.6544	0.004
Mof_H 	H 	0.1983	0.2833	0.6642	0.049
Mof_H 	H 	0.3916	0.285	0.6651	0.015
Mof_H 	H 	0.339	0.9864	0.1074	-0.018
Mof_H 	H 	0.3132	0.0156	0.181	-0.045
Mof_H 	H 	0.5353	0.9974	0.1482	0.134
Mof_H 	H 	0.4743	0.9894	0.2209	0.107
Mof_H 	H 	0.4106	0.8801	0.1962	-0.021
Mof_H 	H 	0.416	0.8929	0.1149	-0.03
Mof_H 	H 	0.5604	0.8162	0.1479	0.199
Mof_H 	H 	0.6064	0.8739	0.2006	0.184
Mof_H 	H 	0.6127	0.8881	0.1197	0.193
Mof_H 	H 	0.2746	0.0796	0.1298	0.196
Mof_H 	H 	0.9403	0.1488	0.04	0.058
Mof_H 	H 	0.8507	0.1906	0.9421	0.028
Mof_H 	H 	0.0447	0.3563	0.9349	0.027
Mof_H 	H 	0.1481	0.3155	0.027	0.06
Mof_H 	H 	0.1534	0.9136	0.3489	0.051
Mof_H 	H 	0.128	0.0351	0.3456	0.004
Mof_H 	H 	0.6983	0.2167	0.3358	0.049
Mof_H 	H 	0.8916	0.215	0.3349	0.015
Mof_H 	H 	0.839	0.5136	0.8926	-0.019
Mof_H 	H 	0.8132	0.4844	0.819	-0.045
Mof_H 	H 	0.0353	0.5026	0.8518	0.134
Mof_H 	H 	0.9743	0.5106	0.7791	0.107
Mof_H 	H 	0.9106	0.6199	0.8038	-0.021
Mof_H 	H 	0.916	0.6071	0.8851	-0.03
Mof_H 	H 	0.0604	0.6838	0.8521	0.199
Mof_H 	H 	0.1064	0.6261	0.7994	0.184
Mof_H 	H 	0.1127	0.6119	0.8803	0.193
Mof_H 	H 	0.7746	0.4204	0.8702	0.196
Mof_H 	H 	0.5597	0.6488	0.46	0.058
Mof_H 	H 	0.6493	0.6906	0.5579	0.028
Mof_H 	H 	0.4553	0.8563	0.5651	0.028
Mof_H 	H 	0.3519	0.8155	0.473	0.06
Mof_H 	H 	0.3466	0.4136	0.1511	0.051
Mof_H 	H 	0.372	0.5351	0.1544	0.004
Mof_H 	H 	0.8017	0.7167	0.1642	0.049
Mof_H 	H 	0.6084	0.715	0.1651	0.015
Mof_H 	H 	0.661	0.0136	0.6074	-0.018
Mof_H 	H 	0.6868	0.9844	0.681	-0.045
Mof_H 	H 	0.4647	0.0026	0.6482	0.134
Mof_H 	H 	0.5257	0.0106	0.7209	0.107
Mof_H 	H 	0.5894	0.1199	0.6962	-0.021
Mof_H 	H 	0.584	0.1071	0.6149	-0.03
Mof_H 	H 	0.4396	0.1838	0.6479	0.199
Mof_H 	H 	0.3936	0.1261	0.7006	0.184
Mof_H 	H 	0.3873	0.1119	0.6197	0.193
Mof_H 	H 	0.7254	0.9204	0.6298	0.196
Mof_H 	H 	0.0597	0.8512	0.54	0.058
Mof_H 	H 	0.1493	0.8094	0.4421	0.028
Mof_H 	H 	0.9553	0.6437	0.4349	0.028
Mof_H 	H 	0.8519	0.6845	0.527	0.06
Mof_H 	H 	0.8466	0.0864	0.8489	0.051
Mof_H 	H 	0.872	0.9649	0.8456	0.004
Mof_H 	H 	0.3017	0.7833	0.8358	0.049
Mof_H 	H 	0.1084	0.785	0.8349	0.016
Mof_H 	H 	0.161	0.4864	0.3926	-0.019
Mof_H 	H 	0.1868	0.5156	0.319	-0.045
Mof_H 	H 	0.9647	0.4974	0.3518	0.134
Mof_H 	H 	0.0257	0.4894	0.2791	0.107
Mof_H 	H 	0.0894	0.3801	0.3038	-0.021
Mof_H 	H 	0.084	0.3929	0.3851	-0.03
Mof_H 	H 	0.9396	0.3162	0.3521	0.199
Mof_H 	H 	0.8936	0.3739	0.2994	0.184
Mof_H 	H 	0.8873	0.3881	0.3803	0.193
Mof_H 	H 	0.2254	0.5796	0.3702	0.196
Mof_H 	H 	0.3272	0.7802	0.25	0.22
Mof_H 	H 	0.8272	0.7198	0.75	0.22
Mof_H 	H 	0.6728	0.2198	0.75	0.22
Mof_H 	H 	0.1728	0.2802	0.25	0.22
Mof_C 	C 	0.4447	0.7266	0.0433	-0.053
Mof_C 	C 	0.5348	0.6908	0.0183	-0.054
Mof_C 	C 	0.5893	0.7169	0.9604	0.038
Mof_C 	C 	0.4752	0.8128	0.9556	0.037
Mof_C 	C 	0.4139	0.7894	0.0111	-0.054
Mof_C 	C 	0.3798	0.7003	0.1044	0.35
Mof_C 	C 	0.3706	0.4359	0.3079	-0.032
Mof_C 	C 	0.3844	0.5088	0.3048	0.034
Mof_C 	C 	0.7632	0.6918	0.3009	-0.04
Mof_C 	C 	0.6476	0.691	0.2997	0.02
Mof_C 	C 	0.6332	0.9805	0.8573	0.211
Mof_C 	C 	0.5327	0.0198	0.829	-0.336
Mof_C 	C 	0.545	0.0988	0.8411	0.217
Mof_C 	C 	0.431	0.1332	0.8434	-0.569
Mof_C 	C 	0.9447	0.7734	0.9567	-0.054
Mof_C 	C 	0.0348	0.8092	0.9817	-0.053
Mof_C 	C 	0.0893	0.7831	0.0396	0.037
Mof_C 	C 	0.9752	0.6872	0.0444	0.039
Mof_C 	C 	0.9139	0.7106	0.9889	-0.056
Mof_C 	C 	0.8798	0.7997	0.8956	0.35
Mof_C 	C 	0.8706	0.0641	0.6921	-0.032
Mof_C 	C 	0.8844	0.9912	0.6952	0.033
Mof_C 	C 	0.2632	0.8082	0.6991	-0.04
Mof_C 	C 	0.1476	0.809	0.7003	0.02
Mof_C 	C 	0.1332	0.5195	0.1427	0.212
Mof_C 	C 	0.0327	0.4802	0.171	-0.338
Mof_C 	C 	0.045	0.4012	0.1589	0.217
Mof_C 	C 	0.931	0.3668	0.1566	-0.568
Mof_C 	C 	0.5553	0.2734	0.5433	-0.053
Mof_C 	C 	0.4652	0.3092	0.5183	-0.054
Mof_C 	C 	0.4107	0.2831	0.4604	0.038
Mof_C 	C 	0.5248	0.1872	0.4556	0.037
Mof_C 	C 	0.5861	0.2106	0.5111	-0.055
Mof_C 	C 	0.6202	0.2997	0.6044	0.35
Mof_C 	C 	0.6294	0.5641	0.8079	-0.032
Mof_C 	C 	0.6156	0.4912	0.8048	0.034
Mof_C 	C 	0.2368	0.3082	0.8009	-0.04
Mof_C 	C 	0.3524	0.309	0.7997	0.02
Mof_C 	C 	0.3668	0.0195	0.3573	0.211
Mof_C 	C 	0.4673	0.9802	0.329	-0.336
Mof_C 	C 	0.455	0.9012	0.3411	0.217
Mof_C 	C 	0.569	0.8668	0.3434	-0.569
Mof_C 	C 	0.0553	0.2266	0.4567	-0.053
Mof_C 	C 	0.9652	0.1908	0.4817	-0.054
Mof_C 	C 	0.9107	0.2169	0.5396	0.038
Mof_C 	C 	0.0248	0.3128	0.5444	0.037
Mof_C 	C 	0.0861	0.2894	0.4889	-0.055
Mof_C 	C 	0.1202	0.2003	0.3956	0.35
Mof_C 	C 	0.1294	0.9359	0.1921	-0.032
Mof_C 	C 	0.1156	0.0088	0.1952	0.033
Mof_C 	C 	0.7368	0.1918	0.1991	-0.04
Mof_C 	C 	0.8524	0.191	0.2003	0.02
Mof_C 	C 	0.8668	0.4805	0.6427	0.211
Mof_C 	C 	0.9673	0.5198	0.671	-0.337
Mof_C 	C 	0.955	0.5988	0.6589	0.217
Mof_C 	C 	0.069	0.6332	0.6566	-0.568
Mof_C 	C 	0.5553	0.2734	0.9567	-0.053
Mof_C 	C 	0.4652	0.3092	0.9817	-0.054
Mof_C 	C 	0.4107	0.2831	0.0396	0.038
Mof_C 	C 	0.5248	0.1872	0.0444	0.037
Mof_C 	C 	0.5861	0.2106	0.9889	-0.054
Mof_C 	C 	0.6202	0.2997	0.8956	0.35
Mof_C 	C 	0.6294	0.5641	0.6921	-0.032
Mof_C 	C 	0.6156	0.4912	0.6952	0.034
Mof_C 	C 	0.2368	0.3082	0.6991	-0.04
Mof_C 	C 	0.3524	0.309	0.7003	0.02
Mof_C 	C 	0.3668	0.0195	0.1427	0.211
Mof_C 	C 	0.4673	0.9802	0.171	-0.336
Mof_C 	C 	0.455	0.9012	0.1589	0.217
Mof_C 	C 	0.569	0.8668	0.1566	-0.569
Mof_C 	C 	0.0553	0.2266	0.0433	-0.054
Mof_C 	C 	0.9652	0.1908	0.0183	-0.053
Mof_C 	C 	0.9107	0.2169	0.9604	0.037
Mof_C 	C 	0.0248	0.3128	0.9556	0.039
Mof_C 	C 	0.0861	0.2894	0.0111	-0.056
Mof_C 	C 	0.1202	0.2003	0.1044	0.35
Mof_C 	C 	0.1294	0.9359	0.3079	-0.032
Mof_C 	C 	0.1156	0.0088	0.3048	0.033
Mof_C 	C 	0.7368	0.1918	0.3009	-0.04
Mof_C 	C 	0.8524	0.191	0.2997	0.02
Mof_C 	C 	0.8668	0.4805	0.8573	0.212
Mof_C 	C 	0.9673	0.5198	0.829	-0.338
Mof_C 	C 	0.955	0.5988	0.8411	0.217
Mof_C 	C 	0.069	0.6332	0.8434	-0.568
Mof_C 	C 	0.4447	0.7266	0.4567	-0.053
Mof_C 	C 	0.5348	0.6908	0.4817	-0.054
Mof_C 	C 	0.5893	0.7169	0.5396	0.038
Mof_C 	C 	0.4752	0.8128	0.5444	0.037
Mof_C 	C 	0.4139	0.7894	0.4889	-0.055
Mof_C 	C 	0.3798	0.7003	0.3956	0.35
Mof_C 	C 	0.3706	0.4359	0.1921	-0.032
Mof_C 	C 	0.3844	0.5088	0.1952	0.034
Mof_C 	C 	0.7632	0.6918	0.1991	-0.04
Mof_C 	C 	0.6476	0.691	0.2003	0.02
Mof_C 	C 	0.6332	0.9805	0.6427	0.211
Mof_C 	C 	0.5327	0.0198	0.671	-0.336
Mof_C 	C 	0.545	0.0988	0.6589	0.217
Mof_C 	C 	0.431	0.1332	0.6566	-0.569
Mof_C 	C 	0.9447	0.7734	0.5433	-0.053
Mof_C 	C 	0.0348	0.8092	0.5183	-0.054
Mof_C 	C 	0.0893	0.7831	0.4604	0.038
Mof_C 	C 	0.9752	0.6872	0.4556	0.037
Mof_C 	C 	0.9139	0.7106	0.5111	-0.055
Mof_C 	C 	0.8798	0.7997	0.6044	0.35
Mof_C 	C 	0.8706	0.0641	0.8079	-0.032
Mof_C 	C 	0.8844	0.9912	0.8048	0.033
Mof_C 	C 	0.2632	0.8082	0.8009	-0.04
Mof_C 	C 	0.1476	0.809	0.7997	0.02
Mof_C 	C 	0.1332	0.5195	0.3573	0.211
Mof_C 	C 	0.0327	0.4802	0.329	-0.337
Mof_C 	C 	0.045	0.4012	0.3411	0.217
Mof_C 	C 	0.931	0.3668	0.3434	-0.568
Mof_C 	C 	0.3928	0.3974	0.25	-0.095
Mof_C 	C 	0.376	0.3183	0.25	0.474
Mof_C 	C 	0.8216	0.6557	0.25	-0.068
Mof_C 	C 	0.9489	0.6564	0.25	0.404
Mof_C 	C 	0.8928	0.1026	0.75	-0.096
Mof_C 	C 	0.876	0.1817	0.75	0.474
Mof_C 	C 	0.3216	0.8443	0.75	-0.068
Mof_C 	C 	0.4489	0.8436	0.75	0.404
Mof_C 	C 	0.6072	0.6026	0.75	-0.095
Mof_C 	C 	0.624	0.6817	0.75	0.474
Mof_C 	C 	0.1784	0.3443	0.75	-0.068
Mof_C 	C 	0.0511	0.3436	0.75	0.404
Mof_C 	C 	0.1072	0.8974	0.25	-0.096
Mof_C 	C 	0.124	0.8183	0.25	0.474
Mof_C 	C 	0.6784	0.1557	0.25	-0.068
Mof_C 	C 	0.5511	0.1564	0.25	0.404
Mof_N 	N 	0.561	0.7772	0.9297	-0.189
Mof_N 	N 	0.061	0.7228	0.0703	-0.189
Mof_N 	N 	0.439	0.2228	0.4297	-0.189
Mof_N 	N 	0.939	0.2772	0.5703	-0.189
Mof_N 	N 	0.439	0.2228	0.0703	-0.189
Mof_N 	N 	0.939	0.2772	0.9297	-0.189
Mof_N 	N 	0.561	0.7772	0.5703	-0.189
Mof_N 	N 	0.061	0.7228	0.4297	-0.189
Mof_N 	N 	0.4129	0.543	0.25	-0.217
Mof_N 	N 	0.5892	0.6572	0.25	-0.192
Mof_N 	N 	0.9129	0.957	0.75	-0.217
Mof_N 	N 	0.0892	0.8428	0.75	-0.192
Mof_N 	N 	0.5871	0.457	0.75	-0.217
Mof_N 	N 	0.4108	0.3428	0.75	-0.192
Mof_N 	N 	0.0871	0.043	0.25	-0.217
Mof_N 	N 	0.9108	0.1572	0.25	-0.192
Mof_O 	O 	0.4273	0.6572	0.1438	-0.431
Mof_O 	O 	0.2836	0.7236	0.1104	-0.427
Mof_O 	O 	0.3687	0.2892	0.1962	-0.483
Mof_O 	O 	0.9934	0.6559	0.3062	-0.45
Mof_O 	O 	0.6603	0.9143	0.8858	-0.486
Mof_O 	O 	0.9273	0.8428	0.8562	-0.431
Mof_O 	O 	0.7836	0.7764	0.8896	-0.427
Mof_O 	O 	0.8687	0.2108	0.8038	-0.483
Mof_O 	O 	0.4934	0.8441	0.6938	-0.45
Mof_O 	O 	0.1603	0.5857	0.1142	-0.486
Mof_O 	O 	0.5727	0.3428	0.6438	-0.431
Mof_O 	O 	0.7164	0.2764	0.6104	-0.427
Mof_O 	O 	0.6313	0.7108	0.6962	-0.483
Mof_O 	O 	0.0066	0.3441	0.8062	-0.45
Mof_O 	O 	0.3397	0.0857	0.3858	-0.486
Mof_O 	O 	0.0727	0.1572	0.3562	-0.431
Mof_O 	O 	0.2164	0.2236	0.3896	-0.427
Mof_O 	O 	0.1313	0.7892	0.3038	-0.483
Mof_O 	O 	0.5066	0.1559	0.1938	-0.45
Mof_O 	O 	0.8397	0.4143	0.6142	-0.486
Mof_O 	O 	0.5727	0.3428	0.8562	-0.431
Mof_O 	O 	0.7164	0.2764	0.8896	-0.427
Mof_O 	O 	0.6313	0.7108	0.8038	-0.483
Mof_O 	O 	0.0066	0.3441	0.6938	-0.45
Mof_O 	O 	0.3397	0.0857	0.1142	-0.486
Mof_O 	O 	0.0727	0.1572	0.1438	-0.431
Mof_O 	O 	0.2164	0.2236	0.1104	-0.427
Mof_O 	O 	0.1313	0.7892	0.1962	-0.483
Mof_O 	O 	0.5066	0.1559	0.3062	-0.45
Mof_O 	O 	0.8397	0.4143	0.8858	-0.486
Mof_O 	O 	0.4273	0.6572	0.3562	-0.431
Mof_O 	O 	0.2836	0.7236	0.3896	-0.427
Mof_O 	O 	0.3687	0.2892	0.3038	-0.483
Mof_O 	O 	0.9934	0.6559	0.1938	-0.45
Mof_O 	O 	0.6603	0.9143	0.6142	-0.486
Mof_O 	O 	0.9273	0.8428	0.6438	-0.431
Mof_O 	O 	0.7836	0.7764	0.6104	-0.427
Mof_O 	O 	0.8687	0.2108	0.6962	-0.483
Mof_O 	O 	0.4934	0.8441	0.8062	-0.45
Mof_O 	O 	0.1603	0.5857	0.3858	-0.486
Mof_O 	O 	0.232	0.6523	0.25	-0.579
Mof_O 	O 	0.395	0.768	0.25	-0.468
Mof_O 	O 	0.732	0.8477	0.75	-0.578
Mof_O 	O 	0.895	0.732	0.75	-0.468
Mof_O 	O 	0.768	0.3477	0.75	-0.579
Mof_O 	O 	0.605	0.232	0.75	-0.468
Mof_O 	O 	0.268	0.1523	0.25	-0.578
Mof_O 	O 	0.105	0.268	0.25	-0.468
_end
