# CIF file generated by openbabel 3.1.0, see https://openbabel.org
data_I
_chemical_name_common 'image0'
_cell_length_a 16.87
_cell_length_b 16.87
_cell_length_c 13.886
_cell_angle_alpha 90
_cell_angle_beta 90
_cell_angle_gamma 120
_space_group_name_H-M_alt 'P 1'
_space_group_name_Hall 'P 1'
loop_
    _symmetry_equiv_pos_as_xyz
    x,y,z
loop_
    _atom_site_label
    _atom_site_type_symbol
    _atom_site_fract_x
    _atom_site_fract_y
    _atom_site_fract_z
    _atom_site_occupancy
    O1       O        0.77720    0.35290    0.18100    1.000
    N1       N        0.11120    0.60540    0.41340    1.000
    N2       N        0.22810    0.66730    0.51730    1.000
    C1       C        0.96600    0.50750    0.33170    1.000
    H1       H        0.93440    0.50770    0.38640    1.000
    C2       C        0.06010    0.55480    0.33050    1.000
    C3       C        0.19040    0.61090    0.44420    1.000
    H2       H        0.21540    0.57810    0.41640    1.000
    C4       C        0.17090    0.70280    0.53580    1.000
    C5       C        0.17850    0.76640    0.60420    1.000
    H3       H        0.22710    0.79240    0.64730    1.000
    C6       C        0.11010    0.78930    0.60530    1.000
    H4       H        0.11210    0.83010    0.65160    1.000
    C7       C        0.03810    0.75280    0.53870    1.000
    H5       H        0.99450    0.77110    0.54080    1.000
    C8       C        0.03060    0.69020    0.46980    1.000
    H6       H        0.98350    0.66660    0.42480    1.000
    C9       C        0.09700    0.66430    0.47140    1.000
    O2       O        0.64710    0.42430    0.18100    1.000
    N3       N        0.39460    0.50580    0.41340    1.000
    N4       N        0.33270    0.56080    0.51730    1.000
    C10      C        0.49250    0.45850    0.33170    1.000
    H7       H        0.49230    0.42670    0.38640    1.000
    C11      C        0.44520    0.50530    0.33050    1.000
    C12      C        0.38910    0.57950    0.44420    1.000
    H8       H        0.42190    0.63730    0.41640    1.000
    C13      C        0.29720    0.46810    0.53580    1.000
    C14      C        0.23360    0.41210    0.60420    1.000
    H9       H        0.20760    0.43470    0.64730    1.000
    C15      C        0.21070    0.32080    0.60530    1.000
    H10      H        0.16990    0.28200    0.65160    1.000
    C16      C        0.24720    0.28530    0.53870    1.000
    H11      H        0.22890    0.22340    0.54080    1.000
    C17      C        0.30980    0.34040    0.46980    1.000
    H12      H        0.33340    0.31690    0.42480    1.000
    C18      C        0.33570    0.43270    0.47140    1.000
    O3       O        0.57570    0.22280    0.18100    1.000
    N5       N        0.49420    0.88880    0.41340    1.000
    N6       N        0.43920    0.77190    0.51730    1.000
    C19      C        0.54150    0.03400    0.33170    1.000
    H13      H        0.57330    0.06560    0.38640    1.000
    C20      C        0.49470    0.93990    0.33050    1.000
    C21      C        0.42050    0.80960    0.44420    1.000
    H14      H        0.36270    0.78460    0.41640    1.000
    C22      C        0.53190    0.82910    0.53580    1.000
    C23      C        0.58790    0.82150    0.60420    1.000
    H15      H        0.56530    0.77290    0.64730    1.000
    C24      C        0.67920    0.88990    0.60530    1.000
    H16      H        0.71800    0.88790    0.65160    1.000
    C25      C        0.71470    0.96190    0.53870    1.000
    H17      H        0.77660    0.00550    0.54080    1.000
    C26      C        0.65960    0.96940    0.46980    1.000
    H18      H        0.68310    0.01650    0.42480    1.000
    C27      C        0.56730    0.90300    0.47140    1.000
    O4       O        0.64710    0.22280    0.31900    1.000
    N7       N        0.39460    0.88880    0.08660    1.000
    N8       N        0.33270    0.77190    0.98270    1.000
    C28      C        0.49250    0.03400    0.16830    1.000
    H19      H        0.49230    0.06560    0.11360    1.000
    C29      C        0.44520    0.93990    0.16950    1.000
    C30      C        0.38910    0.80960    0.05580    1.000
    H20      H        0.42190    0.78460    0.08360    1.000
    C31      C        0.29720    0.82910    0.96420    1.000
    C32      C        0.23360    0.82150    0.89580    1.000
    H21      H        0.20760    0.77290    0.85270    1.000
    C33      C        0.21070    0.88990    0.89470    1.000
    H22      H        0.16990    0.88790    0.84840    1.000
    C34      C        0.24720    0.96190    0.96130    1.000
    H23      H        0.22890    0.00550    0.95920    1.000
    C35      C        0.30980    0.96940    0.03020    1.000
    H24      H        0.33340    0.01650    0.07520    1.000
    C36      C        0.33570    0.90300    0.02860    1.000
    O5       O        0.57570    0.35290    0.31900    1.000
    N9       N        0.49420    0.60540    0.08660    1.000
    N10      N        0.43920    0.66730    0.98270    1.000
    C37      C        0.54150    0.50750    0.16830    1.000
    H25      H        0.57330    0.50770    0.11360    1.000
    C38      C        0.49470    0.55480    0.16950    1.000
    C39      C        0.42050    0.61090    0.05580    1.000
    H26      H        0.36270    0.57810    0.08360    1.000
    C40      C        0.53190    0.70280    0.96420    1.000
    C41      C        0.58790    0.76640    0.89580    1.000
    H27      H        0.56530    0.79240    0.85270    1.000
    C42      C        0.67920    0.78930    0.89470    1.000
    H28      H        0.71800    0.83010    0.84840    1.000
    C43      C        0.71470    0.75280    0.96130    1.000
    H29      H        0.77660    0.77110    0.95920    1.000
    C44      C        0.65960    0.69020    0.03020    1.000
    H30      H        0.68310    0.66660    0.07520    1.000
    C45      C        0.56730    0.66430    0.02860    1.000
    O6       O        0.77720    0.42430    0.31900    1.000
    N11      N        0.11120    0.50580    0.08660    1.000
    N12      N        0.22810    0.56080    0.98270    1.000
    C46      C        0.96600    0.45850    0.16830    1.000
    H31      H        0.93440    0.42670    0.11360    1.000
    C47      C        0.06010    0.50530    0.16950    1.000
    C48      C        0.19040    0.57950    0.05580    1.000
    H32      H        0.21540    0.63730    0.08360    1.000
    C49      C        0.17090    0.46810    0.96420    1.000
    C50      C        0.17850    0.41210    0.89580    1.000
    H33      H        0.22710    0.43470    0.85270    1.000
    C51      C        0.11010    0.32080    0.89470    1.000
    H34      H        0.11210    0.28200    0.84840    1.000
    C52      C        0.03810    0.28530    0.96130    1.000
    H35      H        0.99450    0.22340    0.95920    1.000
    C53      C        0.03060    0.34040    0.03020    1.000
    H36      H        0.98350    0.31690    0.07520    1.000
    C54      C        0.09700    0.43270    0.02860    1.000
    O7       O        0.22280    0.64710    0.81900    1.000
    N13      N        0.88880    0.39460    0.58660    1.000
    N14      N        0.77190    0.33270    0.48270    1.000
    C55      C        0.03400    0.49250    0.66830    1.000
    H37      H        0.06560    0.49230    0.61360    1.000
    C56      C        0.93990    0.44520    0.66950    1.000
    C57      C        0.80960    0.38910    0.55580    1.000
    H38      H        0.78460    0.42190    0.58360    1.000
    C58      C        0.82910    0.29720    0.46420    1.000
    C59      C        0.82150    0.23360    0.39580    1.000
    H39      H        0.77290    0.20760    0.35270    1.000
    C60      C        0.88990    0.21070    0.39470    1.000
    H40      H        0.88790    0.16990    0.34840    1.000
    C61      C        0.96190    0.24720    0.46130    1.000
    H41      H        0.00550    0.22890    0.45920    1.000
    C62      C        0.96940    0.30980    0.53020    1.000
    H42      H        0.01650    0.33340    0.57520    1.000
    C63      C        0.90300    0.33570    0.52860    1.000
    O8       O        0.35290    0.57570    0.81900    1.000
    N15      N        0.60540    0.49420    0.58660    1.000
    N16      N        0.66730    0.43920    0.48270    1.000
    C64      C        0.50750    0.54150    0.66830    1.000
    H43      H        0.50770    0.57330    0.61360    1.000
    C65      C        0.55480    0.49470    0.66950    1.000
    C66      C        0.61090    0.42050    0.55580    1.000
    H44      H        0.57810    0.36270    0.58360    1.000
    C67      C        0.70280    0.53190    0.46420    1.000
    C68      C        0.76640    0.58790    0.39580    1.000
    H45      H        0.79240    0.56530    0.35270    1.000
    C69      C        0.78930    0.67920    0.39470    1.000
    H46      H        0.83010    0.71800    0.34840    1.000
    C70      C        0.75280    0.71470    0.46130    1.000
    H47      H        0.77110    0.77660    0.45920    1.000
    C71      C        0.69020    0.65960    0.53020    1.000
    H48      H        0.66660    0.68310    0.57520    1.000
    C72      C        0.66430    0.56730    0.52860    1.000
    O9       O        0.42430    0.77720    0.81900    1.000
    N17      N        0.50580    0.11120    0.58660    1.000
    N18      N        0.56080    0.22810    0.48270    1.000
    C73      C        0.45850    0.96600    0.66830    1.000
    H49      H        0.42670    0.93440    0.61360    1.000
    C74      C        0.50530    0.06010    0.66950    1.000
    C75      C        0.57950    0.19040    0.55580    1.000
    H50      H        0.63730    0.21540    0.58360    1.000
    C76      C        0.46810    0.17090    0.46420    1.000
    C77      C        0.41210    0.17850    0.39580    1.000
    H51      H        0.43470    0.22710    0.35270    1.000
    C78      C        0.32080    0.11010    0.39470    1.000
    H52      H        0.28200    0.11210    0.34840    1.000
    C79      C        0.28530    0.03810    0.46130    1.000
    H53      H        0.22340    0.99450    0.45920    1.000
    C80      C        0.34040    0.03060    0.53020    1.000
    H54      H        0.31690    0.98350    0.57520    1.000
    C81      C        0.43270    0.09700    0.52860    1.000
    O10      O        0.35290    0.77720    0.68100    1.000
    N19      N        0.60540    0.11120    0.91340    1.000
    N20      N        0.66730    0.22810    0.01730    1.000
    C82      C        0.50750    0.96600    0.83170    1.000
    H55      H        0.50770    0.93440    0.88640    1.000
    C83      C        0.55480    0.06010    0.83050    1.000
    C84      C        0.61090    0.19040    0.94420    1.000
    H56      H        0.57810    0.21540    0.91640    1.000
    C85      C        0.70280    0.17090    0.03580    1.000
    C86      C        0.76640    0.17850    0.10420    1.000
    H57      H        0.79240    0.22710    0.14730    1.000
    C87      C        0.78930    0.11010    0.10530    1.000
    H58      H        0.83010    0.11210    0.15160    1.000
    C88      C        0.75280    0.03810    0.03870    1.000
    H59      H        0.77110    0.99450    0.04080    1.000
    C89      C        0.69020    0.03060    0.96980    1.000
    H60      H        0.66660    0.98350    0.92480    1.000
    C90      C        0.66430    0.09700    0.97140    1.000
    O11      O        0.42430    0.64710    0.68100    1.000
    N21      N        0.50580    0.39460    0.91340    1.000
    N22      N        0.56080    0.33270    0.01730    1.000
    C91      C        0.45850    0.49250    0.83170    1.000
    H61      H        0.42670    0.49230    0.88640    1.000
    C92      C        0.50530    0.44520    0.83050    1.000
    C93      C        0.57950    0.38910    0.94420    1.000
    H62      H        0.63730    0.42190    0.91640    1.000
    C94      C        0.46810    0.29720    0.03580    1.000
    C95      C        0.41210    0.23360    0.10420    1.000
    H63      H        0.43470    0.20760    0.14730    1.000
    C96      C        0.32080    0.21070    0.10530    1.000
    H64      H        0.28200    0.16990    0.15160    1.000
    C97      C        0.28530    0.24720    0.03870    1.000
    H65      H        0.22340    0.22890    0.04080    1.000
    C98      C        0.34040    0.30980    0.96980    1.000
    H66      H        0.31690    0.33340    0.92480    1.000
    C99      C        0.43270    0.33570    0.97140    1.000
    O12      O        0.22280    0.57570    0.68100    1.000
    N23      N        0.88880    0.49420    0.91340    1.000
    N24      N        0.77190    0.43920    0.01730    1.000
    C100     C        0.03400    0.54150    0.83170    1.000
    H67      H        0.06560    0.57330    0.88640    1.000
    C101     C        0.93990    0.49470    0.83050    1.000
    C102     C        0.80960    0.42050    0.94420    1.000
    H68      H        0.78460    0.36270    0.91640    1.000
    C103     C        0.82910    0.53190    0.03580    1.000
    C104     C        0.82150    0.58790    0.10420    1.000
    H69      H        0.77290    0.56530    0.14730    1.000
    C105     C        0.88990    0.67920    0.10530    1.000
    H70      H        0.88790    0.71800    0.15160    1.000
    C106     C        0.96190    0.71470    0.03870    1.000
    H71      H        0.00550    0.77660    0.04080    1.000
    C107     C        0.96940    0.65960    0.96980    1.000
    H72      H        0.01650    0.68310    0.92480    1.000
    C108     C        0.90300    0.56730    0.97140    1.000
    Ni1      Ni       0.66667    0.33333    0.10260    1.000
    Ni2      Ni       0.66667    0.33333    0.39740    1.000
    Ni3      Ni       0.33333    0.66667    0.89740    1.000
    Ni4      Ni       0.33333    0.66667    0.60260    1.000
    C109     C        0.81530    0.40765    0.25000    1.000
    C110     C        0.91870    0.45935    0.25000    1.000
    C111     C        0.10770    0.55385    0.25000    1.000
    H73      H        0.17140    0.58570    0.25000    1.000
    C112     C        0.59235    0.40765    0.25000    1.000
    C113     C        0.54065    0.45935    0.25000    1.000
    C114     C        0.44615    0.55385    0.25000    1.000
    H74      H        0.41430    0.58570    0.25000    1.000
    C115     C        0.59235    0.18470    0.25000    1.000
    C116     C        0.54065    0.08130    0.25000    1.000
    C117     C        0.44615    0.89230    0.25000    1.000
    H75      H        0.41430    0.82860    0.25000    1.000
    C118     C        0.18470    0.59235    0.75000    1.000
    C119     C        0.08130    0.54065    0.75000    1.000
    C120     C        0.89230    0.44615    0.75000    1.000
    H76      H        0.82860    0.41430    0.75000    1.000
    C121     C        0.40765    0.59235    0.75000    1.000
    C122     C        0.45935    0.54065    0.75000    1.000
    C123     C        0.55385    0.44615    0.75000    1.000
    H77      H        0.58570    0.41430    0.75000    1.000
    C124     C        0.40765    0.81530    0.75000    1.000
    C125     C        0.45935    0.91870    0.75000    1.000
    C126     C        0.55385    0.10770    0.75000    1.000
    H78      H        0.58570    0.17140    0.75000    1.000
