data_functionalizedCrystal
_audit_creation_method	'EQeq! by Chris Wilmer'
_symmetry_space_group_name_H-M	'P1'
_symmetry_Int_Tables_number	1
_symmetry_cell_setting	triclinic
loop_
_symmetry_equiv_pos_as_xyz
  x,y,z
_cell_length_a	13.8
_cell_length_b	13.8
_cell_length_c	14.825
_cell_angle_alpha	90
_cell_angle_beta	90
_cell_angle_gamma	120
loop_
_atom_site_label
_atom_site_type_symbol
_atom_site_fract_x
_atom_site_fract_y
_atom_site_fract_z
_atom_site_charge
Mof_Al	Al	0.9959	0.225	0.1024	6.032
Mof_P 	P 	0.995	0.223	0.889	1.781
Mof_O 	O 	0.9947	0.2536	0.9871	-1.986
Mof_O 	O 	0.8838	0.123	0.863	-1.923
Mof_O 	O 	0.0862	0.194	0.8717	-2.042
Mof_O 	O 	0.0127	0.3201	0.8297	-1.949
Mof_Al	Al	0.66257	0.55833	0.43573	6.222
Mof_P 	P 	0.66167	0.55633	0.22233	1.767
Mof_O 	O 	0.66137	0.58693	0.32043	-2.052
Mof_O 	O 	0.55047	0.45633	0.19633	-1.961
Mof_O 	O 	0.75287	0.52733	0.20503	-2.035
Mof_O 	O 	0.67937	0.65343	0.16303	-1.934
Mof_Al	Al	0.32923	0.89167	0.76907	6.213
Mof_P 	P 	0.32833	0.88967	0.55567	1.767
Mof_O 	O 	0.32803	0.92027	0.65377	-2.052
Mof_O 	O 	0.21713	0.78967	0.52967	-1.96
Mof_O 	O 	0.41953	0.86067	0.53837	-2.033
Mof_O 	O 	0.34603	0.98677	0.49637	-1.932
Mof_Al	Al	0.775	0.7709	0.1024	6.218
Mof_P 	P 	0.777	0.772	0.889	1.752
Mof_O 	O 	0.7464	0.7411	0.9871	-2.048
Mof_O 	O 	0.877	0.7608	0.863	-1.911
Mof_O 	O 	0.806	0.8922	0.8717	-2.011
Mof_O 	O 	0.6799	0.6926	0.8297	-1.931
Mof_Al	Al	0.44167	0.10423	0.43573	6.219
Mof_P 	P 	0.44367	0.10533	0.22233	1.762
Mof_O 	O 	0.41307	0.07443	0.32043	-2.052
Mof_O 	O 	0.54367	0.09413	0.19633	-1.963
Mof_O 	O 	0.47267	0.22553	0.20503	-2.033
Mof_O 	O 	0.34657	0.02593	0.16303	-1.918
Mof_Al	Al	0.10833	0.43757	0.76907	6.216
Mof_P 	P 	0.11033	0.43867	0.55567	1.767
Mof_O 	O 	0.07973	0.40777	0.65377	-2.052
Mof_O 	O 	0.21033	0.42747	0.52967	-1.961
Mof_O 	O 	0.13933	0.55887	0.53837	-2.033
Mof_O 	O 	0.01323	0.35927	0.49637	-1.933
Mof_Al	Al	0.2291	0.0041	0.1024	6.12
Mof_P 	P 	0.228	0.005	0.889	1.781
Mof_O 	O 	0.2589	0.0053	0.9871	-2.021
Mof_O 	O 	0.2392	0.1162	0.863	-1.958
Mof_O 	O 	0.1078	0.9138	0.8717	-2.015
Mof_O 	O 	0.3074	0.9873	0.8297	-1.948
Mof_Al	Al	0.89577	0.33743	0.43573	6.219
Mof_P 	P 	0.89467	0.33833	0.22233	1.758
Mof_O 	O 	0.92557	0.33863	0.32043	-2.051
Mof_O 	O 	0.90587	0.44953	0.19633	-1.963
Mof_O 	O 	0.77447	0.24713	0.20503	-2.032
Mof_O 	O 	0.97407	0.32063	0.16303	-1.903
Mof_Al	Al	0.56243	0.67077	0.76907	6.215
Mof_P 	P 	0.56133	0.67167	0.55567	1.768
Mof_O 	O 	0.59223	0.67197	0.65377	-2.051
Mof_O 	O 	0.57253	0.78287	0.52967	-1.961
Mof_O 	O 	0.44113	0.58047	0.53837	-2.034
Mof_O 	O 	0.64073	0.65397	0.49637	-1.935
Mof_Al	Al	0.0041	0.775	0.8976	6.032
Mof_P 	P 	0.005	0.777	0.111	1.781
Mof_O 	O 	0.0053	0.7464	0.0129	-1.986
Mof_O 	O 	0.1162	0.877	0.137	-1.923
Mof_O 	O 	0.9138	0.806	0.1283	-2.042
Mof_O 	O 	0.9873	0.6799	0.1703	-1.949
Mof_Al	Al	0.67077	0.10833	0.23093	6.213
Mof_P 	P 	0.67167	0.11033	0.44433	1.767
Mof_O 	O 	0.67197	0.07973	0.34623	-2.052
Mof_O 	O 	0.78287	0.21033	0.47033	-1.96
Mof_O 	O 	0.58047	0.13933	0.46163	-2.033
Mof_O 	O 	0.65397	0.01323	0.50363	-1.932
Mof_Al	Al	0.33743	0.44167	0.56427	6.222
Mof_P 	P 	0.33833	0.44367	0.77767	1.767
Mof_O 	O 	0.33863	0.41307	0.67957	-2.052
Mof_O 	O 	0.44953	0.54367	0.80367	-1.961
Mof_O 	O 	0.24713	0.47267	0.79497	-2.035
Mof_O 	O 	0.32063	0.34657	0.83697	-1.934
Mof_Al	Al	0.225	0.2291	0.8976	6.218
Mof_P 	P 	0.223	0.228	0.111	1.752
Mof_O 	O 	0.2536	0.2589	0.0129	-2.048
Mof_O 	O 	0.123	0.2392	0.137	-1.911
Mof_O 	O 	0.194	0.1078	0.1283	-2.011
Mof_O 	O 	0.3201	0.3074	0.1703	-1.931
Mof_Al	Al	0.89167	0.56243	0.23093	6.216
Mof_P 	P 	0.88967	0.56133	0.44433	1.767
Mof_O 	O 	0.92027	0.59223	0.34623	-2.052
Mof_O 	O 	0.78967	0.57253	0.47033	-1.961
Mof_O 	O 	0.86067	0.44113	0.46163	-2.033
Mof_O 	O 	0.98677	0.64073	0.50363	-1.933
Mof_Al	Al	0.55833	0.89577	0.56427	6.219
Mof_P 	P 	0.55633	0.89467	0.77767	1.762
Mof_O 	O 	0.58693	0.92557	0.67957	-2.052
Mof_O 	O 	0.45633	0.90587	0.80367	-1.963
Mof_O 	O 	0.52733	0.77447	0.79497	-2.033
Mof_O 	O 	0.65343	0.97407	0.83697	-1.918
Mof_Al	Al	0.7709	0.9959	0.8976	6.12
Mof_P 	P 	0.772	0.995	0.111	1.781
Mof_O 	O 	0.7411	0.9947	0.0129	-2.021
Mof_O 	O 	0.7608	0.8838	0.137	-1.958
Mof_O 	O 	0.8922	0.0862	0.1283	-2.015
Mof_O 	O 	0.6926	0.0127	0.1703	-1.948
Mof_Al	Al	0.43757	0.32923	0.23093	6.215
Mof_P 	P 	0.43867	0.32833	0.44433	1.768
Mof_O 	O 	0.40777	0.32803	0.34623	-2.051
Mof_O 	O 	0.42747	0.21713	0.47033	-1.961
Mof_O 	O 	0.55887	0.41953	0.46163	-2.034
Mof_O 	O 	0.35927	0.34603	0.50363	-1.935
Mof_Al	Al	0.10423	0.66257	0.56427	6.219
Mof_P 	P 	0.10533	0.66167	0.77767	1.758
Mof_O 	O 	0.07443	0.66137	0.67957	-2.051
Mof_O 	O 	0.09413	0.55047	0.80367	-1.963
Mof_O 	O 	0.22553	0.75287	0.79497	-2.032
Mof_O 	O 	0.02593	0.67937	0.83697	-1.903
_end
