# CIF file generated by openbabel 3.1.0, see https://openbabel.org
data_I
_chemical_name_common 'image0'
_cell_length_a 31.065
_cell_length_b 31.065
_cell_length_c 8.0003
_cell_angle_alpha 90
_cell_angle_beta 90
_cell_angle_gamma 90
_space_group_name_H-M_alt 'P 1'
_space_group_name_Hall 'P 1'
loop_
    _symmetry_equiv_pos_as_xyz
    x,y,z
loop_
    _atom_site_label
    _atom_site_type_symbol
    _atom_site_fract_x
    _atom_site_fract_y
    _atom_site_fract_z
    _atom_site_occupancy
    Ag1      Ag       0.18630    0.30562    0.08931    1.000
    N1       N        0.98963    0.38574    0.06010    1.000
    N2       N        0.06745    0.25558    0.83460    1.000
    N3       N        0.10268    0.23472    0.76790    1.000
    N4       N        0.11614    0.30411    0.77050    1.000
    N5       N        0.25021    0.22621    0.51280    1.000
    N6       N        0.17085    0.35119    0.84950    1.000
    C1       C        0.06168    0.36492    0.99500    1.000
    H1       H        0.09100    0.37050    0.00340    1.000
    C2       C        0.03202    0.39243    0.06730    1.000
    H2       H        0.04210    0.41660    0.12350    1.000
    C3       C        0.97605    0.35063    0.97810    1.000
    H3       H        0.94660    0.34560    0.97200    1.000
    C4       C        0.00299    0.32187    0.90340    1.000
    H4       H        0.99200    0.29780    0.84880    1.000
    C5       C        0.04714    0.32899    0.91010    1.000
    C6       C        0.07610    0.29673    0.83680    1.000
    C7       C        0.13146    0.26412    0.73050    1.000
    C8       C        0.17311    0.25339    0.65600    1.000
    C9       C        0.19250    0.21533    0.70430    1.000
    H5       H        0.17990    0.19820    0.78620    1.000
    C10      C        0.23019    0.20310    0.63120    1.000
    H6       H        0.24270    0.17730    0.66520    1.000
    C11      C        0.23188    0.26336    0.46860    1.000
    H7       H        0.24550    0.28010    0.38820    1.000
    C12      C        0.19360    0.27819    0.53660    1.000
    H8       H        0.18190    0.30430    0.50240    1.000
    C13      C        0.13774    0.34479    0.75000    1.000
    C14      C        0.19088    0.38904    0.83480    1.000
    H9       H        0.21420    0.39460    0.90410    1.000
    C15      C        0.17865    0.42007    0.72230    1.000
    H10      H        0.19350    0.44600    0.71570    1.000
    C16      C        0.14435    0.41228    0.62020    1.000
    H11      H        0.13560    0.43280    0.54280    1.000
    C17      C        0.12285    0.37358    0.63330    1.000
    H12      H        0.09930    0.36730    0.56590    1.000
    Ag2      Ag       0.68630    0.80562    0.58931    1.000
    N7       N        0.48963    0.88574    0.56010    1.000
    N8       N        0.56745    0.75558    0.33460    1.000
    N9       N        0.60268    0.73472    0.26790    1.000
    N10      N        0.61614    0.80411    0.27050    1.000
    N11      N        0.75021    0.72621    0.01280    1.000
    N12      N        0.67085    0.85119    0.34950    1.000
    C18      C        0.56168    0.86492    0.49500    1.000
    H13      H        0.59100    0.87050    0.50340    1.000
    C19      C        0.53202    0.89243    0.56730    1.000
    H14      H        0.54210    0.91660    0.62350    1.000
    C20      C        0.47605    0.85063    0.47810    1.000
    H15      H        0.44660    0.84560    0.47200    1.000
    C21      C        0.50299    0.82187    0.40340    1.000
    H16      H        0.49200    0.79780    0.34880    1.000
    C22      C        0.54714    0.82899    0.41010    1.000
    C23      C        0.57610    0.79673    0.33680    1.000
    C24      C        0.63146    0.76412    0.23050    1.000
    C25      C        0.67311    0.75339    0.15600    1.000
    C26      C        0.69250    0.71533    0.20430    1.000
    H17      H        0.67990    0.69820    0.28620    1.000
    C27      C        0.73019    0.70310    0.13120    1.000
    H18      H        0.74270    0.67730    0.16520    1.000
    C28      C        0.73188    0.76336    0.96860    1.000
    H19      H        0.74550    0.78010    0.88820    1.000
    C29      C        0.69360    0.77819    0.03660    1.000
    H20      H        0.68190    0.80430    0.00240    1.000
    C30      C        0.63774    0.84479    0.25000    1.000
    C31      C        0.69088    0.88904    0.33480    1.000
    H21      H        0.71420    0.89460    0.40410    1.000
    C32      C        0.67865    0.92007    0.22230    1.000
    H22      H        0.69350    0.94600    0.21570    1.000
    C33      C        0.64435    0.91228    0.12020    1.000
    H23      H        0.63560    0.93280    0.04280    1.000
    C34      C        0.62285    0.87358    0.13330    1.000
    H24      H        0.59930    0.86730    0.06590    1.000
    Ag3      Ag       0.31370    0.69438    0.58931    1.000
    N13      N        0.51037    0.61426    0.56010    1.000
    N14      N        0.43255    0.74442    0.33460    1.000
    N15      N        0.39732    0.76528    0.26790    1.000
    N16      N        0.38386    0.69589    0.27050    1.000
    N17      N        0.24979    0.77379    0.01280    1.000
    N18      N        0.32915    0.64881    0.34950    1.000
    C35      C        0.43832    0.63508    0.49500    1.000
    H25      H        0.40900    0.62950    0.50340    1.000
    C36      C        0.46798    0.60757    0.56730    1.000
    H26      H        0.45790    0.58340    0.62350    1.000
    C37      C        0.52395    0.64937    0.47810    1.000
    H27      H        0.55340    0.65440    0.47200    1.000
    C38      C        0.49701    0.67813    0.40340    1.000
    H28      H        0.50800    0.70220    0.34880    1.000
    C39      C        0.45286    0.67101    0.41010    1.000
    C40      C        0.42390    0.70327    0.33680    1.000
    C41      C        0.36854    0.73588    0.23050    1.000
    C42      C        0.32689    0.74661    0.15600    1.000
    C43      C        0.30750    0.78467    0.20430    1.000
    H29      H        0.32010    0.80180    0.28620    1.000
    C44      C        0.26981    0.79690    0.13120    1.000
    H30      H        0.25730    0.82270    0.16520    1.000
    C45      C        0.26812    0.73664    0.96860    1.000
    H31      H        0.25450    0.71990    0.88820    1.000
    C46      C        0.30640    0.72181    0.03660    1.000
    H32      H        0.31810    0.69570    0.00240    1.000
    C47      C        0.36226    0.65521    0.25000    1.000
    C48      C        0.30912    0.61096    0.33480    1.000
    H33      H        0.28580    0.60540    0.40410    1.000
    C49      C        0.32135    0.57993    0.22230    1.000
    H34      H        0.30650    0.55400    0.21570    1.000
    C50      C        0.35565    0.58772    0.12020    1.000
    H35      H        0.36440    0.56720    0.04280    1.000
    C51      C        0.37715    0.62642    0.13330    1.000
    H36      H        0.40070    0.63270    0.06590    1.000
    Ag4      Ag       0.81370    0.19438    0.08931    1.000
    N19      N        0.01037    0.11426    0.06010    1.000
    N20      N        0.93255    0.24442    0.83460    1.000
    N21      N        0.89732    0.26528    0.76790    1.000
    N22      N        0.88386    0.19589    0.77050    1.000
    N23      N        0.74979    0.27379    0.51280    1.000
    N24      N        0.82915    0.14881    0.84950    1.000
    C52      C        0.93832    0.13508    0.99500    1.000
    H37      H        0.90900    0.12950    0.00340    1.000
    C53      C        0.96798    0.10757    0.06730    1.000
    H38      H        0.95790    0.08340    0.12350    1.000
    C54      C        0.02395    0.14937    0.97810    1.000
    H39      H        0.05340    0.15440    0.97200    1.000
    C55      C        0.99701    0.17813    0.90340    1.000
    H40      H        0.00800    0.20220    0.84880    1.000
    C56      C        0.95286    0.17101    0.91010    1.000
    C57      C        0.92390    0.20327    0.83680    1.000
    C58      C        0.86854    0.23588    0.73050    1.000
    C59      C        0.82689    0.24661    0.65600    1.000
    C60      C        0.80750    0.28467    0.70430    1.000
    H41      H        0.82010    0.30180    0.78620    1.000
    C61      C        0.76981    0.29690    0.63120    1.000
    H42      H        0.75730    0.32270    0.66520    1.000
    C62      C        0.76812    0.23664    0.46860    1.000
    H43      H        0.75450    0.21990    0.38820    1.000
    C63      C        0.80640    0.22181    0.53660    1.000
    H44      H        0.81810    0.19570    0.50240    1.000
    C64      C        0.86226    0.15521    0.75000    1.000
    C65      C        0.80912    0.11096    0.83480    1.000
    H45      H        0.78580    0.10540    0.90410    1.000
    C66      C        0.82135    0.07993    0.72230    1.000
    H46      H        0.80650    0.05400    0.71570    1.000
    C67      C        0.85565    0.08772    0.62020    1.000
    H47      H        0.86440    0.06720    0.54280    1.000
    C68      C        0.87715    0.12642    0.63330    1.000
    H48      H        0.90070    0.13270    0.56590    1.000
    Ag5      Ag       0.44438    0.43630    0.33931    1.000
    N25      N        0.36426    0.23963    0.31010    1.000
    N26      N        0.49442    0.31745    0.08460    1.000
    N27      N        0.51528    0.35268    0.01790    1.000
    N28      N        0.44589    0.36614    0.02050    1.000
    N29      N        0.52379    0.50021    0.76280    1.000
    N30      N        0.39881    0.42085    0.09950    1.000
    C69      C        0.38508    0.31168    0.24500    1.000
    H49      H        0.37950    0.34100    0.25340    1.000
    C70      C        0.35757    0.28202    0.31730    1.000
    H50      H        0.33340    0.29210    0.37350    1.000
    C71      C        0.39937    0.22605    0.22810    1.000
    H51      H        0.40440    0.19660    0.22200    1.000
    C72      C        0.42813    0.25299    0.15340    1.000
    H52      H        0.45220    0.24200    0.09880    1.000
    C73      C        0.42101    0.29714    0.16010    1.000
    C74      C        0.45327    0.32610    0.08680    1.000
    C75      C        0.48588    0.38146    0.98050    1.000
    C76      C        0.49661    0.42311    0.90600    1.000
    C77      C        0.53467    0.44250    0.95430    1.000
    H53      H        0.55180    0.42990    0.03620    1.000
    C78      C        0.54690    0.48019    0.88120    1.000
    H54      H        0.57270    0.49270    0.91520    1.000
    C79      C        0.48664    0.48188    0.71860    1.000
    H55      H        0.46990    0.49550    0.63820    1.000
    C80      C        0.47181    0.44360    0.78660    1.000
    H56      H        0.44570    0.43190    0.75240    1.000
    C81      C        0.40521    0.38774    0.00000    1.000
    C82      C        0.36096    0.44088    0.08480    1.000
    H57      H        0.35540    0.46420    0.15410    1.000
    C83      C        0.32993    0.42865    0.97230    1.000
    H58      H        0.30400    0.44350    0.96570    1.000
    C84      C        0.33772    0.39435    0.87020    1.000
    H59      H        0.31720    0.38560    0.79280    1.000
    C85      C        0.37642    0.37285    0.88330    1.000
    H60      H        0.38270    0.34930    0.81590    1.000
    Ag6      Ag       0.94438    0.93630    0.83931    1.000
    N31      N        0.86426    0.73963    0.81010    1.000
    N32      N        0.99442    0.81745    0.58460    1.000
    N33      N        0.01528    0.85268    0.51790    1.000
    N34      N        0.94589    0.86614    0.52050    1.000
    N35      N        0.02379    0.00021    0.26280    1.000
    N36      N        0.89881    0.92085    0.59950    1.000
    C86      C        0.88508    0.81168    0.74500    1.000
    H61      H        0.87950    0.84100    0.75340    1.000
    C87      C        0.85757    0.78202    0.81730    1.000
    H62      H        0.83340    0.79210    0.87350    1.000
    C88      C        0.89937    0.72605    0.72810    1.000
    H63      H        0.90440    0.69660    0.72200    1.000
    C89      C        0.92813    0.75299    0.65340    1.000
    H64      H        0.95220    0.74200    0.59880    1.000
    C90      C        0.92101    0.79714    0.66010    1.000
    C91      C        0.95327    0.82610    0.58680    1.000
    C92      C        0.98588    0.88146    0.48050    1.000
    C93      C        0.99661    0.92311    0.40600    1.000
    C94      C        0.03467    0.94250    0.45430    1.000
    H65      H        0.05180    0.92990    0.53620    1.000
    C95      C        0.04690    0.98019    0.38120    1.000
    H66      H        0.07270    0.99270    0.41520    1.000
    C96      C        0.98664    0.98188    0.21860    1.000
    H67      H        0.96990    0.99550    0.13820    1.000
    C97      C        0.97181    0.94360    0.28660    1.000
    H68      H        0.94570    0.93190    0.25240    1.000
    C98      C        0.90521    0.88774    0.50000    1.000
    C99      C        0.86096    0.94088    0.58480    1.000
    H69      H        0.85540    0.96420    0.65410    1.000
    C100     C        0.82993    0.92865    0.47230    1.000
    H70      H        0.80400    0.94350    0.46570    1.000
    C101     C        0.83772    0.89435    0.37020    1.000
    H71      H        0.81720    0.88560    0.29280    1.000
    C102     C        0.87642    0.87285    0.38330    1.000
    H72      H        0.88270    0.84930    0.31590    1.000
    Ag7      Ag       0.05562    0.56370    0.83931    1.000
    N37      N        0.13574    0.76037    0.81010    1.000
    N38      N        0.00558    0.68255    0.58460    1.000
    N39      N        0.98472    0.64732    0.51790    1.000
    N40      N        0.05411    0.63386    0.52050    1.000
    N41      N        0.97621    0.49979    0.26280    1.000
    N42      N        0.10119    0.57915    0.59950    1.000
    C103     C        0.11492    0.68832    0.74500    1.000
    H73      H        0.12050    0.65900    0.75340    1.000
    C104     C        0.14243    0.71798    0.81730    1.000
    H74      H        0.16660    0.70790    0.87350    1.000
    C105     C        0.10063    0.77395    0.72810    1.000
    H75      H        0.09560    0.80340    0.72200    1.000
    C106     C        0.07187    0.74701    0.65340    1.000
    H76      H        0.04780    0.75800    0.59880    1.000
    C107     C        0.07899    0.70286    0.66010    1.000
    C108     C        0.04673    0.67390    0.58680    1.000
    C109     C        0.01412    0.61854    0.48050    1.000
    C110     C        0.00339    0.57689    0.40600    1.000
    C111     C        0.96533    0.55750    0.45430    1.000
    H77      H        0.94820    0.57010    0.53620    1.000
    C112     C        0.95310    0.51981    0.38120    1.000
    H78      H        0.92730    0.50730    0.41520    1.000
    C113     C        0.01336    0.51812    0.21860    1.000
    H79      H        0.03010    0.50450    0.13820    1.000
    C114     C        0.02819    0.55640    0.28660    1.000
    H80      H        0.05430    0.56810    0.25240    1.000
    C115     C        0.09479    0.61226    0.50000    1.000
    C116     C        0.13904    0.55912    0.58480    1.000
    H81      H        0.14460    0.53580    0.65410    1.000
    C117     C        0.17007    0.57135    0.47230    1.000
    H82      H        0.19600    0.55650    0.46570    1.000
    C118     C        0.16228    0.60565    0.37020    1.000
    H83      H        0.18280    0.61440    0.29280    1.000
    C119     C        0.12358    0.62715    0.38330    1.000
    H84      H        0.11730    0.65070    0.31590    1.000
    Ag8      Ag       0.55562    0.06370    0.33931    1.000
    N43      N        0.63574    0.26037    0.31010    1.000
    N44      N        0.50558    0.18255    0.08460    1.000
    N45      N        0.48472    0.14732    0.01790    1.000
    N46      N        0.55411    0.13386    0.02050    1.000
    N47      N        0.47621    0.99979    0.76280    1.000
    N48      N        0.60119    0.07915    0.09950    1.000
    C120     C        0.61492    0.18832    0.24500    1.000
    H85      H        0.62050    0.15900    0.25340    1.000
    C121     C        0.64243    0.21798    0.31730    1.000
    H86      H        0.66660    0.20790    0.37350    1.000
    C122     C        0.60063    0.27395    0.22810    1.000
    H87      H        0.59560    0.30340    0.22200    1.000
    C123     C        0.57187    0.24701    0.15340    1.000
    H88      H        0.54780    0.25800    0.09880    1.000
    C124     C        0.57899    0.20286    0.16010    1.000
    C125     C        0.54673    0.17390    0.08680    1.000
    C126     C        0.51412    0.11854    0.98050    1.000
    C127     C        0.50339    0.07689    0.90600    1.000
    C128     C        0.46533    0.05750    0.95430    1.000
    H89      H        0.44820    0.07010    0.03620    1.000
    C129     C        0.45310    0.01981    0.88120    1.000
    H90      H        0.42730    0.00730    0.91520    1.000
    C130     C        0.51336    0.01812    0.71860    1.000
    H91      H        0.53010    0.00450    0.63820    1.000
    C131     C        0.52819    0.05640    0.78660    1.000
    H92      H        0.55430    0.06810    0.75240    1.000
    C132     C        0.59479    0.11226    0.00000    1.000
    C133     C        0.63904    0.05912    0.08480    1.000
    H93      H        0.64460    0.03580    0.15410    1.000
    C134     C        0.67007    0.07135    0.97230    1.000
    H94      H        0.69600    0.05650    0.96570    1.000
    C135     C        0.66228    0.10565    0.87020    1.000
    H95      H        0.68280    0.11440    0.79280    1.000
    C136     C        0.62358    0.12715    0.88330    1.000
    H96      H        0.61730    0.15070    0.81590    1.000
    Ag9      Ag       0.81370    0.69438    0.91069    1.000
    N49      N        0.01037    0.61426    0.93990    1.000
    N50      N        0.93255    0.74442    0.16540    1.000
    N51      N        0.89732    0.76528    0.23210    1.000
    N52      N        0.88386    0.69589    0.22950    1.000
    N53      N        0.74979    0.77379    0.48720    1.000
    N54      N        0.82915    0.64881    0.15050    1.000
    C137     C        0.93832    0.63508    0.00500    1.000
    H97      H        0.90900    0.62950    0.99660    1.000
    C138     C        0.96798    0.60757    0.93270    1.000
    H98      H        0.95790    0.58340    0.87650    1.000
    C139     C        0.02395    0.64937    0.02190    1.000
    H99      H        0.05340    0.65440    0.02800    1.000
    C140     C        0.99701    0.67813    0.09660    1.000
    H100     H        0.00800    0.70220    0.15120    1.000
    C141     C        0.95286    0.67101    0.08990    1.000
    C142     C        0.92390    0.70327    0.16320    1.000
    C143     C        0.86854    0.73588    0.26950    1.000
    C144     C        0.82689    0.74661    0.34400    1.000
    C145     C        0.80750    0.78467    0.29570    1.000
    H101     H        0.82010    0.80180    0.21380    1.000
    C146     C        0.76981    0.79690    0.36880    1.000
    H102     H        0.75730    0.82270    0.33480    1.000
    C147     C        0.76812    0.73664    0.53140    1.000
    H103     H        0.75450    0.71990    0.61180    1.000
    C148     C        0.80640    0.72181    0.46340    1.000
    H104     H        0.81810    0.69570    0.49760    1.000
    C149     C        0.86226    0.65521    0.25000    1.000
    C150     C        0.80912    0.61096    0.16520    1.000
    H105     H        0.78580    0.60540    0.09590    1.000
    C151     C        0.82135    0.57993    0.27770    1.000
    H106     H        0.80650    0.55400    0.28430    1.000
    C152     C        0.85565    0.58772    0.37980    1.000
    H107     H        0.86440    0.56720    0.45720    1.000
    C153     C        0.87715    0.62642    0.36670    1.000
    H108     H        0.90070    0.63270    0.43410    1.000
    Ag10     Ag       0.31370    0.19438    0.41069    1.000
    N55      N        0.51037    0.11426    0.43990    1.000
    N56      N        0.43255    0.24442    0.66540    1.000
    N57      N        0.39732    0.26528    0.73210    1.000
    N58      N        0.38386    0.19589    0.72950    1.000
    N59      N        0.24979    0.27379    0.98720    1.000
    N60      N        0.32915    0.14881    0.65050    1.000
    C154     C        0.43832    0.13508    0.50500    1.000
    H109     H        0.40900    0.12950    0.49660    1.000
    C155     C        0.46798    0.10757    0.43270    1.000
    H110     H        0.45790    0.08340    0.37650    1.000
    C156     C        0.52395    0.14937    0.52190    1.000
    H111     H        0.55340    0.15440    0.52800    1.000
    C157     C        0.49701    0.17813    0.59660    1.000
    H112     H        0.50800    0.20220    0.65120    1.000
    C158     C        0.45286    0.17101    0.58990    1.000
    C159     C        0.42390    0.20327    0.66320    1.000
    C160     C        0.36854    0.23588    0.76950    1.000
    C161     C        0.32689    0.24661    0.84400    1.000
    C162     C        0.30750    0.28467    0.79570    1.000
    H113     H        0.32010    0.30180    0.71380    1.000
    C163     C        0.26981    0.29690    0.86880    1.000
    H114     H        0.25730    0.32270    0.83480    1.000
    C164     C        0.26812    0.23664    0.03140    1.000
    H115     H        0.25450    0.21990    0.11180    1.000
    C165     C        0.30640    0.22181    0.96340    1.000
    H116     H        0.31810    0.19570    0.99760    1.000
    C166     C        0.36226    0.15521    0.75000    1.000
    C167     C        0.30912    0.11096    0.66520    1.000
    H117     H        0.28580    0.10540    0.59590    1.000
    C168     C        0.32135    0.07993    0.77770    1.000
    H118     H        0.30650    0.05400    0.78430    1.000
    C169     C        0.35565    0.08772    0.87980    1.000
    H119     H        0.36440    0.06720    0.95720    1.000
    C170     C        0.37715    0.12642    0.86670    1.000
    H120     H        0.40070    0.13270    0.93410    1.000
    Ag11     Ag       0.68630    0.30562    0.41069    1.000
    N61      N        0.48963    0.38574    0.43990    1.000
    N62      N        0.56745    0.25558    0.66540    1.000
    N63      N        0.60268    0.23472    0.73210    1.000
    N64      N        0.61614    0.30411    0.72950    1.000
    N65      N        0.75021    0.22621    0.98720    1.000
    N66      N        0.67085    0.35119    0.65050    1.000
    C171     C        0.56168    0.36492    0.50500    1.000
    H121     H        0.59100    0.37050    0.49660    1.000
    C172     C        0.53202    0.39243    0.43270    1.000
    H122     H        0.54210    0.41660    0.37650    1.000
    C173     C        0.47605    0.35063    0.52190    1.000
    H123     H        0.44660    0.34560    0.52800    1.000
    C174     C        0.50299    0.32187    0.59660    1.000
    H124     H        0.49200    0.29780    0.65120    1.000
    C175     C        0.54714    0.32899    0.58990    1.000
    C176     C        0.57610    0.29673    0.66320    1.000
    C177     C        0.63146    0.26412    0.76950    1.000
    C178     C        0.67311    0.25339    0.84400    1.000
    C179     C        0.69250    0.21533    0.79570    1.000
    H125     H        0.67990    0.19820    0.71380    1.000
    C180     C        0.73019    0.20310    0.86880    1.000
    H126     H        0.74270    0.17730    0.83480    1.000
    C181     C        0.73188    0.26336    0.03140    1.000
    H127     H        0.74550    0.28010    0.11180    1.000
    C182     C        0.69360    0.27819    0.96340    1.000
    H128     H        0.68190    0.30430    0.99760    1.000
    C183     C        0.63774    0.34479    0.75000    1.000
    C184     C        0.69088    0.38904    0.66520    1.000
    H129     H        0.71420    0.39460    0.59590    1.000
    C185     C        0.67865    0.42007    0.77770    1.000
    H130     H        0.69350    0.44600    0.78430    1.000
    C186     C        0.64435    0.41228    0.87980    1.000
    H131     H        0.63560    0.43280    0.95720    1.000
    C187     C        0.62285    0.37358    0.86670    1.000
    H132     H        0.59930    0.36730    0.93410    1.000
    Ag12     Ag       0.18630    0.80562    0.91069    1.000
    N67      N        0.98963    0.88574    0.93990    1.000
    N68      N        0.06745    0.75558    0.16540    1.000
    N69      N        0.10268    0.73472    0.23210    1.000
    N70      N        0.11614    0.80411    0.22950    1.000
    N71      N        0.25021    0.72621    0.48720    1.000
    N72      N        0.17085    0.85119    0.15050    1.000
    C188     C        0.06168    0.86492    0.00500    1.000
    H133     H        0.09100    0.87050    0.99660    1.000
    C189     C        0.03202    0.89243    0.93270    1.000
    H134     H        0.04210    0.91660    0.87650    1.000
    C190     C        0.97605    0.85063    0.02190    1.000
    H135     H        0.94660    0.84560    0.02800    1.000
    C191     C        0.00299    0.82187    0.09660    1.000
    H136     H        0.99200    0.79780    0.15120    1.000
    C192     C        0.04714    0.82899    0.08990    1.000
    C193     C        0.07610    0.79673    0.16320    1.000
    C194     C        0.13146    0.76412    0.26950    1.000
    C195     C        0.17311    0.75339    0.34400    1.000
    C196     C        0.19250    0.71533    0.29570    1.000
    H137     H        0.17990    0.69820    0.21380    1.000
    C197     C        0.23019    0.70310    0.36880    1.000
    H138     H        0.24270    0.67730    0.33480    1.000
    C198     C        0.23188    0.76336    0.53140    1.000
    H139     H        0.24550    0.78010    0.61180    1.000
    C199     C        0.19360    0.77819    0.46340    1.000
    H140     H        0.18190    0.80430    0.49760    1.000
    C200     C        0.13774    0.84479    0.25000    1.000
    C201     C        0.19088    0.88904    0.16520    1.000
    H141     H        0.21420    0.89460    0.09590    1.000
    C202     C        0.17865    0.92007    0.27770    1.000
    H142     H        0.19350    0.94600    0.28430    1.000
    C203     C        0.14435    0.91228    0.37980    1.000
    H143     H        0.13560    0.93280    0.45720    1.000
    C204     C        0.12285    0.87358    0.36670    1.000
    H144     H        0.09930    0.86730    0.43410    1.000
    Ag13     Ag       0.55562    0.56370    0.66069    1.000
    N73      N        0.63574    0.76037    0.68990    1.000
    N74      N        0.50558    0.68255    0.91540    1.000
    N75      N        0.48472    0.64732    0.98210    1.000
    N76      N        0.55411    0.63386    0.97950    1.000
    N77      N        0.47621    0.49979    0.23720    1.000
    N78      N        0.60119    0.57915    0.90050    1.000
    C205     C        0.61492    0.68832    0.75500    1.000
    H145     H        0.62050    0.65900    0.74660    1.000
    C206     C        0.64243    0.71798    0.68270    1.000
    H146     H        0.66660    0.70790    0.62650    1.000
    C207     C        0.60063    0.77395    0.77190    1.000
    H147     H        0.59560    0.80340    0.77800    1.000
    C208     C        0.57187    0.74701    0.84660    1.000
    H148     H        0.54780    0.75800    0.90120    1.000
    C209     C        0.57899    0.70286    0.83990    1.000
    C210     C        0.54673    0.67390    0.91320    1.000
    C211     C        0.51412    0.61854    0.01950    1.000
    C212     C        0.50339    0.57689    0.09400    1.000
    C213     C        0.46533    0.55750    0.04570    1.000
    H149     H        0.44820    0.57010    0.96380    1.000
    C214     C        0.45310    0.51981    0.11880    1.000
    H150     H        0.42730    0.50730    0.08480    1.000
    C215     C        0.51336    0.51812    0.28140    1.000
    H151     H        0.53010    0.50450    0.36180    1.000
    C216     C        0.52819    0.55640    0.21340    1.000
    H152     H        0.55430    0.56810    0.24760    1.000
    C217     C        0.59479    0.61226    0.00000    1.000
    C218     C        0.63904    0.55912    0.91520    1.000
    H153     H        0.64460    0.53580    0.84590    1.000
    C219     C        0.67007    0.57135    0.02770    1.000
    H154     H        0.69600    0.55650    0.03430    1.000
    C220     C        0.66228    0.60565    0.12980    1.000
    H155     H        0.68280    0.61440    0.20720    1.000
    C221     C        0.62358    0.62715    0.11670    1.000
    H156     H        0.61730    0.65070    0.18410    1.000
    Ag14     Ag       0.05562    0.06370    0.16069    1.000
    N79      N        0.13574    0.26037    0.18990    1.000
    N80      N        0.00558    0.18255    0.41540    1.000
    N81      N        0.98472    0.14732    0.48210    1.000
    N82      N        0.05411    0.13386    0.47950    1.000
    N83      N        0.97621    0.99979    0.73720    1.000
    N84      N        0.10119    0.07915    0.40050    1.000
    C222     C        0.11492    0.18832    0.25500    1.000
    H157     H        0.12050    0.15900    0.24660    1.000
    C223     C        0.14243    0.21798    0.18270    1.000
    H158     H        0.16660    0.20790    0.12650    1.000
    C224     C        0.10063    0.27395    0.27190    1.000
    H159     H        0.09560    0.30340    0.27800    1.000
    C225     C        0.07187    0.24701    0.34660    1.000
    H160     H        0.04780    0.25800    0.40120    1.000
    C226     C        0.07899    0.20286    0.33990    1.000
    C227     C        0.04673    0.17390    0.41320    1.000
    C228     C        0.01412    0.11854    0.51950    1.000
    C229     C        0.00339    0.07689    0.59400    1.000
    C230     C        0.96533    0.05750    0.54570    1.000
    H161     H        0.94820    0.07010    0.46380    1.000
    C231     C        0.95310    0.01981    0.61880    1.000
    H162     H        0.92730    0.00730    0.58480    1.000
    C232     C        0.01336    0.01812    0.78140    1.000
    H163     H        0.03010    0.00450    0.86180    1.000
    C233     C        0.02819    0.05640    0.71340    1.000
    H164     H        0.05430    0.06810    0.74760    1.000
    C234     C        0.09479    0.11226    0.50000    1.000
    C235     C        0.13904    0.05912    0.41520    1.000
    H165     H        0.14460    0.03580    0.34590    1.000
    C236     C        0.17007    0.07135    0.52770    1.000
    H166     H        0.19600    0.05650    0.53430    1.000
    C237     C        0.16228    0.10565    0.62980    1.000
    H167     H        0.18280    0.11440    0.70720    1.000
    C238     C        0.12358    0.12715    0.61670    1.000
    H168     H        0.11730    0.15070    0.68410    1.000
    Ag15     Ag       0.94438    0.43630    0.16069    1.000
    N85      N        0.86426    0.23963    0.18990    1.000
    N86      N        0.99442    0.31745    0.41540    1.000
    N87      N        0.01528    0.35268    0.48210    1.000
    N88      N        0.94589    0.36614    0.47950    1.000
    N89      N        0.02379    0.50021    0.73720    1.000
    N90      N        0.89881    0.42085    0.40050    1.000
    C239     C        0.88508    0.31168    0.25500    1.000
    H169     H        0.87950    0.34100    0.24660    1.000
    C240     C        0.85757    0.28202    0.18270    1.000
    H170     H        0.83340    0.29210    0.12650    1.000
    C241     C        0.89937    0.22605    0.27190    1.000
    H171     H        0.90440    0.19660    0.27800    1.000
    C242     C        0.92813    0.25299    0.34660    1.000
    H172     H        0.95220    0.24200    0.40120    1.000
    C243     C        0.92101    0.29714    0.33990    1.000
    C244     C        0.95327    0.32610    0.41320    1.000
    C245     C        0.98588    0.38146    0.51950    1.000
    C246     C        0.99661    0.42311    0.59400    1.000
    C247     C        0.03467    0.44250    0.54570    1.000
    H173     H        0.05180    0.42990    0.46380    1.000
    C248     C        0.04690    0.48019    0.61880    1.000
    H174     H        0.07270    0.49270    0.58480    1.000
    C249     C        0.98664    0.48188    0.78140    1.000
    H175     H        0.96990    0.49550    0.86180    1.000
    C250     C        0.97181    0.44360    0.71340    1.000
    H176     H        0.94570    0.43190    0.74760    1.000
    C251     C        0.90521    0.38774    0.50000    1.000
    C252     C        0.86096    0.44088    0.41520    1.000
    H177     H        0.85540    0.46420    0.34590    1.000
    C253     C        0.82993    0.42865    0.52770    1.000
    H178     H        0.80400    0.44350    0.53430    1.000
    C254     C        0.83772    0.39435    0.62980    1.000
    H179     H        0.81720    0.38560    0.70720    1.000
    C255     C        0.87642    0.37285    0.61670    1.000
    H180     H        0.88270    0.34930    0.68410    1.000
    Ag16     Ag       0.44438    0.93630    0.66069    1.000
    N91      N        0.36426    0.73963    0.68990    1.000
    N92      N        0.49442    0.81745    0.91540    1.000
    N93      N        0.51528    0.85268    0.98210    1.000
    N94      N        0.44589    0.86614    0.97950    1.000
    N95      N        0.52379    0.00021    0.23720    1.000
    N96      N        0.39881    0.92085    0.90050    1.000
    C256     C        0.38508    0.81168    0.75500    1.000
    H181     H        0.37950    0.84100    0.74660    1.000
    C257     C        0.35757    0.78202    0.68270    1.000
    H182     H        0.33340    0.79210    0.62650    1.000
    C258     C        0.39937    0.72605    0.77190    1.000
    H183     H        0.40440    0.69660    0.77800    1.000
    C259     C        0.42813    0.75299    0.84660    1.000
    H184     H        0.45220    0.74200    0.90120    1.000
    C260     C        0.42101    0.79714    0.83990    1.000
    C261     C        0.45327    0.82610    0.91320    1.000
    C262     C        0.48588    0.88146    0.01950    1.000
    C263     C        0.49661    0.92311    0.09400    1.000
    C264     C        0.53467    0.94250    0.04570    1.000
    H185     H        0.55180    0.92990    0.96380    1.000
    C265     C        0.54690    0.98019    0.11880    1.000
    H186     H        0.57270    0.99270    0.08480    1.000
    C266     C        0.48664    0.98188    0.28140    1.000
    H187     H        0.46990    0.99550    0.36180    1.000
    C267     C        0.47181    0.94360    0.21340    1.000
    H188     H        0.44570    0.93190    0.24760    1.000
    C268     C        0.40521    0.88774    0.00000    1.000
    C269     C        0.36096    0.94088    0.91520    1.000
    H189     H        0.35540    0.96420    0.84590    1.000
    C270     C        0.32993    0.92865    0.02770    1.000
    H190     H        0.30400    0.94350    0.03430    1.000
    C271     C        0.33772    0.89435    0.12980    1.000
    H191     H        0.31720    0.88560    0.20720    1.000
    C272     C        0.37642    0.87285    0.11670    1.000
    H192     H        0.38270    0.84930    0.18410    1.000
