data_functionalizedCrystal
_audit_creation_method	'EQeq! by Chris Wilmer'
_symmetry_space_group_name_H-M	'P1'
_symmetry_Int_Tables_number	1
_symmetry_cell_setting	triclinic
loop_
_symmetry_equiv_pos_as_xyz
  x,y,z
_cell_length_a	7.9714
_cell_length_b	9.7403
_cell_length_c	21.312
_cell_angle_alpha	90
_cell_angle_beta	90
_cell_angle_gamma	114.154
loop_
_atom_site_label
_atom_site_type_symbol
_atom_site_fract_x
_atom_site_fract_y
_atom_site_fract_z
_atom_site_charge
Mof_Na	Na	0.8899	0	0.5	1.778
Mof_Na	Na	0.1101	0	-0	1.608
Mof_U 	U 	0.45905	0.8568	0.61808	0.058
Mof_U 	U 	0.54095	0.1432	0.11808	-0.089
Mof_U 	U 	0.39775	0.8568	0.88192	0.066
Mof_U 	U 	0.60225	0.1432	0.38192	-0.084
Mof_H 	H 	0.9845	0.6636	0.543	0.034
Mof_H 	H 	0.9829	0.3992	0.5469	0.004
Mof_H 	H 	0.8551	0.445	0.72	0.054
Mof_H 	H 	0.0155	0.3364	0.043	-0.006
Mof_H 	H 	0.0171	0.6008	0.0469	0.033
Mof_H 	H 	0.1449	0.555	0.22	0.103
Mof_H 	H 	0.6791	0.6636	0.957	0.058
Mof_H 	H 	0.4163	0.3992	0.9531	0.042
Mof_H 	H 	0.5899	0.445	0.78	0.073
Mof_H 	H 	0.3209	0.3364	0.457	0.008
Mof_H 	H 	0.5837	0.6008	0.4531	0.037
Mof_H 	H 	0.4101	0.555	0.28	0.086
Mof_C 	C 	0.6282	0.659	0.5863	0.327
Mof_C 	C 	0.7199	0.556	0.5746	0.009
Mof_C 	C 	0.9534	0.673	0.7223	0.034
Mof_C 	C 	0.7241	0.3342	0.5778	-0.037
Mof_C 	C 	0.6355	0.173	0.589	0.348
Mof_C 	C 	0.8882	0.5746	0.5553	-0.049
Mof_C 	C 	0.8866	0.4252	0.5577	0.003
Mof_C 	C 	0.123	0.7404	0.6871	0.265
Mof_C 	C 	0.8389	0.5298	0.7331	-0.022
Mof_C 	C 	0.3718	0.341	0.0863	0.34
Mof_C 	C 	0.2801	0.444	0.0746	-0.029
Mof_C 	C 	0.0466	0.327	0.2223	0.09
Mof_C 	C 	0.2759	0.6658	0.0778	0.02
Mof_C 	C 	0.3645	0.827	0.089	0.294
Mof_C 	C 	0.1118	0.4254	0.0553	-0.017
Mof_C 	C 	0.1134	0.5748	0.0577	-0.046
Mof_C 	C 	0.877	0.2596	0.1871	0.217
Mof_C 	C 	0.1611	0.4702	0.2331	-0.055
Mof_C 	C 	0.0308	0.659	0.9137	0.347
Mof_C 	C 	0.8361	0.556	0.9254	0.004
Mof_C 	C 	0.7196	0.673	0.7777	0.076
Mof_C 	C 	0.6101	0.3342	0.9222	-0.011
Mof_C 	C 	0.5375	0.173	0.911	0.341
Mof_C 	C 	0.6864	0.5746	0.9447	-0.025
Mof_C 	C 	0.5386	0.4252	0.9423	-0
Mof_C 	C 	0.6174	0.7404	0.8129	0.229
Mof_C 	C 	0.6909	0.5298	0.7669	-0.058
Mof_C 	C 	0.9692	0.341	0.4137	0.322
Mof_C 	C 	0.1639	0.444	0.4254	0.012
Mof_C 	C 	0.2804	0.327	0.2777	0.053
Mof_C 	C 	0.3899	0.6658	0.4222	0.021
Mof_C 	C 	0.4625	0.827	0.411	0.309
Mof_C 	C 	0.3136	0.4254	0.4447	-0.026
Mof_C 	C 	0.4614	0.5748	0.4423	-0.028
Mof_C 	C 	0.3826	0.2596	0.3129	0.249
Mof_C 	C 	0.3091	0.4702	0.2669	-0.024
Mof_O 	O 	0.4779	0.614	0.6109	-0.207
Mof_O 	O 	0.7109	0.7998	0.57	-0.391
Mof_O 	O 	0.4802	0.1138	0.6167	-0.307
Mof_O 	O 	0.1929	0.8788	0.6717	-0.111
Mof_O 	O 	0.7162	0.0888	0.5745	-0.517
Mof_O 	O 	0.2007	0.6556	0.669	-0.167
Mof_O 	O 	0.6142	0.4098	0.5898	-0.161
Mof_O 	O 	0.5221	0.386	0.1109	-0.225
Mof_O 	O 	0.2891	0.2002	0.07	-0.49
Mof_O 	O 	0.5198	0.8862	0.1167	-0.12
Mof_O 	O 	0.8071	0.1212	0.1717	-0.255
Mof_O 	O 	0.2838	0.9112	0.0745	-0.304
Mof_O 	O 	0.7993	0.3444	0.169	-0.179
Mof_O 	O 	0.3858	0.5902	0.0898	-0.156
Mof_O 	O 	0.1361	0.614	0.8891	-0.196
Mof_O 	O 	0.0889	0.7998	0.93	-0.338
Mof_O 	O 	0.6336	0.1138	0.8833	-0.296
Mof_O 	O 	0.6859	0.8788	0.8283	-0.107
Mof_O 	O 	0.3726	0.0888	0.9255	-0.462
Mof_O 	O 	0.4549	0.6556	0.831	-0.161
Mof_O 	O 	0.7956	0.4098	0.9102	-0.159
Mof_O 	O 	0.8639	0.386	0.3891	-0.216
Mof_O 	O 	0.9111	0.2002	0.43	-0.501
Mof_O 	O 	0.3664	0.8862	0.3833	-0.112
Mof_O 	O 	0.3141	0.1212	0.3283	-0.249
Mof_O 	O 	0.6274	0.9112	0.4255	-0.315
Mof_O 	O 	0.5451	0.3444	0.331	-0.179
Mof_O 	O 	0.2044	0.5902	0.4102	-0.145
Mof_O 	O 	0.8839	0.7678	0.75	-0.135
Mof_O 	O 	0.1161	0.2322	0.25	-0.185
_end
