# CIF file generated by openbabel 3.1.0, see https://openbabel.org
data_I
_chemical_name_common 'image0'
_cell_length_a 12.721
_cell_length_b 13.82
_cell_length_c 14.866
_cell_angle_alpha 90
_cell_angle_beta 90
_cell_angle_gamma 90
_space_group_name_H-M_alt 'P 1'
_space_group_name_Hall 'P 1'
loop_
    _symmetry_equiv_pos_as_xyz
    x,y,z
loop_
    _atom_site_label
    _atom_site_type_symbol
    _atom_site_fract_x
    _atom_site_fract_y
    _atom_site_fract_z
    _atom_site_occupancy
    Cu1      Cu       0.49988    0.36249    0.48507    1.000
    Ba1      Ba       0.29508    0.19897    0.41992    1.000
    C1       C        0.58610    0.48640    0.60040    1.000
    C2       C        0.59410    0.55830    0.67810    1.000
    C3       C        0.68120    0.58490    0.72630    1.000
    H1       H        0.74830    0.56130    0.71480    1.000
    C4       C        0.65900    0.65070    0.79380    1.000
    H2       H        0.71000    0.67740    0.83110    1.000
    C5       C        0.55530    0.67220    0.80010    1.000
    C6       C        0.50030    0.73620    0.86680    1.000
    C7       C        0.60220    0.22350    0.39670    1.000
    C8       C        0.62930    0.14140    0.33410    1.000
    C9       C        0.72200    0.09450    0.32830    1.000
    H3       H        0.77960    0.10900    0.36430    1.000
    C10      C        0.72290    0.02120    0.26220    1.000
    H4       H        0.78090    0.98300    0.24840    1.000
    C11      C        0.62660    0.01390    0.22110    1.000
    C12      C        0.59840    0.94920    0.14430    1.000
    O1       O        0.49560    0.46470    0.57500    1.000
    O2       O        0.66970    0.45630    0.57060    1.000
    O3       O        0.40470    0.75150    0.85570    1.000
    O4       O        0.55780    0.76880    0.92950    1.000
    O5       O        0.50890    0.25320    0.39590    1.000
    O6       O        0.67240    0.25680    0.44460    1.000
    O7       O        0.50550    0.95640    0.11400    1.000
    O8       O        0.66640    0.89230    0.11320    1.000
    S1       S        0.48235    0.61358    0.71947    1.000
    S2       S        0.53894    0.09580    0.26087    1.000
    Cu2      Cu       0.00012    0.63751    0.98507    1.000
    Ba2      Ba       0.20492    0.80103    0.91992    1.000
    C13      C        0.91390    0.51360    0.10040    1.000
    C14      C        0.90590    0.44170    0.17810    1.000
    C15      C        0.81880    0.41510    0.22630    1.000
    H5       H        0.75170    0.43870    0.21480    1.000
    C16      C        0.84100    0.34930    0.29380    1.000
    H6       H        0.79000    0.32260    0.33110    1.000
    C17      C        0.94470    0.32780    0.30010    1.000
    C18      C        0.99970    0.26380    0.36680    1.000
    C19      C        0.89780    0.77650    0.89670    1.000
    C20      C        0.87070    0.85860    0.83410    1.000
    C21      C        0.77800    0.90550    0.82830    1.000
    H7       H        0.72040    0.89100    0.86430    1.000
    C22      C        0.77710    0.97880    0.76220    1.000
    H8       H        0.71910    0.01700    0.74840    1.000
    C23      C        0.87340    0.98610    0.72110    1.000
    C24      C        0.90160    0.05080    0.64430    1.000
    O9       O        0.00440    0.53530    0.07500    1.000
    O10      O        0.83030    0.54370    0.07060    1.000
    O11      O        0.09530    0.24850    0.35570    1.000
    O12      O        0.94220    0.23120    0.42950    1.000
    O13      O        0.99110    0.74680    0.89590    1.000
    O14      O        0.82760    0.74320    0.94460    1.000
    O15      O        0.99450    0.04360    0.61400    1.000
    O16      O        0.83360    0.10770    0.61320    1.000
    S3       S        0.01765    0.38642    0.21947    1.000
    S4       S        0.96106    0.90420    0.76087    1.000
    Cu3      Cu       0.50012    0.86249    0.01493    1.000
    Ba3      Ba       0.70492    0.69897    0.08008    1.000
    C25      C        0.41390    0.98640    0.89960    1.000
    C26      C        0.40590    0.05830    0.82190    1.000
    C27      C        0.31880    0.08490    0.77370    1.000
    H9       H        0.25170    0.06130    0.78520    1.000
    C28      C        0.34100    0.15070    0.70620    1.000
    H10      H        0.29000    0.17740    0.66890    1.000
    C29      C        0.44470    0.17220    0.69990    1.000
    C30      C        0.49970    0.23620    0.63320    1.000
    C31      C        0.39780    0.72350    0.10330    1.000
    C32      C        0.37070    0.64140    0.16590    1.000
    C33      C        0.27800    0.59450    0.17170    1.000
    H11      H        0.22040    0.60900    0.13570    1.000
    C34      C        0.27710    0.52120    0.23780    1.000
    H12      H        0.21910    0.48300    0.25160    1.000
    C35      C        0.37340    0.51390    0.27890    1.000
    C36      C        0.40160    0.44920    0.35570    1.000
    O17      O        0.50440    0.96470    0.92500    1.000
    O18      O        0.33030    0.95630    0.92940    1.000
    O19      O        0.59530    0.25150    0.64430    1.000
    O20      O        0.44220    0.26880    0.57050    1.000
    O21      O        0.49110    0.75320    0.10410    1.000
    O22      O        0.32760    0.75680    0.05540    1.000
    O23      O        0.49450    0.45640    0.38600    1.000
    O24      O        0.33360    0.39230    0.38680    1.000
    S5       S        0.51765    0.11358    0.78053    1.000
    S6       S        0.46106    0.59580    0.23913    1.000
    Cu4      Cu       0.99988    0.13751    0.51493    1.000
    Ba4      Ba       0.79508    0.30103    0.58008    1.000
    C37      C        0.08610    0.01360    0.39960    1.000
    C38      C        0.09410    0.94170    0.32190    1.000
    C39      C        0.18120    0.91510    0.27370    1.000
    H13      H        0.24830    0.93870    0.28520    1.000
    C40      C        0.15900    0.84930    0.20620    1.000
    H14      H        0.21000    0.82260    0.16890    1.000
    C41      C        0.05530    0.82780    0.19990    1.000
    C42      C        0.00030    0.76380    0.13320    1.000
    C43      C        0.10220    0.27650    0.60330    1.000
    C44      C        0.12930    0.35860    0.66590    1.000
    C45      C        0.22200    0.40550    0.67170    1.000
    H15      H        0.27960    0.39100    0.63570    1.000
    C46      C        0.22290    0.47880    0.73780    1.000
    H16      H        0.28090    0.51700    0.75160    1.000
    C47      C        0.12660    0.48610    0.77890    1.000
    C48      C        0.09840    0.55080    0.85570    1.000
    O25      O        0.99560    0.03530    0.42500    1.000
    O26      O        0.16970    0.04370    0.42940    1.000
    O27      O        0.90470    0.74850    0.14430    1.000
    O28      O        0.05780    0.73120    0.07050    1.000
    O29      O        0.00890    0.24680    0.60410    1.000
    O30      O        0.17240    0.24320    0.55540    1.000
    O31      O        0.00550    0.54360    0.88600    1.000
    O32      O        0.16640    0.60770    0.88680    1.000
    S7       S        0.98235    0.88642    0.28053    1.000
    S8       S        0.03894    0.40420    0.73913    1.000
