# CIF file generated by openbabel 3.1.0, see https://openbabel.org
data_I
_chemical_name_common 'image0'
_cell_length_a 10.886
_cell_length_b 11.4737
_cell_length_c 13.4734
_cell_angle_alpha 69.544
_cell_angle_beta 80.149
_cell_angle_gamma 62.652
_space_group_name_H-M_alt 'P 1'
_space_group_name_Hall 'P 1'
loop_
    _symmetry_equiv_pos_as_xyz
    x,y,z
loop_
    _atom_site_label
    _atom_site_type_symbol
    _atom_site_fract_x
    _atom_site_fract_y
    _atom_site_fract_z
    _atom_site_occupancy
    U1       U        0.63171    0.70253    0.83336    1.000
    Pr1      Pr       0.61975    0.21572    0.77469    1.000
    O1       O        0.85810    0.52950    0.90560    1.000
    O2       O        0.77430    0.48420    0.79480    1.000
    O3       O        0.85280    0.20750    0.76110    1.000
    O4       O        0.89990    0.35570    0.62260    1.000
    O5       O        0.42700    0.90890    0.82740    1.000
    O6       O        0.51510    0.06060    0.77480    1.000
    O7       O        0.47560    0.17500    0.93150    1.000
    O8       O        0.31240    0.21330    0.05450    1.000
    O9       O        0.50800    0.69100    0.71280    1.000
    O10      O        0.42840    0.69620    0.56970    1.000
    O11      O        0.73910    0.63170    0.53500    1.000
    O12      O        0.85830    0.75120    0.47720    1.000
    C1       C        0.00930    0.33700    0.84490    1.000
    C2       C        0.11660    0.31160    0.90410    1.000
    H1       H        0.09790    0.36160    0.95070    1.000
    C3       C        0.25110    0.21390    0.89610    1.000
    C4       C        0.27740    0.13550    0.82710    1.000
    C5       C        0.16740    0.15550    0.77440    1.000
    H2       H        0.18340    0.09910    0.73360    1.000
    C6       C        0.03230    0.25780    0.78000    1.000
    C7       C        0.62050    0.00200    0.45150    1.000
    H3       H        0.70250    0.00320    0.41870    1.000
    C8       C        0.61690    0.87550    0.50410    1.000
    C9       C        0.49360    0.87390    0.55380    1.000
    C10      C        0.87180    0.45460    0.84960    1.000
    C11      C        0.35610    0.19830    0.96320    1.000
    C12      C        0.41840    0.02920    0.80820    1.000
    C13      C        0.91860    0.27650    0.71720    1.000
    C14      C        0.47770    0.74430    0.61440    1.000
    C15      C        0.74410    0.74510    0.50630    1.000
    U2       U        0.36829    0.29747    0.16664    1.000
    Pr2      Pr       0.38025    0.78428    0.22531    1.000
    O13      O        0.14190    0.47050    0.09440    1.000
    O14      O        0.22570    0.51580    0.20520    1.000
    O15      O        0.14720    0.79250    0.23890    1.000
    O16      O        0.10010    0.64430    0.37740    1.000
    O17      O        0.57300    0.09110    0.17260    1.000
    O18      O        0.48490    0.93940    0.22520    1.000
    O19      O        0.52440    0.82500    0.06850    1.000
    O20      O        0.68760    0.78670    0.94550    1.000
    O21      O        0.49200    0.30900    0.28720    1.000
    O22      O        0.57160    0.30380    0.43030    1.000
    O23      O        0.26090    0.36830    0.46500    1.000
    O24      O        0.14170    0.24880    0.52280    1.000
    C16      C        0.99070    0.66300    0.15510    1.000
    C17      C        0.88340    0.68840    0.09590    1.000
    H4       H        0.90210    0.63840    0.04930    1.000
    C18      C        0.74890    0.78610    0.10390    1.000
    C19      C        0.72260    0.86450    0.17290    1.000
    C20      C        0.83260    0.84450    0.22560    1.000
    H5       H        0.81660    0.90090    0.26640    1.000
    C21      C        0.96770    0.74220    0.22000    1.000
    C22      C        0.37950    0.99800    0.54850    1.000
    H6       H        0.29750    0.99680    0.58130    1.000
    C23      C        0.38310    0.12450    0.49590    1.000
    C24      C        0.50640    0.12610    0.44620    1.000
    C25      C        0.12820    0.54540    0.15040    1.000
    C26      C        0.64390    0.80170    0.03680    1.000
    C27      C        0.58160    0.97080    0.19180    1.000
    C28      C        0.08140    0.72350    0.28280    1.000
    C29      C        0.52230    0.25570    0.38560    1.000
    C30      C        0.25590    0.25490    0.49370    1.000
    U3       U        0.00000    0.50000    0.50000    1.000
