data_functionalizedCrystal
_audit_creation_method	'EQeq! by Chris Wilmer'
_symmetry_space_group_name_H-M	'P1'
_symmetry_Int_Tables_number	1
_symmetry_cell_setting	triclinic
loop_
_symmetry_equiv_pos_as_xyz
  x,y,z
_cell_length_a	17.03
_cell_length_b	17.03
_cell_length_c	13.908
_cell_angle_alpha	90
_cell_angle_beta	90
_cell_angle_gamma	120
loop_
_atom_site_label
_atom_site_type_symbol
_atom_site_fract_x
_atom_site_fract_y
_atom_site_fract_z
_atom_site_charge
Mof_O 	O 	0.778	0.3536	0.68089	-0.415
Mof_N 	N 	0.1085	0.6031	0.9132	-0.156
Mof_N 	N 	0.2274	0.6672	0.0148	-0.226
Mof_C 	C 	0.9645	0.5066	0.8315	-0.152
Mof_H 	H 	0.933	0.5069	0.886	0.098
Mof_C 	C 	0.0579	0.5533	0.8303	0.167
Mof_C 	C 	0.1881	0.6096	0.9418	0.085
Mof_H 	H 	0.2125	0.5772	0.9134	-0.008
Mof_C 	C 	0.1685	0.6999	0.0346	0.069
Mof_C 	C 	0.1757	0.7619	0.1043	-0.116
Mof_H 	H 	0.2243	0.7878	0.1469	0.083
Mof_C 	C 	0.1077	0.7829	0.1073	-0.007
Mof_H 	H 	0.1102	0.8237	0.1534	0.03
Mof_C 	C 	0.035	0.7448	0.0431	-0.032
Mof_H 	H 	0.9906	0.7613	0.0472	0.04
Mof_C 	C 	0.027	0.6834	0.9736	-0.089
Mof_H 	H 	0.9789	0.6586	0.9304	0.065
Mof_C 	C 	0.0942	0.6608	0.9716	0.059
Mof_O 	O 	0.6464	0.4244	0.68089	-0.415
Mof_N 	N 	0.3969	0.5054	0.9132	-0.156
Mof_N 	N 	0.3328	0.5602	0.0148	-0.226
Mof_C 	C 	0.4934	0.4579	0.8315	-0.152
Mof_H 	H 	0.4931	0.4261	0.886	0.098
Mof_C 	C 	0.4467	0.5046	0.8303	0.168
Mof_C 	C 	0.3904	0.5785	0.9418	0.085
Mof_H 	H 	0.4228	0.6353	0.9134	-0.008
Mof_C 	C 	0.3001	0.4686	0.0346	0.07
Mof_C 	C 	0.2381	0.4138	0.1043	-0.118
Mof_H 	H 	0.2122	0.4365	0.1469	0.084
Mof_C 	C 	0.2171	0.3248	0.1073	-0.004
Mof_H 	H 	0.1763	0.2865	0.1534	0.029
Mof_C 	C 	0.2552	0.2902	0.0431	-0.036
Mof_H 	H 	0.2387	0.2293	0.0472	0.042
Mof_C 	C 	0.3166	0.3436	0.9736	-0.085
Mof_H 	H 	0.3414	0.3203	0.9304	0.063
Mof_C 	C 	0.3392	0.4334	0.9716	0.057
Mof_O 	O 	0.5756	0.222	0.68089	-0.415
Mof_N 	N 	0.4946	0.8915	0.9132	-0.156
Mof_N 	N 	0.4398	0.7726	0.0148	-0.226
Mof_C 	C 	0.5421	0.0355	0.8315	-0.152
Mof_H 	H 	0.5739	0.067	0.886	0.098
Mof_C 	C 	0.4954	0.9421	0.8303	0.167
Mof_C 	C 	0.4215	0.8119	0.9418	0.085
Mof_H 	H 	0.3647	0.7875	0.9134	-0.008
Mof_C 	C 	0.5314	0.8315	0.0346	0.069
Mof_C 	C 	0.5862	0.8243	0.1043	-0.117
Mof_H 	H 	0.5635	0.7757	0.1469	0.083
Mof_C 	C 	0.6752	0.8923	0.1073	-0.006
Mof_H 	H 	0.7135	0.8898	0.1534	0.03
Mof_C 	C 	0.7098	0.965	0.0431	-0.033
Mof_H 	H 	0.7707	0.0094	0.0472	0.041
Mof_C 	C 	0.6564	0.973	0.9736	-0.088
Mof_H 	H 	0.6797	0.0211	0.9304	0.065
Mof_C 	C 	0.5666	0.9058	0.9716	0.058
Mof_O 	O 	0.6464	0.222	0.81911	-0.415
Mof_N 	N 	0.3969	0.8915	0.5868	-0.156
Mof_N 	N 	0.3328	0.7726	0.4852	-0.226
Mof_C 	C 	0.4934	0.0355	0.6685	-0.152
Mof_H 	H 	0.4931	0.067	0.614	0.098
Mof_C 	C 	0.4467	0.9421	0.6697	0.167
Mof_C 	C 	0.3904	0.8119	0.5582	0.085
Mof_H 	H 	0.4228	0.7875	0.5866	-0.008
Mof_C 	C 	0.3001	0.8315	0.4654	0.07
Mof_C 	C 	0.2381	0.8243	0.3957	-0.118
Mof_H 	H 	0.2122	0.7757	0.3531	0.083
Mof_C 	C 	0.2171	0.8923	0.3927	-0.004
Mof_H 	H 	0.1763	0.8898	0.3466	0.029
Mof_C 	C 	0.2552	0.965	0.4569	-0.036
Mof_H 	H 	0.2387	0.0094	0.4528	0.042
Mof_C 	C 	0.3166	0.973	0.5264	-0.085
Mof_H 	H 	0.3414	0.0211	0.5696	0.063
Mof_C 	C 	0.3392	0.9058	0.5284	0.058
Mof_O 	O 	0.5756	0.3536	0.81911	-0.415
Mof_N 	N 	0.4946	0.6031	0.5868	-0.156
Mof_N 	N 	0.4398	0.6672	0.4852	-0.226
Mof_C 	C 	0.5421	0.5066	0.6685	-0.152
Mof_H 	H 	0.5739	0.5069	0.614	0.098
Mof_C 	C 	0.4954	0.5533	0.6697	0.168
Mof_C 	C 	0.4215	0.6096	0.5582	0.085
Mof_H 	H 	0.3647	0.5772	0.5866	-0.008
Mof_C 	C 	0.5314	0.6999	0.4654	0.07
Mof_C 	C 	0.5862	0.7619	0.3957	-0.118
Mof_H 	H 	0.5635	0.7878	0.3531	0.084
Mof_C 	C 	0.6752	0.7829	0.3927	-0.004
Mof_H 	H 	0.7135	0.8237	0.3466	0.029
Mof_C 	C 	0.7098	0.7448	0.4569	-0.036
Mof_H 	H 	0.7707	0.7613	0.4528	0.042
Mof_C 	C 	0.6564	0.6834	0.5264	-0.085
Mof_H 	H 	0.6797	0.6586	0.5696	0.063
Mof_C 	C 	0.5666	0.6608	0.5284	0.058
Mof_O 	O 	0.778	0.4244	0.81911	-0.415
Mof_N 	N 	0.1085	0.5054	0.5868	-0.156
Mof_N 	N 	0.2274	0.5602	0.4852	-0.226
Mof_C 	C 	0.9645	0.4579	0.6685	-0.152
Mof_H 	H 	0.933	0.4261	0.614	0.098
Mof_C 	C 	0.0579	0.5046	0.6697	0.167
Mof_C 	C 	0.1881	0.5785	0.5582	0.085
Mof_H 	H 	0.2125	0.6353	0.5866	-0.008
Mof_C 	C 	0.1685	0.4686	0.4654	0.07
Mof_C 	C 	0.1757	0.4138	0.3957	-0.118
Mof_H 	H 	0.2243	0.4365	0.3531	0.083
Mof_C 	C 	0.1077	0.3248	0.3927	-0.004
Mof_H 	H 	0.1102	0.2865	0.3466	0.029
Mof_C 	C 	0.035	0.2902	0.4569	-0.036
Mof_H 	H 	0.9906	0.2293	0.4528	0.042
Mof_C 	C 	0.027	0.3436	0.5264	-0.085
Mof_H 	H 	0.9789	0.3203	0.5696	0.063
Mof_C 	C 	0.0942	0.4334	0.5284	0.058
Mof_O 	O 	0.222	0.6464	0.31911	-0.415
Mof_N 	N 	0.8915	0.3969	0.0868	-0.156
Mof_N 	N 	0.7726	0.3328	0.9852	-0.226
Mof_C 	C 	0.0355	0.4934	0.1685	-0.152
Mof_H 	H 	0.067	0.4931	0.114	0.098
Mof_C 	C 	0.9421	0.4467	0.1697	0.167
Mof_C 	C 	0.8119	0.3904	0.0582	0.085
Mof_H 	H 	0.7875	0.4228	0.0866	-0.008
Mof_C 	C 	0.8315	0.3001	0.9654	0.069
Mof_C 	C 	0.8243	0.2381	0.8957	-0.116
Mof_H 	H 	0.7757	0.2122	0.8531	0.083
Mof_C 	C 	0.8923	0.2171	0.8927	-0.007
Mof_H 	H 	0.8898	0.1763	0.8466	0.03
Mof_C 	C 	0.965	0.2552	0.9569	-0.032
Mof_H 	H 	0.0094	0.2387	0.9528	0.04
Mof_C 	C 	0.973	0.3166	0.0264	-0.089
Mof_H 	H 	0.0211	0.3414	0.0696	0.065
Mof_C 	C 	0.9058	0.3392	0.0284	0.059
Mof_O 	O 	0.3536	0.5756	0.31911	-0.415
Mof_N 	N 	0.6031	0.4946	0.0868	-0.156
Mof_N 	N 	0.6672	0.4398	0.9852	-0.226
Mof_C 	C 	0.5066	0.5421	0.1685	-0.152
Mof_H 	H 	0.5069	0.5739	0.114	0.098
Mof_C 	C 	0.5533	0.4954	0.1697	0.168
Mof_C 	C 	0.6096	0.4215	0.0582	0.085
Mof_H 	H 	0.5772	0.3647	0.0866	-0.008
Mof_C 	C 	0.6999	0.5314	0.9654	0.07
Mof_C 	C 	0.7619	0.5862	0.8957	-0.118
Mof_H 	H 	0.7878	0.5635	0.8531	0.084
Mof_C 	C 	0.7829	0.6752	0.8927	-0.004
Mof_H 	H 	0.8237	0.7135	0.8466	0.029
Mof_C 	C 	0.7448	0.7098	0.9569	-0.036
Mof_H 	H 	0.7613	0.7707	0.9528	0.042
Mof_C 	C 	0.6834	0.6564	0.0264	-0.085
Mof_H 	H 	0.6586	0.6797	0.0696	0.063
Mof_C 	C 	0.6608	0.5666	0.0284	0.057
Mof_O 	O 	0.4244	0.778	0.31911	-0.415
Mof_N 	N 	0.5054	0.1085	0.0868	-0.156
Mof_N 	N 	0.5602	0.2274	0.9852	-0.226
Mof_C 	C 	0.4579	0.9645	0.1685	-0.152
Mof_H 	H 	0.4261	0.933	0.114	0.098
Mof_C 	C 	0.5046	0.0579	0.1697	0.167
Mof_C 	C 	0.5785	0.1881	0.0582	0.085
Mof_H 	H 	0.6353	0.2125	0.0866	-0.008
Mof_C 	C 	0.4686	0.1685	0.9654	0.069
Mof_C 	C 	0.4138	0.1757	0.8957	-0.117
Mof_H 	H 	0.4365	0.2243	0.8531	0.083
Mof_C 	C 	0.3248	0.1077	0.8927	-0.006
Mof_H 	H 	0.2865	0.1102	0.8466	0.03
Mof_C 	C 	0.2902	0.035	0.9569	-0.033
Mof_H 	H 	0.2293	0.9906	0.9528	0.041
Mof_C 	C 	0.3436	0.027	0.0264	-0.088
Mof_H 	H 	0.3203	0.9789	0.0696	0.065
Mof_C 	C 	0.4334	0.0942	0.0284	0.058
Mof_O 	O 	0.3536	0.778	0.18089	-0.415
Mof_N 	N 	0.6031	0.1085	0.4132	-0.156
Mof_N 	N 	0.6672	0.2274	0.5148	-0.226
Mof_C 	C 	0.5066	0.9645	0.3315	-0.152
Mof_H 	H 	0.5069	0.933	0.386	0.098
Mof_C 	C 	0.5533	0.0579	0.3303	0.167
Mof_C 	C 	0.6096	0.1881	0.4418	0.085
Mof_H 	H 	0.5772	0.2125	0.4134	-0.008
Mof_C 	C 	0.6999	0.1685	0.5346	0.07
Mof_C 	C 	0.7619	0.1757	0.6043	-0.118
Mof_H 	H 	0.7878	0.2243	0.6469	0.083
Mof_C 	C 	0.7829	0.1077	0.6073	-0.004
Mof_H 	H 	0.8237	0.1102	0.6534	0.029
Mof_C 	C 	0.7448	0.035	0.5431	-0.036
Mof_H 	H 	0.7613	0.9906	0.5472	0.042
Mof_C 	C 	0.6834	0.027	0.4736	-0.085
Mof_H 	H 	0.6586	0.9789	0.4304	0.063
Mof_C 	C 	0.6608	0.0942	0.4716	0.058
Mof_O 	O 	0.4244	0.6464	0.18089	-0.415
Mof_N 	N 	0.5054	0.3969	0.4132	-0.156
Mof_N 	N 	0.5602	0.3328	0.5148	-0.226
Mof_C 	C 	0.4579	0.4934	0.3315	-0.152
Mof_H 	H 	0.4261	0.4931	0.386	0.098
Mof_C 	C 	0.5046	0.4467	0.3303	0.168
Mof_C 	C 	0.5785	0.3904	0.4418	0.085
Mof_H 	H 	0.6353	0.4228	0.4134	-0.008
Mof_C 	C 	0.4686	0.3001	0.5346	0.07
Mof_C 	C 	0.4138	0.2381	0.6043	-0.118
Mof_H 	H 	0.4365	0.2122	0.6469	0.084
Mof_C 	C 	0.3248	0.2171	0.6073	-0.004
Mof_H 	H 	0.2865	0.1763	0.6534	0.029
Mof_C 	C 	0.2902	0.2552	0.5431	-0.036
Mof_H 	H 	0.2293	0.2387	0.5472	0.042
Mof_C 	C 	0.3436	0.3166	0.4736	-0.085
Mof_H 	H 	0.3203	0.3414	0.4304	0.063
Mof_C 	C 	0.4334	0.3392	0.4716	0.058
Mof_O 	O 	0.222	0.5756	0.18089	-0.415
Mof_N 	N 	0.8915	0.4946	0.4132	-0.156
Mof_N 	N 	0.7726	0.4398	0.5148	-0.226
Mof_C 	C 	0.0355	0.5421	0.3315	-0.152
Mof_H 	H 	0.067	0.5739	0.386	0.098
Mof_C 	C 	0.9421	0.4954	0.3303	0.167
Mof_C 	C 	0.8119	0.4215	0.4418	0.085
Mof_H 	H 	0.7875	0.3647	0.4134	-0.008
Mof_C 	C 	0.8315	0.5314	0.5346	0.07
Mof_C 	C 	0.8243	0.5862	0.6043	-0.118
Mof_H 	H 	0.7757	0.5635	0.6469	0.083
Mof_C 	C 	0.8923	0.6752	0.6073	-0.004
Mof_H 	H 	0.8898	0.7135	0.6534	0.029
Mof_C 	C 	0.965	0.7098	0.5431	-0.036
Mof_H 	H 	0.0094	0.7707	0.5472	0.042
Mof_C 	C 	0.973	0.6564	0.4736	-0.085
Mof_H 	H 	0.0211	0.6797	0.4304	0.063
Mof_C 	C 	0.9058	0.5666	0.4716	0.058
Mof_Co	Co	0.66667	0.33333	0.60202	1.165
Mof_Co	Co	0.66667	0.33333	0.89798	1.165
Mof_Co	Co	0.33333	0.66667	0.39798	1.165
Mof_Co	Co	0.33333	0.66667	0.10202	1.165
Mof_C 	C 	0.8156	0.4078	0.75	0.323
Mof_C 	C 	0.9182	0.4591	0.75	0.019
Mof_C 	C 	0.105	0.5525	0.75	-0.223
Mof_H 	H 	0.168	0.584	0.75	0.113
Mof_C 	C 	0.5922	0.4078	0.75	0.323
Mof_C 	C 	0.5409	0.4591	0.75	0.02
Mof_C 	C 	0.4475	0.5525	0.75	-0.223
Mof_H 	H 	0.416	0.584	0.75	0.113
Mof_C 	C 	0.5922	0.1844	0.75	0.323
Mof_C 	C 	0.5409	0.0818	0.75	0.019
Mof_C 	C 	0.4475	0.895	0.75	-0.223
Mof_H 	H 	0.416	0.832	0.75	0.113
Mof_C 	C 	0.1844	0.5922	0.25	0.323
Mof_C 	C 	0.0818	0.5409	0.25	0.019
Mof_C 	C 	0.895	0.4475	0.25	-0.223
Mof_H 	H 	0.832	0.416	0.25	0.113
Mof_C 	C 	0.4078	0.5922	0.25	0.323
Mof_C 	C 	0.4591	0.5409	0.25	0.02
Mof_C 	C 	0.5525	0.4475	0.25	-0.223
Mof_H 	H 	0.584	0.416	0.25	0.113
Mof_C 	C 	0.4078	0.8156	0.25	0.323
Mof_C 	C 	0.4591	0.9182	0.25	0.019
Mof_C 	C 	0.5525	0.105	0.25	-0.223
Mof_H 	H 	0.584	0.168	0.25	0.113
_end
