# CIF file generated by openbabel 3.1.0, see https://openbabel.org
data_I
_chemical_name_common 'image0'
_cell_length_a 20.131
_cell_length_b 15.67
_cell_length_c 9.097
_cell_angle_alpha 90
_cell_angle_beta 105.988
_cell_angle_gamma 90
_space_group_name_H-M_alt 'P 1'
_space_group_name_Hall 'P 1'
loop_
    _symmetry_equiv_pos_as_xyz
    x,y,z
loop_
    _atom_site_label
    _atom_site_type_symbol
    _atom_site_fract_x
    _atom_site_fract_y
    _atom_site_fract_z
    _atom_site_occupancy
    Ga1      Ga       0.16196    0.13569    0.33238    1.000
    Ga2      Ga       0.25196    0.88372    0.43563    1.000
    P1       P        0.21073    0.97965    0.13595    1.000
    P2       P        0.14413    0.23309    0.00449    1.000
    C1       C        0.21980    0.27570    0.51130    1.000
    O1       O        0.16080    0.24590    0.45850    1.000
    O2       O        0.23390    0.34580    0.58260    1.000
    O3       O        0.06300    0.13340    0.26960    1.000
    O4       O        0.16970    0.21360    0.17260    1.000
    O5       O        0.17070    0.03510    0.21780    1.000
    O6       O        0.25660    0.91600    0.24770    1.000
    O7       O        0.15960    0.93280    0.00820    1.000
    O8       O        0.26250    0.03080    0.07450    1.000
    O9       O        0.16780    0.16460    0.90950    1.000
    O10      O        0.17400    0.31900    0.97250    1.000
    O11      O        0.06630    0.23810    0.94380    1.000
    O12      O        0.00730    0.24890    0.38670    1.000
    Ga3      Ga       0.66196    0.63569    0.33238    1.000
    Ga4      Ga       0.75196    0.38372    0.43563    1.000
    P3       P        0.71073    0.47965    0.13595    1.000
    P4       P        0.64413    0.73309    0.00449    1.000
    C2       C        0.71980    0.77570    0.51130    1.000
    O13      O        0.66080    0.74590    0.45850    1.000
    O14      O        0.73390    0.84580    0.58260    1.000
    O15      O        0.56300    0.63340    0.26960    1.000
    O16      O        0.66970    0.71360    0.17260    1.000
    O17      O        0.67070    0.53510    0.21780    1.000
    O18      O        0.75660    0.41600    0.24770    1.000
    O19      O        0.65960    0.43280    0.00820    1.000
    O20      O        0.76250    0.53080    0.07450    1.000
    O21      O        0.66780    0.66460    0.90950    1.000
    O22      O        0.67400    0.81900    0.97250    1.000
    O23      O        0.56630    0.73810    0.94380    1.000
    O24      O        0.50730    0.74890    0.38670    1.000
    Ga5      Ga       0.83804    0.13569    0.16762    1.000
    Ga6      Ga       0.74804    0.88372    0.06437    1.000
    P5       P        0.78927    0.97965    0.36405    1.000
    P6       P        0.85587    0.23309    0.49551    1.000
    C3       C        0.78020    0.27570    0.98870    1.000
    O25      O        0.83920    0.24590    0.04150    1.000
    O26      O        0.76610    0.34580    0.91740    1.000
    O27      O        0.93700    0.13340    0.23040    1.000
    O28      O        0.83030    0.21360    0.32740    1.000
    O29      O        0.82930    0.03510    0.28220    1.000
    O30      O        0.74340    0.91600    0.25230    1.000
    O31      O        0.84040    0.93280    0.49180    1.000
    O32      O        0.73750    0.03080    0.42550    1.000
    O33      O        0.83220    0.16460    0.59050    1.000
    O34      O        0.82600    0.31900    0.52750    1.000
    O35      O        0.93370    0.23810    0.55620    1.000
    O36      O        0.99270    0.24890    0.11330    1.000
    Ga7      Ga       0.33804    0.63569    0.16762    1.000
    Ga8      Ga       0.24804    0.38372    0.06437    1.000
    P7       P        0.28927    0.47965    0.36405    1.000
    P8       P        0.35587    0.73309    0.49551    1.000
    C4       C        0.28020    0.77570    0.98870    1.000
    O37      O        0.33920    0.74590    0.04150    1.000
    O38      O        0.26610    0.84580    0.91740    1.000
    O39      O        0.43700    0.63340    0.23040    1.000
    O40      O        0.33030    0.71360    0.32740    1.000
    O41      O        0.32930    0.53510    0.28220    1.000
    O42      O        0.24340    0.41600    0.25230    1.000
    O43      O        0.34040    0.43280    0.49180    1.000
    O44      O        0.23750    0.53080    0.42550    1.000
    O45      O        0.33220    0.66460    0.59050    1.000
    O46      O        0.32600    0.81900    0.52750    1.000
    O47      O        0.43370    0.73810    0.55620    1.000
    O48      O        0.49270    0.74890    0.11330    1.000
    Ga9      Ga       0.83804    0.86431    0.66762    1.000
    Ga10     Ga       0.74804    0.11628    0.56437    1.000
    P9       P        0.78927    0.02035    0.86405    1.000
    P10      P        0.85587    0.76691    0.99551    1.000
    C5       C        0.78020    0.72430    0.48870    1.000
    O49      O        0.83920    0.75410    0.54150    1.000
    O50      O        0.76610    0.65420    0.41740    1.000
    O51      O        0.93700    0.86660    0.73040    1.000
    O52      O        0.83030    0.78640    0.82740    1.000
    O53      O        0.82930    0.96490    0.78220    1.000
    O54      O        0.74340    0.08400    0.75230    1.000
    O55      O        0.84040    0.06720    0.99180    1.000
    O56      O        0.73750    0.96920    0.92550    1.000
    O57      O        0.83220    0.83540    0.09050    1.000
    O58      O        0.82600    0.68100    0.02750    1.000
    O59      O        0.93370    0.76190    0.05620    1.000
    O60      O        0.99270    0.75110    0.61330    1.000
    Ga11     Ga       0.33804    0.36431    0.66762    1.000
    Ga12     Ga       0.24804    0.61628    0.56437    1.000
    P11      P        0.28927    0.52035    0.86405    1.000
    P12      P        0.35587    0.26691    0.99551    1.000
    C6       C        0.28020    0.22430    0.48870    1.000
    O61      O        0.33920    0.25410    0.54150    1.000
    O62      O        0.26610    0.15420    0.41740    1.000
    O63      O        0.43700    0.36660    0.73040    1.000
    O64      O        0.33030    0.28640    0.82740    1.000
    O65      O        0.32930    0.46490    0.78220    1.000
    O66      O        0.24340    0.58400    0.75230    1.000
    O67      O        0.34040    0.56720    0.99180    1.000
    O68      O        0.23750    0.46920    0.92550    1.000
    O69      O        0.33220    0.33540    0.09050    1.000
    O70      O        0.32600    0.18100    0.02750    1.000
    O71      O        0.43370    0.26190    0.05620    1.000
    O72      O        0.49270    0.25110    0.61330    1.000
    Ga13     Ga       0.16196    0.86431    0.83238    1.000
    Ga14     Ga       0.25196    0.11628    0.93563    1.000
    P13      P        0.21073    0.02035    0.63595    1.000
    P14      P        0.14413    0.76691    0.50449    1.000
    C7       C        0.21980    0.72430    0.01130    1.000
    O73      O        0.16080    0.75410    0.95850    1.000
    O74      O        0.23390    0.65420    0.08260    1.000
    O75      O        0.06300    0.86660    0.76960    1.000
    O76      O        0.16970    0.78640    0.67260    1.000
    O77      O        0.17070    0.96490    0.71780    1.000
    O78      O        0.25660    0.08400    0.74770    1.000
    O79      O        0.15960    0.06720    0.50820    1.000
    O80      O        0.26250    0.96920    0.57450    1.000
    O81      O        0.16780    0.83540    0.40950    1.000
    O82      O        0.17400    0.68100    0.47250    1.000
    O83      O        0.06630    0.76190    0.44380    1.000
    O84      O        0.00730    0.75110    0.88670    1.000
    Ga15     Ga       0.66196    0.36431    0.83238    1.000
    Ga16     Ga       0.75196    0.61628    0.93563    1.000
    P15      P        0.71073    0.52035    0.63595    1.000
    P16      P        0.64413    0.26691    0.50449    1.000
    C8       C        0.71980    0.22430    0.01130    1.000
    O85      O        0.66080    0.25410    0.95850    1.000
    O86      O        0.73390    0.15420    0.08260    1.000
    O87      O        0.56300    0.36660    0.76960    1.000
    O88      O        0.66970    0.28640    0.67260    1.000
    O89      O        0.67070    0.46490    0.71780    1.000
    O90      O        0.75660    0.58400    0.74770    1.000
    O91      O        0.65960    0.56720    0.50820    1.000
    O92      O        0.76250    0.46920    0.57450    1.000
    O93      O        0.66780    0.33540    0.40950    1.000
    O94      O        0.67400    0.18100    0.47250    1.000
    O95      O        0.56630    0.26190    0.44380    1.000
    O96      O        0.50730    0.25110    0.88670    1.000
    P17      P        0.00000    0.18896    0.25000    1.000
    P18      P        0.50000    0.68896    0.25000    1.000
    P19      P        0.00000    0.81104    0.75000    1.000
    P20      P        0.50000    0.31104    0.75000    1.000
