data_functionalizedCrystal
_audit_creation_method	'EQeq! by Chris Wilmer'
_symmetry_space_group_name_H-M	'P1'
_symmetry_Int_Tables_number	1
_symmetry_cell_setting	triclinic
loop_
_symmetry_equiv_pos_as_xyz
  x,y,z
_cell_length_a	7.6033
_cell_length_b	9.352
_cell_length_c	15.193
_cell_angle_alpha	89.33
_cell_angle_beta	80.57
_cell_angle_gamma	85.897
loop_
_atom_site_label
_atom_site_type_symbol
_atom_site_fract_x
_atom_site_fract_y
_atom_site_fract_z
_atom_site_charge
Mof_Zn	Zn	0.10546	0.37983	0.2367	1.214
Mof_O 	O 	0.2555	0.1377	0.2136	-0.342
Mof_O 	O 	0.2568	0.3145	0.1186	-0.426
Mof_O 	O 	0.2606	0.4542	0.3126	-0.451
Mof_O 	O 	0.1431	0.32	0.4222	-0.309
Mof_N 	N 	0.003	0.5617	0.1827	-0.229
Mof_N 	N 	0.8474	0.6306	0.2287	-0.111
Mof_N 	N 	0.9562	0.7637	0.1148	-0.154
Mof_N 	N 	0.8773	0.2859	0.2829	-0.231
Mof_N 	N 	0.7365	0.2841	0.2356	-0.105
Mof_N 	N 	0.6755	0.1627	0.3604	-0.148
Mof_C 	C 	0.98	0.8831	0.0548	0.097
Mof_C 	C 	0.0589	0.8649	0.9682	-0.074
Mof_H 	H 	0.099	0.7737	0.9466	0.062
Mof_C 	C 	0.9208	0.0174	0.0875	-0.076
Mof_H 	H 	0.8673	0.0291	0.1468	0.069
Mof_C 	C 	0.0631	0.6435	0.1168	0.119
Mof_H 	H 	0.1668	0.6217	0.0762	-0.008
Mof_C 	C 	0.824	0.7492	0.1855	0.105
Mof_H 	H 	0.7279	0.8164	0.2011	0.004
Mof_C 	C 	0.5831	0.0797	0.433	0.101
Mof_C 	C 	0.4892	0.9684	0.4117	-0.072
Mof_H 	H 	0.4825	0.9479	0.3526	0.07
Mof_C 	C 	0.5959	0.1128	0.5184	-0.077
Mof_H 	H 	0.6607	0.1889	0.5302	0.074
Mof_C 	C 	0.8361	0.2137	0.3572	0.105
Mof_H 	H 	0.9078	0.2002	0.4011	0.012
Mof_C 	C 	0.6184	0.2075	0.2839	0.095
Mof_H 	H 	0.5102	0.1866	0.2678	0.018
Mof_C 	C 	0.4035	0.0909	0.0656	-0.05
Mof_C 	C 	0.4609	0.1417	0.9815	-0.025
Mof_H 	H 	0.4352	0.2374	0.9681	0.058
Mof_C 	C 	0.5569	0.0515	0.9163	-0.027
Mof_H 	H 	0.595	0.0875	0.8595	0.056
Mof_C 	C 	0.2976	0.189	0.1378	0.312
Mof_C 	C 	0.3787	0.4576	0.4479	-0.062
Mof_C 	C 	0.3425	0.4442	0.539	-0.02
Mof_H 	H 	0.2365	0.407	0.5658	0.051
Mof_C 	C 	0.4631	0.4857	0.5914	-0.023
Mof_H 	H 	0.438	0.4757	0.653	0.059
Mof_C 	C 	0.2486	0.4062	0.3922	0.34
Mof_Zn	Zn	0.89454	0.62017	0.7633	1.213
Mof_O 	O 	0.7445	0.8623	0.7864	-0.343
Mof_O 	O 	0.7432	0.6855	0.8814	-0.426
Mof_O 	O 	0.7394	0.5458	0.6874	-0.451
Mof_O 	O 	0.8569	0.68	0.5778	-0.309
Mof_N 	N 	0.997	0.4383	0.8173	-0.229
Mof_N 	N 	0.1526	0.3694	0.7713	-0.111
Mof_N 	N 	0.0438	0.2363	0.8852	-0.154
Mof_N 	N 	0.1227	0.7141	0.7171	-0.231
Mof_N 	N 	0.2635	0.7159	0.7644	-0.105
Mof_N 	N 	0.3245	0.8373	0.6396	-0.148
Mof_C 	C 	0.02	0.1169	0.9452	0.097
Mof_C 	C 	0.9411	0.1351	0.0318	-0.074
Mof_H 	H 	0.901	0.2263	0.0534	0.062
Mof_C 	C 	0.0792	0.9826	0.9125	-0.076
Mof_H 	H 	0.1327	0.9709	0.8532	0.069
Mof_C 	C 	0.9369	0.3565	0.8832	0.119
Mof_H 	H 	0.8332	0.3783	0.9238	-0.008
Mof_C 	C 	0.176	0.2508	0.8145	0.105
Mof_H 	H 	0.2721	0.1836	0.7989	0.004
Mof_C 	C 	0.4169	0.9203	0.567	0.101
Mof_C 	C 	0.5108	0.0316	0.5883	-0.072
Mof_H 	H 	0.5175	0.0521	0.6474	0.07
Mof_C 	C 	0.4041	0.8872	0.4816	-0.077
Mof_H 	H 	0.3393	0.8111	0.4698	0.074
Mof_C 	C 	0.1639	0.7863	0.6428	0.105
Mof_H 	H 	0.0922	0.7998	0.5989	0.012
Mof_C 	C 	0.3816	0.7925	0.7161	0.095
Mof_H 	H 	0.4898	0.8134	0.7322	0.018
Mof_C 	C 	0.5965	0.9091	0.9344	-0.05
Mof_C 	C 	0.5391	0.8583	0.0185	-0.025
Mof_H 	H 	0.5648	0.7626	0.0319	0.058
Mof_C 	C 	0.4431	0.9485	0.0837	-0.027
Mof_H 	H 	0.405	0.9125	0.1405	0.056
Mof_C 	C 	0.7024	0.811	0.8622	0.312
Mof_C 	C 	0.6213	0.5424	0.5521	-0.062
Mof_C 	C 	0.6575	0.5558	0.461	-0.02
Mof_H 	H 	0.7635	0.593	0.4342	0.051
Mof_C 	C 	0.5369	0.5143	0.4086	-0.023
Mof_H 	H 	0.562	0.5243	0.347	0.059
Mof_C 	C 	0.7514	0.5938	0.6078	0.34
_end
