data_functionalizedCrystal
_audit_creation_method	'EQeq! by Chris Wilmer'
_symmetry_space_group_name_H-M	'P1'
_symmetry_Int_Tables_number	1
_symmetry_cell_setting	triclinic
loop_
_symmetry_equiv_pos_as_xyz
  x,y,z
_cell_length_a	10.3149
_cell_length_b	10.3149
_cell_length_c	14.339
_cell_angle_alpha	90
_cell_angle_beta	90
_cell_angle_gamma	90
loop_
_atom_site_label
_atom_site_type_symbol
_atom_site_fract_x
_atom_site_fract_y
_atom_site_fract_z
_atom_site_charge
Mof_O 	O 	0.9302	0.3297	0.0595	-0.515
Mof_O 	O 	0.9246	0.7503	0.2417	-0.528
Mof_O 	O 	0.9001	0.9228	0.161	-0.546
Mof_O 	O 	0.693	0.304	0.0899	-0.265
Mof_H 	H 	0.7425	0.3766	0.0615	0.123
Mof_C 	C 	0.9271	0.8067	0.1651	0.549
Mof_C 	C 	0.9645	0.5993	0.0799	0.229
Mof_H 	H 	0.9395	0.5536	0.1346	-0.025
Mof_C 	C 	0.9654	0.7331	0.0802	-0.278
Mof_C 	C 	0.575	0.297	0.034	0.097
Mof_H 	H 	0.5562	0.2063	0.0176	0.005
Mof_H 	H 	0.5859	0.3478	0.976	-0.009
Mof_C 	C 	0.458	0.357	0.096	-0.369
Mof_H 	H 	0.3774	0.3537	0.0608	0.174
Mof_H 	H 	0.4783	0.4475	0.1122	0.105
Mof_H 	H 	0.449	0.3066	0.1539	0.126
Mof_O 	O 	0.0698	0.6703	0.5595	-0.546
Mof_O 	O 	0.0754	0.2497	0.7417	-0.539
Mof_O 	O 	0.0999	0.0772	0.661	-0.599
Mof_O 	O 	0.307	0.696	0.5899	-0.282
Mof_H 	H 	0.2575	0.6234	0.5615	0.129
Mof_C 	C 	0.0729	0.1933	0.6651	0.559
Mof_C 	C 	0.0355	0.4007	0.5799	0.215
Mof_H 	H 	0.0605	0.4464	0.6346	-0.029
Mof_C 	C 	0.0346	0.2669	0.5802	-0.329
Mof_C 	C 	0.425	0.703	0.534	0.168
Mof_H 	H 	0.4438	0.7937	0.5176	-0.008
Mof_H 	H 	0.4141	0.6522	0.476	-0.054
Mof_C 	C 	0.542	0.643	0.596	-0.428
Mof_H 	H 	0.6226	0.6463	0.5608	0.177
Mof_H 	H 	0.5217	0.5525	0.6122	0.127
Mof_H 	H 	0.551	0.6934	0.6539	0.149
Mof_O 	O 	0.6703	0.9302	0.3095	-0.522
Mof_O 	O 	0.2497	0.9246	0.4917	-0.53
Mof_O 	O 	0.0772	0.9001	0.411	-0.589
Mof_O 	O 	0.696	0.693	0.3399	-0.286
Mof_H 	H 	0.6234	0.7425	0.3115	0.131
Mof_C 	C 	0.1933	0.9271	0.4151	0.563
Mof_C 	C 	0.4007	0.9645	0.3299	0.248
Mof_H 	H 	0.4464	0.9395	0.3846	-0.032
Mof_C 	C 	0.2669	0.9654	0.3302	-0.302
Mof_C 	C 	0.703	0.575	0.284	0.17
Mof_H 	H 	0.7937	0.5562	0.2676	-0.009
Mof_H 	H 	0.6522	0.5859	0.226	-0.056
Mof_C 	C 	0.643	0.458	0.346	-0.423
Mof_H 	H 	0.6463	0.3774	0.3108	0.173
Mof_H 	H 	0.5525	0.4783	0.3622	0.124
Mof_H 	H 	0.6934	0.449	0.4039	0.144
Mof_O 	O 	0.3297	0.0698	0.8095	-0.536
Mof_O 	O 	0.7503	0.0754	0.9917	-0.521
Mof_O 	O 	0.9228	0.0999	0.911	-0.547
Mof_O 	O 	0.304	0.307	0.8399	-0.269
Mof_H 	H 	0.3766	0.2575	0.8115	0.125
Mof_C 	C 	0.8067	0.0729	0.9151	0.545
Mof_C 	C 	0.5993	0.0355	0.8299	0.2
Mof_H 	H 	0.5536	0.0605	0.8846	-0.021
Mof_C 	C 	0.7331	0.0346	0.8302	-0.301
Mof_C 	C 	0.297	0.425	0.784	0.155
Mof_H 	H 	0.2063	0.4438	0.7676	-0.005
Mof_H 	H 	0.3478	0.4141	0.726	-0.047
Mof_C 	C 	0.357	0.542	0.846	-0.415
Mof_H 	H 	0.3537	0.6226	0.8108	0.176
Mof_H 	H 	0.4475	0.5217	0.8622	0.121
Mof_H 	H 	0.3066	0.551	0.9039	0.146
Mof_O 	O 	0.0698	0.3297	0.9405	-0.528
Mof_O 	O 	0.0754	0.7503	0.7583	-0.534
Mof_O 	O 	0.0999	0.9228	0.839	-0.553
Mof_O 	O 	0.307	0.304	0.9101	-0.303
Mof_H 	H 	0.2575	0.3766	0.9385	0.138
Mof_C 	C 	0.0729	0.8067	0.8349	0.546
Mof_C 	C 	0.0355	0.5993	0.9201	0.212
Mof_H 	H 	0.0605	0.5536	0.8654	-0.026
Mof_C 	C 	0.0346	0.7331	0.9198	-0.294
Mof_C 	C 	0.425	0.297	0.966	0.244
Mof_H 	H 	0.4438	0.2063	0.9824	-0.026
Mof_H 	H 	0.4141	0.3478	0.024	-0.101
Mof_C 	C 	0.542	0.357	0.904	-0.485
Mof_H 	H 	0.6226	0.3537	0.9392	0.175
Mof_H 	H 	0.5217	0.4475	0.8878	0.149
Mof_H 	H 	0.551	0.3066	0.8461	0.165
Mof_O 	O 	0.9302	0.6703	0.4405	-0.521
Mof_O 	O 	0.9246	0.2497	0.2583	-0.528
Mof_O 	O 	0.9001	0.0772	0.339	-0.588
Mof_O 	O 	0.693	0.696	0.4101	-0.288
Mof_H 	H 	0.7425	0.6234	0.4385	0.132
Mof_C 	C 	0.9271	0.1933	0.3349	0.562
Mof_C 	C 	0.9645	0.4007	0.4201	0.248
Mof_H 	H 	0.9395	0.4464	0.3654	-0.032
Mof_C 	C 	0.9654	0.2669	0.4198	-0.301
Mof_C 	C 	0.575	0.703	0.466	0.175
Mof_H 	H 	0.5562	0.7937	0.4824	-0.011
Mof_H 	H 	0.5859	0.6522	0.524	-0.059
Mof_C 	C 	0.458	0.643	0.404	-0.426
Mof_H 	H 	0.3774	0.6463	0.4392	0.17
Mof_H 	H 	0.4783	0.5525	0.3878	0.125
Mof_H 	H 	0.449	0.6934	0.3461	0.145
Mof_O 	O 	0.3297	0.9302	0.6905	-0.512
Mof_O 	O 	0.7503	0.9246	0.5083	-0.527
Mof_O 	O 	0.9228	0.9001	0.589	-0.544
Mof_O 	O 	0.304	0.693	0.6601	-0.287
Mof_H 	H 	0.3766	0.7425	0.6885	0.133
Mof_C 	C 	0.8067	0.9271	0.5849	0.552
Mof_C 	C 	0.5993	0.9645	0.6701	0.234
Mof_H 	H 	0.5536	0.9395	0.6154	-0.026
Mof_C 	C 	0.7331	0.9654	0.6698	-0.276
Mof_C 	C 	0.297	0.575	0.716	0.178
Mof_H 	H 	0.2063	0.5562	0.7324	-0.013
Mof_H 	H 	0.3478	0.5859	0.774	-0.061
Mof_C 	C 	0.357	0.458	0.654	-0.428
Mof_H 	H 	0.3537	0.3774	0.6892	0.168
Mof_H 	H 	0.4475	0.4783	0.6378	0.126
Mof_H 	H 	0.3066	0.449	0.5961	0.145
Mof_O 	O 	0.6703	0.0698	0.1905	-0.545
Mof_O 	O 	0.2497	0.0754	0.0083	-0.547
Mof_O 	O 	0.0772	0.0999	0.089	-0.599
Mof_O 	O 	0.696	0.307	0.1601	-0.295
Mof_H 	H 	0.6234	0.2575	0.1885	0.133
Mof_C 	C 	0.1933	0.0729	0.0849	0.56
Mof_C 	C 	0.4007	0.0355	0.1701	0.217
Mof_H 	H 	0.4464	0.0605	0.1154	-0.032
Mof_C 	C 	0.2669	0.0346	0.1698	-0.33
Mof_C 	C 	0.703	0.425	0.216	0.182
Mof_H 	H 	0.7937	0.4438	0.2324	-0.012
Mof_H 	H 	0.6522	0.4141	0.274	-0.06
Mof_C 	C 	0.643	0.542	0.154	-0.44
Mof_H 	H 	0.6463	0.6226	0.1892	0.178
Mof_H 	H 	0.5525	0.5217	0.1378	0.133
Mof_H 	H 	0.6934	0.551	0.0961	0.15
Mof_Gd	Gd	0.85983	0.14017	0.125	2.08
Mof_Gd	Gd	0.14017	0.85983	0.625	2.1
Mof_Gd	Gd	0.85983	0.85983	0.375	2.157
Mof_Gd	Gd	0.14017	0.14017	0.875	2.055
Mof_C 	C 	-0	0.3865	-0	0.499
Mof_C 	C 	-0	0.5303	-0	-0.325
Mof_C 	C 	-8.27316e-33	0.797	-0	0.185
Mof_H 	H 	-0	0.8891	-0	-0.053
Mof_C 	C 	-5.66709e-33	0.6135	0.5	0.517
Mof_C 	C 	2.60607e-33	0.4697	0.5	-0.332
Mof_C 	C 	-5.66709e-33	0.203	0.5	0.215
Mof_H 	H 	-5.66709e-33	0.1109	0.5	-0.082
Mof_C 	C 	0.6135	0	0.25	0.517
Mof_C 	C 	0.4697	0	0.25	-0.333
Mof_C 	C 	0.203	0	0.25	0.215
Mof_H 	H 	0.1109	0	0.25	-0.081
Mof_C 	C 	0.3865	-8.27316e-33	0.75	0.509
Mof_C 	C 	0.5303	-8.27316e-33	0.75	-0.317
Mof_C 	C 	0.797	-8.27316e-33	0.75	0.196
Mof_H 	H 	0.8891	-8.27316e-33	0.75	-0.052
_end
