data_functionalizedCrystal
_audit_creation_method	'EQeq! by Chris Wilmer'
_symmetry_space_group_name_H-M	'P1'
_symmetry_Int_Tables_number	1
_symmetry_cell_setting	triclinic
loop_
_symmetry_equiv_pos_as_xyz
  x,y,z
_cell_length_a	12.1772
_cell_length_b	15.5314
_cell_length_c	15.8267
_cell_angle_alpha	76.019
_cell_angle_beta	67.57
_cell_angle_gamma	69.196
loop_
_atom_site_label
_atom_site_type_symbol
_atom_site_fract_x
_atom_site_fract_y
_atom_site_fract_z
_atom_site_charge
Mof_Co	Co	0.2351	0.67961	0.03105	1.15
Mof_Co	Co	0.04536	0.03558	0.21574	1.143
Mof_Co	Co	0.04897	0.63356	0.26076	1.149
Mof_Co	Co	0.7649	0.32039	0.96895	1.15
Mof_Co	Co	0.95103	0.36644	0.73924	1.149
Mof_Co	Co	0.95464	0.96442	0.78426	1.143
Mof_Co	Co	0.43755	0.66382	0.81036	1.122
Mof_Co	Co	0.56245	0.33618	0.18964	1.122
Mof_H 	H 	0.9058	0.1661	0.4591	-0.002
Mof_H 	H 	0.2335	0.8345	0.7207	-0.036
Mof_H 	H 	0.7292	0.9742	0.5519	-0.007
Mof_H 	H 	0.3677	0.0847	0.9137	0.104
Mof_H 	H 	0.1673	0.2009	0.4569	0.011
Mof_H 	H 	0.8327	0.7991	0.5431	0.011
Mof_H 	H 	0.2959	0.8592	0.2134	0.041
Mof_H 	H 	0.0106	0.1578	0.6874	-0.021
Mof_H 	H 	0.0674	0.5583	0.6859	0.105
Mof_H 	H 	0.9676	0.6736	0.9571	0.083
Mof_H 	H 	0.9829	0.1472	0.0304	-0.015
Mof_H 	H 	0.1822	0.898	0.0609	-0.015
Mof_H 	H 	0.2578	0.4315	0.2963	-0.03
Mof_H 	H 	0.8178	0.102	0.9391	-0.015
Mof_H 	H 	0.7443	0.5381	0.9573	0.088
Mof_H 	H 	0.6494	0.8372	0.8573	0.066
Mof_H 	H 	0.2708	0.0258	0.4481	-0.007
Mof_H 	H 	0.3506	0.1628	0.1427	0.066
Mof_H 	H 	0.8011	0.2248	0.5994	0.102
Mof_H 	H 	0.9326	0.4526	0.4563	0.007
Mof_H 	H 	0.6323	0.9153	0.0863	0.104
Mof_H 	H 	0.7422	0.5685	0.7037	-0.03
Mof_H 	H 	0.2557	0.4619	0.0427	0.088
Mof_H 	H 	0.0324	0.3264	0.0429	0.083
Mof_H 	H 	0.586	0.2333	0.8993	0.077
Mof_H 	H 	0.0942	0.8339	0.5409	-0.002
Mof_H 	H 	0.414	0.7667	0.1007	0.077
Mof_H 	H 	0.3688	0.766	0.2582	0.054
Mof_H 	H 	0.0674	0.5474	0.5437	0.007
Mof_H 	H 	0.9217	0.7512	0.8092	0.062
Mof_H 	H 	0.8081	0.5272	0.1903	0.06
Mof_H 	H 	0.7665	0.1655	0.2793	-0.036
Mof_H 	H 	0.9689	0.3425	0.1982	0.065
Mof_H 	H 	0.0783	0.2488	0.1908	0.062
Mof_H 	H 	0.3598	0.9767	0.3064	0.13
Mof_H 	H 	0.6312	0.234	0.7418	0.054
Mof_H 	H 	0.6402	0.0233	0.6936	0.13
Mof_H 	H 	0.9894	0.8422	0.3126	-0.021
Mof_H 	H 	0.1205	0.0291	0.6759	0.231
Mof_H 	H 	0.9326	0.4417	0.3141	0.105
Mof_H 	H 	0.0311	0.6575	0.8018	0.065
Mof_H 	H 	0.1654	0.1889	0.317	0.114
Mof_H 	H 	0.1919	0.4728	0.8097	0.06
Mof_H 	H 	0.0171	0.8528	0.9696	-0.015
Mof_H 	H 	0.1989	0.7752	0.4006	0.102
Mof_H 	H 	0.8346	0.8111	0.683	0.114
Mof_H 	H 	0.4723	0.5223	0.07	-0.011
Mof_H 	H 	0.5277	0.4777	0.93	-0.011
Mof_H 	H 	0.7041	0.1408	0.7866	0.041
Mof_H 	H 	0.8795	0.9709	0.3241	0.231
Mof_C 	C 	0.8498	0.1383	0.5056	0.139
Mof_C 	C 	0.98	0.3917	0.3435	-0.203
Mof_C 	C 	0.1151	0.9694	0.6019	0.481
Mof_C 	C 	0.2383	0.0789	0.0881	0.287
Mof_C 	C 	0.0849	0.3634	0.0116	-0.133
Mof_C 	C 	0.0329	0.3735	0.8713	0.362
Mof_C 	C 	0.2351	0.4787	0.9195	-0.036
Mof_C 	C 	0.4745	0.2052	0.0277	-0.042
Mof_C 	C 	0.9534	0.6863	0.6991	0.157
Mof_C 	C 	0.0466	0.3137	0.3009	0.157
Mof_C 	C 	0.1502	0.8617	0.4944	0.139
Mof_C 	C 	0.02	0.6083	0.6565	-0.203
Mof_C 	C 	0.6046	0.8854	0.0576	-0.129
Mof_C 	C 	0.1443	0.3871	0.0569	0.186
Mof_C 	C 	0.0856	0.8347	0.9181	0.118
Mof_C 	C 	0.8278	0.0628	0.4907	-0.218
Mof_C 	C 	0.5264	0.2028	0.9338	-0.119
Mof_C 	C 	0.2874	0.4675	0.2415	0.135
Mof_C 	C 	0.5216	0.2559	0.0685	0.355
Mof_C 	C 	0.7827	0.555	0.9889	-0.127
Mof_C 	C 	0.6161	0.8375	0.9208	-0.024
Mof_C 	C 	0.9491	0.6678	0.4347	0.352
Mof_C 	C 	0.4893	0.1544	0.8908	0.184
Mof_C 	C 	0.8963	0.6052	0.0808	-0.031
Mof_C 	C 	0.9144	0.1653	0.0819	0.118
Mof_C 	C 	0.7649	0.5213	0.0805	-0.036
Mof_C 	C 	0.7878	0.1728	0.5902	-0.216
Mof_C 	C 	0.1433	0.8662	0.1156	0.109
Mof_C 	C 	0.0388	0.8363	0.2515	0.104
Mof_C 	C 	0.0198	0.601	0.5718	0.109
Mof_C 	C 	0.6905	0.0545	0.6457	-0.224
Mof_C 	C 	0.1791	0.4523	0.872	-0.021
Mof_C 	C 	0.7126	0.5325	0.7585	0.135
Mof_C 	C 	0.9497	0.688	0.7951	-0.098
Mof_C 	C 	0.6475	0.1672	0.7511	-0.064
Mof_C 	C 	0.2918	0.8686	0.3403	0.153
Mof_C 	C 	0.8567	0.1338	0.8844	0.109
Mof_C 	C 	0.6918	0.4538	0.1264	0.329
Mof_C 	C 	0.0509	0.3322	0.5653	0.352
Mof_C 	C 	0.8826	0.7572	0.6556	-0.206
Mof_C 	C 	0.3839	0.1625	0.0792	-0.024
Mof_C 	C 	0.5979	0.4833	0.8802	0.117
Mof_C 	C 	0.7469	0.0239	0.5614	0.165
Mof_C 	C 	0.1184	0.2502	0.428	0.113
Mof_C 	C 	0.5255	0.7948	0.9723	-0.042
Mof_C 	C 	0.5107	0.8456	0.1092	0.184
Mof_C 	C 	0.3525	0.8328	0.2489	-0.064
Mof_C 	C 	0.2014	0.8252	0.7847	0.123
Mof_C 	C 	0.1037	0.3948	0.9192	-0.031
Mof_C 	C 	0.3095	0.9455	0.3543	-0.224
Mof_C 	C 	0.1722	0.9372	0.5093	-0.218
Mof_C 	C 	0.8816	0.7498	0.572	0.113
Mof_C 	C 	0.3082	0.5462	0.8736	0.329
Mof_C 	C 	0.8849	0.0306	0.3981	0.481
Mof_C 	C 	0.2531	0.9761	0.4386	0.165
Mof_C 	C 	0.0503	0.312	0.2049	-0.098
Mof_C 	C 	0.7082	0.1314	0.6597	0.153
Mof_C 	C 	0.7617	0.9211	0.9119	0.287
Mof_C 	C 	0.3427	0.1185	0.0349	-0.018
Mof_C 	C 	0.9802	0.399	0.4282	0.109
Mof_C 	C 	0.3954	0.1146	0.9424	-0.129
Mof_C 	C 	0.2173	0.445	0.0111	-0.127
Mof_C 	C 	0.6573	0.8815	0.9651	-0.018
Mof_C 	C 	0.2122	0.8272	0.4098	-0.216
Mof_C 	C 	0.8209	0.5477	0.128	-0.021
Mof_C 	C 	0.0507	0.327	0.47	-0.164
Mof_C 	C 	0.7986	0.1748	0.2153	0.123
Mof_C 	C 	0.9612	0.1637	0.7485	0.104
Mof_C 	C 	0.9671	0.6265	0.1287	0.362
Mof_C 	C 	0.4021	0.5167	0.1198	0.117
Mof_C 	C 	0.4784	0.7441	0.9315	0.355
Mof_C 	C 	0.4736	0.7972	0.0662	-0.119
Mof_C 	C 	0.1174	0.2428	0.3444	-0.206
Mof_C 	C 	0.9493	0.673	0.53	-0.164
Mof_C 	C 	0.9151	0.6366	0.9884	-0.133
Mof_C 	C 	0.8557	0.6129	0.9431	0.186
Mof_N 	N 	0.0878	0.8712	0.8313	-0.278
Mof_N 	N 	0.8139	0.2267	0.0768	-0.218
Mof_N 	N 	0.7356	0.2337	0.1654	-0.225
Mof_N 	N 	0.9222	0.0956	0.8069	-0.278
Mof_N 	N 	0.2165	0.5423	0.2094	-0.235
Mof_N 	N 	0.9122	0.1288	0.1687	-0.278
Mof_N 	N 	0.2644	0.7663	0.8346	-0.225
Mof_N 	N 	0.7835	0.4577	0.7906	-0.235
Mof_N 	N 	0.1476	0.7791	0.1238	-0.223
Mof_N 	N 	0.4044	0.4477	0.1894	-0.262
Mof_N 	N 	0.0778	0.9044	0.1931	-0.278
Mof_N 	N 	0.5956	0.5523	0.8106	-0.262
Mof_N 	N 	0.8524	0.2209	0.8762	-0.223
Mof_N 	N 	0.7068	0.4255	0.8715	-0.224
Mof_N 	N 	0.1861	0.7733	0.9232	-0.218
Mof_N 	N 	0.2932	0.5745	0.1285	-0.224
Mof_N 	N 	0.0773	0.7591	0.2139	-0.234
Mof_N 	N 	0.9227	0.2409	0.7861	-0.234
Mof_O 	O 	0.804	0.9225	0.825	-0.42
Mof_O 	O 	0.1903	0.0504	0.0469	-0.327
Mof_O 	O 	0.0613	0.6514	0.0806	-0.472
Mof_O 	O 	0.0418	0.6071	0.3891	-0.447
Mof_O 	O 	0.0702	0.3841	0.7843	-0.448
Mof_O 	O 	0.6517	0.4372	0.2113	-0.378
Mof_O 	O 	0.9582	0.3929	0.6109	-0.447
Mof_O 	O 	0.196	0.0775	0.175	-0.42
Mof_O 	O 	0.5384	0.146	0.8	-0.209
Mof_O 	O 	0.5901	0.3033	0.0153	-0.47
Mof_O 	O 	0.9778	0.0549	0.3458	-0.493
Mof_O 	O 	0.868	0.7211	0.4053	-0.324
Mof_O 	O 	0.1366	0.3613	0.1464	-0.208
Mof_O 	O 	0.6708	0.4145	0.0753	-0.502
Mof_O 	O 	0.132	0.2789	0.5947	-0.324
Mof_O 	O 	0.4916	0.2487	0.1552	-0.423
Mof_O 	O 	0.9387	0.3486	0.9194	-0.472
Mof_O 	O 	0.0222	0.9451	0.6542	-0.493
Mof_O 	O 	0.3483	0.5628	0.7887	-0.378
Mof_O 	O 	0.1612	0.0163	0.6233	-0.534
Mof_O 	O 	0.4099	0.6967	0.9847	-0.47
Mof_O 	O 	0.5084	0.7513	0.8448	-0.423
Mof_O 	O 	0.8097	0.9496	0.9531	-0.327
Mof_O 	O 	0.9298	0.6159	0.2157	-0.448
Mof_O 	O 	0.8634	0.6387	0.8536	-0.208
Mof_O 	O 	0.3292	0.5855	0.9247	-0.502
Mof_O 	O 	0.8388	0.9837	0.3767	-0.534
Mof_O 	O 	0.4616	0.854	0.2	-0.209
_end
