data_functionalizedCrystal
_audit_creation_method	'EQeq! by Chris Wilmer'
_symmetry_space_group_name_H-M	'P1'
_symmetry_Int_Tables_number	1
_symmetry_cell_setting	triclinic
loop_
_symmetry_equiv_pos_as_xyz
  x,y,z
_cell_length_a	19.9356
_cell_length_b	19.9356
_cell_length_c	20.3583
_cell_angle_alpha	60.6845
_cell_angle_beta	60.6845
_cell_angle_gamma	60
loop_
_atom_site_label
_atom_site_type_symbol
_atom_site_fract_x
_atom_site_fract_y
_atom_site_fract_z
_atom_site_charge
Mof_Mn	Mn	0.26949	0.23051	0.75	0.822
Mof_Mn	Mn	0.23051	0.75	0.75	0.822
Mof_Mn	Mn	0.73051	0.76949	0.25	0.822
Mof_Mn	Mn	0.76949	0.25	0.25	0.822
Mof_Mn	Mn	0.75	0.26949	0.75	0.823
Mof_Mn	Mn	0.25	0.73051	0.25	0.823
Mof_H 	H 	0.0556	0.5422	0.9535	0.236
Mof_H 	H 	0.4034	0.1158	0.8329	0.146
Mof_H 	H 	0.1895	0.0418	0.8836	0.241
Mof_H 	H 	0.5556	0.9487	0.4535	0.239
Mof_H 	H 	0.9604	0.1635	0.0276	0.229
Mof_H 	H 	0.0163	0.9223	0.2766	0.012
Mof_H 	H 	0.9837	0.0777	0.7234	0.012
Mof_H 	H 	0.6635	0.4604	0.5276	0.229
Mof_H 	H 	0.2474	0.3518	0.4934	0.238
Mof_H 	H 	0.7474	0.4074	0.9934	0.235
Mof_H 	H 	0.3842	0.0966	0.6671	0.146
Mof_H 	H 	0.33	0.6238	0.4034	0.241
Mof_H 	H 	0.8396	0.0805	0.7759	0.124
Mof_H 	H 	0.9223	0.7848	0.2766	0.014
Mof_H 	H 	0.3485	0.6635	0.5276	0.229
Mof_H 	H 	0.1247	0.7057	0.4478	0.248
Mof_H 	H 	0.67	0.3762	0.5966	0.241
Mof_H 	H 	0.1879	0.5634	0.6608	0.268
Mof_H 	H 	0.1998	0.3015	0.5756	0.251
Mof_H 	H 	0.8751	0.8991	0.9316	0.259
Mof_H 	H 	0.3396	0.804	0.2759	0.124
Mof_H 	H 	0.196	0.4195	0.7241	0.124
Mof_H 	H 	0.9121	0.9366	0.8392	0.268
Mof_H 	H 	0.2218	0.2057	0.9478	0.243
Mof_H 	H 	0.6998	0.4231	0.0756	0.25
Mof_H 	H 	0.0704	0.4908	0.5276	0.239
Mof_H 	H 	0.0926	0.7526	0.5066	0.238
Mof_H 	H 	0.5926	0.1482	0.0066	0.234
Mof_H 	H 	0.1604	0.9195	0.2241	0.124
Mof_H 	H 	0.0422	0.5556	0.4535	0.239
Mof_H 	H 	0.0324	0.3963	0.0489	0.225
Mof_H 	H 	0.4604	0.3485	0.5276	0.229
Mof_H 	H 	0.4121	0.8121	0.3392	0.268
Mof_H 	H 	0.0888	0.9296	0.4724	0.239
Mof_H 	H 	0.6879	0.0879	0.1608	0.266
Mof_H 	H 	0.9016	0.3819	0.8746	0.257
Mof_H 	H 	0.9487	0.0422	0.4535	0.239
Mof_H 	H 	0.5513	0.9444	0.0465	0.234
Mof_H 	H 	0.7152	0.5777	0.2234	0.014
Mof_H 	H 	0.6158	0.9034	0.3329	0.146
Mof_H 	H 	0.7942	0.3991	0.4316	0.26
Mof_H 	H 	0.8485	0.9604	0.0276	0.231
Mof_H 	H 	0.3105	0.6149	0.6164	0.24
Mof_H 	H 	0.6428	0.33	0.4034	0.241
Mof_H 	H 	0.7782	0.7943	0.0522	0.243
Mof_H 	H 	0.6482	0.0926	0.5066	0.238
Mof_H 	H 	0.6581	0.1181	0.6254	0.256
Mof_H 	H 	0.4366	0.4121	0.3392	0.268
Mof_H 	H 	0.4582	0.3105	0.6164	0.24
Mof_H 	H 	0.8105	0.9582	0.1164	0.241
Mof_H 	H 	0.3572	0.67	0.5966	0.241
Mof_H 	H 	0.1149	0.8105	0.1164	0.239
Mof_H 	H 	0.1009	0.7058	0.0684	0.261
Mof_H 	H 	0.5634	0.5879	0.6608	0.268
Mof_H 	H 	0.3419	0.8819	0.3746	0.256
Mof_H 	H 	0.6479	0.4034	0.8329	0.146
Mof_H 	H 	0.4487	0.0556	0.9535	0.234
Mof_H 	H 	0.0634	0.6879	0.1608	0.269
Mof_H 	H 	0.1428	0.1238	0.9034	0.242
Mof_H 	H 	0.7943	0.3753	0.0522	0.247
Mof_H 	H 	0.304	0.8396	0.7759	0.124
Mof_H 	H 	0.9074	0.2474	0.4934	0.238
Mof_H 	H 	0.0224	0.8963	0.5489	0.231
Mof_H 	H 	0.1238	0.83	0.9034	0.241
Mof_H 	H 	0.7218	0.1247	0.4478	0.248
Mof_H 	H 	0.6249	0.2058	0.5684	0.26
Mof_H 	H 	0.5888	0.0092	0.9724	0.233
Mof_H 	H 	0.5418	0.6895	0.3836	0.24
Mof_H 	H 	0.0879	0.0634	0.1608	0.268
Mof_H 	H 	0.8819	0.4016	0.3746	0.256
Mof_H 	H 	0.9908	0.5704	0.0276	0.236
Mof_H 	H 	0.6009	0.6249	0.5684	0.26
Mof_H 	H 	0.1158	0.6479	0.8329	0.146
Mof_H 	H 	0.6895	0.3851	0.3836	0.24
Mof_H 	H 	0.3851	0.5418	0.3836	0.24
Mof_H 	H 	0.804	0.5805	0.2759	0.124
Mof_H 	H 	0.3762	0.3572	0.5966	0.241
Mof_H 	H 	0.8991	0.2942	0.9316	0.261
Mof_H 	H 	0.6149	0.4582	0.6164	0.24
Mof_H 	H 	0.6037	0.4776	0.9511	0.231
Mof_H 	H 	0.9034	0.1479	0.3329	0.146
Mof_H 	H 	0.4444	0.0513	0.5465	0.239
Mof_H 	H 	0.8521	0.3842	0.6671	0.146
Mof_H 	H 	0.0777	0.2152	0.7234	0.014
Mof_H 	H 	0.7526	0.6482	0.5066	0.238
Mof_H 	H 	0.5704	0.4112	0.0276	0.239
Mof_H 	H 	0.8762	0.17	0.0966	0.241
Mof_H 	H 	0.4578	0.5513	0.0465	0.239
Mof_H 	H 	0.9231	0.1998	0.5756	0.251
Mof_H 	H 	0.3002	0.5769	0.9244	0.25
Mof_H 	H 	0.0769	0.8002	0.4244	0.251
Mof_H 	H 	0.0418	0.8851	0.8836	0.24
Mof_H 	H 	0.9676	0.6037	0.9511	0.225
Mof_H 	H 	0.6985	0.0769	0.4244	0.251
Mof_H 	H 	0.8572	0.8762	0.0966	0.242
Mof_H 	H 	0.2058	0.6009	0.5684	0.26
Mof_H 	H 	0.8121	0.4366	0.3392	0.268
Mof_H 	H 	0.9296	0.5092	0.4724	0.239
Mof_H 	H 	0.6515	0.3365	0.4724	0.229
Mof_H 	H 	0.8963	0.5324	0.5489	0.231
Mof_H 	H 	0.8518	0.7474	0.9934	0.229
Mof_H 	H 	0.8851	0.1895	0.8836	0.239
Mof_H 	H 	0.3015	0.9231	0.5756	0.251
Mof_H 	H 	0.1581	0.0984	0.1254	0.256
Mof_H 	H 	0.4231	0.8015	0.0756	0.249
Mof_H 	H 	0.2526	0.5926	0.0066	0.235
Mof_H 	H 	0.0984	0.6181	0.1254	0.257
Mof_H 	H 	0.8842	0.3521	0.1671	0.146
Mof_H 	H 	0.3365	0.5396	0.4724	0.229
Mof_H 	H 	0.2848	0.4223	0.7766	0.014
Mof_H 	H 	0.1181	0.5984	0.6254	0.256
Mof_H 	H 	0.9195	0.696	0.2241	0.124
Mof_H 	H 	0.696	0.1604	0.2241	0.124
Mof_H 	H 	0.4195	0.6604	0.7241	0.124
Mof_H 	H 	0.3521	0.5966	0.1671	0.146
Mof_H 	H 	0.4223	0.5163	0.7766	0.014
Mof_H 	H 	0.3819	0.8419	0.8746	0.255
Mof_H 	H 	0.9582	0.1149	0.1164	0.24
Mof_H 	H 	0.0513	0.9578	0.5465	0.239
Mof_H 	H 	0.6604	0.196	0.7241	0.124
Mof_H 	H 	0.4837	0.7152	0.2234	0.014
Mof_H 	H 	0.2942	0.8751	0.9316	0.259
Mof_H 	H 	0.8015	0.6998	0.0756	0.245
Mof_H 	H 	0.3753	0.7782	0.0522	0.246
Mof_H 	H 	0.5163	0.2848	0.7766	0.014
Mof_H 	H 	0.1482	0.2526	0.0066	0.229
Mof_H 	H 	0.8419	0.9016	0.8746	0.256
Mof_H 	H 	0.83	0.1428	0.9034	0.24
Mof_H 	H 	0.7058	0.1249	0.0684	0.259
Mof_H 	H 	0.5396	0.6515	0.4724	0.229
Mof_H 	H 	0.5879	0.1879	0.6608	0.268
Mof_H 	H 	0.9578	0.4444	0.5465	0.239
Mof_H 	H 	0.5324	0.0224	0.5489	0.231
Mof_H 	H 	0.2152	0.9837	0.7234	0.012
Mof_H 	H 	0.0396	0.8365	0.9724	0.229
Mof_H 	H 	0.2057	0.6247	0.9478	0.247
Mof_H 	H 	0.8002	0.6985	0.4244	0.251
Mof_H 	H 	0.1985	0.3002	0.9244	0.245
Mof_H 	H 	0.1249	0.1009	0.0684	0.259
Mof_H 	H 	0.3121	0.9121	0.8392	0.266
Mof_H 	H 	0.4776	0.9676	0.9511	0.223
Mof_H 	H 	0.5422	0.4487	0.9535	0.239
Mof_H 	H 	0.0092	0.4296	0.9724	0.236
Mof_H 	H 	0.17	0.8572	0.0966	0.24
Mof_H 	H 	0.3518	0.9074	0.4934	0.238
Mof_H 	H 	0.0966	0.8521	0.6671	0.146
Mof_H 	H 	0.4074	0.8518	0.9934	0.234
Mof_H 	H 	0.4908	0.9112	0.5276	0.238
Mof_H 	H 	0.1515	0.0396	0.9724	0.231
Mof_H 	H 	0.1479	0.6158	0.3329	0.146
Mof_H 	H 	0.5805	0.3396	0.2759	0.124
Mof_H 	H 	0.9112	0.0704	0.5276	0.239
Mof_H 	H 	0.8753	0.2943	0.5522	0.248
Mof_H 	H 	0.7848	0.0163	0.2766	0.012
Mof_H 	H 	0.6238	0.6428	0.4034	0.241
Mof_H 	H 	0.3991	0.3751	0.4316	0.26
Mof_H 	H 	0.1037	0.4676	0.4511	0.231
Mof_H 	H 	0.3751	0.7942	0.4316	0.26
Mof_H 	H 	0.2943	0.2782	0.5522	0.248
Mof_H 	H 	0.4112	0.9908	0.0276	0.233
Mof_H 	H 	0.5777	0.4837	0.2234	0.014
Mof_H 	H 	0.4016	0.3419	0.3746	0.256
Mof_H 	H 	0.8365	0.1515	0.9724	0.228
Mof_H 	H 	0.3963	0.5224	0.0489	0.231
Mof_H 	H 	0.2782	0.8753	0.5522	0.248
Mof_H 	H 	0.9444	0.4578	0.0465	0.236
Mof_H 	H 	0.5984	0.6581	0.6254	0.256
Mof_H 	H 	0.5769	0.1985	0.9244	0.249
Mof_H 	H 	0.4676	0.9776	0.4511	0.231
Mof_H 	H 	0.5092	0.0888	0.4724	0.238
Mof_H 	H 	0.5966	0.8842	0.1671	0.146
Mof_H 	H 	0.9776	0.1037	0.4511	0.231
Mof_H 	H 	0.6247	0.2218	0.9478	0.246
Mof_H 	H 	0.9366	0.3121	0.8392	0.269
Mof_H 	H 	0.4296	0.5888	0.9724	0.239
Mof_H 	H 	0.1635	0.8485	0.0276	0.228
Mof_H 	H 	0.5224	0.0324	0.0489	0.223
Mof_H 	H 	0.0805	0.304	0.7759	0.124
Mof_H 	H 	0.7057	0.7218	0.4478	0.248
Mof_H 	H 	0.6181	0.1581	0.1254	0.255
Mof_C 	C 	0.97278	0.91648	0.27666	0.054
Mof_C 	C 	0.93399	0.23589	0.08643	0.25
Mof_C 	C 	0.20335	0.78585	0.52895	-0.165
Mof_C 	C 	0.17726	0.25626	0.95152	-0.745
Mof_C 	C 	0.33408	0.41648	0.77666	0.051
Mof_C 	C 	0.66592	0.58352	0.22334	0.051
Mof_C 	C 	0.27179	0.69388	0.91396	0.259
Mof_C 	C 	0.5362	0.2321	0.4475	-0.179
Mof_C 	C 	0.98744	0.69914	0.11388	0.28
Mof_C 	C 	0.19914	0.48744	0.61388	0.278
Mof_C 	C 	0.01763	0.15808	0.72331	-0.145
Mof_C 	C 	0.568	0.678	0.4187	-0.748
Mof_C 	C 	0.17557	0.57007	0.61739	-0.816
Mof_C 	C 	0.6647	0.432	0.5813	-0.748
Mof_C 	C 	0.76411	0.25631	0.91357	0.25
Mof_C 	C 	0.57007	0.63697	0.61739	-0.815
Mof_C 	C 	0.89902	0.98237	0.27669	-0.145
Mof_C 	C 	0.32274	0.88504	0.54848	-0.766
Mof_C 	C 	0.11496	0.75626	0.45152	-0.766
Mof_C 	C 	0.03899	0.65749	0.93793	0.265
Mof_C 	C 	0.39902	0.34192	0.77669	-0.145
Mof_C 	C 	0.75626	0.67726	0.45152	-0.766
Mof_C 	C 	0.70335	0.98185	0.02895	-0.16
Mof_C 	C 	0.10098	0.01763	0.72331	-0.145
Mof_C 	C 	0.24369	0.73589	0.58643	0.25
Mof_C 	C 	0.7842	0.5362	0.4475	-0.179
Mof_C 	C 	0.12037	0.27179	0.91396	0.255
Mof_C 	C 	0.63697	0.17557	0.61739	-0.816
Mof_C 	C 	0.30612	0.87963	0.08604	0.26
Mof_C 	C 	0.93877	0.22887	0.72049	0.33
Mof_C 	C 	0.2158	0.4638	0.5525	-0.179
Mof_C 	C 	0.7158	0.2679	0.0525	-0.178
Mof_C 	C 	0.80612	0.22821	0.58604	0.26
Mof_C 	C 	0.32443	0.86303	0.88261	-0.813
Mof_C 	C 	0.06834	0.91284	0.52958	-0.761
Mof_C 	C 	0.15808	0.10098	0.72331	-0.146
Mof_C 	C 	0.28585	0.70335	0.02895	-0.165
Mof_C 	C 	0.0362	0.2842	0.9475	-0.176
Mof_C 	C 	0.51763	0.60098	0.22331	-0.145
Mof_C 	C 	0.56123	0.38813	0.77951	0.332
Mof_C 	C 	0.41284	0.56834	0.02958	-0.761
Mof_C 	C 	0.92993	0.32443	0.88261	-0.821
Mof_C 	C 	0.77113	0.88813	0.27951	0.332
Mof_C 	C 	0.30086	0.80046	0.88612	0.276
Mof_C 	C 	0.13697	0.07007	0.11739	-0.82
Mof_C 	C 	0.02722	0.08352	0.72334	0.054
Mof_C 	C 	0.58352	0.52722	0.22334	0.051
Mof_C 	C 	0.01815	0.71415	0.97105	-0.164
Mof_C 	C 	0.75631	0.26411	0.41357	0.25
Mof_C 	C 	0.74374	0.38504	0.04848	-0.761
Mof_C 	C 	0.65808	0.51763	0.22331	-0.145
Mof_C 	C 	0.07007	0.67557	0.11739	-0.821
Mof_C 	C 	0.83408	0.97278	0.27666	0.055
Mof_C 	C 	0.72821	0.30612	0.08604	0.259
Mof_C 	C 	0.22821	0.37963	0.58604	0.26
Mof_C 	C 	0.87963	0.72821	0.08604	0.255
Mof_C 	C 	0.98185	0.28585	0.02895	-0.164
Mof_C 	C 	0.53899	0.86559	0.43793	0.267
Mof_C 	C 	0.65749	0.36559	0.93793	0.268
Mof_C 	C 	0.91284	0.48924	0.52958	-0.761
Mof_C 	C 	0.52722	0.66592	0.22334	0.051
Mof_C 	C 	0.80086	0.51256	0.38612	0.278
Mof_C 	C 	0.88504	0.24374	0.54848	-0.766
Mof_C 	C 	0.69954	0.19914	0.61388	0.278
Mof_C 	C 	0.30046	0.80086	0.38612	0.278
Mof_C 	C 	0.22887	0.11187	0.72049	0.332
Mof_C 	C 	0.61496	0.17726	0.95152	-0.759
Mof_C 	C 	0.23589	0.74369	0.08643	0.25
Mof_C 	C 	0.93166	0.08716	0.47042	-0.761
Mof_C 	C 	0.19388	0.77179	0.41396	0.26
Mof_C 	C 	0.61187	0.72887	0.22049	0.332
Mof_C 	C 	0.58716	0.43166	0.97042	-0.761
Mof_C 	C 	0.25626	0.61496	0.95152	-0.761
Mof_C 	C 	0.82443	0.42993	0.38261	-0.816
Mof_C 	C 	0.91648	0.83408	0.27666	0.052
Mof_C 	C 	0.82274	0.74374	0.04848	-0.745
Mof_C 	C 	0.41648	0.47278	0.77666	0.051
Mof_C 	C 	0.56601	0.75631	0.41357	0.25
Mof_C 	C 	0.86303	0.92993	0.88261	-0.82
Mof_C 	C 	0.73589	0.43399	0.58643	0.25
Mof_C 	C 	0.48744	0.69954	0.61388	0.278
Mof_C 	C 	0.51256	0.30046	0.38612	0.278
Mof_C 	C 	0.38813	0.27113	0.77951	0.332
Mof_C 	C 	0.36559	0.03899	0.93793	0.262
Mof_C 	C 	0.71415	0.29665	0.97105	-0.165
Mof_C 	C 	0.27113	0.56123	0.77951	0.331
Mof_C 	C 	0.08716	0.51076	0.47042	-0.761
Mof_C 	C 	0.34251	0.63441	0.06207	0.268
Mof_C 	C 	0.74369	0.93399	0.08643	0.25
Mof_C 	C 	0.9638	0.7158	0.0525	-0.176
Mof_C 	C 	0.08352	0.16592	0.72334	0.052
Mof_C 	C 	0.3353	0.568	0.4187	-0.748
Mof_C 	C 	0.43166	0.01076	0.97042	-0.741
Mof_C 	C 	0.26411	0.56601	0.41357	0.25
Mof_C 	C 	0.4638	0.7679	0.5525	-0.179
Mof_C 	C 	0.69388	0.12037	0.91396	0.26
Mof_C 	C 	0.2679	0.9638	0.0525	-0.181
Mof_C 	C 	0.432	0.322	0.5813	-0.748
Mof_C 	C 	0.822	0.932	0.0813	-0.75
Mof_C 	C 	0.24374	0.32274	0.54848	-0.766
Mof_C 	C 	0.84192	0.89902	0.27669	-0.146
Mof_C 	C 	0.67557	0.13697	0.11739	-0.813
Mof_C 	C 	0.77179	0.62037	0.41396	0.26
Mof_C 	C 	0.15749	0.53899	0.43793	0.267
Mof_C 	C 	0.78585	0.48185	0.52895	-0.165
Mof_C 	C 	0.79665	0.21415	0.47105	-0.165
Mof_C 	C 	0.178	0.068	0.9187	-0.75
Mof_C 	C 	0.34192	0.48237	0.77669	-0.145
Mof_C 	C 	0.62037	0.19388	0.41396	0.26
Mof_C 	C 	0.2842	0.7321	0.9475	-0.178
Mof_C 	C 	0.96101	0.34251	0.06207	0.265
Mof_C 	C 	0.1647	0.822	0.0813	-0.748
Mof_C 	C 	0.42993	0.36303	0.38261	-0.815
Mof_C 	C 	0.29665	0.01815	0.97105	-0.16
Mof_C 	C 	0.7679	0.2158	0.5525	-0.179
Mof_C 	C 	0.98237	0.84192	0.27669	-0.145
Mof_C 	C 	0.21415	0.51815	0.47105	-0.165
Mof_C 	C 	0.48924	0.06834	0.52958	-0.761
Mof_C 	C 	0.01256	0.30086	0.88612	0.28
Mof_C 	C 	0.01076	0.58716	0.97042	-0.748
Mof_C 	C 	0.068	0.8353	0.9187	-0.748
Mof_C 	C 	0.25631	0.06601	0.91357	0.25
Mof_C 	C 	0.8353	0.178	0.9187	-0.748
Mof_C 	C 	0.51815	0.79665	0.47105	-0.165
Mof_C 	C 	0.56834	0.98924	0.02958	-0.741
Mof_C 	C 	0.06601	0.76411	0.91357	0.25
Mof_C 	C 	0.16592	0.02722	0.72334	0.055
Mof_C 	C 	0.38504	0.82274	0.04848	-0.759
Mof_C 	C 	0.72887	0.43877	0.22049	0.331
Mof_C 	C 	0.322	0.6647	0.5813	-0.748
Mof_C 	C 	0.46101	0.13441	0.56207	0.267
Mof_C 	C 	0.51076	0.93166	0.47042	-0.761
Mof_C 	C 	0.48237	0.39902	0.77669	-0.145
Mof_C 	C 	0.98924	0.41284	0.02958	-0.748
Mof_C 	C 	0.37963	0.80612	0.58604	0.26
Mof_C 	C 	0.7321	0.0362	0.9475	-0.181
Mof_C 	C 	0.43877	0.61187	0.22049	0.332
Mof_C 	C 	0.43399	0.24369	0.58643	0.25
Mof_C 	C 	0.67726	0.11496	0.45152	-0.766
Mof_C 	C 	0.678	0.3353	0.4187	-0.748
Mof_C 	C 	0.19954	0.98744	0.11388	0.281
Mof_C 	C 	0.60098	0.65808	0.22331	-0.145
Mof_C 	C 	0.86559	0.15749	0.43793	0.267
Mof_C 	C 	0.80046	0.01256	0.88612	0.281
Mof_C 	C 	0.06123	0.77113	0.27951	0.33
Mof_C 	C 	0.13441	0.84251	0.56207	0.267
Mof_C 	C 	0.84251	0.46101	0.56207	0.267
Mof_C 	C 	0.69914	0.19954	0.11388	0.276
Mof_C 	C 	0.932	0.1647	0.0813	-0.748
Mof_C 	C 	0.48185	0.20335	0.52895	-0.165
Mof_C 	C 	0.63441	0.96101	0.06207	0.262
Mof_C 	C 	0.47278	0.33408	0.77666	0.051
Mof_C 	C 	0.11187	0.93877	0.72049	0.331
Mof_C 	C 	0.36303	0.82443	0.38261	-0.816
Mof_C 	C 	0.88813	0.06123	0.27951	0.331
Mof_C 	C 	0.2321	0.7842	0.4475	-0.179
Mof_N 	N 	0.20372	0.41994	0.67856	-0.223
Mof_N 	N 	0.08006	0.29628	0.82144	-0.223
Mof_N 	N 	0.76251	0.22207	0.66302	-0.182
Mof_N 	N 	0.5946	0.86559	0.36509	-0.226
Mof_N 	N 	0.63441	0.9054	0.13491	-0.225
Mof_N 	N 	0.58006	0.30222	0.32144	-0.223
Mof_N 	N 	0.27793	0.73749	0.83698	-0.181
Mof_N 	N 	0.9054	0.32528	0.13491	-0.226
Mof_N 	N 	0.29628	0.80222	0.82144	-0.222
Mof_N 	N 	0.3524	0.76251	0.66302	-0.182
Mof_N 	N 	0.36559	0.0946	0.86509	-0.225
Mof_N 	N 	0.29852	0.11317	0.84868	-0.18
Mof_N 	N 	0.91994	0.70372	0.17856	-0.223
Mof_N 	N 	0.80222	0.08006	0.82144	-0.223
Mof_N 	N 	0.11317	0.73963	0.84868	-0.18
Mof_N 	N 	0.79628	0.58006	0.32144	-0.223
Mof_N 	N 	0.70372	0.19778	0.17856	-0.222
Mof_N 	N 	0.73963	0.29852	0.84868	-0.18
Mof_N 	N 	0.17472	0.5946	0.36509	-0.226
Mof_N 	N 	0.8524	0.72207	0.16302	-0.181
Mof_N 	N 	0.73749	0.1476	0.83698	-0.181
Mof_N 	N 	0.77793	0.6476	0.33698	-0.182
Mof_N 	N 	0.82528	0.4054	0.63491	-0.226
Mof_N 	N 	0.6476	0.23749	0.33698	-0.182
Mof_N 	N 	0.13441	0.82528	0.63491	-0.226
Mof_N 	N 	0.38683	0.20148	0.65132	-0.18
Mof_N 	N 	0.26251	0.8524	0.16302	-0.181
Mof_N 	N 	0.19778	0.91994	0.17856	-0.223
Mof_N 	N 	0.1476	0.27793	0.83698	-0.181
Mof_N 	N 	0.41994	0.69778	0.67856	-0.223
Mof_N 	N 	0.4054	0.13441	0.63491	-0.226
Mof_N 	N 	0.32528	0.63441	0.13491	-0.226
Mof_N 	N 	0.26037	0.70148	0.15132	-0.18
Mof_N 	N 	0.22207	0.3524	0.66302	-0.182
Mof_N 	N 	0.23963	0.61317	0.34868	-0.18
Mof_N 	N 	0.20148	0.76037	0.65132	-0.18
Mof_N 	N 	0.67472	0.36559	0.86509	-0.226
Mof_N 	N 	0.30222	0.79628	0.32144	-0.223
Mof_N 	N 	0.88683	0.26037	0.15132	-0.18
Mof_N 	N 	0.61317	0.79852	0.34868	-0.18
Mof_N 	N 	0.86559	0.17472	0.36509	-0.226
Mof_N 	N 	0.72207	0.26251	0.16302	-0.181
Mof_N 	N 	0.79852	0.23963	0.34868	-0.18
Mof_N 	N 	0.76037	0.38683	0.65132	-0.18
Mof_N 	N 	0.0946	0.67472	0.86509	-0.226
Mof_N 	N 	0.23749	0.77793	0.33698	-0.182
Mof_N 	N 	0.70148	0.88683	0.15132	-0.18
Mof_N 	N 	0.69778	0.20372	0.67856	-0.223
Mof_O 	O 	0.21534	0.1798	0.72289	-0.371
Mof_O 	O 	0.8202	0.11803	0.27711	-0.371
Mof_O 	O 	0.55409	0.79674	0.21521	-0.31
Mof_O 	O 	0.61803	0.3202	0.77711	-0.371
Mof_O 	O 	0.20326	0.56604	0.78479	-0.31
Mof_O 	O 	0.78466	0.8202	0.27711	-0.371
Mof_O 	O 	0.44591	0.20326	0.78479	-0.31
Mof_O 	O 	0.71534	0.38197	0.22289	-0.371
Mof_O 	O 	0.93396	0.29674	0.71521	-0.311
Mof_O 	O 	0.56604	0.44591	0.78479	-0.311
Mof_O 	O 	0.3202	0.28466	0.77711	-0.371
Mof_O 	O 	0.70326	0.94591	0.28479	-0.31
Mof_O 	O 	0.43396	0.55409	0.21521	-0.311
Mof_O 	O 	0.79674	0.43396	0.21521	-0.31
Mof_O 	O 	0.38197	0.6798	0.22289	-0.371
Mof_O 	O 	0.1798	0.88197	0.72289	-0.371
Mof_O 	O 	0.11803	0.78466	0.27711	-0.371
Mof_O 	O 	0.05409	0.93396	0.71521	-0.311
Mof_O 	O 	0.6798	0.71534	0.22289	-0.371
Mof_O 	O 	0.28466	0.61803	0.77711	-0.371
Mof_O 	O 	0.29674	0.05409	0.71521	-0.31
Mof_O 	O 	0.88197	0.21534	0.72289	-0.371
Mof_O 	O 	0.94591	0.06604	0.28479	-0.311
Mof_O 	O 	0.06604	0.70326	0.28479	-0.311
_end
