# CIF file generated by openbabel 3.1.0, see https://openbabel.org
data_I
_chemical_name_common 'image0'
_cell_length_a 17.9958
_cell_length_b 12.8531
_cell_length_c 11.0394
_cell_angle_alpha 90
_cell_angle_beta 103.588
_cell_angle_gamma 90
_space_group_name_H-M_alt 'P 1'
_space_group_name_Hall 'P 1'
loop_
    _symmetry_equiv_pos_as_xyz
    x,y,z
loop_
    _atom_site_label
    _atom_site_type_symbol
    _atom_site_fract_x
    _atom_site_fract_y
    _atom_site_fract_z
    _atom_site_occupancy
    Mg1      Mg       0.41464    0.53577    0.45809    1.000
    O1       O        0.52131    0.58608    0.44628    1.000
    H1       H        0.53720    0.63620    0.47400    1.000
    O2       O        0.36506    0.41384    0.09729    1.000
    O3       O        0.08303    0.20798    0.27519    1.000
    O4       O        0.14517    0.16520    0.12839    1.000
    O5       O        0.42330    0.48576    0.27891    1.000
    C1       C        0.30926    0.39449    0.27046    1.000
    N1       N        0.31386    0.43302    0.38578    1.000
    C2       C        0.13655    0.21628    0.22092    1.000
    C3       C        0.25285    0.32559    0.21243    1.000
    H2       H        0.25390    0.29940    0.13200    1.000
    C4       C        0.19803    0.29536    0.27529    1.000
    C5       C        0.20159    0.33673    0.39237    1.000
    H3       H        0.16460    0.31940    0.43600    1.000
    C6       C        0.37057    0.43374    0.20905    1.000
    C7       C        0.26001    0.40442    0.44415    1.000
    H4       H        0.26410    0.43410    0.52600    1.000
    Mg2      Mg       0.91464    0.03577    0.45809    1.000
    O6       O        0.02131    0.08608    0.44628    1.000
    H5       H        0.03720    0.13620    0.47400    1.000
    O7       O        0.86506    0.91384    0.09729    1.000
    O8       O        0.58303    0.70798    0.27519    1.000
    O9       O        0.64517    0.66520    0.12839    1.000
    O10      O        0.92330    0.98576    0.27891    1.000
    C8       C        0.80926    0.89449    0.27046    1.000
    N2       N        0.81386    0.93302    0.38578    1.000
    C9       C        0.63655    0.71628    0.22092    1.000
    C10      C        0.75285    0.82559    0.21243    1.000
    H6       H        0.75390    0.79940    0.13200    1.000
    C11      C        0.69803    0.79536    0.27529    1.000
    C12      C        0.70159    0.83673    0.39237    1.000
    H7       H        0.66460    0.81940    0.43600    1.000
    C13      C        0.87057    0.93374    0.20905    1.000
    C14      C        0.76001    0.90442    0.44415    1.000
    H8       H        0.76410    0.93410    0.52600    1.000
    Mg3      Mg       0.58536    0.53577    0.04191    1.000
    O11      O        0.47869    0.58608    0.05372    1.000
    H9       H        0.46280    0.63620    0.02600    1.000
    O12      O        0.63494    0.41384    0.40271    1.000
    O13      O        0.91697    0.20798    0.22481    1.000
    O14      O        0.85483    0.16520    0.37161    1.000
    O15      O        0.57670    0.48576    0.22109    1.000
    C15      C        0.69074    0.39449    0.22954    1.000
    N3       N        0.68614    0.43302    0.11422    1.000
    C16      C        0.86345    0.21628    0.27908    1.000
    C17      C        0.74715    0.32559    0.28757    1.000
    H10      H        0.74610    0.29940    0.36800    1.000
    C18      C        0.80197    0.29536    0.22471    1.000
    C19      C        0.79841    0.33673    0.10763    1.000
    H11      H        0.83540    0.31940    0.06400    1.000
    C20      C        0.62943    0.43374    0.29095    1.000
    C21      C        0.73999    0.40442    0.05585    1.000
    H12      H        0.73590    0.43410    0.97400    1.000
    Mg4      Mg       0.08536    0.03577    0.04191    1.000
    O16      O        0.97869    0.08608    0.05372    1.000
    H13      H        0.96280    0.13620    0.02600    1.000
    O17      O        0.13494    0.91384    0.40271    1.000
    O18      O        0.41697    0.70798    0.22481    1.000
    O19      O        0.35483    0.66520    0.37161    1.000
    O20      O        0.07670    0.98576    0.22109    1.000
    C22      C        0.19074    0.89449    0.22954    1.000
    N4       N        0.18614    0.93302    0.11422    1.000
    C23      C        0.36345    0.71628    0.27908    1.000
    C24      C        0.24715    0.82559    0.28757    1.000
    H14      H        0.24610    0.79940    0.36800    1.000
    C25      C        0.30197    0.79536    0.22471    1.000
    C26      C        0.29841    0.83673    0.10763    1.000
    H15      H        0.33540    0.81940    0.06400    1.000
    C27      C        0.12943    0.93374    0.29095    1.000
    C28      C        0.23999    0.90442    0.05585    1.000
    H16      H        0.23590    0.93410    0.97400    1.000
    Mg5      Mg       0.58536    0.46423    0.54191    1.000
    O21      O        0.47869    0.41392    0.55372    1.000
    H17      H        0.46280    0.36380    0.52600    1.000
    O22      O        0.63494    0.58616    0.90271    1.000
    O23      O        0.91697    0.79202    0.72481    1.000
    O24      O        0.85483    0.83480    0.87161    1.000
    O25      O        0.57670    0.51424    0.72109    1.000
    C29      C        0.69074    0.60551    0.72954    1.000
    N5       N        0.68614    0.56698    0.61422    1.000
    C30      C        0.86345    0.78372    0.77908    1.000
    C31      C        0.74715    0.67441    0.78757    1.000
    H18      H        0.74610    0.70060    0.86800    1.000
    C32      C        0.80197    0.70464    0.72471    1.000
    C33      C        0.79841    0.66327    0.60763    1.000
    H19      H        0.83540    0.68060    0.56400    1.000
    C34      C        0.62943    0.56626    0.79095    1.000
    C35      C        0.73999    0.59558    0.55585    1.000
    H20      H        0.73590    0.56590    0.47400    1.000
    Mg6      Mg       0.08536    0.96423    0.54191    1.000
    O26      O        0.97869    0.91392    0.55372    1.000
    H21      H        0.96280    0.86380    0.52600    1.000
    O27      O        0.13494    0.08616    0.90271    1.000
    O28      O        0.41697    0.29202    0.72481    1.000
    O29      O        0.35483    0.33480    0.87161    1.000
    O30      O        0.07670    0.01424    0.72109    1.000
    C36      C        0.19074    0.10551    0.72954    1.000
    N6       N        0.18614    0.06698    0.61422    1.000
    C37      C        0.36345    0.28372    0.77908    1.000
    C38      C        0.24715    0.17441    0.78757    1.000
    H22      H        0.24610    0.20060    0.86800    1.000
    C39      C        0.30197    0.20464    0.72471    1.000
    C40      C        0.29841    0.16327    0.60763    1.000
    H23      H        0.33540    0.18060    0.56400    1.000
    C41      C        0.12943    0.06626    0.79095    1.000
    C42      C        0.23999    0.09558    0.55585    1.000
    H24      H        0.23590    0.06590    0.47400    1.000
    Mg7      Mg       0.41464    0.46423    0.95809    1.000
    O31      O        0.52131    0.41392    0.94628    1.000
    H25      H        0.53720    0.36380    0.97400    1.000
    O32      O        0.36506    0.58616    0.59729    1.000
    O33      O        0.08303    0.79202    0.77519    1.000
    O34      O        0.14517    0.83480    0.62839    1.000
    O35      O        0.42330    0.51424    0.77891    1.000
    C43      C        0.30926    0.60551    0.77046    1.000
    N7       N        0.31386    0.56698    0.88578    1.000
    C44      C        0.13655    0.78372    0.72092    1.000
    C45      C        0.25285    0.67441    0.71243    1.000
    H26      H        0.25390    0.70060    0.63200    1.000
    C46      C        0.19803    0.70464    0.77529    1.000
    C47      C        0.20159    0.66327    0.89237    1.000
    H27      H        0.16460    0.68060    0.93600    1.000
    C48      C        0.37057    0.56626    0.70905    1.000
    C49      C        0.26001    0.59558    0.94415    1.000
    H28      H        0.26410    0.56590    0.02600    1.000
    Mg8      Mg       0.91464    0.96423    0.95809    1.000
    O36      O        0.02131    0.91392    0.94628    1.000
    H29      H        0.03720    0.86380    0.97400    1.000
    O37      O        0.86506    0.08616    0.59729    1.000
    O38      O        0.58303    0.29202    0.77519    1.000
    O39      O        0.64517    0.33480    0.62839    1.000
    O40      O        0.92330    0.01424    0.77891    1.000
    C50      C        0.80926    0.10551    0.77046    1.000
    N8       N        0.81386    0.06698    0.88578    1.000
    C51      C        0.63655    0.28372    0.72092    1.000
    C52      C        0.75285    0.17441    0.71243    1.000
    H30      H        0.75390    0.20060    0.63200    1.000
    C53      C        0.69803    0.20464    0.77529    1.000
    C54      C        0.70159    0.16327    0.89237    1.000
    H31      H        0.66460    0.18060    0.93600    1.000
    C55      C        0.87057    0.06626    0.70905    1.000
    C56      C        0.76001    0.09558    0.94415    1.000
    H32      H        0.76410    0.06590    0.02600    1.000
    Mg9      Mg       0.50000    0.59773    0.25000    1.000
    Mg10     Mg       0.00000    0.09773    0.25000    1.000
    Mg11     Mg       0.50000    0.40227    0.75000    1.000
    Mg12     Mg       0.00000    0.90227    0.75000    1.000
