# CIF file generated by openbabel 3.1.0, see https://openbabel.org
data_I
_chemical_name_common 'image0'
_cell_length_a 10.786
_cell_length_b 16.726
_cell_length_c 17.385
_cell_angle_alpha 114.67
_cell_angle_beta 93.29
_cell_angle_gamma 99.58
_space_group_name_H-M_alt 'P 1'
_space_group_name_Hall 'P 1'
loop_
    _symmetry_equiv_pos_as_xyz
    x,y,z
loop_
    _atom_site_label
    _atom_site_type_symbol
    _atom_site_fract_x
    _atom_site_fract_y
    _atom_site_fract_z
    _atom_site_occupancy
    O1       O        0.81960    0.99120    0.04940    1.000
    O2       O        0.46290    0.23990    0.03790    1.000
    O3       O        0.30410    0.17990    0.08820    1.000
    C1       C        0.41530    0.19030    0.07100    1.000
    C2       C        0.49250    0.13480    0.09020    1.000
    O4       O        0.92630    0.92050    0.88620    1.000
    Pr1      Pr       0.08363    0.14059    0.01175    1.000
    Pr2      Pr       0.37249    0.34309    0.99430    1.000
    Pr3      Pr       0.43730    0.86677    0.40593    1.000
    C3       C        0.26060    0.97160    0.64280    1.000
    O5       O        0.99550    0.25050    0.96520    1.000
    O6       O        0.61370    0.13850    0.06630    1.000
    O7       O        0.84280    0.35850    0.94640    1.000
    O8       O        0.85530    0.12250    0.03950    1.000
    O9       O        0.22630    0.16460    0.91370    1.000
    O10      O        0.60030    0.37430    0.97260    1.000
    O11      O        0.15700    0.32520    0.92850    1.000
    O12      O        0.93790    0.04840    0.87340    1.000
    O13      O        0.76250    0.96290    0.73060    1.000
    O14      O        0.37570    0.21070    0.85190    1.000
    O15      O        0.22580    0.33140    0.09120    1.000
    O16      O        0.38530    0.00160    0.54590    1.000
    O17      O        0.29870    0.48320    0.23780    1.000
    O18      O        0.62780    0.49770    0.94940    1.000
    O19      O        0.08000    0.27470    0.15000    1.000
    C4       C        0.19440    0.42190    0.23210    1.000
    C5       C        0.66370    0.43050    0.95190    1.000
    O20      O        0.30730    0.05740    0.70420    1.000
    C6       C        0.24770    0.06450    0.77350    1.000
    C7       C        0.79040    0.06150    0.05390    1.000
    C8       C        0.96240    0.36330    0.92260    1.000
    C9       C        0.66410    0.07400    0.08060    1.000
    C10      C        0.04430    0.30760    0.94110    1.000
    O21      O        0.63050    0.02140    0.63680    1.000
    O22      O        0.27260    0.86480    0.50590    1.000
    C11      C        0.16600    0.33740    0.15360    1.000
    C12      C        0.79170    0.42110    0.92950    1.000
    O23      O        0.55520    0.88010    0.53610    1.000
    C13      C        0.16770    0.98650    0.75680    1.000
    H1       H        0.11740    0.97470    0.79410    1.000
    C14      C        0.28570    0.15260    0.85160    1.000
    O24      O        0.39140    0.71150    0.38400    1.000
    C15      C        0.98470    0.42450    0.89090    1.000
    H2       H        0.05830    0.43980    0.87030    1.000
    C16      C        0.89700    0.96600    0.84880    1.000
    C17      C        0.87490    0.46090    0.89500    1.000
    H3       H        0.86230    0.50450    0.87700    1.000
    C18      C        0.61990    0.93780    0.60490    1.000
    C19      C        0.46840    0.07120    0.11890    1.000
    H4       H        0.39460    0.05570    0.13910    1.000
    C20      C        0.69110    0.90160    0.65520    1.000
    C21      C        0.81440    0.91390    0.76630    1.000
    C22      C        0.17450    0.92640    0.67270    1.000
    H5       H        0.12920    0.86740    0.64320    1.000
    C23      C        0.30910    0.94460    0.56030    1.000
    C24      C        0.77810    0.82580    0.71380    1.000
    H6       H        0.80120    0.77900    0.72290    1.000
    C25      C        0.57950    0.03150    0.11230    1.000
    H7       H        0.59020    0.98540    0.12710    1.000
    C26      C        0.20160    0.54740    0.34780    1.000
    H8       H        0.18030    0.58880    0.39790    1.000
    O25      O        0.49910    0.62200    0.28920    1.000
    C27      C        0.30150    0.56060    0.31030    1.000
    C28      C        0.69850    0.81710    0.64220    1.000
    H9       H        0.65900    0.76380    0.59540    1.000
    C29      C        0.13330    0.45780    0.29690    1.000
    H10      H        0.05880    0.42990    0.30760    1.000
    C30      C        0.40790    0.63630    0.32810    1.000
    K1       K        0.73380    0.25844    0.02004    1.000
    O26      O        0.18040    0.00880    0.95060    1.000
    O27      O        0.53710    0.76010    0.96210    1.000
    O28      O        0.69590    0.82010    0.91180    1.000
    C31      C        0.58470    0.80970    0.92900    1.000
    C32      C        0.50750    0.86520    0.90980    1.000
    O29      O        0.07370    0.07950    0.11380    1.000
    Pr4      Pr       0.91637    0.85941    0.98825    1.000
    Pr5      Pr       0.62751    0.65691    0.00570    1.000
    Pr6      Pr       0.56270    0.13323    0.59407    1.000
    C33      C        0.73940    0.02840    0.35720    1.000
    O30      O        0.00450    0.74950    0.03480    1.000
    O31      O        0.38630    0.86150    0.93370    1.000
    O32      O        0.15720    0.64150    0.05360    1.000
    O33      O        0.14470    0.87750    0.96050    1.000
    O34      O        0.77370    0.83540    0.08630    1.000
    O35      O        0.39970    0.62570    0.02740    1.000
    O36      O        0.84300    0.67480    0.07150    1.000
    O37      O        0.06210    0.95160    0.12660    1.000
    O38      O        0.23750    0.03710    0.26940    1.000
    O39      O        0.62430    0.78930    0.14810    1.000
    O40      O        0.77420    0.66860    0.90880    1.000
    O41      O        0.61470    0.99840    0.45410    1.000
    O42      O        0.70130    0.51680    0.76220    1.000
    O43      O        0.37220    0.50230    0.05060    1.000
    O44      O        0.92000    0.72530    0.85000    1.000
    C34      C        0.80560    0.57810    0.76790    1.000
    C35      C        0.33630    0.56950    0.04810    1.000
    O45      O        0.69270    0.94260    0.29580    1.000
    C36      C        0.75230    0.93550    0.22650    1.000
    C37      C        0.20960    0.93850    0.94610    1.000
    C38      C        0.03760    0.63670    0.07740    1.000
    C39      C        0.33590    0.92600    0.91940    1.000
    C40      C        0.95570    0.69240    0.05890    1.000
    O46      O        0.36950    0.97860    0.36320    1.000
    O47      O        0.72740    0.13520    0.49410    1.000
    C41      C        0.83400    0.66260    0.84640    1.000
    C42      C        0.20830    0.57890    0.07050    1.000
    O48      O        0.44480    0.11990    0.46390    1.000
    C43      C        0.83230    0.01350    0.24320    1.000
    H11      H        0.88260    0.02530    0.20590    1.000
    C44      C        0.71430    0.84740    0.14840    1.000
    O49      O        0.60860    0.28850    0.61600    1.000
    C45      C        0.01530    0.57550    0.10910    1.000
    H12      H        0.94170    0.56020    0.12970    1.000
    C46      C        0.10300    0.03400    0.15120    1.000
    C47      C        0.12510    0.53910    0.10500    1.000
    H13      H        0.13770    0.49550    0.12300    1.000
    C48      C        0.38010    0.06220    0.39510    1.000
    C49      C        0.53160    0.92880    0.88110    1.000
    H14      H        0.60540    0.94430    0.86090    1.000
    C50      C        0.30890    0.09840    0.34480    1.000
    C51      C        0.18560    0.08610    0.23370    1.000
    C52      C        0.82550    0.07360    0.32730    1.000
    H15      H        0.87080    0.13260    0.35680    1.000
    C53      C        0.69090    0.05540    0.43970    1.000
    C54      C        0.22190    0.17420    0.28620    1.000
    H16      H        0.19880    0.22100    0.27710    1.000
    C55      C        0.42050    0.96850    0.88770    1.000
    H17      H        0.40980    0.01460    0.87290    1.000
    C56      C        0.79840    0.45260    0.65220    1.000
    H18      H        0.81970    0.41120    0.60210    1.000
    O50      O        0.50090    0.37800    0.71080    1.000
    C57      C        0.69850    0.43940    0.68970    1.000
    C58      C        0.30150    0.18290    0.35780    1.000
    H19      H        0.34100    0.23620    0.40460    1.000
    C59      C        0.86670    0.54220    0.70310    1.000
    H20      H        0.94120    0.57010    0.69240    1.000
    C60      C        0.59210    0.36370    0.67190    1.000
    K2       K        0.26620    0.74156    0.97996    1.000
