data_functionalizedCrystal
_audit_creation_method	'EQeq! by Chris Wilmer'
_symmetry_space_group_name_H-M	'P1'
_symmetry_Int_Tables_number	1
_symmetry_cell_setting	triclinic
loop_
_symmetry_equiv_pos_as_xyz
  x,y,z
_cell_length_a	10.886
_cell_length_b	10.919
_cell_length_c	14.091
_cell_angle_alpha	89.294
_cell_angle_beta	89.081
_cell_angle_gamma	79.691
loop_
_atom_site_label
_atom_site_type_symbol
_atom_site_fract_x
_atom_site_fract_y
_atom_site_fract_z
_atom_site_charge
Mof_Zn	Zn	0.72348	0.83591	0.80074	1.218
Mof_Zn	Zn	0.72772	0.8392	0.59123	1.217
Mof_H 	H 	0.6297	0.2548	0.5727	0.046
Mof_H 	H 	0.628	0.4747	0.5799	0.05
Mof_H 	H 	0.8241	0.4166	0.8218	0.045
Mof_H 	H 	0.794	0.2129	0.8296	0.046
Mof_H 	H 	0.3309	0.8739	0.5497	0.053
Mof_H 	H 	0.1144	0.8765	0.5526	0.056
Mof_H 	H 	0.122	0.7965	0.8322	0.052
Mof_H 	H 	0.3366	0.8107	0.8368	0.048
Mof_H 	H 	0.9117	0.8083	0.4287	0.004
Mof_H 	H 	0.9206	0.807	0.2661	0.076
Mof_H 	H 	0.5427	0.8573	0.2687	0.081
Mof_H 	H 	0.5477	0.8624	0.4337	0.008
Mof_H 	H 	0.8834	0.7034	0.1191	0.077
Mof_H 	H 	0.8583	0.6907	0.9573	-0.002
Mof_H 	H 	0.5924	0.978	0.9631	-0.014
Mof_H 	H 	0.5795	0.9722	0.1259	0.091
Mof_C 	C 	0.71	0.0769	0.6998	0.392
Mof_C 	C 	0.722	0.2096	0.7006	-0.093
Mof_C 	C 	0.6672	0.289	0.6241	-0.01
Mof_C 	C 	0.6697	0.419	0.6262	-0.017
Mof_C 	C 	0.7394	0.4625	0.7031	-0.082
Mof_C 	C 	0.7819	0.3858	0.7713	-0.006
Mof_C 	C 	0.7692	0.2617	0.7746	-0.01
Mof_C 	C 	0.743	0.6003	0.702	0.402
Mof_C 	C 	0.4877	0.8473	0.6929	0.378
Mof_C 	C 	0.3528	0.8425	0.6931	-0.084
Mof_C 	C 	0.2887	0.8609	0.6075	-0.012
Mof_C 	C 	0.1603	0.8594	0.60941	-0.017
Mof_C 	C 	0.0984	0.8336	0.6921	-0.07
Mof_C 	C 	0.1641	0.8144	0.7755	-0.017
Mof_C 	C 	0.2926	0.8208	0.7787	-0.011
Mof_C 	C 	0.9618	0.8293	0.6917	0.365
Mof_C 	C 	0.8357	0.8186	0.3949	0.085
Mof_C 	C 	0.8425	0.8174	0.2987	-0.124
Mof_C 	C 	0.7277	0.8326	0.2482	0.052
Mof_C 	C 	0.6206	0.8477	0.2998	-0.121
Mof_C 	C 	0.624	0.8493	0.3984	0.076
Mof_C 	C 	0.727	0.8334	0.1423	0.071
Mof_C 	C 	0.8157	0.7554	0.0888	-0.133
Mof_C 	C 	0.8052	0.7536	0.9921	0.083
Mof_C 	C 	0.6481	0.9153	0.9958	0.104
Mof_C 	C 	0.642	0.9156	0.0933	-0.149
Mof_N 	N 	0.7306	0.833	0.4443	-0.247
Mof_N 	N 	0.7236	0.8366	0.94527	-0.259
Mof_O 	O 	0.7067	0.025	0.62112	-0.462
Mof_O 	O 	0.7051	0.0221	0.77751	-0.464
Mof_O 	O 	0.7452	0.654	0.62483	-0.469
Mof_O 	O 	0.7428	0.64998	0.78135	-0.462
Mof_O 	O 	0.5447	0.8523	0.61301	-0.461
Mof_O 	O 	0.541	0.8468	0.77096	-0.468
Mof_O 	O 	0.91313	0.8283	0.60988	-0.45
Mof_O 	O 	0.9077	0.8248	0.77018	-0.462
Mof_Zn	Zn	0.27652	0.16409	0.19926	1.218
Mof_Zn	Zn	0.27228	0.1608	0.40877	1.217
Mof_H 	H 	0.3703	0.7452	0.4273	0.046
Mof_H 	H 	0.372	0.5253	0.4201	0.05
Mof_H 	H 	0.1759	0.5834	0.1782	0.045
Mof_H 	H 	0.206	0.7871	0.1704	0.046
Mof_H 	H 	0.6691	0.1261	0.4503	0.053
Mof_H 	H 	0.8856	0.1235	0.4474	0.056
Mof_H 	H 	0.878	0.2035	0.1678	0.052
Mof_H 	H 	0.6634	0.1893	0.1632	0.048
Mof_H 	H 	0.0883	0.1917	0.5713	0.004
Mof_H 	H 	0.0794	0.193	0.7339	0.076
Mof_H 	H 	0.4573	0.1427	0.7313	0.081
Mof_H 	H 	0.4523	0.1376	0.5663	0.008
Mof_H 	H 	0.1166	0.2966	0.8809	0.077
Mof_H 	H 	0.1417	0.3093	0.0427	-0.002
Mof_H 	H 	0.4076	0.022	0.0369	-0.014
Mof_H 	H 	0.4205	0.0278	0.8741	0.091
Mof_C 	C 	0.29	0.9231	0.3002	0.392
Mof_C 	C 	0.278	0.7904	0.2994	-0.093
Mof_C 	C 	0.3328	0.711	0.3759	-0.01
Mof_C 	C 	0.3303	0.581	0.3738	-0.017
Mof_C 	C 	0.2606	0.5375	0.2969	-0.082
Mof_C 	C 	0.2181	0.6142	0.2287	-0.006
Mof_C 	C 	0.2308	0.7383	0.2254	-0.01
Mof_C 	C 	0.257	0.3997	0.298	0.402
Mof_C 	C 	0.5123	0.1527	0.3071	0.378
Mof_C 	C 	0.6472	0.1575	0.3069	-0.084
Mof_C 	C 	0.7113	0.1391	0.3925	-0.012
Mof_C 	C 	0.8397	0.1406	0.39059	-0.017
Mof_C 	C 	0.9016	0.1664	0.3079	-0.07
Mof_C 	C 	0.8359	0.1856	0.2245	-0.017
Mof_C 	C 	0.7074	0.1792	0.2213	-0.011
Mof_C 	C 	0.0382	0.1707	0.3083	0.365
Mof_C 	C 	0.1643	0.1814	0.6051	0.085
Mof_C 	C 	0.1575	0.1826	0.7013	-0.124
Mof_C 	C 	0.2723	0.1674	0.7518	0.052
Mof_C 	C 	0.3794	0.1523	0.7002	-0.121
Mof_C 	C 	0.376	0.1507	0.6016	0.076
Mof_C 	C 	0.273	0.1666	0.8577	0.071
Mof_C 	C 	0.1843	0.2446	0.9112	-0.133
Mof_C 	C 	0.1948	0.2464	0.0079	0.083
Mof_C 	C 	0.3519	0.0847	0.0042	0.104
Mof_C 	C 	0.358	0.0844	0.9067	-0.149
Mof_N 	N 	0.2694	0.167	0.5557	-0.247
Mof_N 	N 	0.2764	0.1634	0.05473	-0.259
Mof_O 	O 	0.2933	0.975	0.37888	-0.462
Mof_O 	O 	0.2949	0.9779	0.22249	-0.464
Mof_O 	O 	0.2548	0.346	0.37517	-0.469
Mof_O 	O 	0.2572	0.35002	0.21865	-0.462
Mof_O 	O 	0.4553	0.1477	0.38699	-0.461
Mof_O 	O 	0.459	0.1532	0.22904	-0.468
Mof_O 	O 	0.08687	0.1717	0.39012	-0.45
Mof_O 	O 	0.0923	0.1752	0.22982	-0.462
_end
