# CIF file generated by openbabel 3.1.0, see https://openbabel.org
data_I
_chemical_name_common 'TIKMUW_clean'
_cell_length_a 10.4483
_cell_length_b 15.0282
_cell_length_c 16.775
_cell_angle_alpha 65.385
_cell_angle_beta 83.952
_cell_angle_gamma 73.595
_space_group_name_H-M_alt 'P 1'
_space_group_name_Hall 'P 1'
loop_
    _symmetry_equiv_pos_as_xyz
    x,y,z
loop_
    _atom_site_label
    _atom_site_type_symbol
    _atom_site_fract_x
    _atom_site_fract_y
    _atom_site_fract_z
    _atom_site_occupancy
    Pr1      Pr       0.29361    0.25490    0.21178    1.000
    Pr2      Pr       0.22190    0.50878    0.62872    1.000
    Pr3      Pr       0.70639    0.74510    0.78822    1.000
    Pr4      Pr       0.77810    0.49122    0.37128    1.000
    H1       H        0.68840    0.94490    0.85160    1.000
    H2       H        0.97210    0.92790    0.90110    1.000
    H3       H        0.83450    0.95120    0.70240    1.000
    H4       H        0.33060    0.16650    0.89050    1.000
    H5       H        0.64870    0.18580    0.99610    1.000
    H6       H        0.86550    0.07030    0.00440    1.000
    H7       H        0.88080    0.97700    0.97800    1.000
    H8       H        0.86020    0.24210    0.88040    1.000
    H9       H        0.06820    0.24510    0.66190    1.000
    H10      H        0.13950    0.97870    0.71810    1.000
    H11      H        0.19850    0.07390    0.66210    1.000
    H12      H        0.12440    0.17600    0.51290    1.000
    H13      H        0.80820    0.14260    0.41650    1.000
    H14      H        0.75190    0.93780    0.59890    1.000
    H15      H        0.69280    0.01890    0.50400    1.000
    H16      H        0.53460    0.18240    0.49030    1.000
    H17      H        0.32420    0.19700    0.70360    1.000
    H18      H        0.34990    0.03670    0.83820    1.000
    H19      H        0.48650    0.94930    0.85430    1.000
    H20      H        0.31160    0.05510    0.14840    1.000
    H21      H        0.02790    0.07210    0.09890    1.000
    H22      H        0.16550    0.04880    0.29760    1.000
    H23      H        0.66940    0.83350    0.10950    1.000
    H24      H        0.35130    0.81420    0.00390    1.000
    H25      H        0.13450    0.92970    0.99560    1.000
    H26      H        0.11920    0.02300    0.02200    1.000
    H27      H        0.13980    0.75790    0.11960    1.000
    H28      H        0.93180    0.75490    0.33810    1.000
    H29      H        0.86050    0.02130    0.28190    1.000
    H30      H        0.80150    0.92610    0.33790    1.000
    H31      H        0.87560    0.82400    0.48710    1.000
    H32      H        0.19180    0.85740    0.58350    1.000
    H33      H        0.24810    0.06220    0.40110    1.000
    H34      H        0.30720    0.98110    0.49600    1.000
    H35      H        0.46540    0.81760    0.50970    1.000
    H36      H        0.67580    0.80300    0.29640    1.000
    H37      H        0.65010    0.96330    0.16180    1.000
    H38      H        0.51350    0.05070    0.14570    1.000
    C1       C        0.50530    0.06930    0.87887    1.000
    C2       C        0.42360    0.14460    0.90316    1.000
    C3       C        0.47770    0.18810    0.94595    1.000
    C4       C        0.61340    0.15650    0.96593    1.000
    C5       C        0.69730    0.08220    0.94186    1.000
    C6       C        0.64220    0.03881    0.89839    1.000
    C7       C        0.84670    0.05150    0.95774    1.000
    C8       C        0.91830    0.10320    0.87465    1.000
    C9       C        0.90710    0.20680    0.84607    1.000
    C10      C        0.96420    0.25840    0.76779    1.000
    C11      C        0.03140    0.20860    0.71592    1.000
    C12      C        0.04510    0.10530    0.74282    1.000
    C13      C        0.98970    0.05320    0.82344    1.000
    C14      C        0.11520    0.05310    0.68375    1.000
    C15      C        0.02800    0.07930    0.60644    1.000
    C16      C        0.05180    0.14640    0.52258    1.000
    C17      C        0.96800    0.16990    0.45284    1.000
    C18      C        0.86300    0.12620    0.46506    1.000
    C19      C        0.83730    0.05870    0.54785    1.000
    C20      C        0.92010    0.03690    0.61792    1.000
    C21      C        0.72170    0.01120    0.56137    1.000
    C22      C        0.60490    0.06027    0.60388    1.000
    C23      C        0.52120    0.15360    0.55173    1.000
    C24      C        0.41810    0.20500    0.58914    1.000
    C25      C        0.39520    0.16190    0.67860    1.000
    C26      C        0.47540    0.06720    0.73215    1.000
    C27      C        0.58300    0.01617    0.69518    1.000
    C28      C        0.44760    0.02370    0.82956    1.000
    C29      C        0.49470    0.93070    0.12113    1.000
    C30      C        0.57640    0.85540    0.09684    1.000
    C31      C        0.52230    0.81190    0.05405    1.000
    C32      C        0.38660    0.84350    0.03407    1.000
    C33      C        0.30270    0.91780    0.05814    1.000
    C34      C        0.35780    0.96119    0.10161    1.000
    C35      C        0.15330    0.94850    0.04226    1.000
    C36      C        0.08170    0.89680    0.12535    1.000
    C37      C        0.09290    0.79320    0.15393    1.000
    C38      C        0.03580    0.74160    0.23221    1.000
    C39      C        0.96860    0.79140    0.28408    1.000
    C40      C        0.95490    0.89470    0.25718    1.000
    C41      C        0.01030    0.94680    0.17656    1.000
    C42      C        0.88480    0.94690    0.31625    1.000
    C43      C        0.97200    0.92070    0.39356    1.000
    C44      C        0.94820    0.85360    0.47742    1.000
    C45      C        0.03200    0.83010    0.54716    1.000
    C46      C        0.13700    0.87380    0.53494    1.000
    C47      C        0.16270    0.94130    0.45215    1.000
    C48      C        0.07990    0.96310    0.38208    1.000
    C49      C        0.27830    0.98880    0.43863    1.000
    C50      C        0.39510    0.93973    0.39612    1.000
    C51      C        0.47880    0.84640    0.44827    1.000
    C52      C        0.58190    0.79500    0.41086    1.000
    C53      C        0.60480    0.83810    0.32140    1.000
    C54      C        0.52460    0.93280    0.26785    1.000
    C55      C        0.41700    0.98383    0.30482    1.000
    C56      C        0.55240    0.97630    0.17044    1.000
    S1       S        0.37707    0.28281    0.97777    1.000
    S2       S        0.94729    0.38971    0.73051    1.000
    S3       S        0.99253    0.25936    0.34809    1.000
    S4       S        0.32042    0.32549    0.52070    1.000
    S5       S        0.62293    0.71719    0.02223    1.000
    S6       S        0.05271    0.61029    0.26949    1.000
    S7       S        0.00747    0.74064    0.65191    1.000
    S8       S        0.67958    0.67451    0.47930    1.000
    N1       N        0.55370    0.14981    0.30678    1.000
    N2       N        0.44630    0.85019    0.69322    1.000
    O1       O        0.35550    0.23589    0.07267    1.000
    O2       O        0.44950    0.35995    0.95653    1.000
    O3       O        0.25080    0.32207    0.92913    1.000
    O4       O        0.72940    0.96609    0.87746    1.000
    O5       O        0.08320    0.40129    0.72505    1.000
    O6       O        0.88130    0.43812    0.64514    1.000
    O7       O        0.86850    0.42104    0.79602    1.000
    O8       O        0.00868    0.95002    0.85234    1.000
    O9       O        0.13585    0.23085    0.33069    1.000
    O10      O        0.91010    0.25576    0.28562    1.000
    O11      O        0.95680    0.35851    0.35312    1.000
    O12      O        0.90070    0.97285    0.70155    1.000
    O13      O        0.41300    0.38130    0.46521    1.000
    O14      O        0.22820    0.31206    0.46990    1.000
    O15      O        0.24840    0.37166    0.57998    1.000
    O16      O        0.66794    0.92814    0.74664    1.000
    O17      O        0.44800    0.15411    0.34944    1.000
    O18      O        0.54160    0.18594    0.22249    1.000
    O19      O        0.66340    0.11430    0.34151    1.000
    O20      O        0.64450    0.76411    0.92733    1.000
    O21      O        0.55050    0.64005    0.04347    1.000
    O22      O        0.74920    0.67793    0.07087    1.000
    O23      O        0.27060    0.03391    0.12254    1.000
    O24      O        0.91680    0.59871    0.27495    1.000
    O25      O        0.11870    0.56188    0.35486    1.000
    O26      O        0.13150    0.57896    0.20398    1.000
    O27      O        0.99132    0.04998    0.14766    1.000
    O28      O        0.86415    0.76915    0.66931    1.000
    O29      O        0.08990    0.74424    0.71438    1.000
    O30      O        0.04320    0.64149    0.64688    1.000
    O31      O        0.09930    0.02715    0.29845    1.000
    O32      O        0.58700    0.61870    0.53479    1.000
    O33      O        0.77180    0.68794    0.53010    1.000
    O34      O        0.75160    0.62834    0.42002    1.000
    O35      O        0.33206    0.07186    0.25336    1.000
    O36      O        0.55200    0.84589    0.65056    1.000
    O37      O        0.45840    0.81406    0.77751    1.000
    O38      O        0.33660    0.88570    0.65849    1.000
