# CIF file generated by openbabel 3.1.0, see https://openbabel.org
data_I
_chemical_name_common 'image0'
_cell_length_a 20.4032
_cell_length_b 20.4032
_cell_length_c 20.4032
_cell_angle_alpha 90
_cell_angle_beta 90
_cell_angle_gamma 90
_space_group_name_H-M_alt 'P 1'
_space_group_name_Hall 'P 1'
loop_
    _symmetry_equiv_pos_as_xyz
    x,y,z
loop_
    _atom_site_label
    _atom_site_type_symbol
    _atom_site_fract_x
    _atom_site_fract_y
    _atom_site_fract_z
    _atom_site_occupancy
    O1       O        0.13440    0.81100    0.24393    1.000
    O2       O        0.05940    0.88358    0.21200    1.000
    N1       N        0.99790    0.65230    0.01160    1.000
    H1       H        0.96070    0.66550    0.99410    1.000
    N2       N        0.98960    0.57600    0.93120    1.000
    C1       C        0.08720    0.82930    0.20680    1.000
    C2       C        0.06510    0.78150    0.15620    1.000
    C3       C        0.01390    0.79660    0.11470    1.000
    H2       H        0.99270    0.83780    0.11870    1.000
    C4       C        0.99350    0.75360    0.06830    1.000
    H3       H        0.95910    0.76580    0.03940    1.000
    C5       C        0.02180    0.69190    0.06220    1.000
    C6       C        0.07310    0.67610    0.10450    1.000
    H4       H        0.09410    0.63470    0.10090    1.000
    C7       C        0.09350    0.71990    0.15100    1.000
    H5       H        0.12760    0.70790    0.18030    1.000
    C8       C        0.02320    0.59650    0.98530    1.000
    O3       O        0.36560    0.18900    0.74393    1.000
    O4       O        0.44060    0.11642    0.71200    1.000
    N3       N        0.50210    0.34770    0.51160    1.000
    H6       H        0.53930    0.33450    0.49410    1.000
    N4       N        0.51040    0.42400    0.43120    1.000
    C9       C        0.41280    0.17070    0.70680    1.000
    C10      C        0.43490    0.21850    0.65620    1.000
    C11      C        0.48610    0.20340    0.61470    1.000
    H7       H        0.50730    0.16220    0.61870    1.000
    C12      C        0.50650    0.24640    0.56830    1.000
    H8       H        0.54090    0.23420    0.53940    1.000
    C13      C        0.47820    0.30810    0.56220    1.000
    C14      C        0.42690    0.32390    0.60450    1.000
    H9       H        0.40590    0.36530    0.60090    1.000
    C15      C        0.40650    0.28010    0.65100    1.000
    H10      H        0.37240    0.29210    0.68030    1.000
    C16      C        0.47680    0.40350    0.48530    1.000
    O5       O        0.86560    0.31100    0.25607    1.000
    O6       O        0.94060    0.38358    0.28800    1.000
    N5       N        0.00210    0.15230    0.48840    1.000
    H11      H        0.03930    0.16550    0.50590    1.000
    N6       N        0.01040    0.07600    0.56880    1.000
    C17      C        0.91280    0.32930    0.29320    1.000
    C18      C        0.93490    0.28150    0.34380    1.000
    C19      C        0.98610    0.29660    0.38530    1.000
    H12      H        0.00730    0.33780    0.38130    1.000
    C20      C        0.00650    0.25360    0.43170    1.000
    H13      H        0.04090    0.26580    0.46060    1.000
    C21      C        0.97820    0.19190    0.43780    1.000
    C22      C        0.92690    0.17610    0.39550    1.000
    H14      H        0.90590    0.13470    0.39910    1.000
    C23      C        0.90650    0.21990    0.34900    1.000
    H15      H        0.87240    0.20790    0.31970    1.000
    C24      C        0.97680    0.09650    0.51470    1.000
    O7       O        0.63440    0.68900    0.75607    1.000
    O8       O        0.55940    0.61642    0.78800    1.000
    N7       N        0.49790    0.84770    0.98840    1.000
    H16      H        0.46070    0.83450    0.00590    1.000
    N8       N        0.48960    0.92400    0.06880    1.000
    C25      C        0.58720    0.67070    0.79320    1.000
    C26      C        0.56510    0.71850    0.84380    1.000
    C27      C        0.51390    0.70340    0.88530    1.000
    H17      H        0.49270    0.66220    0.88130    1.000
    C28      C        0.49350    0.74640    0.93170    1.000
    H18      H        0.45910    0.73420    0.96060    1.000
    C29      C        0.52180    0.80810    0.93780    1.000
    C30      C        0.57310    0.82390    0.89550    1.000
    H19      H        0.59410    0.86530    0.89910    1.000
    C31      C        0.59350    0.78010    0.84900    1.000
    H20      H        0.62760    0.79210    0.81970    1.000
    C32      C        0.52320    0.90350    0.01470    1.000
    O9       O        0.24393    0.13440    0.81100    1.000
    O10      O        0.21200    0.05940    0.88358    1.000
    N9       N        0.01160    0.99790    0.65230    1.000
    H21      H        0.99410    0.96070    0.66550    1.000
    N10      N        0.93120    0.98960    0.57600    1.000
    C33      C        0.20680    0.08720    0.82930    1.000
    C34      C        0.15620    0.06510    0.78150    1.000
    C35      C        0.11470    0.01390    0.79660    1.000
    H22      H        0.11870    0.99270    0.83780    1.000
    C36      C        0.06830    0.99350    0.75360    1.000
    H23      H        0.03940    0.95910    0.76580    1.000
    C37      C        0.06220    0.02180    0.69190    1.000
    C38      C        0.10450    0.07310    0.67610    1.000
    H24      H        0.10090    0.09410    0.63470    1.000
    C39      C        0.15100    0.09350    0.71990    1.000
    H25      H        0.18030    0.12760    0.70790    1.000
    C40      C        0.98530    0.02320    0.59650    1.000
    O11      O        0.74393    0.36560    0.18900    1.000
    O12      O        0.71200    0.44060    0.11642    1.000
    N11      N        0.51160    0.50210    0.34770    1.000
    H26      H        0.49410    0.53930    0.33450    1.000
    N12      N        0.43120    0.51040    0.42400    1.000
    C41      C        0.70680    0.41280    0.17070    1.000
    C42      C        0.65620    0.43490    0.21850    1.000
    C43      C        0.61470    0.48610    0.20340    1.000
    H27      H        0.61870    0.50730    0.16220    1.000
    C44      C        0.56830    0.50650    0.24640    1.000
    H28      H        0.53940    0.54090    0.23420    1.000
    C45      C        0.56220    0.47820    0.30810    1.000
    C46      C        0.60450    0.42690    0.32390    1.000
    H29      H        0.60090    0.40590    0.36530    1.000
    C47      C        0.65100    0.40650    0.28010    1.000
    H30      H        0.68030    0.37240    0.29210    1.000
    C48      C        0.48530    0.47680    0.40350    1.000
    O13      O        0.25607    0.86560    0.31100    1.000
    O14      O        0.28800    0.94060    0.38358    1.000
    N13      N        0.48840    0.00210    0.15230    1.000
    H31      H        0.50590    0.03930    0.16550    1.000
    N14      N        0.56880    0.01040    0.07600    1.000
    C49      C        0.29320    0.91280    0.32930    1.000
    C50      C        0.34380    0.93490    0.28150    1.000
    C51      C        0.38530    0.98610    0.29660    1.000
    H32      H        0.38130    0.00730    0.33780    1.000
    C52      C        0.43170    0.00650    0.25360    1.000
    H33      H        0.46060    0.04090    0.26580    1.000
    C53      C        0.43780    0.97820    0.19190    1.000
    C54      C        0.39550    0.92690    0.17610    1.000
    H34      H        0.39910    0.90590    0.13470    1.000
    C55      C        0.34900    0.90650    0.21990    1.000
    H35      H        0.31970    0.87240    0.20790    1.000
    C56      C        0.51470    0.97680    0.09650    1.000
    O15      O        0.75607    0.63440    0.68900    1.000
    O16      O        0.78800    0.55940    0.61642    1.000
    N15      N        0.98840    0.49790    0.84770    1.000
    H36      H        0.00590    0.46070    0.83450    1.000
    N16      N        0.06880    0.48960    0.92400    1.000
    C57      C        0.79320    0.58720    0.67070    1.000
    C58      C        0.84380    0.56510    0.71850    1.000
    C59      C        0.88530    0.51390    0.70340    1.000
    H37      H        0.88130    0.49270    0.66220    1.000
    C60      C        0.93170    0.49350    0.74640    1.000
    H38      H        0.96060    0.45910    0.73420    1.000
    C61      C        0.93780    0.52180    0.80810    1.000
    C62      C        0.89550    0.57310    0.82390    1.000
    H39      H        0.89910    0.59410    0.86530    1.000
    C63      C        0.84900    0.59350    0.78010    1.000
    H40      H        0.81970    0.62760    0.79210    1.000
    C64      C        0.01470    0.52320    0.90350    1.000
    O17      O        0.81100    0.24393    0.13440    1.000
    O18      O        0.88358    0.21200    0.05940    1.000
    N17      N        0.65230    0.01160    0.99790    1.000
    H41      H        0.66550    0.99410    0.96070    1.000
    N18      N        0.57600    0.93120    0.98960    1.000
    C65      C        0.82930    0.20680    0.08720    1.000
    C66      C        0.78150    0.15620    0.06510    1.000
    C67      C        0.79660    0.11470    0.01390    1.000
    H42      H        0.83780    0.11870    0.99270    1.000
    C68      C        0.75360    0.06830    0.99350    1.000
    H43      H        0.76580    0.03940    0.95910    1.000
    C69      C        0.69190    0.06220    0.02180    1.000
    C70      C        0.67610    0.10450    0.07310    1.000
    H44      H        0.63470    0.10090    0.09410    1.000
    C71      C        0.71990    0.15100    0.09350    1.000
    H45      H        0.70790    0.18030    0.12760    1.000
    C72      C        0.59650    0.98530    0.02320    1.000
    O19      O        0.18900    0.74393    0.36560    1.000
    O20      O        0.11642    0.71200    0.44060    1.000
    N19      N        0.34770    0.51160    0.50210    1.000
    H46      H        0.33450    0.49410    0.53930    1.000
    N20      N        0.42400    0.43120    0.51040    1.000
    C73      C        0.17070    0.70680    0.41280    1.000
    C74      C        0.21850    0.65620    0.43490    1.000
    C75      C        0.20340    0.61470    0.48610    1.000
    H47      H        0.16220    0.61870    0.50730    1.000
    C76      C        0.24640    0.56830    0.50650    1.000
    H48      H        0.23420    0.53940    0.54090    1.000
    C77      C        0.30810    0.56220    0.47820    1.000
    C78      C        0.32390    0.60450    0.42690    1.000
    H49      H        0.36530    0.60090    0.40590    1.000
    C79      C        0.28010    0.65100    0.40650    1.000
    H50      H        0.29210    0.68030    0.37240    1.000
    C80      C        0.40350    0.48530    0.47680    1.000
    O21      O        0.31100    0.25607    0.86560    1.000
    O22      O        0.38358    0.28800    0.94060    1.000
    N21      N        0.15230    0.48840    0.00210    1.000
    H51      H        0.16550    0.50590    0.03930    1.000
    N22      N        0.07600    0.56880    0.01040    1.000
    C81      C        0.32930    0.29320    0.91280    1.000
    C82      C        0.28150    0.34380    0.93490    1.000
    C83      C        0.29660    0.38530    0.98610    1.000
    H52      H        0.33780    0.38130    0.00730    1.000
    C84      C        0.25360    0.43170    0.00650    1.000
    H53      H        0.26580    0.46060    0.04090    1.000
    C85      C        0.19190    0.43780    0.97820    1.000
    C86      C        0.17610    0.39550    0.92690    1.000
    H54      H        0.13470    0.39910    0.90590    1.000
    C87      C        0.21990    0.34900    0.90650    1.000
    H55      H        0.20790    0.31970    0.87240    1.000
    C88      C        0.09650    0.51470    0.97680    1.000
    O23      O        0.68900    0.75607    0.63440    1.000
    O24      O        0.61642    0.78800    0.55940    1.000
    N23      N        0.84770    0.98840    0.49790    1.000
    H56      H        0.83450    0.00590    0.46070    1.000
    N24      N        0.92400    0.06880    0.48960    1.000
    C89      C        0.67070    0.79320    0.58720    1.000
    C90      C        0.71850    0.84380    0.56510    1.000
    C91      C        0.70340    0.88530    0.51390    1.000
    H57      H        0.66220    0.88130    0.49270    1.000
    C92      C        0.74640    0.93170    0.49350    1.000
    H58      H        0.73420    0.96060    0.45910    1.000
    C93      C        0.80810    0.93780    0.52180    1.000
    C94      C        0.82390    0.89550    0.57310    1.000
    H59      H        0.86530    0.89910    0.59410    1.000
    C95      C        0.78010    0.84900    0.59350    1.000
    H60      H        0.79210    0.81970    0.62760    1.000
    C96      C        0.90350    0.01470    0.52320    1.000
    Dy1      Dy       0.15417    0.84583    0.34583    1.000
    Dy2      Dy       0.34583    0.15417    0.84583    1.000
    Dy3      Dy       0.84583    0.34583    0.15417    1.000
    Dy4      Dy       0.65417    0.65417    0.65417    1.000
    O25      O        0.23692    0.61815    0.18025    1.000
    O26      O        0.21108    0.53430    0.11563    1.000
    N25      N        0.00800    0.49040    0.34950    1.000
    H61      H        0.98930    0.45320    0.33830    1.000
    N26      N        0.01130    0.57200    0.42940    1.000
    C97      C        0.20360    0.56760    0.16630    1.000
    C98      C        0.15390    0.54760    0.21630    1.000
    C99      C        0.14830    0.58030    0.27460    1.000
    H62      H        0.17720    0.61550    0.28400    1.000
    C100     C        0.10060    0.56250    0.32070    1.000
    H63      H        0.09710    0.58600    0.36080    1.000
    C101     C        0.05820    0.51060    0.30790    1.000
    C102     C        0.06350    0.47810    0.24800    1.000
    H64      H        0.03400    0.44350    0.23790    1.000
    C103     C        0.11090    0.49560    0.20360    1.000
    H65      H        0.11460    0.47200    0.16370    1.000
    C104     C        0.98340    0.51860    0.40400    1.000
    O27      O        0.26308    0.38185    0.68025    1.000
    O28      O        0.28892    0.46570    0.61563    1.000
    N27      N        0.49200    0.50960    0.84950    1.000
    H66      H        0.51070    0.54680    0.83830    1.000
    N28      N        0.48870    0.42800    0.92940    1.000
    C105     C        0.29640    0.43240    0.66630    1.000
    C106     C        0.34610    0.45240    0.71630    1.000
    C107     C        0.35170    0.41970    0.77460    1.000
    H67      H        0.32280    0.38450    0.78400    1.000
    C108     C        0.39940    0.43750    0.82070    1.000
    H68      H        0.40290    0.41400    0.86080    1.000
    C109     C        0.44180    0.48940    0.80790    1.000
    C110     C        0.43650    0.52190    0.74800    1.000
    H69      H        0.46600    0.55650    0.73790    1.000
    C111     C        0.38910    0.50440    0.70360    1.000
    H70      H        0.38540    0.52800    0.66370    1.000
    C112     C        0.51660    0.48140    0.90400    1.000
    O29      O        0.76308    0.11815    0.31975    1.000
    O30      O        0.78892    0.03430    0.38437    1.000
    N29      N        0.99200    0.99040    0.15050    1.000
    H71      H        0.01070    0.95320    0.16170    1.000
    N30      N        0.98870    0.07200    0.07060    1.000
    C113     C        0.79640    0.06760    0.33370    1.000
    C114     C        0.84610    0.04760    0.28370    1.000
    C115     C        0.85170    0.08030    0.22540    1.000
    H72      H        0.82280    0.11550    0.21600    1.000
    C116     C        0.89940    0.06250    0.17930    1.000
    H73      H        0.90290    0.08600    0.13920    1.000
    C117     C        0.94180    0.01060    0.19210    1.000
    C118     C        0.93650    0.97810    0.25200    1.000
    H74      H        0.96600    0.94350    0.26210    1.000
    C119     C        0.88910    0.99560    0.29640    1.000
    H75      H        0.88540    0.97200    0.33630    1.000
    C120     C        0.01660    0.01860    0.09600    1.000
    O31      O        0.73692    0.88185    0.81975    1.000
    O32      O        0.71108    0.96570    0.88437    1.000
    N31      N        0.50800    0.00960    0.65050    1.000
    H76      H        0.48930    0.04680    0.66170    1.000
    N32      N        0.51130    0.92800    0.57060    1.000
    C121     C        0.70360    0.93240    0.83370    1.000
    C122     C        0.65390    0.95240    0.78370    1.000
    C123     C        0.64830    0.91970    0.72540    1.000
    H77      H        0.67720    0.88450    0.71600    1.000
    C124     C        0.60060    0.93750    0.67930    1.000
    H78      H        0.59710    0.91400    0.63920    1.000
    C125     C        0.55820    0.98940    0.69210    1.000
    C126     C        0.56350    0.02190    0.75200    1.000
    H79      H        0.53400    0.05650    0.76210    1.000
    C127     C        0.61090    0.00440    0.79640    1.000
    H80      H        0.61460    0.02800    0.83630    1.000
    C128     C        0.48340    0.98140    0.59600    1.000
    O33      O        0.18025    0.23692    0.61815    1.000
    O34      O        0.11563    0.21108    0.53430    1.000
    N33      N        0.34950    0.00800    0.49040    1.000
    H81      H        0.33830    0.98930    0.45320    1.000
    N34      N        0.42940    0.01130    0.57200    1.000
    C129     C        0.16630    0.20360    0.56760    1.000
    C130     C        0.21630    0.15390    0.54760    1.000
    C131     C        0.27460    0.14830    0.58030    1.000
    H82      H        0.28400    0.17720    0.61550    1.000
    C132     C        0.32070    0.10060    0.56250    1.000
    H83      H        0.36080    0.09710    0.58600    1.000
    C133     C        0.30790    0.05820    0.51060    1.000
    C134     C        0.24800    0.06350    0.47810    1.000
    H84      H        0.23790    0.03400    0.44350    1.000
    C135     C        0.20360    0.11090    0.49560    1.000
    H85      H        0.16370    0.11460    0.47200    1.000
    C136     C        0.40400    0.98340    0.51860    1.000
    O35      O        0.68025    0.26308    0.38185    1.000
    O36      O        0.61563    0.28892    0.46570    1.000
    N35      N        0.84950    0.49200    0.50960    1.000
    H86      H        0.83830    0.51070    0.54680    1.000
    N36      N        0.92940    0.48870    0.42800    1.000
    C137     C        0.66630    0.29640    0.43240    1.000
    C138     C        0.71630    0.34610    0.45240    1.000
    C139     C        0.77460    0.35170    0.41970    1.000
    H87      H        0.78400    0.32280    0.38450    1.000
    C140     C        0.82070    0.39940    0.43750    1.000
    H88      H        0.86080    0.40290    0.41400    1.000
    C141     C        0.80790    0.44180    0.48940    1.000
    C142     C        0.74800    0.43650    0.52190    1.000
    H89      H        0.73790    0.46600    0.55650    1.000
    C143     C        0.70360    0.38910    0.50440    1.000
    H90      H        0.66370    0.38540    0.52800    1.000
    C144     C        0.90400    0.51660    0.48140    1.000
    O37      O        0.31975    0.76308    0.11815    1.000
    O38      O        0.38437    0.78892    0.03430    1.000
    N37      N        0.15050    0.99200    0.99040    1.000
    H91      H        0.16170    0.01070    0.95320    1.000
    N38      N        0.07060    0.98870    0.07200    1.000
    C145     C        0.33370    0.79640    0.06760    1.000
    C146     C        0.28370    0.84610    0.04760    1.000
    C147     C        0.22540    0.85170    0.08030    1.000
    H92      H        0.21600    0.82280    0.11550    1.000
    C148     C        0.17930    0.89940    0.06250    1.000
    H93      H        0.13920    0.90290    0.08600    1.000
    C149     C        0.19210    0.94180    0.01060    1.000
    C150     C        0.25200    0.93650    0.97810    1.000
    H94      H        0.26210    0.96600    0.94350    1.000
    C151     C        0.29640    0.88910    0.99560    1.000
    H95      H        0.33630    0.88540    0.97200    1.000
    C152     C        0.09600    0.01660    0.01860    1.000
    O39      O        0.81975    0.73692    0.88185    1.000
    O40      O        0.88437    0.71108    0.96570    1.000
    N39      N        0.65050    0.50800    0.00960    1.000
    H96      H        0.66170    0.48930    0.04680    1.000
    N40      N        0.57060    0.51130    0.92800    1.000
    C153     C        0.83370    0.70360    0.93240    1.000
    C154     C        0.78370    0.65390    0.95240    1.000
    C155     C        0.72540    0.64830    0.91970    1.000
    H97      H        0.71600    0.67720    0.88450    1.000
    C156     C        0.67930    0.60060    0.93750    1.000
    H98      H        0.63920    0.59710    0.91400    1.000
    C157     C        0.69210    0.55820    0.98940    1.000
    C158     C        0.75200    0.56350    0.02190    1.000
    H99      H        0.76210    0.53400    0.05650    1.000
    C159     C        0.79640    0.61090    0.00440    1.000
    H100     H        0.83630    0.61460    0.02800    1.000
    C160     C        0.59600    0.48340    0.98140    1.000
    O41      O        0.61815    0.18025    0.23692    1.000
    O42      O        0.53430    0.11563    0.21108    1.000
    N41      N        0.49040    0.34950    0.00800    1.000
    H101     H        0.45320    0.33830    0.98930    1.000
    N42      N        0.57200    0.42940    0.01130    1.000
    C161     C        0.56760    0.16630    0.20360    1.000
    C162     C        0.54760    0.21630    0.15390    1.000
    C163     C        0.58030    0.27460    0.14830    1.000
    H102     H        0.61550    0.28400    0.17720    1.000
    C164     C        0.56250    0.32070    0.10060    1.000
    H103     H        0.58600    0.36080    0.09710    1.000
    C165     C        0.51060    0.30790    0.05820    1.000
    C166     C        0.47810    0.24800    0.06350    1.000
    H104     H        0.44350    0.23790    0.03400    1.000
    C167     C        0.49560    0.20360    0.11090    1.000
    H105     H        0.47200    0.16370    0.11460    1.000
    C168     C        0.51860    0.40400    0.98340    1.000
    O43      O        0.38185    0.68025    0.26308    1.000
    O44      O        0.46570    0.61563    0.28892    1.000
    N43      N        0.50960    0.84950    0.49200    1.000
    H106     H        0.54680    0.83830    0.51070    1.000
    N44      N        0.42800    0.92940    0.48870    1.000
    C169     C        0.43240    0.66630    0.29640    1.000
    C170     C        0.45240    0.71630    0.34610    1.000
    C171     C        0.41970    0.77460    0.35170    1.000
    H107     H        0.38450    0.78400    0.32280    1.000
    C172     C        0.43750    0.82070    0.39940    1.000
    H108     H        0.41400    0.86080    0.40290    1.000
    C173     C        0.48940    0.80790    0.44180    1.000
    C174     C        0.52190    0.74800    0.43650    1.000
    H109     H        0.55650    0.73790    0.46600    1.000
    C175     C        0.50440    0.70360    0.38910    1.000
    H110     H        0.52800    0.66370    0.38540    1.000
    C176     C        0.48140    0.90400    0.51660    1.000
    O45      O        0.11815    0.31975    0.76308    1.000
    O46      O        0.03430    0.38437    0.78892    1.000
    N45      N        0.99040    0.15050    0.99200    1.000
    H111     H        0.95320    0.16170    0.01070    1.000
    N46      N        0.07200    0.07060    0.98870    1.000
    C177     C        0.06760    0.33370    0.79640    1.000
    C178     C        0.04760    0.28370    0.84610    1.000
    C179     C        0.08030    0.22540    0.85170    1.000
    H112     H        0.11550    0.21600    0.82280    1.000
    C180     C        0.06250    0.17930    0.89940    1.000
    H113     H        0.08600    0.13920    0.90290    1.000
    C181     C        0.01060    0.19210    0.94180    1.000
    C182     C        0.97810    0.25200    0.93650    1.000
    H114     H        0.94350    0.26210    0.96600    1.000
    C183     C        0.99560    0.29640    0.88910    1.000
    H115     H        0.97200    0.33630    0.88540    1.000
    C184     C        0.01860    0.09600    0.01660    1.000
    O47      O        0.88185    0.81975    0.73692    1.000
    O48      O        0.96570    0.88437    0.71108    1.000
    N47      N        0.00960    0.65050    0.50800    1.000
    H116     H        0.04680    0.66170    0.48930    1.000
    N48      N        0.92800    0.57060    0.51130    1.000
    C185     C        0.93240    0.83370    0.70360    1.000
    C186     C        0.95240    0.78370    0.65390    1.000
    C187     C        0.91970    0.72540    0.64830    1.000
    H117     H        0.88450    0.71600    0.67720    1.000
    C188     C        0.93750    0.67930    0.60060    1.000
    H118     H        0.91400    0.63920    0.59710    1.000
    C189     C        0.98940    0.69210    0.55820    1.000
    C190     C        0.02190    0.75200    0.56350    1.000
    H119     H        0.05650    0.76210    0.53400    1.000
    C191     C        0.00440    0.79640    0.61090    1.000
    H120     H        0.02800    0.83630    0.61460    1.000
    C192     C        0.98140    0.59600    0.48340    1.000
    Dy5      Dy       0.33333    0.66667    0.16667    1.000
    Dy6      Dy       0.16667    0.33333    0.66667    1.000
    Dy7      Dy       0.66667    0.16667    0.33333    1.000
    Dy8      Dy       0.83333    0.83333    0.83333    1.000
