data_functionalizedCrystal
_audit_creation_method	'EQeq! by Chris Wilmer'
_symmetry_space_group_name_H-M	'P1'
_symmetry_Int_Tables_number	1
_symmetry_cell_setting	triclinic
loop_
_symmetry_equiv_pos_as_xyz
  x,y,z
_cell_length_a	7.286
_cell_length_b	10.79
_cell_length_c	11.61
_cell_angle_alpha	90
_cell_angle_beta	90
_cell_angle_gamma	90
loop_
_atom_site_label
_atom_site_type_symbol
_atom_site_fract_x
_atom_site_fract_y
_atom_site_fract_z
_atom_site_charge
Mof_Cd	Cd	0.638	0.8173	0.7093	0.43
Mof_Cd	Cd	0.138	0.1827	0.7907	0.43
Mof_Cd	Cd	0.862	0.3173	0.2907	0.429
Mof_Cd	Cd	0.362	0.6827	0.2093	0.429
Mof_H 	H 	0.046	0.2	0.549	0.105
Mof_H 	H 	0.941	0.095	0.625	0.123
Mof_H 	H 	0.097	0.962	0.511	0.059
Mof_H 	H 	0.39	0.005	0.432	0.044
Mof_H 	H 	0.235	0.138	0.403	0.045
Mof_H 	H 	0.388	0.247	0.559	0.1
Mof_H 	H 	0.538	0.125	0.587	0.102
Mof_H 	H 	0.546	0.8	0.951	0.105
Mof_H 	H 	0.441	0.905	0.875	0.123
Mof_H 	H 	0.597	0.038	0.989	0.059
Mof_H 	H 	0.89	0.995	0.068	0.044
Mof_H 	H 	0.735	0.862	0.097	0.045
Mof_H 	H 	0.888	0.753	0.941	0.1
Mof_H 	H 	0.038	0.875	0.913	0.1
Mof_H 	H 	0.454	0.7	0.451	0.105
Mof_H 	H 	0.559	0.595	0.375	0.123
Mof_H 	H 	0.403	0.462	0.489	0.06
Mof_H 	H 	0.11	0.505	0.568	0.044
Mof_H 	H 	0.265	0.638	0.597	0.045
Mof_H 	H 	0.112	0.747	0.441	0.1
Mof_H 	H 	0.962	0.625	0.413	0.101
Mof_H 	H 	0.954	0.3	0.049	0.105
Mof_H 	H 	0.059	0.405	0.125	0.124
Mof_H 	H 	0.903	0.538	0.011	0.059
Mof_H 	H 	0.61	0.495	0.932	0.044
Mof_H 	H 	0.765	0.362	0.903	0.045
Mof_H 	H 	0.612	0.253	0.059	0.1
Mof_H 	H 	0.462	0.375	0.087	0.102
Mof_C 	C 	0.1786	0.0323	0.5568	-0.082
Mof_C 	C 	0.2874	0.9633	0.6502	0.319
Mof_C 	C 	0.3133	0.0865	0.4682	0.002
Mof_C 	C 	0.458	0.1748	0.5191	-0.224
Mof_C 	C 	0.587	0.2287	0.4314	0.332
Mof_C 	C 	0.6786	0.9677	0.9432	-0.08
Mof_C 	C 	0.7874	0.0367	0.8498	0.319
Mof_C 	C 	0.8133	0.9135	0.0318	0
Mof_C 	C 	0.958	0.8252	0.9809	-0.221
Mof_C 	C 	0.087	0.7713	0.0686	0.332
Mof_C 	C 	0.3214	0.5323	0.4432	-0.082
Mof_C 	C 	0.2126	0.4633	0.3498	0.319
Mof_C 	C 	0.1867	0.5865	0.5318	0.003
Mof_C 	C 	0.042	0.6748	0.4809	-0.223
Mof_C 	C 	0.913	0.7287	0.5686	0.332
Mof_C 	C 	0.8214	0.4677	0.0568	-0.082
Mof_C 	C 	0.7126	0.5367	0.1502	0.319
Mof_C 	C 	0.6867	0.4135	0.9682	0.002
Mof_C 	C 	0.542	0.3252	0.0191	-0.222
Mof_C 	C 	0.413	0.2713	0.9314	0.331
Mof_N 	N 	0.059	0.1305	0.6067	-0.212
Mof_N 	N 	0.559	0.8695	0.8933	-0.212
Mof_N 	N 	0.441	0.6305	0.3933	-0.212
Mof_N 	N 	0.941	0.3695	0.1067	-0.213
Mof_O 	O 	0.2762	0.996	0.7529	-0.29
Mof_O 	O 	0.3824	0.8753	0.6145	-0.294
Mof_O 	O 	0.7254	0.287	0.4694	-0.282
Mof_O 	O 	0.5652	0.2121	0.325	-0.278
Mof_O 	O 	0.7762	0.004	0.7471	-0.29
Mof_O 	O 	0.8824	0.1247	0.8855	-0.294
Mof_O 	O 	0.2254	0.713	0.0306	-0.281
Mof_O 	O 	0.0652	0.7879	0.175	-0.278
Mof_O 	O 	0.2238	0.496	0.2471	-0.29
Mof_O 	O 	0.1176	0.3753	0.3855	-0.294
Mof_O 	O 	0.7746	0.787	0.5306	-0.281
Mof_O 	O 	0.9348	0.7121	0.675	-0.278
Mof_O 	O 	0.7238	0.504	0.2529	-0.29
Mof_O 	O 	0.6176	0.6247	0.1145	-0.294
Mof_O 	O 	0.2746	0.213	0.9694	-0.282
Mof_O 	O 	0.4348	0.2879	0.825	-0.278
_end
