data_functionalizedCrystal
_audit_creation_method	'EQeq! by Chris Wilmer'
_symmetry_space_group_name_H-M	'P1'
_symmetry_Int_Tables_number	1
_symmetry_cell_setting	triclinic
loop_
_symmetry_equiv_pos_as_xyz
  x,y,z
_cell_length_a	11.2883
_cell_length_b	11.2883
_cell_length_c	12.8419
_cell_angle_alpha	90
_cell_angle_beta	90
_cell_angle_gamma	90
loop_
_atom_site_label
_atom_site_type_symbol
_atom_site_fract_x
_atom_site_fract_y
_atom_site_fract_z
_atom_site_charge
Mof_N 	N 	0.22048	0.10293	0.39292	-0.23
Mof_C 	C 	0.14579	0.0644	0.34277	-0.121
Mof_N 	N 	0.72048	0.60293	0.89292	-0.134
Mof_C 	C 	0.64579	0.5644	0.84277	-0.083
Mof_N 	N 	0.77952	0.89707	0.39292	-0.227
Mof_C 	C 	0.85421	0.9356	0.34277	0.007
Mof_N 	N 	0.27952	0.39707	0.89292	-0.146
Mof_C 	C 	0.35421	0.4356	0.84277	-0.094
Mof_N 	N 	0.89707	0.22048	0.39292	-0.226
Mof_C 	C 	0.9356	0.14579	0.34277	-0.036
Mof_N 	N 	0.39707	0.72048	0.89292	-0.137
Mof_C 	C 	0.4356	0.64579	0.84277	-0.087
Mof_N 	N 	0.10293	0.77952	0.39292	-0.232
Mof_C 	C 	0.0644	0.85421	0.34277	-0.069
Mof_N 	N 	0.60293	0.27952	0.89292	-0.143
Mof_C 	C 	0.5644	0.35421	0.84277	-0.09
Mof_N 	N 	0.77952	0.10293	0.10708	-0.261
Mof_C 	C 	0.85421	0.0644	0.15723	-0.097
Mof_N 	N 	0.27952	0.60293	0.60708	-0.207
Mof_C 	C 	0.35421	0.5644	0.65723	-0.122
Mof_N 	N 	0.22048	0.89707	0.10708	-0.256
Mof_C 	C 	0.14579	0.9356	0.15723	-0.065
Mof_N 	N 	0.72048	0.39707	0.60708	-0.201
Mof_C 	C 	0.64579	0.4356	0.65723	-0.118
Mof_N 	N 	0.10293	0.22048	0.10708	-0.26
Mof_C 	C 	0.0644	0.14579	0.15723	-0.15
Mof_N 	N 	0.60293	0.72048	0.60708	-0.198
Mof_C 	C 	0.5644	0.64579	0.65723	-0.114
Mof_N 	N 	0.89707	0.77952	0.10708	-0.257
Mof_C 	C 	0.9356	0.85421	0.15723	-0.022
Mof_N 	N 	0.39707	0.27952	0.60708	-0.21
Mof_C 	C 	0.4356	0.35421	0.65723	-0.125
Mof_N 	N 	0.77952	0.89707	0.60708	-0.223
Mof_C 	C 	0.85421	0.9356	0.65723	0.013
Mof_N 	N 	0.27952	0.39707	0.10708	-0.245
Mof_C 	C 	0.35421	0.4356	0.15723	-0.161
Mof_N 	N 	0.22048	0.10293	0.60708	-0.226
Mof_C 	C 	0.14579	0.0644	0.65723	-0.115
Mof_N 	N 	0.72048	0.60293	0.10708	-0.233
Mof_C 	C 	0.64579	0.5644	0.15723	-0.15
Mof_N 	N 	0.10293	0.77952	0.60708	-0.227
Mof_C 	C 	0.0644	0.85421	0.65723	-0.062
Mof_N 	N 	0.60293	0.27952	0.10708	-0.242
Mof_C 	C 	0.5644	0.35421	0.15723	-0.157
Mof_N 	N 	0.89707	0.22048	0.60708	-0.222
Mof_C 	C 	0.9356	0.14579	0.65723	-0.03
Mof_N 	N 	0.39707	0.72048	0.10708	-0.236
Mof_C 	C 	0.4356	0.64579	0.15723	-0.153
Mof_N 	N 	0.22048	0.89707	0.89292	-0.158
Mof_C 	C 	0.14579	0.9356	0.84277	0
Mof_N 	N 	0.72048	0.39707	0.39292	-0.206
Mof_C 	C 	0.64579	0.4356	0.34277	-0.124
Mof_N 	N 	0.77952	0.10293	0.89292	-0.164
Mof_C 	C 	0.85421	0.0644	0.84277	-0.032
Mof_N 	N 	0.27952	0.60293	0.39292	-0.211
Mof_C 	C 	0.35421	0.5644	0.34277	-0.127
Mof_N 	N 	0.89707	0.77952	0.89292	-0.159
Mof_C 	C 	0.9356	0.85421	0.84277	0.043
Mof_N 	N 	0.39707	0.27952	0.39292	-0.214
Mof_C 	C 	0.4356	0.35421	0.34277	-0.131
Mof_N 	N 	0.10293	0.22048	0.89292	-0.162
Mof_C 	C 	0.0644	0.14579	0.84277	-0.085
Mof_N 	N 	0.60293	0.72048	0.39292	-0.203
Mof_C 	C 	0.5644	0.64579	0.34277	-0.12
Mof_Mo	Mo	-2.79024e-33	0	0.25	0.552
Mof_Mo	Mo	0.5	0.5	0.75	0.973
Mof_Mo	Mo	-4.51412e-33	0	0.75	0.557
Mof_Mo	Mo	0.5	0.5	0.25	0.961
Mof_Cu	Cu	0.31273	0.18727	0.5	0.834
Mof_Cu	Cu	0.68727	0.81273	0.5	0.854
Mof_Cu	Cu	0.81273	0.31273	0.5	0.847
Mof_Cu	Cu	0.18727	0.68727	0.5	0.841
Mof_Cu	Cu	0.68727	0.18727	-0	0.751
Mof_Cu	Cu	0.31273	0.81273	-0	0.757
Mof_Cu	Cu	0.18727	0.31273	-0	0.743
Mof_Cu	Cu	0.81273	0.68727	-0	0.763
_end
