data_functionalizedCrystal
_audit_creation_method	'EQeq! by Chris Wilmer'
_symmetry_space_group_name_H-M	'P1'
_symmetry_Int_Tables_number	1
_symmetry_cell_setting	triclinic
loop_
_symmetry_equiv_pos_as_xyz
  x,y,z
_cell_length_a	10.54
_cell_length_b	10.05
_cell_length_c	14.37
_cell_angle_alpha	90
_cell_angle_beta	90
_cell_angle_gamma	90
loop_
_atom_site_label
_atom_site_type_symbol
_atom_site_fract_x
_atom_site_fract_y
_atom_site_fract_z
_atom_site_charge
Mof_Zn	Zn	0.40961	0.62734	0.5524	1.246
Mof_Zn	Zn	0.15272	0.1317	0.46357	1.24
Mof_P 	P 	0.185	0.8129	0.4962	0.544
Mof_P 	P 	0.3752	0.3229	0.5112	0.509
Mof_P 	P 	0.0482	0.022	0.2664	0.515
Mof_O 	O 	0.3688	0.4681	0.4816	-0.426
Mof_O 	O 	0.2608	0.736	0.5671	-0.408
Mof_O 	O 	0.0872	0.1288	0.3359	-0.397
Mof_O 	O 	0.2052	0.9605	0.5091	-0.44
Mof_O 	O 	0.3061	0.2342	0.4423	-0.392
Mof_O 	O 	0.0451	0.7751	0.4957	-0.411
Mof_O 	O 	0.5115	0.2787	0.5279	-0.399
Mof_O 	O 	0.0232	0.0806	0.1721	-0.417
Mof_O 	O 	0.1439	0.9077	0.2598	-0.185
Mof_O 	O 	0.2392	0.7716	0.3977	-0.193
Mof_O 	O 	0.9188	0.9625	0.3023	-0.178
Mof_O 	O 	0.3012	0.3037	0.6069	-0.21
Mof_Zn	Zn	0.59039	0.37266	0.0524	1.249
Mof_Zn	Zn	0.84728	0.8683	0.96357	1.236
Mof_P 	P 	0.815	0.1871	0.9962	0.532
Mof_P 	P 	0.6248	0.6771	0.0112	0.525
Mof_P 	P 	0.9518	0.978	0.7664	0.514
Mof_O 	O 	0.6312	0.5319	0.9816	-0.436
Mof_O 	O 	0.7392	0.264	0.0671	-0.4
Mof_O 	O 	0.9128	0.8712	0.8359	-0.4
Mof_O 	O 	0.7948	0.0395	0.0091	-0.431
Mof_O 	O 	0.6939	0.7658	0.9423	-0.401
Mof_O 	O 	0.9549	0.2249	0.9957	-0.415
Mof_O 	O 	0.4885	0.7213	0.0279	-0.397
Mof_O 	O 	0.9768	0.9194	0.6721	-0.417
Mof_O 	O 	0.8561	0.0923	0.7598	-0.186
Mof_O 	O 	0.7608	0.2284	0.8977	-0.193
Mof_O 	O 	0.0812	0.0375	0.8023	-0.178
Mof_O 	O 	0.6988	0.6963	0.1069	-0.208
Mof_Zn	Zn	0.90961	0.87266	0.5524	1.245
Mof_Zn	Zn	0.65272	0.3683	0.46357	1.242
Mof_P 	P 	0.685	0.6871	0.4962	0.543
Mof_P 	P 	0.8752	0.1771	0.5112	0.512
Mof_P 	P 	0.5482	0.478	0.2664	0.525
Mof_O 	O 	0.8688	0.0319	0.4816	-0.423
Mof_O 	O 	0.7608	0.764	0.5671	-0.41
Mof_O 	O 	0.5872	0.3712	0.3359	-0.396
Mof_O 	O 	0.7052	0.5395	0.5091	-0.444
Mof_O 	O 	0.8061	0.2658	0.4423	-0.39
Mof_O 	O 	0.5451	0.7249	0.4957	-0.414
Mof_O 	O 	0.0115	0.2213	0.5279	-0.403
Mof_O 	O 	0.5232	0.4194	0.1721	-0.413
Mof_O 	O 	0.6439	0.5923	0.2598	-0.191
Mof_O 	O 	0.7392	0.7284	0.3977	-0.194
Mof_O 	O 	0.4188	0.5375	0.3023	-0.179
Mof_O 	O 	0.8012	0.1963	0.6069	-0.209
Mof_Zn	Zn	0.09039	0.12734	0.0524	1.246
Mof_Zn	Zn	0.34728	0.6317	0.96357	1.24
Mof_P 	P 	0.315	0.3129	0.9962	0.539
Mof_P 	P 	0.1248	0.8229	0.0112	0.518
Mof_P 	P 	0.4518	0.522	0.7664	0.525
Mof_O 	O 	0.1312	0.9681	0.9816	-0.427
Mof_O 	O 	0.2392	0.236	0.0671	-0.407
Mof_O 	O 	0.4128	0.6288	0.8359	-0.397
Mof_O 	O 	0.2948	0.4605	0.0091	-0.438
Mof_O 	O 	0.1939	0.7342	0.9423	-0.394
Mof_O 	O 	0.4549	0.2751	0.9957	-0.416
Mof_O 	O 	0.9885	0.7787	0.0279	-0.395
Mof_O 	O 	0.4768	0.5806	0.6721	-0.414
Mof_O 	O 	0.3561	0.4077	0.7598	-0.192
Mof_O 	O 	0.2608	0.2716	0.8977	-0.193
Mof_O 	O 	0.5812	0.4625	0.8023	-0.18
Mof_O 	O 	0.1988	0.8037	0.1069	-0.208
_end
