data_functionalizedCrystal
_audit_creation_method	'EQeq! by Chris Wilmer'
_symmetry_space_group_name_H-M	'P1'
_symmetry_Int_Tables_number	1
_symmetry_cell_setting	triclinic
loop_
_symmetry_equiv_pos_as_xyz
  x,y,z
_cell_length_a	7.3707
_cell_length_b	14.422
_cell_length_c	17.234
_cell_angle_alpha	90
_cell_angle_beta	90
_cell_angle_gamma	91.646
loop_
_atom_site_label
_atom_site_type_symbol
_atom_site_fract_x
_atom_site_fract_y
_atom_site_fract_z
_atom_site_charge
Mof_Mn	Mn	0.34197	0.55461	0.6703	0.643
Mof_Mn	Mn	0.65803	0.94539	0.1703	0.641
Mof_Mn	Mn	0.65803	0.44539	0.3297	0.643
Mof_Mn	Mn	0.34197	0.05461	0.8297	0.641
Mof_Mo	Mo	0.83254	0.78417	0.79227	0.768
Mof_Mo	Mo	0.16746	0.71583	0.29227	0.77
Mof_Mo	Mo	0.16746	0.21583	0.20773	0.768
Mof_Mo	Mo	0.83254	0.28417	0.70773	0.77
Mof_H 	H 	0.8929	0.9968	0.7206	-0
Mof_H 	H 	0.9603	0.0829	0.6104	0.04
Mof_H 	H 	0.9716	0.8425	0.4885	0.046
Mof_H 	H 	0.8973	0.7629	0.6017	-0.003
Mof_H 	H 	0.3709	0.6615	0.8301	-0.012
Mof_H 	H 	0.4545	0.6474	0.9589	0.053
Mof_H 	H 	0.3806	0.3905	0.7991	0.001
Mof_H 	H 	0.4613	0.3676	0.9275	0.061
Mof_H 	H 	0.1071	0.5032	0.2206	-0.001
Mof_H 	H 	0.0397	0.4171	0.1104	0.04
Mof_H 	H 	0.0284	0.6575	0.9885	0.049
Mof_H 	H 	0.1027	0.7371	0.1017	-0.004
Mof_H 	H 	0.6291	0.8385	0.3301	-0.012
Mof_H 	H 	0.5455	0.8526	0.4589	0.053
Mof_H 	H 	0.6194	0.1095	0.2991	0.001
Mof_H 	H 	0.5387	0.1324	0.4275	0.061
Mof_H 	H 	0.1071	0.0032	0.2794	-0
Mof_H 	H 	0.0397	0.9171	0.3896	0.04
Mof_H 	H 	0.0284	0.1575	0.5115	0.046
Mof_H 	H 	0.1027	0.2371	0.3983	-0.003
Mof_H 	H 	0.6291	0.3385	0.1699	-0.012
Mof_H 	H 	0.5455	0.3526	0.0411	0.053
Mof_H 	H 	0.6194	0.6095	0.2009	0.001
Mof_H 	H 	0.5387	0.6324	0.0725	0.061
Mof_H 	H 	0.8929	0.4968	0.7794	-0.001
Mof_H 	H 	0.9603	0.5829	0.8896	0.04
Mof_H 	H 	0.9716	0.3425	0.0115	0.049
Mof_H 	H 	0.8973	0.2629	0.8983	-0.004
Mof_H 	H 	0.3709	0.1615	0.6699	-0.012
Mof_H 	H 	0.4545	0.1474	0.5411	0.053
Mof_H 	H 	0.3806	0.8905	0.7009	0.001
Mof_H 	H 	0.4613	0.8676	0.5725	0.061
Mof_C 	C 	0.9085	0.96507	0.6729	0.057
Mof_C 	C 	0.95	0.01717	0.60705	-0.102
Mof_C 	C 	0.9765	0.9732	0.53595	0.039
Mof_C 	C 	0.9557	0.87593	0.53543	-0.111
Mof_C 	C 	0.9119	0.82851	0.60364	0.057
Mof_C 	C 	0.0156	0.6908	0.73475	-0.118
Mof_C 	C 	0.6691	0.90233	0.82048	-0.132
Mof_C 	C 	0.6272	0.72169	0.71642	-0.121
Mof_C 	C 	0.06	0.87226	0.82725	-0.127
Mof_C 	C 	0.3925	0.60132	0.84987	0.058
Mof_C 	C 	0.4416	0.59356	0.92734	-0.125
Mof_C 	C 	0.3976	0.44314	0.83172	0.066
Mof_C 	C 	0.4459	0.42879	0.90867	-0.115
Mof_C 	C 	0.4721	0.5056	0.95872	0.044
Mof_C 	C 	0.0915	0.53493	0.1729	0.059
Mof_C 	C 	0.05	0.48283	0.10705	-0.104
Mof_C 	C 	0.0235	0.5268	0.03595	0.04
Mof_C 	C 	0.0443	0.62407	0.03543	-0.115
Mof_C 	C 	0.0881	0.67149	0.10364	0.059
Mof_C 	C 	0.9844	0.8092	0.23475	-0.119
Mof_C 	C 	0.3309	0.59767	0.32048	-0.132
Mof_C 	C 	0.3728	0.77831	0.21642	-0.121
Mof_C 	C 	0.94	0.62774	0.32725	-0.129
Mof_C 	C 	0.6075	0.89868	0.34987	0.058
Mof_C 	C 	0.5584	0.90644	0.42734	-0.125
Mof_C 	C 	0.6024	0.05686	0.33172	0.067
Mof_C 	C 	0.5541	0.07121	0.40867	-0.115
Mof_C 	C 	0.5279	0.9944	0.45872	0.044
Mof_C 	C 	0.0915	0.03493	0.3271	0.057
Mof_C 	C 	0.05	0.98283	0.39295	-0.102
Mof_C 	C 	0.0235	0.0268	0.46405	0.039
Mof_C 	C 	0.0443	0.12407	0.46457	-0.111
Mof_C 	C 	0.0881	0.17149	0.39636	0.057
Mof_C 	C 	0.9844	0.3092	0.26525	-0.118
Mof_C 	C 	0.3309	0.09767	0.17952	-0.132
Mof_C 	C 	0.3728	0.27831	0.28358	-0.121
Mof_C 	C 	0.94	0.12774	0.17275	-0.127
Mof_C 	C 	0.6075	0.39868	0.15013	0.058
Mof_C 	C 	0.5584	0.40644	0.07266	-0.125
Mof_C 	C 	0.6024	0.55686	0.16828	0.066
Mof_C 	C 	0.5541	0.57121	0.09133	-0.115
Mof_C 	C 	0.5279	0.4944	0.04128	0.044
Mof_C 	C 	0.9085	0.46507	0.8271	0.059
Mof_C 	C 	0.95	0.51717	0.89295	-0.104
Mof_C 	C 	0.9765	0.4732	0.96405	0.04
Mof_C 	C 	0.9557	0.37593	0.96457	-0.115
Mof_C 	C 	0.9119	0.32851	0.89636	0.059
Mof_C 	C 	0.0156	0.1908	0.76525	-0.119
Mof_C 	C 	0.6691	0.40233	0.67952	-0.132
Mof_C 	C 	0.6272	0.22169	0.78358	-0.121
Mof_C 	C 	0.06	0.37226	0.67275	-0.129
Mof_C 	C 	0.3925	0.10132	0.65013	0.058
Mof_C 	C 	0.4416	0.09356	0.57266	-0.125
Mof_C 	C 	0.3976	0.94314	0.66828	0.067
Mof_C 	C 	0.4459	0.92879	0.59133	-0.115
Mof_C 	C 	0.4721	0.0056	0.54128	0.044
Mof_N 	N 	0.8891	0.87156	0.67251	-0.178
Mof_N 	N 	0.1088	0.63934	0.70385	-0.152
Mof_N 	N 	0.1758	0.92506	0.84273	-0.153
Mof_N 	N 	0.586	0.96528	0.84101	-0.15
Mof_N 	N 	0.5238	0.67971	0.67853	-0.153
Mof_N 	N 	0.3736	0.52857	0.80087	-0.179
Mof_N 	N 	0.1109	0.62844	0.17251	-0.178
Mof_N 	N 	0.8912	0.86066	0.20385	-0.151
Mof_N 	N 	0.8242	0.57494	0.34273	-0.154
Mof_N 	N 	0.414	0.53472	0.34101	-0.151
Mof_N 	N 	0.4762	0.82029	0.17853	-0.153
Mof_N 	N 	0.6264	0.97143	0.30087	-0.18
Mof_N 	N 	0.1109	0.12844	0.32749	-0.178
Mof_N 	N 	0.8912	0.36066	0.29615	-0.152
Mof_N 	N 	0.8242	0.07494	0.15727	-0.153
Mof_N 	N 	0.414	0.03472	0.15899	-0.15
Mof_N 	N 	0.4762	0.32029	0.32147	-0.153
Mof_N 	N 	0.6264	0.47143	0.19913	-0.179
Mof_N 	N 	0.8891	0.37156	0.82749	-0.178
Mof_N 	N 	0.1088	0.13934	0.79615	-0.151
Mof_N 	N 	0.1758	0.42506	0.65727	-0.154
Mof_N 	N 	0.586	0.46528	0.65899	-0.151
Mof_N 	N 	0.5238	0.17971	0.82147	-0.153
Mof_N 	N 	0.3736	0.02857	0.69913	-0.18
_end
