data_functionalizedCrystal
_audit_creation_method	'EQeq! by Chris Wilmer'
_symmetry_space_group_name_H-M	'P1'
_symmetry_Int_Tables_number	1
_symmetry_cell_setting	triclinic
loop_
_symmetry_equiv_pos_as_xyz
  x,y,z
_cell_length_a	17.088
_cell_length_b	17.088
_cell_length_c	13.892
_cell_angle_alpha	90
_cell_angle_beta	90
_cell_angle_gamma	120
loop_
_atom_site_label
_atom_site_type_symbol
_atom_site_fract_x
_atom_site_fract_y
_atom_site_fract_z
_atom_site_charge
Mof_O 	O 	0.64606	0.42389	0.1811	-0.416
Mof_N 	N 	0.39744	0.50614	0.41327	-0.157
Mof_N 	N 	0.33374	0.56034	0.51429	-0.229
Mof_C 	C 	0.4941	0.4588	0.33182	-0.148
Mof_H 	H 	0.4944	0.4279	0.3868	0.096
Mof_C 	C 	0.4474	0.5046	0.33072	0.162
Mof_C 	C 	0.3906	0.5783	0.44247	0.092
Mof_H 	H 	0.4231	0.6351	0.4144	-0.011
Mof_C 	C 	0.3015	0.4696	0.53488	0.071
Mof_C 	C 	0.2389	0.4139	0.6037	-0.119
Mof_H 	H 	0.2121	0.436	0.6457	0.083
Mof_C 	C 	0.2184	0.3257	0.607	-0.002
Mof_H 	H 	0.1774	0.2876	0.6529	0.028
Mof_C 	C 	0.2572	0.2908	0.5432	-0.038
Mof_H 	H 	0.2411	0.2302	0.5474	0.043
Mof_C 	C 	0.3187	0.3447	0.4745	-0.082
Mof_H 	H 	0.3446	0.3221	0.432	0.062
Mof_C 	C 	0.34	0.4339	0.47197	0.055
Mof_O 	O 	0.57611	0.22217	0.1811	-0.415
Mof_N 	N 	0.49386	0.8913	0.41327	-0.156
Mof_N 	N 	0.43966	0.7734	0.51429	-0.228
Mof_C 	C 	0.5412	0.0353	0.33182	-0.146
Mof_H 	H 	0.5721	0.0665	0.3868	0.095
Mof_C 	C 	0.4954	0.9428	0.33072	0.162
Mof_C 	C 	0.4217	0.8123	0.44247	0.092
Mof_H 	H 	0.3649	0.788	0.4144	-0.011
Mof_C 	C 	0.5304	0.8319	0.53488	0.071
Mof_C 	C 	0.5861	0.825	0.6037	-0.119
Mof_H 	H 	0.564	0.7761	0.6457	0.083
Mof_C 	C 	0.6743	0.8927	0.607	-0.002
Mof_H 	H 	0.7124	0.8898	0.6529	0.029
Mof_C 	C 	0.7092	0.9664	0.5432	-0.038
Mof_H 	H 	0.7698	0.0109	0.5474	0.043
Mof_C 	C 	0.6553	0.974	0.4745	-0.082
Mof_H 	H 	0.6779	0.0225	0.432	0.063
Mof_C 	C 	0.5661	0.9061	0.47197	0.055
Mof_O 	O 	0.77783	0.35394	0.1811	-0.415
Mof_N 	N 	0.1087	0.60256	0.41327	-0.156
Mof_N 	N 	0.2266	0.66626	0.51429	-0.228
Mof_C 	C 	0.9647	0.5059	0.33182	-0.146
Mof_H 	H 	0.9335	0.5056	0.3868	0.095
Mof_C 	C 	0.0572	0.5526	0.33072	0.162
Mof_C 	C 	0.1877	0.6094	0.44247	0.092
Mof_H 	H 	0.212	0.5769	0.4144	-0.011
Mof_C 	C 	0.1681	0.6985	0.53488	0.071
Mof_C 	C 	0.175	0.7611	0.6037	-0.119
Mof_H 	H 	0.2239	0.7879	0.6457	0.083
Mof_C 	C 	0.1073	0.7816	0.607	-0.002
Mof_H 	H 	0.1102	0.8226	0.6529	0.029
Mof_C 	C 	0.0336	0.7428	0.5432	-0.038
Mof_H 	H 	0.9891	0.7589	0.5474	0.043
Mof_C 	C 	0.026	0.6813	0.4745	-0.082
Mof_H 	H 	0.9775	0.6554	0.432	0.063
Mof_C 	C 	0.0939	0.66	0.47197	0.055
Mof_O 	O 	0.57611	0.35394	0.3189	-0.415
Mof_N 	N 	0.49386	0.60256	0.08673	-0.156
Mof_N 	N 	0.43966	0.66626	0.98571	-0.228
Mof_C 	C 	0.5412	0.5059	0.16818	-0.147
Mof_H 	H 	0.5721	0.5056	0.1132	0.096
Mof_C 	C 	0.4954	0.5526	0.16928	0.162
Mof_C 	C 	0.4217	0.6094	0.05753	0.091
Mof_H 	H 	0.3649	0.5769	0.0856	-0.011
Mof_C 	C 	0.5304	0.6985	0.96512	0.071
Mof_C 	C 	0.5861	0.7611	0.8963	-0.119
Mof_H 	H 	0.564	0.7879	0.8543	0.083
Mof_C 	C 	0.6743	0.7816	0.893	-0.002
Mof_H 	H 	0.7124	0.8226	0.8471	0.028
Mof_C 	C 	0.7092	0.7428	0.9568	-0.038
Mof_H 	H 	0.7698	0.7589	0.9526	0.043
Mof_C 	C 	0.6553	0.6813	0.0255	-0.082
Mof_H 	H 	0.6779	0.6554	0.068	0.062
Mof_C 	C 	0.5661	0.66	0.02803	0.055
Mof_O 	O 	0.77783	0.42389	0.3189	-0.415
Mof_N 	N 	0.1087	0.50614	0.08673	-0.156
Mof_N 	N 	0.2266	0.56034	0.98571	-0.227
Mof_C 	C 	0.9647	0.4588	0.16818	-0.146
Mof_H 	H 	0.9335	0.4279	0.1132	0.095
Mof_C 	C 	0.0572	0.5046	0.16928	0.162
Mof_C 	C 	0.1877	0.5783	0.05753	0.091
Mof_H 	H 	0.212	0.6351	0.0856	-0.011
Mof_C 	C 	0.1681	0.4696	0.96512	0.071
Mof_C 	C 	0.175	0.4139	0.8963	-0.118
Mof_H 	H 	0.2239	0.436	0.8543	0.083
Mof_C 	C 	0.1073	0.3257	0.893	-0.004
Mof_H 	H 	0.1102	0.2876	0.8471	0.029
Mof_C 	C 	0.0336	0.2908	0.9568	-0.035
Mof_H 	H 	0.9891	0.2302	0.9526	0.041
Mof_C 	C 	0.026	0.3447	0.0255	-0.085
Mof_H 	H 	0.9775	0.3221	0.068	0.064
Mof_C 	C 	0.0939	0.4339	0.02803	0.056
Mof_O 	O 	0.64606	0.22217	0.3189	-0.415
Mof_N 	N 	0.39744	0.8913	0.08673	-0.156
Mof_N 	N 	0.33374	0.7734	0.98571	-0.227
Mof_C 	C 	0.4941	0.0353	0.16818	-0.146
Mof_H 	H 	0.4944	0.0665	0.1132	0.095
Mof_C 	C 	0.4474	0.9428	0.16928	0.162
Mof_C 	C 	0.3906	0.8123	0.05753	0.091
Mof_H 	H 	0.4231	0.788	0.0856	-0.011
Mof_C 	C 	0.3015	0.8319	0.96512	0.071
Mof_C 	C 	0.2389	0.825	0.8963	-0.118
Mof_H 	H 	0.2121	0.7761	0.8543	0.083
Mof_C 	C 	0.2184	0.8927	0.893	-0.005
Mof_H 	H 	0.1774	0.8898	0.8471	0.03
Mof_C 	C 	0.2572	0.9664	0.9568	-0.034
Mof_H 	H 	0.2411	0.0109	0.9526	0.041
Mof_C 	C 	0.3187	0.974	0.0255	-0.086
Mof_H 	H 	0.3446	0.0225	0.068	0.064
Mof_C 	C 	0.34	0.9061	0.02803	0.056
Mof_O 	O 	0.35394	0.57611	0.8189	-0.415
Mof_N 	N 	0.60256	0.49386	0.58673	-0.156
Mof_N 	N 	0.66626	0.43966	0.48571	-0.228
Mof_C 	C 	0.5059	0.5412	0.66818	-0.147
Mof_H 	H 	0.5056	0.5721	0.6132	0.096
Mof_C 	C 	0.5526	0.4954	0.66928	0.162
Mof_C 	C 	0.6094	0.4217	0.55753	0.092
Mof_H 	H 	0.5769	0.3649	0.5856	-0.011
Mof_C 	C 	0.6985	0.5304	0.46512	0.071
Mof_C 	C 	0.7611	0.5861	0.3963	-0.119
Mof_H 	H 	0.7879	0.564	0.3543	0.083
Mof_C 	C 	0.7816	0.6743	0.393	-0.002
Mof_H 	H 	0.8226	0.7124	0.3471	0.028
Mof_C 	C 	0.7428	0.7092	0.4568	-0.038
Mof_H 	H 	0.7589	0.7698	0.4526	0.043
Mof_C 	C 	0.6813	0.6553	0.5255	-0.082
Mof_H 	H 	0.6554	0.6779	0.568	0.062
Mof_C 	C 	0.66	0.5661	0.52803	0.055
Mof_O 	O 	0.42389	0.77783	0.8189	-0.415
Mof_N 	N 	0.50614	0.1087	0.58673	-0.156
Mof_N 	N 	0.56034	0.2266	0.48571	-0.228
Mof_C 	C 	0.4588	0.9647	0.66818	-0.146
Mof_H 	H 	0.4279	0.9335	0.6132	0.095
Mof_C 	C 	0.5046	0.0572	0.66928	0.162
Mof_C 	C 	0.5783	0.1877	0.55753	0.092
Mof_H 	H 	0.6351	0.212	0.5856	-0.011
Mof_C 	C 	0.4696	0.1681	0.46512	0.071
Mof_C 	C 	0.4139	0.175	0.3963	-0.119
Mof_H 	H 	0.436	0.2239	0.3543	0.083
Mof_C 	C 	0.3257	0.1073	0.393	-0.002
Mof_H 	H 	0.2876	0.1102	0.3471	0.029
Mof_C 	C 	0.2908	0.0336	0.4568	-0.038
Mof_H 	H 	0.2302	0.9891	0.4526	0.043
Mof_C 	C 	0.3447	0.026	0.5255	-0.082
Mof_H 	H 	0.3221	0.9775	0.568	0.063
Mof_C 	C 	0.4339	0.0939	0.52803	0.055
Mof_O 	O 	0.22217	0.64606	0.8189	-0.415
Mof_N 	N 	0.8913	0.39744	0.58673	-0.156
Mof_N 	N 	0.7734	0.33374	0.48571	-0.228
Mof_C 	C 	0.0353	0.4941	0.66818	-0.146
Mof_H 	H 	0.0665	0.4944	0.6132	0.095
Mof_C 	C 	0.9428	0.4474	0.66928	0.162
Mof_C 	C 	0.8123	0.3906	0.55753	0.092
Mof_H 	H 	0.788	0.4231	0.5856	-0.011
Mof_C 	C 	0.8319	0.3015	0.46512	0.071
Mof_C 	C 	0.825	0.2389	0.3963	-0.119
Mof_H 	H 	0.7761	0.2121	0.3543	0.083
Mof_C 	C 	0.8927	0.2184	0.393	-0.002
Mof_H 	H 	0.8898	0.1774	0.3471	0.029
Mof_C 	C 	0.9664	0.2572	0.4568	-0.038
Mof_H 	H 	0.0109	0.2411	0.4526	0.043
Mof_C 	C 	0.974	0.3187	0.5255	-0.082
Mof_H 	H 	0.0225	0.3446	0.568	0.063
Mof_C 	C 	0.9061	0.34	0.52803	0.055
Mof_O 	O 	0.42389	0.64606	0.6811	-0.415
Mof_N 	N 	0.50614	0.39744	0.91327	-0.156
Mof_N 	N 	0.56034	0.33374	0.01429	-0.228
Mof_C 	C 	0.4588	0.4941	0.83182	-0.147
Mof_H 	H 	0.4279	0.4944	0.8868	0.096
Mof_C 	C 	0.5046	0.4474	0.83072	0.162
Mof_C 	C 	0.5783	0.3906	0.94247	0.091
Mof_H 	H 	0.6351	0.4231	0.9144	-0.011
Mof_C 	C 	0.4696	0.3015	0.03488	0.071
Mof_C 	C 	0.4139	0.2389	0.1037	-0.119
Mof_H 	H 	0.436	0.2121	0.1457	0.083
Mof_C 	C 	0.3257	0.2184	0.107	-0.002
Mof_H 	H 	0.2876	0.1774	0.1529	0.028
Mof_C 	C 	0.2908	0.2572	0.0432	-0.038
Mof_H 	H 	0.2302	0.2411	0.0474	0.043
Mof_C 	C 	0.3447	0.3187	0.9745	-0.082
Mof_H 	H 	0.3221	0.3446	0.932	0.062
Mof_C 	C 	0.4339	0.34	0.97197	0.055
Mof_O 	O 	0.22217	0.57611	0.6811	-0.415
Mof_N 	N 	0.8913	0.49386	0.91327	-0.156
Mof_N 	N 	0.7734	0.43966	0.01429	-0.227
Mof_C 	C 	0.0353	0.5412	0.83182	-0.146
Mof_H 	H 	0.0665	0.5721	0.8868	0.095
Mof_C 	C 	0.9428	0.4954	0.83072	0.162
Mof_C 	C 	0.8123	0.4217	0.94247	0.091
Mof_H 	H 	0.788	0.3649	0.9144	-0.011
Mof_C 	C 	0.8319	0.5304	0.03488	0.071
Mof_C 	C 	0.825	0.5861	0.1037	-0.118
Mof_H 	H 	0.7761	0.564	0.1457	0.083
Mof_C 	C 	0.8927	0.6743	0.107	-0.004
Mof_H 	H 	0.8898	0.7124	0.1529	0.029
Mof_C 	C 	0.9664	0.7092	0.0432	-0.035
Mof_H 	H 	0.0109	0.7698	0.0474	0.041
Mof_C 	C 	0.974	0.6553	0.9745	-0.085
Mof_H 	H 	0.0225	0.6779	0.932	0.064
Mof_C 	C 	0.9061	0.5661	0.97197	0.056
Mof_O 	O 	0.35394	0.77783	0.6811	-0.415
Mof_N 	N 	0.60256	0.1087	0.91327	-0.156
Mof_N 	N 	0.66626	0.2266	0.01429	-0.227
Mof_C 	C 	0.5059	0.9647	0.83182	-0.146
Mof_H 	H 	0.5056	0.9335	0.8868	0.095
Mof_C 	C 	0.5526	0.0572	0.83072	0.162
Mof_C 	C 	0.6094	0.1877	0.94247	0.091
Mof_H 	H 	0.5769	0.212	0.9144	-0.011
Mof_C 	C 	0.6985	0.1681	0.03488	0.071
Mof_C 	C 	0.7611	0.175	0.1037	-0.118
Mof_H 	H 	0.7879	0.2239	0.1457	0.083
Mof_C 	C 	0.7816	0.1073	0.107	-0.005
Mof_H 	H 	0.8226	0.1102	0.1529	0.03
Mof_C 	C 	0.7428	0.0336	0.0432	-0.034
Mof_H 	H 	0.7589	0.9891	0.0474	0.041
Mof_C 	C 	0.6813	0.026	0.9745	-0.086
Mof_H 	H 	0.6554	0.9775	0.932	0.064
Mof_C 	C 	0.66	0.0939	0.97197	0.056
Mof_Co	Co	0.66667	0.33333	0.10186	1.164
Mof_Co	Co	0.66667	0.33333	0.39814	1.164
Mof_Co	Co	0.33333	0.66667	0.89814	1.164
Mof_Co	Co	0.33333	0.66667	0.60186	1.164
Mof_C 	C 	0.59194	0.40806	0.25	0.327
Mof_C 	C 	0.54122	0.45878	0.25	0.012
Mof_C 	C 	0.44742	0.55258	0.25	-0.214
Mof_H 	H 	0.416	0.584	0.25	0.11
Mof_C 	C 	0.59194	0.18388	0.25	0.328
Mof_C 	C 	0.54122	0.08244	0.25	0.011
Mof_C 	C 	0.44742	0.89484	0.25	-0.214
Mof_H 	H 	0.416	0.832	0.25	0.11
Mof_C 	C 	0.81612	0.40806	0.25	0.328
Mof_C 	C 	0.91756	0.45878	0.25	0.011
Mof_C 	C 	0.10516	0.55258	0.25	-0.214
Mof_H 	H 	0.168	0.584	0.25	0.11
Mof_C 	C 	0.40806	0.59194	0.75	0.327
Mof_C 	C 	0.45878	0.54122	0.75	0.012
Mof_C 	C 	0.55258	0.44742	0.75	-0.214
Mof_H 	H 	0.584	0.416	0.75	0.11
Mof_C 	C 	0.40806	0.81612	0.75	0.328
Mof_C 	C 	0.45878	0.91756	0.75	0.011
Mof_C 	C 	0.55258	0.10516	0.75	-0.214
Mof_H 	H 	0.584	0.168	0.75	0.11
Mof_C 	C 	0.18388	0.59194	0.75	0.328
Mof_C 	C 	0.08244	0.54122	0.75	0.011
Mof_C 	C 	0.89484	0.44742	0.75	-0.214
Mof_H 	H 	0.832	0.416	0.75	0.11
_end
