data_functionalizedCrystal
_audit_creation_method	'EQeq! by Chris Wilmer'
_symmetry_space_group_name_H-M	'P1'
_symmetry_Int_Tables_number	1
_symmetry_cell_setting	triclinic
loop_
_symmetry_equiv_pos_as_xyz
  x,y,z
_cell_length_a	11.3748
_cell_length_b	23.7111
_cell_length_c	22.0842
_cell_angle_alpha	90
_cell_angle_beta	90
_cell_angle_gamma	90
loop_
_atom_site_label
_atom_site_type_symbol
_atom_site_fract_x
_atom_site_fract_y
_atom_site_fract_z
_atom_site_charge
Mof_Mg	Mg	0.7111	0.94058	0.00243	1.453
Mof_Mg	Mg	0.2889	0.05942	0.99757	1.459
Mof_Mg	Mg	-0	0	-0	1.463
Mof_Mg	Mg	0.2889	0.44058	0.49757	1.456
Mof_Mg	Mg	0.7889	0.55942	0.00243	1.449
Mof_Mg	Mg	0.2111	0.05942	0.49757	1.452
Mof_Mg	Mg	-2.1789e-32	0.5	0.5	1.476
Mof_Mg	Mg	0.7889	0.94058	0.50243	1.462
Mof_Mg	Mg	0.2111	0.44058	0.99757	1.464
Mof_Mg	Mg	0.7111	0.55942	0.50243	1.457
Mof_Mg	Mg	0.5	0	0.5	1.472
Mof_Mg	Mg	0.5	0.5	-0	1.472
Mof_H 	H 	0.1148	0.6164	0.3698	-0.008
Mof_H 	H 	0.6923	0.6969	0.8847	-0.035
Mof_H 	H 	0.8631	0.1241	0.7495	0.186
Mof_H 	H 	0.9389	0.4336	0.3248	-0.062
Mof_H 	H 	0.0963	0.5833	0.1263	-0.055
Mof_H 	H 	0.0611	0.9336	0.1752	0.013
Mof_H 	H 	0.8986	0.1718	0.3294	0.157
Mof_H 	H 	0.6245	0.7678	0.8219	0.155
Mof_H 	H 	0.3186	0.6853	0.8047	0.176
Mof_H 	H 	0.0611	0.5664	0.6752	0.005
Mof_H 	H 	0.9073	0.7551	0.2044	0.114
Mof_H 	H 	0.1814	0.6853	0.3047	0.143
Mof_H 	H 	0.4073	0.2449	0.2956	0.151
Mof_H 	H 	0.5927	0.7551	0.7044	0.148
Mof_H 	H 	0.6814	0.3147	0.1953	0.18
Mof_H 	H 	0.4389	0.9336	0.6752	-0.016
Mof_H 	H 	0.8721	0.1233	0.9776	0.001
Mof_H 	H 	0.6217	0.2877	0.9321	0.151
Mof_H 	H 	0.4073	0.2551	0.7956	0.148
Mof_H 	H 	0.0927	0.2551	0.2956	0.182
Mof_H 	H 	0.8186	0.1853	0.1953	0.213
Mof_H 	H 	0.3852	0.6164	0.8698	-0.033
Mof_H 	H 	0.3783	0.7877	0.5679	0.144
Mof_H 	H 	0.8783	0.2123	0.9321	0.16
Mof_H 	H 	0.8986	0.3282	0.8294	0.155
Mof_H 	H 	0.4037	0.9167	0.1263	-0.038
Mof_H 	H 	0.5963	0.0833	0.8737	-0.047
Mof_H 	H 	0.9389	0.0664	0.8248	-0.076
Mof_H 	H 	0.3755	0.2678	0.6781	0.156
Mof_H 	H 	0.6279	0.3767	0.9776	-0.004
Mof_H 	H 	0.1148	0.8836	0.8698	0.015
Mof_H 	H 	0.1923	0.3031	0.6153	-0.082
Mof_H 	H 	0.1217	0.7123	0.5679	0.141
Mof_H 	H 	0.6279	0.1233	0.4776	-0.03
Mof_H 	H 	0.1245	0.2322	0.6781	0.19
Mof_H 	H 	0.6014	0.3282	0.3294	0.153
Mof_H 	H 	0.0927	0.2449	0.7956	0.189
Mof_H 	H 	0.3292	0.1862	0.3684	-0.05
Mof_H 	H 	0.1014	0.8282	0.6706	0.148
Mof_H 	H 	0.6148	0.1164	0.6302	-0.051
Mof_H 	H 	0.5963	0.4167	0.3737	-0.042
Mof_H 	H 	0.1923	0.1969	0.1153	-0.092
Mof_H 	H 	0.3755	0.2322	0.1781	0.153
Mof_H 	H 	0.3631	0.6241	0.2505	0.152
Mof_H 	H 	0.6245	0.7322	0.3219	0.152
Mof_H 	H 	0.8755	0.7322	0.8219	0.113
Mof_H 	H 	0.8783	0.2877	0.4321	0.151
Mof_H 	H 	0.1369	0.6241	0.7505	0.116
Mof_H 	H 	0.3721	0.6233	0.0224	-0.049
Mof_H 	H 	0.1708	0.1862	0.8684	-0.077
Mof_H 	H 	0.6923	0.8031	0.3847	-0.041
Mof_H 	H 	0.3077	0.1969	0.6153	-0.053
Mof_H 	H 	0.8077	0.8031	0.8847	0.001
Mof_H 	H 	0.6814	0.1853	0.6953	0.179
Mof_H 	H 	0.1708	0.3138	0.3684	-0.078
Mof_H 	H 	0.3292	0.3138	0.8684	-0.04
Mof_H 	H 	0.6708	0.8138	0.6316	-0.039
Mof_H 	H 	0.3783	0.7123	0.0679	0.141
Mof_H 	H 	0.3721	0.8767	0.5224	-0.024
Mof_H 	H 	0.8631	0.3759	0.2495	0.185
Mof_H 	H 	0.1814	0.8147	0.8047	0.139
Mof_H 	H 	0.6369	0.3759	0.7495	0.152
Mof_H 	H 	0.6148	0.3836	0.1302	-0.051
Mof_H 	H 	0.6708	0.6862	0.1316	-0.049
Mof_H 	H 	0.3986	0.6718	0.6706	0.153
Mof_H 	H 	0.1014	0.6718	0.1706	0.151
Mof_H 	H 	0.8292	0.8138	0.1316	-0.016
Mof_H 	H 	0.1217	0.7877	0.0679	0.133
Mof_H 	H 	0.8755	0.7678	0.3219	0.121
Mof_H 	H 	0.8186	0.3147	0.6953	0.216
Mof_H 	H 	0.4037	0.5833	0.6263	-0.043
Mof_H 	H 	0.9073	0.7449	0.7044	0.113
Mof_H 	H 	0.6217	0.2123	0.4321	0.148
Mof_H 	H 	0.8292	0.6862	0.6316	-0.007
Mof_H 	H 	0.5611	0.4336	0.8248	-0.028
Mof_H 	H 	0.9037	0.0833	0.3737	-0.048
Mof_H 	H 	0.0963	0.9167	0.6263	-0.037
Mof_H 	H 	0.1369	0.8759	0.2505	0.124
Mof_H 	H 	0.1279	0.6233	0.5224	-0.036
Mof_H 	H 	0.8852	0.1164	0.1302	-0.095
Mof_H 	H 	0.3077	0.3031	0.1153	-0.059
Mof_H 	H 	0.9037	0.4167	0.8737	-0.029
Mof_H 	H 	0.8721	0.3767	0.4776	-0.018
Mof_H 	H 	0.3631	0.8759	0.7505	0.158
Mof_H 	H 	0.5927	0.7449	0.2044	0.15
Mof_H 	H 	0.4389	0.5664	0.1752	-0.031
Mof_H 	H 	0.3986	0.8282	0.1706	0.155
Mof_H 	H 	0.8852	0.3836	0.6302	-0.078
Mof_H 	H 	0.3186	0.8147	0.3047	0.177
Mof_H 	H 	0.5611	0.0664	0.3248	-0.043
Mof_H 	H 	0.3852	0.8836	0.3698	-0.033
Mof_H 	H 	0.8077	0.6969	0.3847	-0.015
Mof_H 	H 	0.1279	0.8767	0.0224	-0.052
Mof_H 	H 	0.1245	0.2678	0.1781	0.192
Mof_H 	H 	0.6369	0.1241	0.2495	0.147
Mof_H 	H 	0.6014	0.1718	0.8294	0.151
Mof_C 	C 	0.938	0.7089	0.6988	-0.214
Mof_C 	C 	0.6781	0.18613	0.4203	-0.325
Mof_C 	C 	0.2317	0.53608	0.04546	0.422
Mof_C 	C 	0.6536	0.39088	0.3854	0.194
Mof_C 	C 	0.8184	0.36732	0.4475	0.194
Mof_C 	C 	0.1562	0.6619	0.1412	-0.339
Mof_C 	C 	0.6077	0.8261	0.6548	0.217
Mof_C 	C 	0.0765	0.2627	0.6684	-0.49
Mof_C 	C 	0.8837	0.80509	0.8694	0.122
Mof_C 	C 	0.97	0.39772	0.319	0.331
Mof_C 	C 	0.5614	0.62077	0.1448	-0.271
Mof_C 	C 	0.605	0.58419	0.0934	0.492
Mof_C 	C 	0.4242	0.8632	0.726	-0.314
Mof_C 	C 	0.5765	0.7373	0.8316	-0.347
Mof_C 	C 	0.8932	0.1881	0.1784	-0.47
Mof_C 	C 	0.4386	0.37923	0.8552	-0.263
Mof_C 	C 	0.8464	0.10912	0.3854	0.203
Mof_C 	C 	0.7581	0.19938	0.3767	0.334
Mof_C 	C 	0.9337	0.35332	0.6398	0.362
Mof_C 	C 	0.5877	0.60427	0.9273	0.494
Mof_C 	C 	0.2346	0.59408	0.07082	-0.278
Mof_C 	C 	0.438	0.2911	0.8012	-0.345
Mof_C 	C 	0.3438	0.8381	0.1412	-0.329
Mof_C 	C 	0.0298	0.6901	0.7342	0.233
Mof_C 	C 	0.3837	0.30509	0.1306	0.236
Mof_C 	C 	0.8219	0.31387	0.4203	-0.317
Mof_C 	C 	0.7581	0.30062	0.8767	0.325
Mof_C 	C 	0.0362	0.7665	0.8084	0.233
Mof_C 	C 	0.4546	0.14939	0.61503	-0.293
Mof_C 	C 	0.6068	0.3119	0.1784	-0.37
Mof_C 	C 	0.062	0.2089	0.8012	-0.486
Mof_C 	C 	0.5362	0.2665	0.1916	0.357
Mof_C 	C 	0.7683	0.46392	0.95454	0.406
Mof_C 	C 	0.2654	0.59408	0.57082	-0.261
Mof_C 	C 	0.6068	0.1881	0.6784	-0.366
Mof_C 	C 	0.7419	0.30062	0.3767	0.329
Mof_C 	C 	0.395	0.41581	0.9066	0.489
Mof_C 	C 	0.4386	0.12077	0.3552	-0.28
Mof_C 	C 	0.3184	0.63268	0.0525	0.204
Mof_C 	C 	0.4546	0.35061	0.11503	-0.299
Mof_C 	C 	0.4337	0.85332	0.3602	0.229
Mof_C 	C 	0.4702	0.8099	0.7342	0.344
Mof_C 	C 	0.9235	0.7627	0.8316	-0.212
Mof_C 	C 	0.6781	0.31387	0.9203	-0.305
Mof_C 	C 	0.8932	0.3119	0.6784	-0.461
Mof_C 	C 	0.7654	0.40592	0.92918	-0.234
Mof_C 	C 	0.8438	0.3381	0.8588	-0.312
Mof_C 	C 	0.3464	0.60912	0.6146	0.197
Mof_C 	C 	0.5663	0.14668	0.6398	0.242
Mof_C 	C 	0.53	0.39772	0.819	0.21
Mof_C 	C 	0.4337	0.64668	0.8602	0.229
Mof_C 	C 	0.6816	0.36732	0.9475	0.186
Mof_C 	C 	0.0454	0.14939	0.11503	-0.404
Mof_C 	C 	0.4235	0.2627	0.1684	-0.372
Mof_C 	C 	0.3932	0.6881	0.8216	-0.346
Mof_C 	C 	0.53	0.10228	0.319	0.218
Mof_C 	C 	0.9386	0.62077	0.6448	-0.161
Mof_C 	C 	0.97	0.10228	0.819	0.343
Mof_C 	C 	0.2317	0.96392	0.54546	0.407
Mof_C 	C 	0.105	0.41581	0.4066	0.522
Mof_C 	C 	0.7654	0.09408	0.42918	-0.267
Mof_C 	C 	0.5758	0.1368	0.274	-0.333
Mof_C 	C 	0.0454	0.35061	0.61503	-0.387
Mof_C 	C 	0.2683	0.96392	0.04546	0.413
Mof_C 	C 	0.0877	0.39573	0.5727	0.534
Mof_C 	C 	0.7346	0.09408	0.92918	-0.247
Mof_C 	C 	0.0614	0.12077	0.8552	-0.38
Mof_C 	C 	0.105	0.08419	0.9066	0.526
Mof_C 	C 	0.2419	0.69938	0.1233	0.332
Mof_C 	C 	0.3219	0.68613	0.0797	-0.335
Mof_C 	C 	0.5877	0.89573	0.4273	0.496
Mof_C 	C 	0.4638	0.7335	0.8084	0.35
Mof_C 	C 	0.9242	0.1368	0.774	-0.43
Mof_C 	C 	0.0614	0.37923	0.3552	-0.366
Mof_C 	C 	0.5614	0.87923	0.6448	-0.254
Mof_C 	C 	0.8464	0.39088	0.8854	0.188
Mof_C 	C 	0.1816	0.63268	0.5525	0.196
Mof_C 	C 	0.7419	0.19938	0.8767	0.329
Mof_C 	C 	0.3438	0.6619	0.6412	-0.327
Mof_C 	C 	0.2654	0.90592	0.07082	-0.264
Mof_C 	C 	0.1781	0.81387	0.0797	-0.329
Mof_C 	C 	0.605	0.91581	0.5934	0.486
Mof_C 	C 	0.2419	0.80062	0.6233	0.323
Mof_C 	C 	0.4702	0.6901	0.2342	0.348
Mof_C 	C 	0.3184	0.86732	0.5525	0.188
Mof_C 	C 	0.5454	0.85061	0.38497	-0.27
Mof_C 	C 	0.7317	0.03608	0.95454	0.413
Mof_C 	C 	0.9702	0.3099	0.2658	0.451
Mof_C 	C 	0.0765	0.2373	0.1684	-0.495
Mof_C 	C 	0.0758	0.8632	0.226	-0.23
Mof_C 	C 	0.9123	0.89573	0.9273	0.457
Mof_C 	C 	0.6562	0.3381	0.3588	-0.325
Mof_C 	C 	0.0362	0.7335	0.3084	0.25
Mof_C 	C 	0.1816	0.86732	0.0525	0.196
Mof_C 	C 	0.6163	0.69491	0.8694	0.223
Mof_C 	C 	0.5362	0.2335	0.6916	0.358
Mof_C 	C 	0.562	0.7911	0.6988	-0.34
Mof_C 	C 	0.03	0.89772	0.181	0.102
Mof_C 	C 	0.062	0.2911	0.3012	-0.472
Mof_C 	C 	0.5454	0.64939	0.88497	-0.263
Mof_C 	C 	0.0663	0.85332	0.8602	0.096
Mof_C 	C 	0.47	0.89772	0.681	0.209
Mof_C 	C 	0.03	0.60228	0.681	0.088
Mof_C 	C 	0.1163	0.30509	0.6306	0.326
Mof_C 	C 	0.5758	0.3632	0.774	-0.322
Mof_C 	C 	0.1781	0.68613	0.5797	-0.324
Mof_C 	C 	0.5663	0.35332	0.1398	0.242
Mof_C 	C 	0.4123	0.39573	0.0727	0.506
Mof_C 	C 	0.7683	0.03608	0.45454	0.42
Mof_C 	C 	0.3464	0.89088	0.1146	0.197
Mof_C 	C 	0.5765	0.7627	0.3316	-0.353
Mof_C 	C 	0.9546	0.85061	0.88497	-0.148
Mof_C 	C 	0.1536	0.60912	0.1146	0.204
Mof_C 	C 	0.6163	0.80509	0.3694	0.224
Mof_C 	C 	0.7317	0.46392	0.45454	0.414
Mof_C 	C 	0.8837	0.69491	0.3694	0.14
Mof_C 	C 	0.3219	0.81387	0.5797	-0.315
Mof_C 	C 	0.9638	0.2335	0.1916	0.464
Mof_C 	C 	0.1068	0.6881	0.3216	-0.262
Mof_C 	C 	0.3837	0.19491	0.6306	0.236
Mof_C 	C 	0.395	0.08419	0.4066	0.495
Mof_C 	C 	0.3923	0.1739	0.3452	0.228
Mof_C 	C 	0.0877	0.10427	0.0727	0.539
Mof_C 	C 	0.9235	0.7373	0.3316	-0.239
Mof_C 	C 	0.6816	0.13268	0.4475	0.202
Mof_C 	C 	0.1077	0.3261	0.3452	0.315
Mof_C 	C 	0.895	0.91581	0.0934	0.459
Mof_C 	C 	0.4242	0.6368	0.226	-0.325
Mof_C 	C 	0.2581	0.80062	0.1233	0.328
Mof_C 	C 	0.9702	0.1901	0.7658	0.461
Mof_C 	C 	0.1163	0.19491	0.1306	0.329
Mof_C 	C 	0.8184	0.13268	0.9475	0.193
Mof_C 	C 	0.438	0.2089	0.3012	-0.355
Mof_C 	C 	0.4123	0.10427	0.5727	0.504
Mof_C 	C 	0.5298	0.1901	0.2658	0.349
Mof_C 	C 	0.9242	0.3632	0.274	-0.417
Mof_C 	C 	0.0663	0.64668	0.3602	0.116
Mof_C 	C 	0.9546	0.64939	0.38497	-0.182
Mof_C 	C 	0.9638	0.2665	0.6916	0.466
Mof_C 	C 	0.2683	0.53608	0.54546	0.414
Mof_C 	C 	0.895	0.58419	0.5934	0.457
Mof_C 	C 	0.5298	0.3099	0.7658	0.344
Mof_C 	C 	0.9386	0.87923	0.1448	-0.169
Mof_C 	C 	0.6562	0.1619	0.8588	-0.322
Mof_C 	C 	0.9337	0.14668	0.1398	0.363
Mof_C 	C 	0.3923	0.3261	0.8452	0.22
Mof_C 	C 	0.562	0.7089	0.1988	-0.351
Mof_C 	C 	0.9123	0.60427	0.4273	0.468
Mof_C 	C 	0.0758	0.6368	0.726	-0.223
Mof_C 	C 	0.6536	0.10912	0.8854	0.193
Mof_C 	C 	0.8923	0.8261	0.1548	0.133
Mof_C 	C 	0.8923	0.6739	0.6548	0.124
Mof_C 	C 	0.6077	0.6739	0.1548	0.226
Mof_C 	C 	0.8438	0.1619	0.3588	-0.332
Mof_C 	C 	0.2581	0.69938	0.6233	0.328
Mof_C 	C 	0.1562	0.8381	0.6412	-0.32
Mof_C 	C 	0.1077	0.1739	0.8452	0.325
Mof_C 	C 	0.4638	0.7665	0.3084	0.35
Mof_C 	C 	0.1068	0.8119	0.8216	-0.235
Mof_C 	C 	0.0298	0.8099	0.2342	0.245
Mof_C 	C 	0.8219	0.18613	0.9203	-0.309
Mof_C 	C 	0.938	0.7911	0.1988	-0.228
Mof_C 	C 	0.47	0.60228	0.181	0.216
Mof_C 	C 	0.2346	0.90592	0.57082	-0.246
Mof_C 	C 	0.3932	0.8119	0.3216	-0.35
Mof_C 	C 	0.7346	0.40592	0.42918	-0.253
Mof_C 	C 	0.4235	0.2373	0.6684	-0.366
Mof_C 	C 	0.1536	0.89088	0.6146	0.188
Mof_O 	O 	0.9876	0.57158	0.44825	-0.49
Mof_O 	O 	0.589	0.27693	0.72397	-0.334
Mof_O 	O 	0.1463	0.50442	0.05747	-0.549
Mof_O 	O 	0.589	0.22307	0.22397	-0.34
Mof_O 	O 	0.25	0.75	0.6558	-0.308
Mof_O 	O 	0.814	0.01786	0.98837	-0.597
Mof_O 	O 	0.9595	0.54413	0.57717	-0.494
Mof_O 	O 	0.6463	0.00442	0.94253	-0.533
Mof_O 	O 	0.411	0.72307	0.27603	-0.332
Mof_O 	O 	0.5405	0.54413	0.07717	-0.535
Mof_O 	O 	0.4595	0.04413	0.42283	-0.544
Mof_O 	O 	0.3036	0.10331	0.56102	-0.574
Mof_O 	O 	0.314	0.98214	0.51163	-0.577
Mof_O 	O 	0.0405	0.45587	0.42283	-0.542
Mof_O 	O 	0.7979	0.59725	0.57057	-0.57
Mof_O 	O 	0.4595	0.45587	0.92283	-0.5
Mof_O 	O 	0.25	0.75	0.1558	-0.311
Mof_O 	O 	0.75	0.25	0.8442	-0.305
Mof_O 	O 	0.4876	0.42842	0.05175	-0.544
Mof_O 	O 	0.6463	0.49558	0.44253	-0.52
Mof_O 	O 	0.8036	0.89669	0.93898	-0.5
Mof_O 	O 	0.4876	0.07158	0.55175	-0.536
Mof_O 	O 	0.2979	0.40275	0.92943	-0.561
Mof_O 	O 	0.9876	0.92842	0.94825	-0.437
Mof_O 	O 	0.8036	0.60331	0.43898	-0.542
Mof_O 	O 	0.0405	0.04413	0.92283	-0.55
Mof_O 	O 	0.314	0.51786	0.01163	-0.641
Mof_O 	O 	0.7979	0.90275	0.07057	-0.582
Mof_O 	O 	0.686	0.48214	0.98837	-0.572
Mof_O 	O 	0.2979	0.09725	0.42943	-0.6
Mof_O 	O 	0.2021	0.09725	0.92943	-0.581
Mof_O 	O 	0.911	0.27693	0.22397	-0.379
Mof_O 	O 	0.686	0.01786	0.48837	-0.638
Mof_O 	O 	0.8537	0.00442	0.44253	-0.546
Mof_O 	O 	0.3036	0.39669	0.06102	-0.577
Mof_O 	O 	0.5405	0.95587	0.57717	-0.491
Mof_O 	O 	0.0124	0.07158	0.05175	-0.586
Mof_O 	O 	0.3537	0.99558	0.05747	-0.506
Mof_O 	O 	0.2021	0.40275	0.42943	-0.59
Mof_O 	O 	0.6964	0.89669	0.43898	-0.53
Mof_O 	O 	0.5124	0.92842	0.44825	-0.494
Mof_O 	O 	0.089	0.72307	0.77603	-0.284
Mof_O 	O 	0.5124	0.57158	0.94825	-0.485
Mof_O 	O 	0.7021	0.59725	0.07057	-0.601
Mof_O 	O 	0.7021	0.90275	0.57057	-0.562
Mof_O 	O 	0.411	0.77693	0.77603	-0.327
Mof_O 	O 	0.0124	0.42842	0.55175	-0.541
Mof_O 	O 	0.089	0.77693	0.27603	-0.291
Mof_O 	O 	0.9595	0.95587	0.07717	-0.488
Mof_O 	O 	0.8537	0.49558	0.94253	-0.49
Mof_O 	O 	0.1964	0.39669	0.56102	-0.562
Mof_O 	O 	0.186	0.51786	0.51163	-0.616
Mof_O 	O 	0.6964	0.60331	0.93898	-0.524
Mof_O 	O 	0.814	0.48214	0.48837	-0.601
Mof_O 	O 	0.911	0.22307	0.72397	-0.38
Mof_O 	O 	0.3537	0.50442	0.55747	-0.521
Mof_O 	O 	0.186	0.98214	0.01163	-0.612
Mof_O 	O 	0.1964	0.10331	0.06102	-0.6
Mof_O 	O 	0.75	0.25	0.3442	-0.308
Mof_O 	O 	0.1463	0.99558	0.55747	-0.494
_end
