# CIF file generated by openbabel 3.1.0, see https://openbabel.org
data_I
_chemical_name_common 'image0'
_cell_length_a 12.0317
_cell_length_b 13.8465
_cell_length_c 15.5341
_cell_angle_alpha 110.362
_cell_angle_beta 109.511
_cell_angle_gamma 92.299
_space_group_name_H-M_alt 'P 1'
_space_group_name_Hall 'P 1'
loop_
    _symmetry_equiv_pos_as_xyz
    x,y,z
loop_
    _atom_site_label
    _atom_site_type_symbol
    _atom_site_fract_x
    _atom_site_fract_y
    _atom_site_fract_z
    _atom_site_occupancy
    Zn1      Zn       0.52586    0.30812    0.35129    1.000
    O1       O        0.30640    0.64260    0.61790    1.000
    C1       C        0.37150    0.71630    0.00520    1.000
    Zn2      Zn       0.43872    0.56061    0.42985    1.000
    C2       C        0.30120    0.65350    0.04320    1.000
    B1       B        0.23560    0.63800    0.92260    1.000
    H1       H        0.22370    0.56550    0.85660    1.000
    B2       B        0.27430    0.75870    0.92580    1.000
    H2       H        0.29180    0.76770    0.86240    1.000
    B3       B        0.36100    0.84410    0.04020    1.000
    H3       H        0.43150    0.90920    0.05470    1.000
    B4       B        0.38150    0.77660    0.12140    1.000
    H4       H        0.46450    0.79730    0.18930    1.000
    B5       B        0.15350    0.64210    0.99140    1.000
    H5       H        0.08850    0.57200    0.97530    1.000
    O2       O        0.44840    0.40700    0.42280    1.000
    B6       B        0.12770    0.71600    0.91600    1.000
    H6       H        0.04330    0.69880    0.85010    1.000
    B7       B        0.20470    0.83850    0.98260    1.000
    H7       H        0.17140    0.90300    0.95870    1.000
    B8       B        0.26790    0.85760    0.11190    1.000
    H8       H        0.27330    0.93260    0.17330    1.000
    B9       B        0.23930    0.72870    0.11610    1.000
    H9       H        0.22960    0.71840    0.18170    1.000
    B10      B        0.12670    0.76870    0.02880    1.000
    H10      H        0.04050    0.78580    0.03860    1.000
    C3       C        0.48890    0.68220    0.99620    1.000
    H11      H        0.47090    0.60550    0.95500    1.000
    O3       O        0.57620    0.69860    0.09040    1.000
    H12      H        0.64410    0.71990    0.09320    1.000
    C4       C        0.53910    0.73830    0.94550    1.000
    C5       C        0.62900    0.82410    0.99620    1.000
    H13      H        0.66570    0.84610    0.06600    1.000
    C6       C        0.66750    0.87850    0.95210    1.000
    H14      H        0.72210    0.94290    0.98970    1.000
    C7       C        0.62470    0.83720    0.84930    1.000
    H15      H        0.65070    0.87340    0.81560    1.000
    N1       N        0.54810    0.74810    0.79840    1.000
    C8       C        0.50450    0.70130    0.84490    1.000
    H16      H        0.44640    0.63910    0.80630    1.000
    C9       C        0.34670    0.55530    0.05580    1.000
    H17      H        0.43590    0.57430    0.08830    1.000
    O4       O        0.32100    0.47780    0.95970    1.000
    H18      H        0.37250    0.43860    0.96290    1.000
    C10      C        0.30440    0.51350    0.11810    1.000
    C11      C        0.21550    0.43120    0.07880    1.000
    H19      H        0.17530    0.40070    0.00900    1.000
    C12      C        0.18120    0.39000    0.13520    1.000
    H20      H        0.11700    0.33250    0.10630    1.000
    C13      C        0.24300    0.43490    0.23620    1.000
    H21      H        0.22060    0.40650    0.27680    1.000
    N2       N        0.33190    0.51570    0.27900    1.000
    C14      C        0.36140    0.55430    0.22100    1.000
    H22      H        0.42460    0.61270    0.25100    1.000
    O5       O        0.27640    0.54670    0.46010    1.000
    C15      C        0.24230    0.57600    0.52920    1.000
    C16      C        0.11640    0.53760    0.51500    1.000
    C17      C        0.07790    0.57290    0.59400    1.000
    H23      H        0.12980    0.62190    0.65690    1.000
    C18      C        0.04080    0.46640    0.42220    1.000
    H24      H        0.06910    0.44410    0.36940    1.000
    O6       O        0.51550    0.18450    0.38460    1.000
    C19      C        0.52540    0.19320    0.46990    1.000
    O7       O        0.55070    0.27830    0.54340    1.000
    C20      C        0.51330    0.09390    0.48670    1.000
    C21      C        0.53230    0.09480    0.57890    1.000
    H25      H        0.55410    0.15980    0.63380    1.000
    C22      C        0.52000    0.00220    0.59340    1.000
    H26      H        0.53430    0.00410    0.65800    1.000
    Zn3      Zn       0.47414    0.69188    0.64871    1.000
    O8       O        0.69360    0.35740    0.38210    1.000
    C23      C        0.62850    0.28370    0.99480    1.000
    Zn4      Zn       0.56128    0.43939    0.57015    1.000
    C24      C        0.69880    0.34650    0.95680    1.000
    B11      B        0.76440    0.36200    0.07740    1.000
    H27      H        0.77630    0.43450    0.14340    1.000
    B12      B        0.72570    0.24130    0.07420    1.000
    H28      H        0.70820    0.23230    0.13760    1.000
    B13      B        0.63900    0.15590    0.95980    1.000
    H29      H        0.56850    0.09080    0.94530    1.000
    B14      B        0.61850    0.22340    0.87860    1.000
    H30      H        0.53550    0.20270    0.81070    1.000
    B15      B        0.84650    0.35790    0.00860    1.000
    H31      H        0.91150    0.42800    0.02470    1.000
    O9       O        0.55160    0.59300    0.57720    1.000
    B16      B        0.87230    0.28400    0.08400    1.000
    H32      H        0.95670    0.30120    0.14990    1.000
    B17      B        0.79530    0.16150    0.01740    1.000
    H33      H        0.82860    0.09700    0.04130    1.000
    B18      B        0.73210    0.14240    0.88810    1.000
    H34      H        0.72670    0.06740    0.82670    1.000
    B19      B        0.76070    0.27130    0.88390    1.000
    H35      H        0.77040    0.28160    0.81830    1.000
    B20      B        0.87330    0.23130    0.97120    1.000
    H36      H        0.95950    0.21420    0.96140    1.000
    C25      C        0.51110    0.31780    0.00380    1.000
    H37      H        0.52910    0.39450    0.04500    1.000
    O10      O        0.42380    0.30140    0.90960    1.000
    H38      H        0.35590    0.28010    0.90680    1.000
    C26      C        0.46090    0.26170    0.05450    1.000
    C27      C        0.37100    0.17590    0.00380    1.000
    H39      H        0.33430    0.15390    0.93400    1.000
    C28      C        0.33250    0.12150    0.04790    1.000
    H40      H        0.27790    0.05710    0.01030    1.000
    C29      C        0.37530    0.16280    0.15070    1.000
    H41      H        0.34930    0.12660    0.18440    1.000
    N3       N        0.45190    0.25190    0.20160    1.000
    C30      C        0.49550    0.29870    0.15510    1.000
    H42      H        0.55360    0.36090    0.19370    1.000
    C31      C        0.65330    0.44470    0.94420    1.000
    H43      H        0.56410    0.42570    0.91170    1.000
    O11      O        0.67900    0.52220    0.04030    1.000
    H44      H        0.62750    0.56140    0.03710    1.000
    C32      C        0.69560    0.48650    0.88190    1.000
    C33      C        0.78450    0.56880    0.92120    1.000
    H45      H        0.82470    0.59930    0.99100    1.000
    C34      C        0.81880    0.61000    0.86480    1.000
    H46      H        0.88300    0.66750    0.89370    1.000
    C35      C        0.75700    0.56510    0.76380    1.000
    H47      H        0.77940    0.59350    0.72320    1.000
    N4       N        0.66810    0.48430    0.72100    1.000
    C36      C        0.63860    0.44570    0.77900    1.000
    H48      H        0.57540    0.38730    0.74900    1.000
    O12      O        0.72360    0.45330    0.53990    1.000
    C37      C        0.75770    0.42400    0.47080    1.000
    C38      C        0.88360    0.46240    0.48500    1.000
    C39      C        0.92210    0.42710    0.40600    1.000
    H49      H        0.87020    0.37810    0.34310    1.000
    C40      C        0.95920    0.53360    0.57780    1.000
    H50      H        0.93090    0.55590    0.63060    1.000
    O13      O        0.48450    0.81550    0.61540    1.000
    C41      C        0.47460    0.80680    0.53010    1.000
    O14      O        0.44930    0.72170    0.45660    1.000
    C42      C        0.48670    0.90610    0.51330    1.000
    C43      C        0.46770    0.90520    0.42110    1.000
    H51      H        0.44590    0.84020    0.36620    1.000
    C44      C        0.48000    0.99780    0.40660    1.000
    H52      H        0.46570    0.99590    0.34200    1.000
