data_functionalizedCrystal
_audit_creation_method	'EQeq! by Chris Wilmer'
_symmetry_space_group_name_H-M	'P1'
_symmetry_Int_Tables_number	1
_symmetry_cell_setting	triclinic
loop_
_symmetry_equiv_pos_as_xyz
  x,y,z
_cell_length_a	10.4951
_cell_length_b	11.3396
_cell_length_c	12.7954
_cell_angle_alpha	100.73
_cell_angle_beta	110.142
_cell_angle_gamma	99.732
loop_
_atom_site_label
_atom_site_type_symbol
_atom_site_fract_x
_atom_site_fract_y
_atom_site_fract_z
_atom_site_charge
Mof_Pr	Pr	0.61101	0.57328	0.63661	2.856
Mof_Pr	Pr	0.4006	0.44496	0.34263	2.576
Mof_H 	H 	0.90966	0.645	0.59562	0.009
Mof_H 	H 	0.53805	0.88904	0.34098	0.01
Mof_H 	H 	0.10046	0.80161	0.96413	0.017
Mof_H 	H 	0.36267	0.81398	0.63298	0.098
Mof_H 	H 	0.41785	0.96218	0.7343	0.076
Mof_H 	H 	0.63947	0.88436	0.87684	0.091
Mof_H 	H 	0.67849	0.03157	0.97503	0.076
Mof_H 	H 	0.09073	0.3553	0.37794	0.001
Mof_H 	H 	0.48285	0.14666	0.67487	0.036
Mof_H 	H 	0.91494	0.14787	0.09826	0.045
Mof_H 	H 	0.27336	0.66409	0.75352	0.089
Mof_H 	H 	0.14387	0.74935	0.73186	0.078
Mof_C 	C 	0.69614	0.47976	0.41053	0.427
Mof_C 	C 	0.85248	0.49025	0.44967	-0.134
Mof_C 	C 	0.90754	0.40887	0.3898	-0.007
Mof_C 	C 	0.94871	0.58123	0.54837	-0.038
Mof_C 	C 	0.49127	0.75608	0.48619	0.5
Mof_C 	C 	0.48341	0.88599	0.48864	-0.177
Mof_C 	C 	0.46792	0.96119	0.5838	0.125
Mof_C 	C 	0.52271	0.9434	0.41273	0.026
Mof_C 	C 	0.81132	0.74278	0.84687	0.385
Mof_C 	C 	0.90909	0.85804	0.94712	-0.119
Mof_C 	C 	0.86034	0.96047	0.98862	0.102
Mof_C 	C 	0.05673	0.87466	0.99383	0.002
Mof_C 	C 	0.30879	0.52468	0.5609	0.417
Mof_C 	C 	0.15131	0.51082	0.52635	-0.166
Mof_C 	C 	0.09487	0.59033	0.58938	0.087
Mof_C 	C 	0.05379	0.41943	0.42708	-0.012
Mof_C 	C 	0.53794	0.27798	0.53276	0.437
Mof_C 	C 	0.53848	0.14725	0.52845	-0.088
Mof_C 	C 	0.5485	0.07241	0.43181	-0.014
Mof_C 	C 	0.49841	0.09073	0.60397	-0.053
Mof_C 	C 	0.20589	0.21135	0.20187	0.34
Mof_C 	C 	0.10352	0.08742	0.118	-0.066
Mof_C 	C 	0.15081	0.98486	0.07819	-0.039
Mof_C 	C 	0.95637	0.07172	0.07129	-0.057
Mof_N 	N 	0.41648	0.907	0.65863	-0.201
Mof_N 	N 	0.714	0.95736	0.94372	-0.198
Mof_N 	N 	0.18174	0.6785	0.69768	-0.198
Mof_O 	O 	0.62913	0.55198	0.46092	-0.866
Mof_O 	O 	0.60814	0.40985	0.32234	-0.573
Mof_O 	O 	0.56576	0.74386	0.58457	-0.653
Mof_O 	O 	0.42901	0.66546	0.39131	-0.627
Mof_O 	O 	0.83528	0.70308	0.75792	-0.577
Mof_O 	O 	0.69115	0.68087	0.8349	-0.564
Mof_O 	O 	0.37792	0.44914	0.51668	-0.793
Mof_O 	O 	0.39704	0.60505	0.64	-0.592
Mof_O 	O 	0.45779	0.29272	0.43587	-0.522
Mof_O 	O 	0.61068	0.36709	0.62701	-0.647
Mof_O 	O 	0.17736	0.31641	0.21186	-0.568
Mof_O 	O 	0.3325	0.22503	0.26879	-0.46
Mof_H 	H 	0.83719	0.33672	0.31329	0.029
Mof_H 	H 	0.57584	0.11435	0.3704	0.039
Mof_H 	H 	0.26228	0.99118	0.10972	0.035
_end
