data_functionalizedCrystal
_audit_creation_method	'EQeq! by Chris Wilmer'
_symmetry_space_group_name_H-M	'P1'
_symmetry_Int_Tables_number	1
_symmetry_cell_setting	triclinic
loop_
_symmetry_equiv_pos_as_xyz
  x,y,z
_cell_length_a	15.645
_cell_length_b	15.645
_cell_length_c	19.75
_cell_angle_alpha	90
_cell_angle_beta	90
_cell_angle_gamma	90
loop_
_atom_site_label
_atom_site_type_symbol
_atom_site_fract_x
_atom_site_fract_y
_atom_site_fract_z
_atom_site_charge
Mof_N 	N 	0.06777	0.18031	0.04619	-0.214
Mof_C 	C 	0.02823	0.14756	0.99136	-0.155
Mof_H 	H 	0.9689	0.1503	0.9892	0.103
Mof_C 	C 	0.07165	0.1102	0.93849	0.03
Mof_H 	H 	0.042	0.088	0.9017	-0.016
Mof_C 	C 	0.15991	0.10613	0.94066	-0.112
Mof_H 	H 	0.1903	0.0822	0.9049	0.056
Mof_C 	C 	0.20261	0.13821	0.99702	0.024
Mof_C 	C 	0.15343	0.17433	0.04816	-0.021
Mof_H 	H 	0.1815	0.1957	0.0861	0.004
Mof_N 	N 	0.56777	0.68031	0.54619	-0.24
Mof_C 	C 	0.52823	0.64756	0.49136	0.039
Mof_H 	H 	0.4689	0.6503	0.4892	-0.013
Mof_C 	C 	0.57165	0.6102	0.43849	-0.084
Mof_H 	H 	0.542	0.588	0.4017	0.05
Mof_C 	C 	0.65991	0.60613	0.44066	-0.045
Mof_H 	H 	0.6903	0.5822	0.4049	0.038
Mof_C 	C 	0.70261	0.63821	0.49702	0.004
Mof_C 	C 	0.65343	0.67433	0.54816	-0.004
Mof_H 	H 	0.6815	0.6957	0.5861	0.001
Mof_N 	N 	0.43223	0.81969	0.54619	-0.245
Mof_C 	C 	0.47177	0.85244	0.49136	0.047
Mof_H 	H 	0.5311	0.8497	0.4892	-0.015
Mof_C 	C 	0.42835	0.8898	0.43849	-0.101
Mof_H 	H 	0.458	0.912	0.4017	0.056
Mof_C 	C 	0.34009	0.89387	0.44066	-0.02
Mof_H 	H 	0.3097	0.9178	0.4049	0.027
Mof_C 	C 	0.29739	0.86179	0.49702	-0.035
Mof_C 	C 	0.34657	0.82567	0.54816	0.014
Mof_H 	H 	0.3185	0.8043	0.5861	-0.007
Mof_N 	N 	0.93223	0.31969	0.04619	-0.261
Mof_C 	C 	0.97177	0.35244	0.99136	0.244
Mof_H 	H 	0.0311	0.3497	0.9892	-0.13
Mof_C 	C 	0.92835	0.3898	0.93849	-0.215
Mof_H 	H 	0.958	0.412	0.9017	0.124
Mof_C 	C 	0.84009	0.39387	0.94066	0.048
Mof_H 	H 	0.8097	0.4178	0.9049	0.009
Mof_C 	C 	0.79739	0.36179	0.99702	-0.055
Mof_C 	C 	0.84657	0.32567	0.04816	0.031
Mof_H 	H 	0.8185	0.3043	0.0861	-0.007
Mof_N 	N 	0.06969	0.81777	0.29619	-0.253
Mof_C 	C 	0.10244	0.77823	0.24136	0.036
Mof_H 	H 	0.0997	0.7189	0.2392	-0.026
Mof_C 	C 	0.1398	0.82165	0.18849	-0.1
Mof_H 	H 	0.162	0.792	0.1517	0.051
Mof_C 	C 	0.14387	0.90991	0.19066	-0.037
Mof_H 	H 	0.1678	0.9403	0.1549	0.03
Mof_C 	C 	0.11179	0.95261	0.24702	-0.022
Mof_C 	C 	0.07567	0.90343	0.29816	-0.001
Mof_H 	H 	0.0543	0.9315	0.3361	-0.016
Mof_N 	N 	0.56969	0.31777	0.79619	-0.242
Mof_C 	C 	0.60244	0.27823	0.74136	0.043
Mof_H 	H 	0.5997	0.2189	0.7392	-0.014
Mof_C 	C 	0.6398	0.32165	0.68849	-0.091
Mof_H 	H 	0.662	0.292	0.6517	0.054
Mof_C 	C 	0.64387	0.40991	0.69066	-0.032
Mof_H 	H 	0.6678	0.4403	0.6549	0.035
Mof_C 	C 	0.61179	0.45261	0.74702	-0.014
Mof_C 	C 	0.57567	0.40343	0.79816	0.005
Mof_H 	H 	0.5543	0.4315	0.8361	-0.003
Mof_N 	N 	0.43031	0.18223	0.79619	-0.242
Mof_C 	C 	0.39756	0.22177	0.74136	0.043
Mof_H 	H 	0.4003	0.2811	0.7392	-0.014
Mof_C 	C 	0.3602	0.17835	0.68849	-0.093
Mof_H 	H 	0.338	0.208	0.6517	0.052
Mof_C 	C 	0.35613	0.09009	0.69066	-0.033
Mof_H 	H 	0.3322	0.0597	0.6549	0.03
Mof_C 	C 	0.38821	0.04739	0.74702	-0.017
Mof_C 	C 	0.42433	0.09657	0.79816	0.005
Mof_H 	H 	0.4457	0.0685	0.8361	-0.003
Mof_N 	N 	0.93031	0.68223	0.29619	-0.223
Mof_C 	C 	0.89756	0.72177	0.24136	0.05
Mof_H 	H 	0.9003	0.7811	0.2392	0
Mof_C 	C 	0.8602	0.67835	0.18849	-0.084
Mof_H 	H 	0.838	0.708	0.1517	0.055
Mof_C 	C 	0.85613	0.59009	0.19066	-0.029
Mof_H 	H 	0.8322	0.5597	0.1549	0.035
Mof_C 	C 	0.88821	0.54739	0.24702	-0.008
Mof_C 	C 	0.92433	0.59657	0.29816	0.011
Mof_H 	H 	0.9457	0.5685	0.3361	0.013
Mof_N 	N 	0.43223	0.18031	0.95381	-0.245
Mof_C 	C 	0.47177	0.14756	0.00864	0.047
Mof_H 	H 	0.5311	0.1503	0.0108	-0.016
Mof_C 	C 	0.42835	0.1102	0.06151	-0.1
Mof_H 	H 	0.458	0.088	0.0983	0.056
Mof_C 	C 	0.34009	0.10613	0.05934	-0.02
Mof_H 	H 	0.3097	0.0822	0.0951	0.027
Mof_C 	C 	0.29739	0.13821	0.00298	-0.035
Mof_C 	C 	0.34657	0.17433	0.95184	0.014
Mof_H 	H 	0.3185	0.1957	0.9139	-0.007
Mof_N 	N 	0.93223	0.68031	0.45381	-0.262
Mof_C 	C 	0.97177	0.64756	0.50864	0.248
Mof_H 	H 	0.0311	0.6503	0.5108	-0.132
Mof_C 	C 	0.92835	0.6102	0.56151	-0.217
Mof_H 	H 	0.958	0.588	0.5983	0.125
Mof_C 	C 	0.84009	0.60613	0.55934	0.049
Mof_H 	H 	0.8097	0.5822	0.5951	0.009
Mof_C 	C 	0.79739	0.63821	0.50298	-0.055
Mof_C 	C 	0.84657	0.67433	0.45184	0.032
Mof_H 	H 	0.8185	0.6957	0.4139	-0.007
Mof_N 	N 	0.06777	0.81969	0.45381	-0.215
Mof_C 	C 	0.02823	0.85244	0.50864	-0.159
Mof_H 	H 	0.9689	0.8497	0.5108	0.105
Mof_C 	C 	0.07165	0.8898	0.56151	0.031
Mof_H 	H 	0.042	0.912	0.5983	-0.017
Mof_C 	C 	0.15991	0.89387	0.55934	-0.113
Mof_H 	H 	0.1903	0.9178	0.5951	0.056
Mof_C 	C 	0.20261	0.86179	0.50298	0.025
Mof_C 	C 	0.15343	0.82567	0.45184	-0.022
Mof_H 	H 	0.1815	0.8043	0.4139	0.004
Mof_N 	N 	0.56777	0.31969	0.95381	-0.24
Mof_C 	C 	0.52823	0.35244	0.00864	0.038
Mof_H 	H 	0.4689	0.3497	0.0108	-0.013
Mof_C 	C 	0.57165	0.3898	0.06151	-0.084
Mof_H 	H 	0.542	0.412	0.0983	0.05
Mof_C 	C 	0.65991	0.39387	0.05934	-0.045
Mof_H 	H 	0.6903	0.4178	0.0951	0.038
Mof_C 	C 	0.70261	0.36179	0.00298	0.004
Mof_C 	C 	0.65343	0.32567	0.95184	-0.004
Mof_H 	H 	0.6815	0.3043	0.9139	0.001
Mof_N 	N 	0.43031	0.81777	0.70381	-0.242
Mof_C 	C 	0.39756	0.77823	0.75864	0.043
Mof_H 	H 	0.4003	0.7189	0.7608	-0.014
Mof_C 	C 	0.3602	0.82165	0.81151	-0.093
Mof_H 	H 	0.338	0.792	0.8483	0.052
Mof_C 	C 	0.35613	0.90991	0.80934	-0.033
Mof_H 	H 	0.3322	0.9403	0.8451	0.03
Mof_C 	C 	0.38821	0.95261	0.75298	-0.016
Mof_C 	C 	0.42433	0.90343	0.70184	0.005
Mof_H 	H 	0.4457	0.9315	0.6639	-0.003
Mof_N 	N 	0.93031	0.31777	0.20381	-0.223
Mof_C 	C 	0.89756	0.27823	0.25864	0.05
Mof_H 	H 	0.9003	0.2189	0.2608	0
Mof_C 	C 	0.8602	0.32165	0.31151	-0.084
Mof_H 	H 	0.838	0.292	0.3483	0.055
Mof_C 	C 	0.85613	0.40991	0.30934	-0.029
Mof_H 	H 	0.8322	0.4403	0.3451	0.035
Mof_C 	C 	0.88821	0.45261	0.25298	-0.008
Mof_C 	C 	0.92433	0.40343	0.20184	0.011
Mof_H 	H 	0.9457	0.4315	0.1639	0.013
Mof_N 	N 	0.06969	0.18223	0.20381	-0.253
Mof_C 	C 	0.10244	0.22177	0.25864	0.036
Mof_H 	H 	0.0997	0.2811	0.2608	-0.026
Mof_C 	C 	0.1398	0.17835	0.31151	-0.1
Mof_H 	H 	0.162	0.208	0.3483	0.051
Mof_C 	C 	0.14387	0.09009	0.30934	-0.037
Mof_H 	H 	0.1678	0.0597	0.3451	0.03
Mof_C 	C 	0.11179	0.04739	0.25298	-0.022
Mof_C 	C 	0.07567	0.09657	0.20184	-0.001
Mof_H 	H 	0.0543	0.0685	0.1639	-0.016
Mof_N 	N 	0.56969	0.68223	0.70381	-0.242
Mof_C 	C 	0.60244	0.72177	0.75864	0.043
Mof_H 	H 	0.5997	0.7811	0.7608	-0.014
Mof_C 	C 	0.6398	0.67835	0.81151	-0.091
Mof_H 	H 	0.662	0.708	0.8483	0.054
Mof_C 	C 	0.64387	0.59009	0.80934	-0.032
Mof_H 	H 	0.6678	0.5597	0.8451	0.035
Mof_C 	C 	0.61179	0.54739	0.75298	-0.014
Mof_C 	C 	0.57567	0.59657	0.70184	0.005
Mof_H 	H 	0.5543	0.5685	0.6639	-0.003
Mof_Co	Co	-4.6303e-33	0.25	0.125	1.033
Mof_Co	Co	0.5	0.75	0.625	1.064
Mof_Co	Co	-3.447e-33	0.75	0.375	1.033
Mof_Co	Co	0.5	0.25	0.875	1.064
Mof_N 	N 	0.93223	0.81969	0.95381	-0.261
Mof_C 	C 	0.97177	0.85244	0.00864	0.243
Mof_H 	H 	0.0311	0.8497	0.0108	-0.129
Mof_C 	C 	0.92835	0.8898	0.06151	-0.214
Mof_H 	H 	0.958	0.912	0.0983	0.123
Mof_C 	C 	0.84009	0.89387	0.05934	0.047
Mof_H 	H 	0.8097	0.9178	0.0951	0.009
Mof_C 	C 	0.79739	0.86179	0.00298	-0.055
Mof_C 	C 	0.84657	0.82567	0.95184	0.031
Mof_H 	H 	0.8185	0.8043	0.9139	-0.007
Mof_N 	N 	0.43223	0.31969	0.45381	-0.245
Mof_C 	C 	0.47177	0.35244	0.50864	0.047
Mof_H 	H 	0.5311	0.3497	0.5108	-0.015
Mof_C 	C 	0.42835	0.3898	0.56151	-0.101
Mof_H 	H 	0.458	0.412	0.5983	0.056
Mof_C 	C 	0.34009	0.39387	0.55934	-0.02
Mof_H 	H 	0.3097	0.4178	0.5951	0.027
Mof_C 	C 	0.29739	0.36179	0.50298	-0.035
Mof_C 	C 	0.34657	0.32567	0.45184	0.014
Mof_H 	H 	0.3185	0.3043	0.4139	-0.007
Mof_N 	N 	0.56777	0.18031	0.45381	-0.24
Mof_C 	C 	0.52823	0.14756	0.50864	0.039
Mof_H 	H 	0.4689	0.1503	0.5108	-0.013
Mof_C 	C 	0.57165	0.1102	0.56151	-0.084
Mof_H 	H 	0.542	0.088	0.5983	0.05
Mof_C 	C 	0.65991	0.10613	0.55934	-0.045
Mof_H 	H 	0.6903	0.0822	0.5951	0.038
Mof_C 	C 	0.70261	0.13821	0.50298	0.004
Mof_C 	C 	0.65343	0.17433	0.45184	-0.004
Mof_H 	H 	0.6815	0.1957	0.4139	0.001
Mof_N 	N 	0.06777	0.68031	0.95381	-0.215
Mof_C 	C 	0.02823	0.64756	0.00864	-0.158
Mof_H 	H 	0.9689	0.6503	0.0108	0.104
Mof_C 	C 	0.07165	0.6102	0.06151	0.031
Mof_H 	H 	0.042	0.588	0.0983	-0.017
Mof_C 	C 	0.15991	0.60613	0.05934	-0.113
Mof_H 	H 	0.1903	0.5822	0.0951	0.056
Mof_C 	C 	0.20261	0.63821	0.00298	0.025
Mof_C 	C 	0.15343	0.67433	0.95184	-0.021
Mof_H 	H 	0.1815	0.6957	0.9139	0.004
Mof_N 	N 	0.93031	0.18223	0.70381	-0.223
Mof_C 	C 	0.89756	0.22177	0.75864	0.05
Mof_H 	H 	0.9003	0.2811	0.7608	0.001
Mof_C 	C 	0.8602	0.17835	0.81151	-0.084
Mof_H 	H 	0.838	0.208	0.8483	0.055
Mof_C 	C 	0.85613	0.09009	0.80934	-0.029
Mof_H 	H 	0.8322	0.0597	0.8451	0.035
Mof_C 	C 	0.88821	0.04739	0.75298	-0.008
Mof_C 	C 	0.92433	0.09657	0.70184	0.011
Mof_H 	H 	0.9457	0.0685	0.6639	0.013
Mof_N 	N 	0.43031	0.68223	0.20381	-0.242
Mof_C 	C 	0.39756	0.72177	0.25864	0.043
Mof_H 	H 	0.4003	0.7811	0.2608	-0.014
Mof_C 	C 	0.3602	0.67835	0.31151	-0.093
Mof_H 	H 	0.338	0.708	0.3483	0.052
Mof_C 	C 	0.35613	0.59009	0.30934	-0.033
Mof_H 	H 	0.3322	0.5597	0.3451	0.03
Mof_C 	C 	0.38821	0.54739	0.25298	-0.016
Mof_C 	C 	0.42433	0.59657	0.20184	0.005
Mof_H 	H 	0.4457	0.5685	0.1639	-0.003
Mof_N 	N 	0.56969	0.81777	0.20381	-0.242
Mof_C 	C 	0.60244	0.77823	0.25864	0.043
Mof_H 	H 	0.5997	0.7189	0.2608	-0.014
Mof_C 	C 	0.6398	0.82165	0.31151	-0.091
Mof_H 	H 	0.662	0.792	0.3483	0.054
Mof_C 	C 	0.64387	0.90991	0.30934	-0.032
Mof_H 	H 	0.6678	0.9403	0.3451	0.035
Mof_C 	C 	0.61179	0.95261	0.25298	-0.014
Mof_C 	C 	0.57567	0.90343	0.20184	0.005
Mof_H 	H 	0.5543	0.9315	0.1639	-0.003
Mof_N 	N 	0.06969	0.31777	0.70381	-0.253
Mof_C 	C 	0.10244	0.27823	0.75864	0.036
Mof_H 	H 	0.0997	0.2189	0.7608	-0.026
Mof_C 	C 	0.1398	0.32165	0.81151	-0.1
Mof_H 	H 	0.162	0.292	0.8483	0.051
Mof_C 	C 	0.14387	0.40991	0.80934	-0.037
Mof_H 	H 	0.1678	0.4403	0.8451	0.03
Mof_C 	C 	0.11179	0.45261	0.75298	-0.022
Mof_C 	C 	0.07567	0.40343	0.70184	-0.001
Mof_H 	H 	0.0543	0.4315	0.6639	-0.016
Mof_N 	N 	0.56777	0.81969	0.04619	-0.24
Mof_C 	C 	0.52823	0.85244	0.99136	0.038
Mof_H 	H 	0.4689	0.8497	0.9892	-0.013
Mof_C 	C 	0.57165	0.8898	0.93849	-0.084
Mof_H 	H 	0.542	0.912	0.9017	0.05
Mof_C 	C 	0.65991	0.89387	0.94066	-0.045
Mof_H 	H 	0.6903	0.9178	0.9049	0.038
Mof_C 	C 	0.70261	0.86179	0.99702	0.004
Mof_C 	C 	0.65343	0.82567	0.04816	-0.004
Mof_H 	H 	0.6815	0.8043	0.0861	0.001
Mof_N 	N 	0.06777	0.31969	0.54619	-0.214
Mof_C 	C 	0.02823	0.35244	0.49136	-0.161
Mof_H 	H 	0.9689	0.3497	0.4892	0.106
Mof_C 	C 	0.07165	0.3898	0.43849	0.032
Mof_H 	H 	0.042	0.412	0.4017	-0.018
Mof_C 	C 	0.15991	0.39387	0.44066	-0.114
Mof_H 	H 	0.1903	0.4178	0.4049	0.057
Mof_C 	C 	0.20261	0.36179	0.49702	0.025
Mof_C 	C 	0.15343	0.32567	0.54816	-0.022
Mof_H 	H 	0.1815	0.3043	0.5861	0.004
Mof_N 	N 	0.93223	0.18031	0.54619	-0.261
Mof_C 	C 	0.97177	0.14756	0.49136	0.246
Mof_H 	H 	0.0311	0.1503	0.4892	-0.131
Mof_C 	C 	0.92835	0.1102	0.43849	-0.216
Mof_H 	H 	0.958	0.088	0.4017	0.124
Mof_C 	C 	0.84009	0.10613	0.44066	0.048
Mof_H 	H 	0.8097	0.0822	0.4049	0.009
Mof_C 	C 	0.79739	0.13821	0.49702	-0.055
Mof_C 	C 	0.84657	0.17433	0.54816	0.031
Mof_H 	H 	0.8185	0.1957	0.5861	-0.007
Mof_N 	N 	0.43223	0.68031	0.04619	-0.245
Mof_C 	C 	0.47177	0.64756	0.99136	0.047
Mof_H 	H 	0.5311	0.6503	0.9892	-0.016
Mof_C 	C 	0.42835	0.6102	0.93849	-0.1
Mof_H 	H 	0.458	0.588	0.9017	0.056
Mof_C 	C 	0.34009	0.60613	0.94066	-0.02
Mof_H 	H 	0.3097	0.5822	0.9049	0.027
Mof_C 	C 	0.29739	0.63821	0.99702	-0.035
Mof_C 	C 	0.34657	0.67433	0.04816	0.014
Mof_H 	H 	0.3185	0.6957	0.0861	-0.007
Mof_N 	N 	0.56969	0.18223	0.29619	-0.242
Mof_C 	C 	0.60244	0.22177	0.24136	0.043
Mof_H 	H 	0.5997	0.2811	0.2392	-0.014
Mof_C 	C 	0.6398	0.17835	0.18849	-0.092
Mof_H 	H 	0.662	0.208	0.1517	0.054
Mof_C 	C 	0.64387	0.09009	0.19066	-0.031
Mof_H 	H 	0.6678	0.0597	0.1549	0.035
Mof_C 	C 	0.61179	0.04739	0.24702	-0.014
Mof_C 	C 	0.57567	0.09657	0.29816	0.005
Mof_H 	H 	0.5543	0.0685	0.3361	-0.003
Mof_N 	N 	0.06969	0.68223	0.79619	-0.253
Mof_C 	C 	0.10244	0.72177	0.74136	0.035
Mof_H 	H 	0.0997	0.7811	0.7392	-0.026
Mof_C 	C 	0.1398	0.67835	0.68849	-0.1
Mof_H 	H 	0.162	0.708	0.6517	0.051
Mof_C 	C 	0.14387	0.59009	0.69066	-0.037
Mof_H 	H 	0.1678	0.5597	0.6549	0.03
Mof_C 	C 	0.11179	0.54739	0.74702	-0.022
Mof_C 	C 	0.07567	0.59657	0.79816	-0.001
Mof_H 	H 	0.0543	0.5685	0.8361	-0.016
Mof_N 	N 	0.93031	0.81777	0.79619	-0.223
Mof_C 	C 	0.89756	0.77823	0.74136	0.05
Mof_H 	H 	0.9003	0.7189	0.7392	0.001
Mof_C 	C 	0.8602	0.82165	0.68849	-0.084
Mof_H 	H 	0.838	0.792	0.6517	0.055
Mof_C 	C 	0.85613	0.90991	0.69066	-0.029
Mof_H 	H 	0.8322	0.9403	0.6549	0.035
Mof_C 	C 	0.88821	0.95261	0.74702	-0.008
Mof_C 	C 	0.92433	0.90343	0.79816	0.011
Mof_H 	H 	0.9457	0.9315	0.8361	0.013
Mof_N 	N 	0.43031	0.31777	0.29619	-0.242
Mof_C 	C 	0.39756	0.27823	0.24136	0.043
Mof_H 	H 	0.4003	0.2189	0.2392	-0.014
Mof_C 	C 	0.3602	0.32165	0.18849	-0.093
Mof_H 	H 	0.338	0.292	0.1517	0.052
Mof_C 	C 	0.35613	0.40991	0.19066	-0.033
Mof_H 	H 	0.3322	0.4403	0.1549	0.03
Mof_C 	C 	0.38821	0.45261	0.24702	-0.016
Mof_C 	C 	0.42433	0.40343	0.29816	0.005
Mof_H 	H 	0.4457	0.4315	0.3361	-0.003
Mof_Co	Co	-6.30235e-33	0.75	0.875	1.033
Mof_Co	Co	0.5	0.25	0.375	1.064
Mof_Co	Co	2.95824e-33	0.25	0.625	1.033
Mof_Co	Co	0.5	0.75	0.125	1.064
_end
