data_functionalizedCrystal
_audit_creation_method	'EQeq! by Chris Wilmer'
_symmetry_space_group_name_H-M	'P1'
_symmetry_Int_Tables_number	1
_symmetry_cell_setting	triclinic
loop_
_symmetry_equiv_pos_as_xyz
  x,y,z
_cell_length_a	9.9355
_cell_length_b	12.1661
_cell_length_c	23.473
_cell_angle_alpha	75.392
_cell_angle_beta	80.66
_cell_angle_gamma	79.549
loop_
_atom_site_label
_atom_site_type_symbol
_atom_site_fract_x
_atom_site_fract_y
_atom_site_fract_z
_atom_site_charge
Mof_Eu	Eu	0.26369	0.48216	0.4955	2.118
Mof_Eu	Eu	0.73631	0.51784	0.5045	2.118
Mof_H 	H 	0.5095	0.6964	0.3504	-0.016
Mof_H 	H 	0.2065	0.4993	0.6443	-0.075
Mof_H 	H 	0.7643	0.4343	0.668	-0.044
Mof_H 	H 	0.5398	0.2578	0.8906	0.056
Mof_H 	H 	0.3042	0.5834	0.9281	0.053
Mof_H 	H 	0.6081	0.7756	0.2557	0.099
Mof_H 	H 	0.1307	0.2407	0.6757	-0.046
Mof_H 	H 	0.3777	0.1531	0.089	0.056
Mof_H 	H 	0.6968	0.346	0.7648	0.127
Mof_H 	H 	0.1135	0.5267	0.1244	0.057
Mof_H 	H 	0.0936	0.492	0.7378	0.137
Mof_H 	H 	0.9514	0.9578	0.9216	0.057
Mof_H 	H 	0.7819	0.8476	0.1201	0.056
Mof_H 	H 	0.5346	0.5776	0.6914	-0.041
Mof_H 	H 	0.0632	0.1489	0.7714	0.126
Mof_H 	H 	0.3363	0.3471	0.9269	0.041
Mof_H 	H 	0.9786	0.7517	0.0837	0.042
Mof_H 	H 	0.4202	0.6118	0.998	0.047
Mof_H 	H 	0.2585	0.298	0.0278	0.046
Mof_H 	H 	0.1893	0.9475	0.3329	0
Mof_H 	H 	0.4238	0.5674	0.7872	0.126
Mof_H 	H 	0.3236	0.5842	0.0961	0.035
Mof_H 	H 	0.2791	0.019	0.2358	0.097
Mof_H 	H 	0.0632	0.8044	0.9841	0.047
Mof_H 	H 	0.4905	0.3036	0.6496	-0.016
Mof_H 	H 	0.7935	0.5007	0.3557	-0.075
Mof_H 	H 	0.2357	0.5657	0.332	-0.044
Mof_H 	H 	0.4602	0.7422	0.1094	0.056
Mof_H 	H 	0.6958	0.4166	0.0719	0.053
Mof_H 	H 	0.3919	0.2244	0.7443	0.099
Mof_H 	H 	0.8693	0.7593	0.3243	-0.046
Mof_H 	H 	0.6223	0.8469	0.911	0.056
Mof_H 	H 	0.3032	0.654	0.2352	0.127
Mof_H 	H 	0.8865	0.4733	0.8756	0.057
Mof_H 	H 	0.9064	0.508	0.2622	0.137
Mof_H 	H 	0.0486	0.0422	0.0784	0.057
Mof_H 	H 	0.2181	0.1524	0.8799	0.056
Mof_H 	H 	0.4654	0.4224	0.3086	-0.041
Mof_H 	H 	0.9368	0.8511	0.2286	0.126
Mof_H 	H 	0.6637	0.6529	0.0731	0.041
Mof_H 	H 	0.0214	0.2483	0.9163	0.042
Mof_H 	H 	0.5798	0.3882	0.002	0.047
Mof_H 	H 	0.7415	0.702	0.9722	0.046
Mof_H 	H 	0.8107	0.0525	0.6671	0
Mof_H 	H 	0.5762	0.4326	0.2128	0.126
Mof_H 	H 	0.6764	0.4158	0.9039	0.035
Mof_H 	H 	0.7209	0.981	0.7642	0.097
Mof_H 	H 	0.9368	0.1956	0.0159	0.047
Mof_C 	C 	0.9982	0.4055	0.5986	0.583
Mof_C 	C 	0.456	0.5427	0.5971	0.569
Mof_C 	C 	0.1313	0.5352	0.9824	0.016
Mof_C 	C 	0.4638	0.7622	0.3276	0.115
Mof_C 	C 	0.3825	0.5388	0.6581	-0.329
Mof_C 	C 	0.955	0.346	0.6622	-0.308
Mof_C 	C 	0.0727	0.5181	0.0433	0.02
Mof_C 	C 	0.0602	0.5149	0.9408	-0.048
Mof_C 	C 	0.2512	0.5136	0.673	0.246
Mof_C 	C 	0.59	0.1472	0.9671	0.023
Mof_C 	C 	0.7759	0.1332	0.8854	0.047
Mof_C 	C 	0.271	0.7578	0.4113	0.409
Mof_C 	C 	0.7386	0.9636	0.044	0.021
Mof_C 	C 	0.6132	0.0218	0.0656	-0.037
Mof_C 	C 	0.5384	0.1125	0.0285	0.018
Mof_C 	C 	0.718	0.0903	0.9451	-0.043
Mof_C 	C 	0.1232	0.5225	0.8798	0.049
Mof_C 	C 	0.1789	0.5263	0.8319	-0.123
Mof_C 	C 	0.3377	0.8136	0.3504	-0.186
Mof_C 	C 	0.7908	0.9976	0.9829	0.021
Mof_C 	C 	0.8251	0.3768	0.6889	0.212
Mof_C 	C 	0.4534	0.9052	0.2361	0.14
Mof_C 	C 	0.8708	0.2359	0.7775	0.203
Mof_C 	C 	0.5088	0.2358	0.9308	-0.071
Mof_C 	C 	0.2641	0.5714	0.9674	-0.065
Mof_C 	C 	0.5223	0.8091	0.2706	-0.198
Mof_C 	C 	0.8227	0.1763	0.8375	-0.11
Mof_C 	C 	0.0421	0.2615	0.6935	0.218
Mof_C 	C 	0.5584	0.9847	0.1272	0.032
Mof_C 	C 	0.4121	0.1731	0.0491	-0.064
Mof_C 	C 	0.5119	0.9497	0.1761	-0.086
Mof_C 	C 	0.2456	0.5283	0.7721	0.219
Mof_C 	C 	0.7842	0.3229	0.7466	-0.274
Mof_C 	C 	0.1502	0.5377	0.0847	-0.077
Mof_C 	C 	0.1834	0.5088	0.7291	-0.312
Mof_C 	C 	0.9152	0.9364	0.9612	-0.064
Mof_C 	C 	0.8144	0.8701	0.0801	-0.069
Mof_C 	C 	0.4455	0.5595	0.7007	0.219
Mof_C 	C 	0.0019	0.2063	0.7507	-0.28
Mof_C 	C 	0.3881	0.2896	0.9522	-0.027
Mof_C 	C 	0.9311	0.8131	0.0587	-0.025
Mof_C 	C 	0.3336	0.5886	0.0091	-0.039
Mof_C 	C 	0.3404	0.2588	0.0127	-0.031
Mof_C 	C 	0.2718	0.9108	0.3169	0.109
Mof_C 	C 	0.3789	0.5539	0.7583	-0.283
Mof_C 	C 	0.2757	0.5718	0.0679	-0.022
Mof_C 	C 	0.3273	0.9553	0.2591	-0.19
Mof_C 	C 	0.9823	0.8454	0.9987	-0.032
Mof_C 	C 	0.0018	0.5945	0.4014	0.583
Mof_C 	C 	0.544	0.4573	0.4029	0.569
Mof_C 	C 	0.8687	0.4648	0.0176	0.016
Mof_C 	C 	0.5362	0.2378	0.6724	0.115
Mof_C 	C 	0.6175	0.4612	0.3419	-0.329
Mof_C 	C 	0.045	0.654	0.3378	-0.308
Mof_C 	C 	0.9273	0.4819	0.9567	0.02
Mof_C 	C 	0.9398	0.4851	0.0592	-0.048
Mof_C 	C 	0.7488	0.4864	0.327	0.246
Mof_C 	C 	0.41	0.8528	0.0329	0.023
Mof_C 	C 	0.2241	0.8668	0.1146	0.047
Mof_C 	C 	0.729	0.2422	0.5887	0.409
Mof_C 	C 	0.2614	0.0364	0.956	0.021
Mof_C 	C 	0.3868	0.9782	0.9344	-0.037
Mof_C 	C 	0.4616	0.8875	0.9715	0.018
Mof_C 	C 	0.282	0.9097	0.0549	-0.043
Mof_C 	C 	0.8768	0.4775	0.1202	0.049
Mof_C 	C 	0.8211	0.4737	0.1681	-0.123
Mof_C 	C 	0.6623	0.1864	0.6496	-0.186
Mof_C 	C 	0.2092	0.0024	0.0171	0.021
Mof_C 	C 	0.1749	0.6232	0.3111	0.212
Mof_C 	C 	0.5466	0.0948	0.7639	0.14
Mof_C 	C 	0.1292	0.7641	0.2225	0.203
Mof_C 	C 	0.4912	0.7642	0.0692	-0.071
Mof_C 	C 	0.7359	0.4286	0.0326	-0.065
Mof_C 	C 	0.4777	0.1909	0.7294	-0.198
Mof_C 	C 	0.1773	0.8237	0.1625	-0.11
Mof_C 	C 	0.9579	0.7385	0.3065	0.218
Mof_C 	C 	0.4416	0.0153	0.8728	0.032
Mof_C 	C 	0.5879	0.8269	0.9509	-0.064
Mof_C 	C 	0.4881	0.0503	0.8239	-0.086
Mof_C 	C 	0.7544	0.4717	0.2279	0.219
Mof_C 	C 	0.2158	0.6771	0.2534	-0.274
Mof_C 	C 	0.8498	0.4623	0.9153	-0.077
Mof_C 	C 	0.8166	0.4912	0.2709	-0.312
Mof_C 	C 	0.0848	0.0636	0.0388	-0.064
Mof_C 	C 	0.1856	0.1299	0.9199	-0.069
Mof_C 	C 	0.5545	0.4405	0.2993	0.219
Mof_C 	C 	0.9981	0.7937	0.2493	-0.28
Mof_C 	C 	0.6119	0.7104	0.0478	-0.027
Mof_C 	C 	0.0689	0.1869	0.9413	-0.025
Mof_C 	C 	0.6664	0.4114	0.9909	-0.039
Mof_C 	C 	0.6596	0.7412	0.9873	-0.031
Mof_C 	C 	0.7282	0.0892	0.6831	0.109
Mof_C 	C 	0.6211	0.4461	0.2417	-0.283
Mof_C 	C 	0.7243	0.4282	0.9321	-0.022
Mof_C 	C 	0.6727	0.0447	0.7409	-0.19
Mof_C 	C 	0.0177	0.1546	0.0013	-0.032
Mof_O 	O 	0.3317	0.6632	0.43786	-0.508
Mof_O 	O 	0.1227	0.3937	0.57945	-0.623
Mof_O 	O 	0.3942	0.5292	0.55834	-0.639
Mof_O 	O 	0.9053	0.4635	0.56838	-0.636
Mof_O 	O 	0.5809	0.5587	0.58862	-0.567
Mof_O 	O 	0.1596	0.8072	0.43166	-0.324
Mof_O 	O 	0.6683	0.3368	0.56214	-0.508
Mof_O 	O 	0.8773	0.6063	0.42055	-0.623
Mof_O 	O 	0.6058	0.4708	0.44166	-0.639
Mof_O 	O 	0.0947	0.5365	0.43162	-0.636
Mof_O 	O 	0.4191	0.4413	0.41138	-0.567
Mof_O 	O 	0.8404	0.1928	0.56834	-0.324
_end
