data_functionalizedCrystal
_audit_creation_method	'EQeq! by Chris Wilmer'
_symmetry_space_group_name_H-M	'P1'
_symmetry_Int_Tables_number	1
_symmetry_cell_setting	triclinic
loop_
_symmetry_equiv_pos_as_xyz
  x,y,z
_cell_length_a	6.3758
_cell_length_b	6.884
_cell_length_c	9.0254
_cell_angle_alpha	69.01
_cell_angle_beta	85.197
_cell_angle_gamma	79.452
loop_
_atom_site_label
_atom_site_type_symbol
_atom_site_fract_x
_atom_site_fract_y
_atom_site_fract_z
_atom_site_charge
Mof_V 	V 	-9.77291e-18	0.5	0.5	1.652
Mof_V 	V 	-0	0	0.5	1.533
Mof_H 	H 	0.8244	0.6086	0.9943	0.198
Mof_H 	H 	0.0657	0.8374	0.3166	0.623
Mof_H 	H 	0.1756	0.3914	0.0057	-0.12
Mof_H 	H 	0.9343	0.1626	0.6834	0.433
Mof_C 	C 	0.3961	0.5439	0.8586	-0.169
Mof_C 	C 	0.2677	0.6188	0.7113	0.414
Mof_C 	C 	0.594	0.6064	0.8557	0.056
Mof_C 	C 	0.7174	0.6859	0.7031	0.373
Mof_C 	C 	0.6945	0.5641	0.9966	-0.08
Mof_C 	C 	0.6039	0.4561	0.1414	0.058
Mof_C 	C 	0.7323	0.3812	0.2887	0.365
Mof_C 	C 	0.406	0.3936	0.1443	-0.185
Mof_C 	C 	0.2826	0.3141	0.2969	0.427
Mof_C 	C 	0.3055	0.4359	0.0034	0.093
Mof_O 	O 	0.0107	0.7989	0.3924	-1.253
Mof_O 	O 	0.8067	0.8427	0.6791	-0.208
Mof_O 	O 	0.1746	0.4887	0.6848	-0.645
Mof_O 	O 	0.252	0.813	0.631	-0.45
Mof_O 	O 	0.7317	0.5779	0.6144	-0.341
Mof_O 	O 	0.9893	0.2011	0.6076	-0.781
Mof_O 	O 	0.1933	0.1573	0.3209	-0.723
Mof_O 	O 	0.8254	0.5113	0.3152	-0.268
Mof_O 	O 	0.748	0.187	0.369	-0.418
Mof_O 	O 	0.2683	0.4221	0.3856	-0.584
_end
