data_functionalizedCrystal
_audit_creation_method	'EQeq! by Chris Wilmer'
_symmetry_space_group_name_H-M	'P1'
_symmetry_Int_Tables_number	1
_symmetry_cell_setting	triclinic
loop_
_symmetry_equiv_pos_as_xyz
  x,y,z
_cell_length_a	7.903
_cell_length_b	9.355
_cell_length_c	7.485
_cell_angle_alpha	90
_cell_angle_beta	118.25
_cell_angle_gamma	90
loop_
_atom_site_label
_atom_site_type_symbol
_atom_site_fract_x
_atom_site_fract_y
_atom_site_fract_z
_atom_site_charge
Mof_P 	P 	0.1918	0.484	0.3683	0.494
Mof_O 	O 	0.1857	0.3885	0.1888	-0.513
Mof_O 	O 	0.0655	0.6114	0.2949	-0.702
Mof_O 	O 	0.142	0.4072	0.5086	-0.613
Mof_C 	C 	0.4283	0.5719	0.4605	-0.114
Mof_P 	P 	0.8082	0.984	0.6317	0.48
Mof_O 	O 	0.8143	0.8885	0.8112	-0.513
Mof_O 	O 	0.9345	0.1114	0.7051	-0.693
Mof_O 	O 	0.858	0.9072	0.4914	-0.618
Mof_C 	C 	0.5717	0.0719	0.5395	-0.112
Mof_P 	P 	0.8082	0.516	0.6317	0.495
Mof_O 	O 	0.8143	0.6115	0.8112	-0.512
Mof_O 	O 	0.9345	0.3886	0.7051	-0.702
Mof_O 	O 	0.858	0.5928	0.4914	-0.613
Mof_C 	C 	0.5717	0.4281	0.5395	-0.114
Mof_P 	P 	0.1918	0.016	0.3683	0.48
Mof_O 	O 	0.1857	0.1115	0.1888	-0.513
Mof_O 	O 	0.0655	0.8886	0.2949	-0.693
Mof_O 	O 	0.142	0.0928	0.5086	-0.618
Mof_C 	C 	0.4283	0.9281	0.4605	-0.112
Mof_V 	V 	0.9618	0.75	0.434	1.734
Mof_O 	O 	0.7285	0.75	0.1041	-0.475
Mof_V 	V 	0.0382	0.25	0.566	1.734
Mof_O 	O 	0.2715	0.25	0.8959	-0.475
Mof_V 	V 	0.0051	0.25	0.9608	1.644
Mof_V 	V 	0.9949	0.75	0.0392	1.644
_end
