data_functionalizedCrystal
_audit_creation_method	'EQeq! by Chris Wilmer'
_symmetry_space_group_name_H-M	'P1'
_symmetry_Int_Tables_number	1
_symmetry_cell_setting	triclinic
loop_
_symmetry_equiv_pos_as_xyz
  x,y,z
_cell_length_a	9.1555
_cell_length_b	11.747
_cell_length_c	11.5381
_cell_angle_alpha	90
_cell_angle_beta	90
_cell_angle_gamma	90
loop_
_atom_site_label
_atom_site_type_symbol
_atom_site_fract_x
_atom_site_fract_y
_atom_site_fract_z
_atom_site_charge
Mof_Cd	Cd	0.12649	0.94003	0.8468	0.394
Mof_Cd	Cd	0.62972	0.96879	0.8774	0.424
Mof_Cd	Cd	0.87351	0.05997	0.3468	0.428
Mof_Cd	Cd	0.37028	0.03121	0.3774	0.455
Mof_Cd	Cd	0.37351	0.44003	0.8468	0.399
Mof_Cd	Cd	0.87028	0.46879	0.8774	0.427
Mof_Cd	Cd	0.62649	0.55997	0.3468	0.43
Mof_Cd	Cd	0.12972	0.53121	0.3774	0.454
Mof_C 	C 	0.7963	0.2061	0.8702	0.048
Mof_C 	C 	0.6419	0.244	0.8659	0.266
Mof_C 	C 	0.4652	0.003	0.112	0.067
Mof_C 	C 	0.6212	0.0004	0.1506	0.26
Mof_C 	C 	0.2037	0.7939	0.3702	0.058
Mof_C 	C 	0.3581	0.756	0.3659	0.269
Mof_C 	C 	0.5348	0.997	0.612	0.061
Mof_C 	C 	0.3788	0.9996	0.6506	0.269
Mof_C 	C 	0.7037	0.7061	0.8702	0.048
Mof_C 	C 	0.8581	0.744	0.8659	0.265
Mof_C 	C 	0.0348	0.503	0.112	0.067
Mof_C 	C 	0.8788	0.5004	0.1506	0.269
Mof_C 	C 	0.2963	0.2939	0.3702	0.058
Mof_C 	C 	0.1419	0.256	0.3659	0.269
Mof_C 	C 	0.9652	0.497	0.612	0.063
Mof_C 	C 	0.1212	0.4996	0.6506	0.265
Mof_N 	N 	0.8348	0.0965	0.8669	-0.086
Mof_N 	N 	0.9809	0.0984	0.8728	-0.063
Mof_N 	N 	0.0278	0.2053	0.8773	-0.047
Mof_N 	N 	0.914	0.2738	0.8771	-0.095
Mof_N 	N 	0.4228	0.9874	0.0036	-0.061
Mof_N 	N 	0.2821	0.0012	0.0036	-0.036
Mof_N 	N 	0.2348	0.0252	0.1085	-0.029
Mof_N 	N 	0.3504	0.0283	0.1792	-0.091
Mof_N 	N 	0.1652	0.9035	0.3669	-0.082
Mof_N 	N 	0.0191	0.9016	0.3728	-0.06
Mof_N 	N 	0.9722	0.7947	0.3773	-0.031
Mof_N 	N 	0.086	0.7262	0.3771	-0.092
Mof_N 	N 	0.5772	0.0126	0.5036	-0.086
Mof_N 	N 	0.7179	0.9988	0.5036	-0.051
Mof_N 	N 	0.7652	0.9748	0.6085	-0.035
Mof_N 	N 	0.6496	0.9717	0.6792	-0.09
Mof_N 	N 	0.6652	0.5965	0.8669	-0.086
Mof_N 	N 	0.5191	0.5984	0.8728	-0.066
Mof_N 	N 	0.4722	0.7053	0.8773	-0.045
Mof_N 	N 	0.586	0.7738	0.8771	-0.097
Mof_N 	N 	0.0772	0.4874	0.0036	-0.066
Mof_N 	N 	0.2179	0.5012	0.0036	-0.033
Mof_N 	N 	0.2652	0.5252	0.1085	-0.028
Mof_N 	N 	0.1496	0.5283	0.1792	-0.091
Mof_N 	N 	0.3348	0.4035	0.3669	-0.082
Mof_N 	N 	0.4809	0.4016	0.3728	-0.058
Mof_N 	N 	0.5278	0.2947	0.3773	-0.034
Mof_N 	N 	0.414	0.2262	0.3771	-0.09
Mof_N 	N 	0.9228	0.5126	0.5036	-0.084
Mof_N 	N 	0.7821	0.4988	0.5036	-0.053
Mof_N 	N 	0.7348	0.4748	0.6085	-0.036
Mof_N 	N 	0.8504	0.4717	0.6792	-0.091
Mof_O 	O 	0.5498	0.1644	0.8618	-0.253
Mof_O 	O 	0.6189	0.3497	0.8704	-0.264
Mof_O 	O 	0.7141	0.9801	0.072	-0.205
Mof_O 	O 	0.6468	0.0251	0.2549	-0.249
Mof_O 	O 	0.4502	0.8356	0.3618	-0.238
Mof_O 	O 	0.3811	0.6503	0.3704	-0.253
Mof_O 	O 	0.2859	0.0199	0.572	-0.242
Mof_O 	O 	0.3532	0.9749	0.7549	-0.261
Mof_O 	O 	0.9502	0.6644	0.8618	-0.251
Mof_O 	O 	0.8811	0.8497	0.8704	-0.262
Mof_O 	O 	0.7859	0.4801	0.072	-0.212
Mof_O 	O 	0.8532	0.5251	0.2549	-0.25
Mof_O 	O 	0.0498	0.3356	0.3618	-0.241
Mof_O 	O 	0.1189	0.1503	0.3704	-0.253
Mof_O 	O 	0.2141	0.5199	0.572	-0.242
Mof_O 	O 	0.1468	0.4749	0.7549	-0.262
_end
