data_functionalizedCrystal
_audit_creation_method	'EQeq! by Chris Wilmer'
_symmetry_space_group_name_H-M	'P1'
_symmetry_Int_Tables_number	1
_symmetry_cell_setting	triclinic
loop_
_symmetry_equiv_pos_as_xyz
  x,y,z
_cell_length_a	12.39
_cell_length_b	13.795
_cell_length_c	13.83
_cell_angle_alpha	115.769
_cell_angle_beta	93.914
_cell_angle_gamma	106.918
loop_
_atom_site_label
_atom_site_type_symbol
_atom_site_fract_x
_atom_site_fract_y
_atom_site_fract_z
_atom_site_charge
Mof_Eu	Eu	0.67393	0.52536	0.53212	2.025
Mof_Eu	Eu	0.32607	0.47464	0.46788	2.025
Mof_H 	H 	0.5692	0.173	0.5055	0.048
Mof_H 	H 	0.1964	0.9212	0.362	0.031
Mof_H 	H 	0.2439	0.0948	0.3598	0.054
Mof_H 	H 	0.6915	0.5946	0.328	0.028
Mof_H 	H 	0.7818	0.6473	0.2066	0.033
Mof_H 	H 	0.3891	0.4409	0.1015	0.064
Mof_H 	H 	0.033	0.9001	0.7596	0.065
Mof_H 	H 	0.1335	0.0797	0.785	0.022
Mof_H 	H 	0.8935	0.8157	0.4507	0.076
Mof_H 	H 	0.4308	0.827	0.4945	0.047
Mof_H 	H 	0.8036	0.0788	0.638	0.03
Mof_H 	H 	0.7561	0.9052	0.6402	0.054
Mof_H 	H 	0.3085	0.4054	0.672	0.028
Mof_H 	H 	0.2182	0.3527	0.7934	0.033
Mof_H 	H 	0.6109	0.5591	0.8985	0.064
Mof_H 	H 	0.967	0.0999	0.2404	0.065
Mof_H 	H 	0.8665	0.9203	0.215	0.022
Mof_H 	H 	0.1065	0.1843	0.5493	0.076
Mof_C 	C 	0.4459	0.2706	0.4391	0.46
Mof_C 	C 	0.4115	0.1537	0.4347	-0.098
Mof_C 	C 	0.4924	0.1233	0.4769	-0.032
Mof_C 	C 	0.458	0.0175	0.4762	0.047
Mof_C 	C 	0.2725	0.9725	0.392	0.023
Mof_C 	C 	0.3	0.0774	0.3903	-0.027
Mof_C 	C 	0.4664	0.483	0.3063	0.424
Mof_C 	C 	0.5298	0.5134	0.2285	-0.097
Mof_C 	C 	0.6488	0.5748	0.2599	-0.025
Mof_C 	C 	0.7026	0.6059	0.1858	0.012
Mof_C 	C 	0.5296	0.5148	0.0557	0.05
Mof_C 	C 	0.4683	0.4822	0.1243	-0.042
Mof_C 	C 	0.872	0.7213	0.5822	0.305
Mof_C 	C 	0.9492	0.8372	0.6018	-0.025
Mof_C 	C 	0.024	0.9182	0.7028	-0.082
Mof_C 	C 	0.0844	0.0256	0.7167	0.047
Mof_C 	C 	0.0051	0.9805	0.5425	0.059
Mof_C 	C 	0.9411	0.8687	0.5201	-0.077
Mof_C 	C 	0.5541	0.7294	0.5609	0.46
Mof_C 	C 	0.5885	0.8463	0.5653	-0.098
Mof_C 	C 	0.5076	0.8767	0.5231	-0.032
Mof_C 	C 	0.542	0.9825	0.5238	0.047
Mof_C 	C 	0.7275	0.0275	0.608	0.023
Mof_C 	C 	0.7	0.9226	0.6097	-0.027
Mof_C 	C 	0.5336	0.517	0.6937	0.424
Mof_C 	C 	0.4702	0.4866	0.7715	-0.097
Mof_C 	C 	0.3512	0.4252	0.7401	-0.025
Mof_C 	C 	0.2974	0.3941	0.8142	0.012
Mof_C 	C 	0.4704	0.4852	0.9443	0.05
Mof_C 	C 	0.5317	0.5178	0.8757	-0.042
Mof_C 	C 	0.128	0.2787	0.4178	0.305
Mof_C 	C 	0.0508	0.1628	0.3982	-0.025
Mof_C 	C 	0.976	0.0818	0.2972	-0.082
Mof_C 	C 	0.9156	0.9744	0.2833	0.047
Mof_C 	C 	0.9949	0.0195	0.4575	0.059
Mof_C 	C 	0.0589	0.1313	0.4799	-0.077
Mof_N 	N 	0.3475	0.9417	0.4333	-0.12
Mof_N 	N 	0.6441	0.5782	0.0861	-0.116
Mof_N 	N 	0.0778	0.0582	0.6394	-0.124
Mof_N 	N 	0.6525	0.0583	0.5667	-0.12
Mof_N 	N 	0.3559	0.4218	0.9139	-0.116
Mof_N 	N 	0.9222	0.9418	0.3606	-0.124
Mof_O 	O 	0.5525	0.3316	0.4761	-0.547
Mof_O 	O 	0.3674	0.2977	0.4094	-0.491
Mof_O 	O 	0.5263	0.4949	0.3911	-0.6
Mof_O 	O 	0.3595	0.4506	0.2863	-0.482
Mof_O 	O 	0.8593	0.7001	0.6602	-0.412
Mof_O 	O 	0.8176	0.6485	0.4846	-0.475
Mof_O 	O 	0.4475	0.6684	0.5239	-0.547
Mof_O 	O 	0.6326	0.7023	0.5906	-0.491
Mof_O 	O 	0.4737	0.5051	0.6089	-0.6
Mof_O 	O 	0.6405	0.5494	0.7137	-0.482
Mof_O 	O 	0.1407	0.2999	0.3398	-0.412
Mof_O 	O 	0.1824	0.3515	0.5154	-0.475
_end
