data_functionalizedCrystal
_audit_creation_method	'EQeq! by Chris Wilmer'
_symmetry_space_group_name_H-M	'P1'
_symmetry_Int_Tables_number	1
_symmetry_cell_setting	triclinic
loop_
_symmetry_equiv_pos_as_xyz
  x,y,z
_cell_length_a	15.188
_cell_length_b	15.188
_cell_length_c	15.188
_cell_angle_alpha	90
_cell_angle_beta	90
_cell_angle_gamma	90
loop_
_atom_site_label
_atom_site_type_symbol
_atom_site_fract_x
_atom_site_fract_y
_atom_site_fract_z
_atom_site_charge
Mof_N 	N 	0.8759	0.9532	0.2488	-0.163
Mof_N 	N 	0.83304	0.9255	0.1762	-0.146
Mof_C 	C 	0.9338	0.0104	0.2184	0.099
Mof_H 	H 	0.9734	0.041	0.2537	-0.042
Mof_C 	C 	0.929	0.0195	0.1288	-0.176
Mof_H 	H 	0.963	0.056	0.0933	0.077
Mof_C 	C 	0.8643	0.9643	0.1032	0.099
Mof_H 	H 	0.845	0.9548	0.0459	-0.012
Mof_C 	C 	0.7612	0.865	0.1842	0.238
Mof_C 	C 	0.7531	0.7974	0.1243	-0.348
Mof_H 	H 	0.784	0.794	0.074	0.144
Mof_N 	N 	0.6241	0.0468	0.7488	-0.164
Mof_N 	N 	0.66696	0.0745	0.6762	-0.147
Mof_C 	C 	0.5662	0.9896	0.7184	0.098
Mof_H 	H 	0.5266	0.959	0.7537	-0.043
Mof_C 	C 	0.571	0.9805	0.6288	-0.177
Mof_H 	H 	0.537	0.944	0.5933	0.076
Mof_C 	C 	0.6357	0.0357	0.6032	0.099
Mof_H 	H 	0.655	0.0452	0.5459	-0.012
Mof_C 	C 	0.7388	0.135	0.6842	0.238
Mof_C 	C 	0.7469	0.2026	0.6243	-0.348
Mof_H 	H 	0.716	0.206	0.574	0.144
Mof_N 	N 	0.1241	0.4532	0.2512	-0.164
Mof_N 	N 	0.16696	0.4255	0.3238	-0.147
Mof_C 	C 	0.0662	0.5104	0.2816	0.098
Mof_H 	H 	0.0266	0.541	0.2463	-0.043
Mof_C 	C 	0.071	0.5195	0.3712	-0.177
Mof_H 	H 	0.037	0.556	0.4067	0.076
Mof_C 	C 	0.1357	0.4643	0.3968	0.099
Mof_H 	H 	0.155	0.4548	0.4541	-0.012
Mof_C 	C 	0.2388	0.365	0.3158	0.238
Mof_C 	C 	0.2469	0.2974	0.3757	-0.348
Mof_H 	H 	0.216	0.294	0.426	0.144
Mof_N 	N 	0.3759	0.5468	0.7512	-0.164
Mof_N 	N 	0.33304	0.5745	0.8238	-0.147
Mof_C 	C 	0.4338	0.4896	0.7816	0.098
Mof_H 	H 	0.4734	0.459	0.7463	-0.043
Mof_C 	C 	0.429	0.4805	0.8712	-0.177
Mof_H 	H 	0.463	0.444	0.9067	0.076
Mof_C 	C 	0.3643	0.5357	0.8968	0.099
Mof_H 	H 	0.345	0.5452	0.9541	-0.012
Mof_C 	C 	0.2612	0.635	0.8158	0.238
Mof_C 	C 	0.2531	0.7026	0.8757	-0.348
Mof_H 	H 	0.284	0.706	0.926	0.144
Mof_N 	N 	0.2488	0.8759	0.9532	-0.164
Mof_N 	N 	0.1762	0.83304	0.9255	-0.147
Mof_C 	C 	0.2184	0.9338	0.0104	0.098
Mof_H 	H 	0.2537	0.9734	0.041	-0.043
Mof_C 	C 	0.1288	0.929	0.0195	-0.177
Mof_H 	H 	0.0933	0.963	0.056	0.076
Mof_C 	C 	0.1032	0.8643	0.9643	0.099
Mof_H 	H 	0.0459	0.845	0.9548	-0.012
Mof_C 	C 	0.1842	0.7612	0.865	0.238
Mof_C 	C 	0.1243	0.7531	0.7974	-0.348
Mof_H 	H 	0.074	0.784	0.794	0.144
Mof_N 	N 	0.7488	0.6241	0.0468	-0.164
Mof_N 	N 	0.6762	0.66696	0.0745	-0.147
Mof_C 	C 	0.7184	0.5662	0.9896	0.098
Mof_H 	H 	0.7537	0.5266	0.959	-0.043
Mof_C 	C 	0.6288	0.571	0.9805	-0.177
Mof_H 	H 	0.5933	0.537	0.944	0.076
Mof_C 	C 	0.6032	0.6357	0.0357	0.099
Mof_H 	H 	0.5459	0.655	0.0452	-0.012
Mof_C 	C 	0.6842	0.7388	0.135	0.238
Mof_C 	C 	0.6243	0.7469	0.2026	-0.348
Mof_H 	H 	0.574	0.716	0.206	0.144
Mof_N 	N 	0.2512	0.1241	0.4532	-0.164
Mof_N 	N 	0.3238	0.16696	0.4255	-0.147
Mof_C 	C 	0.2816	0.0662	0.5104	0.098
Mof_H 	H 	0.2463	0.0266	0.541	-0.043
Mof_C 	C 	0.3712	0.071	0.5195	-0.177
Mof_H 	H 	0.4067	0.037	0.556	0.076
Mof_C 	C 	0.3968	0.1357	0.4643	0.099
Mof_H 	H 	0.4541	0.155	0.4548	-0.012
Mof_C 	C 	0.3158	0.2388	0.365	0.238
Mof_C 	C 	0.3757	0.2469	0.2974	-0.348
Mof_H 	H 	0.426	0.216	0.294	0.144
Mof_N 	N 	0.7512	0.3759	0.5468	-0.164
Mof_N 	N 	0.8238	0.33304	0.5745	-0.147
Mof_C 	C 	0.7816	0.4338	0.4896	0.098
Mof_H 	H 	0.7463	0.4734	0.459	-0.043
Mof_C 	C 	0.8712	0.429	0.4805	-0.177
Mof_H 	H 	0.9067	0.463	0.444	0.076
Mof_C 	C 	0.8968	0.3643	0.5357	0.099
Mof_H 	H 	0.9541	0.345	0.5452	-0.012
Mof_C 	C 	0.8158	0.2612	0.635	0.238
Mof_C 	C 	0.8757	0.2531	0.7026	-0.348
Mof_H 	H 	0.926	0.284	0.706	0.144
Mof_N 	N 	0.9532	0.2488	0.8759	-0.164
Mof_N 	N 	0.9255	0.1762	0.83304	-0.147
Mof_C 	C 	0.0104	0.2184	0.9338	0.098
Mof_H 	H 	0.041	0.2537	0.9734	-0.043
Mof_C 	C 	0.0195	0.1288	0.929	-0.177
Mof_H 	H 	0.056	0.0933	0.963	0.076
Mof_C 	C 	0.9643	0.1032	0.8643	0.099
Mof_H 	H 	0.9548	0.0459	0.845	-0.012
Mof_C 	C 	0.865	0.1842	0.7612	0.238
Mof_C 	C 	0.7974	0.1243	0.7531	-0.348
Mof_H 	H 	0.794	0.074	0.784	0.144
Mof_N 	N 	0.0468	0.7488	0.6241	-0.164
Mof_N 	N 	0.0745	0.6762	0.66696	-0.147
Mof_C 	C 	0.9896	0.7184	0.5662	0.098
Mof_H 	H 	0.959	0.7537	0.5266	-0.043
Mof_C 	C 	0.9805	0.6288	0.571	-0.177
Mof_H 	H 	0.944	0.5933	0.537	0.076
Mof_C 	C 	0.0357	0.6032	0.6357	0.099
Mof_H 	H 	0.0452	0.5459	0.655	-0.012
Mof_C 	C 	0.135	0.6842	0.7388	0.238
Mof_C 	C 	0.2026	0.6243	0.7469	-0.348
Mof_H 	H 	0.206	0.574	0.716	0.144
Mof_N 	N 	0.4532	0.2512	0.1241	-0.164
Mof_N 	N 	0.4255	0.3238	0.16696	-0.147
Mof_C 	C 	0.5104	0.2816	0.0662	0.098
Mof_H 	H 	0.541	0.2463	0.0266	-0.043
Mof_C 	C 	0.5195	0.3712	0.071	-0.177
Mof_H 	H 	0.556	0.4067	0.037	0.076
Mof_C 	C 	0.4643	0.3968	0.1357	0.099
Mof_H 	H 	0.4548	0.4541	0.155	-0.012
Mof_C 	C 	0.365	0.3158	0.2388	0.238
Mof_C 	C 	0.2974	0.3757	0.2469	-0.348
Mof_H 	H 	0.294	0.426	0.216	0.144
Mof_N 	N 	0.5468	0.7512	0.3759	-0.164
Mof_N 	N 	0.5745	0.8238	0.33304	-0.147
Mof_C 	C 	0.4896	0.7816	0.4338	0.098
Mof_H 	H 	0.459	0.7463	0.4734	-0.043
Mof_C 	C 	0.4805	0.8712	0.429	-0.177
Mof_H 	H 	0.444	0.9067	0.463	0.076
Mof_C 	C 	0.5357	0.8968	0.3643	0.099
Mof_H 	H 	0.5452	0.9541	0.345	-0.012
Mof_C 	C 	0.635	0.8158	0.2612	0.238
Mof_C 	C 	0.7026	0.8757	0.2531	-0.348
Mof_H 	H 	0.706	0.926	0.284	0.144
Mof_N 	N 	0.7032	0.1259	0.0012	-0.164
Mof_N 	N 	0.6755	0.08304	0.0738	-0.147
Mof_C 	C 	0.7604	0.1838	0.0316	0.098
Mof_H 	H 	0.791	0.2234	0.9963	-0.043
Mof_C 	C 	0.7695	0.179	0.1212	-0.177
Mof_H 	H 	0.806	0.213	0.1567	0.076
Mof_C 	C 	0.7143	0.1143	0.1468	0.099
Mof_H 	H 	0.7048	0.095	0.2041	-0.012
Mof_C 	C 	0.615	0.0112	0.0658	0.238
Mof_C 	C 	0.5474	0.0031	0.1257	-0.349
Mof_H 	H 	0.544	0.034	0.176	0.144
Mof_N 	N 	0.7968	0.8741	0.5012	-0.164
Mof_N 	N 	0.8245	0.91696	0.5738	-0.147
Mof_C 	C 	0.7396	0.8162	0.5316	0.098
Mof_H 	H 	0.709	0.7766	0.4963	-0.043
Mof_C 	C 	0.7305	0.821	0.6212	-0.177
Mof_H 	H 	0.694	0.787	0.6567	0.076
Mof_C 	C 	0.7857	0.8857	0.6468	0.099
Mof_H 	H 	0.7952	0.905	0.7041	-0.012
Mof_C 	C 	0.885	0.9888	0.5658	0.237
Mof_C 	C 	0.9526	0.9969	0.6257	-0.349
Mof_H 	H 	0.956	0.966	0.676	0.144
Mof_N 	N 	0.2032	0.3741	0.9988	-0.164
Mof_N 	N 	0.1755	0.41696	0.9262	-0.147
Mof_C 	C 	0.2604	0.3162	0.9684	0.099
Mof_H 	H 	0.291	0.2766	0.0037	-0.043
Mof_C 	C 	0.2695	0.321	0.8788	-0.177
Mof_H 	H 	0.306	0.287	0.8433	0.076
Mof_C 	C 	0.2143	0.3857	0.8532	0.099
Mof_H 	H 	0.2048	0.405	0.7959	-0.012
Mof_C 	C 	0.115	0.4888	0.9342	0.238
Mof_C 	C 	0.0474	0.4969	0.8743	-0.348
Mof_H 	H 	0.044	0.466	0.824	0.144
Mof_N 	N 	0.2968	0.6259	0.4988	-0.164
Mof_N 	N 	0.3245	0.58304	0.4262	-0.147
Mof_C 	C 	0.2396	0.6838	0.4684	0.098
Mof_H 	H 	0.209	0.7234	0.5037	-0.043
Mof_C 	C 	0.2305	0.679	0.3788	-0.177
Mof_H 	H 	0.194	0.713	0.3433	0.076
Mof_C 	C 	0.2857	0.6143	0.3532	0.099
Mof_H 	H 	0.2952	0.595	0.2959	-0.012
Mof_C 	C 	0.385	0.5112	0.4342	0.238
Mof_C 	C 	0.4526	0.5031	0.3743	-0.348
Mof_H 	H 	0.456	0.534	0.324	0.144
Mof_N 	N 	0.6259	0.4988	0.2968	-0.164
Mof_N 	N 	0.58304	0.4262	0.3245	-0.147
Mof_C 	C 	0.6838	0.4684	0.2396	0.098
Mof_H 	H 	0.7234	0.5037	0.209	-0.043
Mof_C 	C 	0.679	0.3788	0.2305	-0.177
Mof_H 	H 	0.713	0.3433	0.194	0.076
Mof_C 	C 	0.6143	0.3532	0.2857	0.099
Mof_H 	H 	0.595	0.2959	0.2952	-0.012
Mof_C 	C 	0.5112	0.4342	0.385	0.238
Mof_C 	C 	0.5031	0.3743	0.4526	-0.348
Mof_H 	H 	0.534	0.324	0.456	0.144
Mof_N 	N 	0.3741	0.9988	0.2032	-0.164
Mof_N 	N 	0.41696	0.9262	0.1755	-0.147
Mof_C 	C 	0.3162	0.9684	0.2604	0.099
Mof_H 	H 	0.2766	0.0037	0.291	-0.043
Mof_C 	C 	0.321	0.8788	0.2695	-0.177
Mof_H 	H 	0.287	0.8433	0.306	0.076
Mof_C 	C 	0.3857	0.8532	0.2143	0.099
Mof_H 	H 	0.405	0.7959	0.2048	-0.012
Mof_C 	C 	0.4888	0.9342	0.115	0.238
Mof_C 	C 	0.4969	0.8743	0.0474	-0.348
Mof_H 	H 	0.466	0.824	0.044	0.144
Mof_N 	N 	0.8741	0.5012	0.7968	-0.164
Mof_N 	N 	0.91696	0.5738	0.8245	-0.147
Mof_C 	C 	0.8162	0.5316	0.7396	0.098
Mof_H 	H 	0.7766	0.4963	0.709	-0.043
Mof_C 	C 	0.821	0.6212	0.7305	-0.177
Mof_H 	H 	0.787	0.6567	0.694	0.076
Mof_C 	C 	0.8857	0.6468	0.7857	0.099
Mof_H 	H 	0.905	0.7041	0.7952	-0.012
Mof_C 	C 	0.9888	0.5658	0.885	0.237
Mof_C 	C 	0.9969	0.6257	0.9526	-0.349
Mof_H 	H 	0.966	0.676	0.956	0.144
Mof_N 	N 	0.1259	0.0012	0.7032	-0.164
Mof_N 	N 	0.08304	0.0738	0.6755	-0.147
Mof_C 	C 	0.1838	0.0316	0.7604	0.098
Mof_H 	H 	0.2234	0.9963	0.791	-0.043
Mof_C 	C 	0.179	0.1212	0.7695	-0.177
Mof_H 	H 	0.213	0.1567	0.806	0.076
Mof_C 	C 	0.1143	0.1468	0.7143	0.099
Mof_H 	H 	0.095	0.2041	0.7048	-0.012
Mof_C 	C 	0.0112	0.0658	0.615	0.238
Mof_C 	C 	0.0031	0.1257	0.5474	-0.349
Mof_H 	H 	0.034	0.176	0.544	0.144
Mof_N 	N 	0.9988	0.2032	0.3741	-0.164
Mof_N 	N 	0.9262	0.1755	0.41696	-0.147
Mof_C 	C 	0.9684	0.2604	0.3162	0.099
Mof_H 	H 	0.0037	0.291	0.2766	-0.043
Mof_C 	C 	0.8788	0.2695	0.321	-0.177
Mof_H 	H 	0.8433	0.306	0.287	0.076
Mof_C 	C 	0.8532	0.2143	0.3857	0.099
Mof_H 	H 	0.7959	0.2048	0.405	-0.012
Mof_C 	C 	0.9342	0.115	0.4888	0.238
Mof_C 	C 	0.8743	0.0474	0.4969	-0.348
Mof_H 	H 	0.824	0.044	0.466	0.144
Mof_N 	N 	0.4988	0.2968	0.6259	-0.164
Mof_N 	N 	0.4262	0.3245	0.58304	-0.147
Mof_C 	C 	0.4684	0.2396	0.6838	0.098
Mof_H 	H 	0.5037	0.209	0.7234	-0.043
Mof_C 	C 	0.3788	0.2305	0.679	-0.177
Mof_H 	H 	0.3433	0.194	0.713	0.076
Mof_C 	C 	0.3532	0.2857	0.6143	0.099
Mof_H 	H 	0.2959	0.2952	0.595	-0.012
Mof_C 	C 	0.4342	0.385	0.5112	0.238
Mof_C 	C 	0.3743	0.4526	0.5031	-0.348
Mof_H 	H 	0.324	0.456	0.534	0.144
Mof_N 	N 	0.0012	0.7032	0.1259	-0.164
Mof_N 	N 	0.0738	0.6755	0.08304	-0.147
Mof_C 	C 	0.0316	0.7604	0.1838	0.098
Mof_H 	H 	0.9963	0.791	0.2234	-0.043
Mof_C 	C 	0.1212	0.7695	0.179	-0.177
Mof_H 	H 	0.1567	0.806	0.213	0.076
Mof_C 	C 	0.1468	0.7143	0.1143	0.099
Mof_H 	H 	0.2041	0.7048	0.095	-0.012
Mof_C 	C 	0.0658	0.615	0.0112	0.238
Mof_C 	C 	0.1257	0.5474	0.0031	-0.349
Mof_H 	H 	0.176	0.544	0.034	0.144
Mof_N 	N 	0.5012	0.7968	0.8741	-0.164
Mof_N 	N 	0.5738	0.8245	0.91696	-0.147
Mof_C 	C 	0.5316	0.7396	0.8162	0.098
Mof_H 	H 	0.4963	0.709	0.7766	-0.043
Mof_C 	C 	0.6212	0.7305	0.821	-0.177
Mof_H 	H 	0.6567	0.694	0.787	0.076
Mof_C 	C 	0.6468	0.7857	0.8857	0.099
Mof_H 	H 	0.7041	0.7952	0.905	-0.012
Mof_C 	C 	0.5658	0.885	0.9888	0.237
Mof_C 	C 	0.6257	0.9526	0.9969	-0.349
Mof_H 	H 	0.676	0.956	0.966	0.144
Mof_Ag	Ag	0.87058	0.87942	0.375	0.472
Mof_Ag	Ag	0.62942	0.12058	0.875	0.472
Mof_Ag	Ag	0.12942	0.37942	0.125	0.472
Mof_Ag	Ag	0.37058	0.62058	0.625	0.472
Mof_Ag	Ag	0.375	0.87058	0.87942	0.472
Mof_Ag	Ag	0.875	0.62942	0.12058	0.472
Mof_Ag	Ag	0.125	0.12942	0.37942	0.472
Mof_Ag	Ag	0.625	0.37058	0.62058	0.472
Mof_Ag	Ag	0.87942	0.375	0.87058	0.472
Mof_Ag	Ag	0.12058	0.875	0.62942	0.472
Mof_Ag	Ag	0.37942	0.125	0.12942	0.472
Mof_Ag	Ag	0.62058	0.625	0.37058	0.472
_end
