# CIF file generated by openbabel 3.1.0, see https://openbabel.org
data_I
_chemical_name_common 'image0'
_cell_length_a 21.759
_cell_length_b 13.8214
_cell_length_c 14.2237
_cell_angle_alpha 90
_cell_angle_beta 98.849
_cell_angle_gamma 90
_space_group_name_H-M_alt 'P 1'
_space_group_name_Hall 'P 1'
loop_
    _symmetry_equiv_pos_as_xyz
    x,y,z
loop_
    _atom_site_label
    _atom_site_type_symbol
    _atom_site_fract_x
    _atom_site_fract_y
    _atom_site_fract_z
    _atom_site_occupancy
    P1       P        0.05959    0.12051    0.01465    1.000
    P2       P        0.17164    0.78464    0.89409    1.000
    P3       P        0.26241    0.11092    0.06219    1.000
    P4       P        0.15797    0.11435    0.70493    1.000
    Al1      Al       0.16167    0.20348    0.90892    1.000
    Al2      Al       0.08374    0.89973    0.00792    1.000
    Al3      Al       0.24608    0.89140    0.05953    1.000
    Al4      Al       0.16015    0.10872    0.19667    1.000
    F1       F        0.16788    0.95530    0.02680    1.000
    O1       O        0.22897    0.83740    0.94500    1.000
    O2       O        0.06186    0.01800    0.97520    1.000
    O3       O        0.22339    0.13550    0.96630    1.000
    O4       O        0.11318    0.81290    0.93520    1.000
    O5       O        0.22535    0.13170    0.14240    1.000
    O6       O        0.09876    0.12720    0.63260    1.000
    O7       O        0.99282    0.15410    0.01040    1.000
    O8       O        0.28447    0.00570    0.06360    1.000
    O9       O        0.15195    0.17880    0.78930    1.000
    O10      O        0.32118    0.17338    0.07640    1.000
    O11      O        0.18042    0.67470    0.90550    1.000
    O12      O        0.09318    0.18860    0.95510    1.000
    O13      O        0.16196    0.80850    0.78810    1.000
    O14      O        0.21551    0.14490    0.66340    1.000
    O15      O        0.09222    0.12520    0.11720    1.000
    O16      O        0.16478    0.00900    0.74000    1.000
    P5       P        0.55959    0.62051    0.01465    1.000
    P6       P        0.67164    0.28464    0.89409    1.000
    P7       P        0.76241    0.61092    0.06219    1.000
    P8       P        0.65797    0.61435    0.70493    1.000
    Al5      Al       0.66167    0.70348    0.90892    1.000
    Al6      Al       0.58374    0.39973    0.00792    1.000
    Al7      Al       0.74608    0.39140    0.05953    1.000
    Al8      Al       0.66015    0.60872    0.19667    1.000
    F2       F        0.66788    0.45530    0.02680    1.000
    O17      O        0.72897    0.33740    0.94500    1.000
    O18      O        0.56186    0.51800    0.97520    1.000
    O19      O        0.72339    0.63550    0.96630    1.000
    O20      O        0.61318    0.31290    0.93520    1.000
    O21      O        0.72535    0.63170    0.14240    1.000
    O22      O        0.59876    0.62720    0.63260    1.000
    O23      O        0.49282    0.65410    0.01040    1.000
    O24      O        0.78447    0.50570    0.06360    1.000
    O25      O        0.65195    0.67880    0.78930    1.000
    O26      O        0.82118    0.67338    0.07640    1.000
    O27      O        0.68042    0.17470    0.90550    1.000
    O28      O        0.59318    0.68860    0.95510    1.000
    O29      O        0.66196    0.30850    0.78810    1.000
    O30      O        0.71551    0.64490    0.66340    1.000
    O31      O        0.59222    0.62520    0.11720    1.000
    O32      O        0.66478    0.50900    0.74000    1.000
    P9       P        0.94041    0.12051    0.48535    1.000
    P10      P        0.82836    0.78464    0.60591    1.000
    P11      P        0.73759    0.11092    0.43781    1.000
    P12      P        0.84203    0.11435    0.79507    1.000
    Al9      Al       0.83833    0.20348    0.59108    1.000
    Al10     Al       0.91626    0.89973    0.49208    1.000
    Al11     Al       0.75392    0.89140    0.44047    1.000
    Al12     Al       0.83985    0.10872    0.30333    1.000
    F3       F        0.83212    0.95530    0.47320    1.000
    O33      O        0.77103    0.83740    0.55500    1.000
    O34      O        0.93814    0.01800    0.52480    1.000
    O35      O        0.77661    0.13550    0.53370    1.000
    O36      O        0.88682    0.81290    0.56480    1.000
    O37      O        0.77465    0.13170    0.35760    1.000
    O38      O        0.90124    0.12720    0.86740    1.000
    O39      O        0.00718    0.15410    0.48960    1.000
    O40      O        0.71553    0.00570    0.43640    1.000
    O41      O        0.84805    0.17880    0.71070    1.000
    O42      O        0.67882    0.17338    0.42360    1.000
    O43      O        0.81958    0.67470    0.59450    1.000
    O44      O        0.90682    0.18860    0.54490    1.000
    O45      O        0.83804    0.80850    0.71190    1.000
    O46      O        0.78449    0.14490    0.83660    1.000
    O47      O        0.90778    0.12520    0.38280    1.000
    O48      O        0.83522    0.00900    0.76000    1.000
    P13      P        0.44041    0.62051    0.48535    1.000
    P14      P        0.32836    0.28464    0.60591    1.000
    P15      P        0.23759    0.61092    0.43781    1.000
    P16      P        0.34203    0.61435    0.79507    1.000
    Al13     Al       0.33833    0.70348    0.59108    1.000
    Al14     Al       0.41626    0.39973    0.49208    1.000
    Al15     Al       0.25392    0.39140    0.44047    1.000
    Al16     Al       0.33985    0.60872    0.30333    1.000
    F4       F        0.33212    0.45530    0.47320    1.000
    O49      O        0.27103    0.33740    0.55500    1.000
    O50      O        0.43814    0.51800    0.52480    1.000
    O51      O        0.27661    0.63550    0.53370    1.000
    O52      O        0.38682    0.31290    0.56480    1.000
    O53      O        0.27465    0.63170    0.35760    1.000
    O54      O        0.40124    0.62720    0.86740    1.000
    O55      O        0.50718    0.65410    0.48960    1.000
    O56      O        0.21553    0.50570    0.43640    1.000
    O57      O        0.34805    0.67880    0.71070    1.000
    O58      O        0.17882    0.67338    0.42360    1.000
    O59      O        0.31958    0.17470    0.59450    1.000
    O60      O        0.40682    0.68860    0.54490    1.000
    O61      O        0.33804    0.30850    0.71190    1.000
    O62      O        0.28449    0.64490    0.83660    1.000
    O63      O        0.40778    0.62520    0.38280    1.000
    O64      O        0.33522    0.50900    0.76000    1.000
    P17      P        0.94041    0.87949    0.98535    1.000
    P18      P        0.82836    0.21536    0.10591    1.000
    P19      P        0.73759    0.88908    0.93781    1.000
    P20      P        0.84203    0.88565    0.29507    1.000
    Al17     Al       0.83833    0.79652    0.09108    1.000
    Al18     Al       0.91626    0.10027    0.99208    1.000
    Al19     Al       0.75392    0.10860    0.94047    1.000
    Al20     Al       0.83985    0.89128    0.80333    1.000
    F5       F        0.83212    0.04470    0.97320    1.000
    O65      O        0.77103    0.16260    0.05500    1.000
    O66      O        0.93814    0.98200    0.02480    1.000
    O67      O        0.77661    0.86450    0.03370    1.000
    O68      O        0.88682    0.18710    0.06480    1.000
    O69      O        0.77465    0.86830    0.85760    1.000
    O70      O        0.90124    0.87280    0.36740    1.000
    O71      O        0.00718    0.84590    0.98960    1.000
    O72      O        0.71553    0.99430    0.93640    1.000
    O73      O        0.84805    0.82120    0.21070    1.000
    O74      O        0.67882    0.82662    0.92360    1.000
    O75      O        0.81958    0.32530    0.09450    1.000
    O76      O        0.90682    0.81140    0.04490    1.000
    O77      O        0.83804    0.19150    0.21190    1.000
    O78      O        0.78449    0.85510    0.33660    1.000
    O79      O        0.90778    0.87480    0.88280    1.000
    O80      O        0.83522    0.99100    0.26000    1.000
    P21      P        0.44041    0.37949    0.98535    1.000
    P22      P        0.32836    0.71536    0.10591    1.000
    P23      P        0.23759    0.38908    0.93781    1.000
    P24      P        0.34203    0.38565    0.29507    1.000
    Al21     Al       0.33833    0.29652    0.09108    1.000
    Al22     Al       0.41626    0.60027    0.99208    1.000
    Al23     Al       0.25392    0.60860    0.94047    1.000
    Al24     Al       0.33985    0.39128    0.80333    1.000
    F6       F        0.33212    0.54470    0.97320    1.000
    O81      O        0.27103    0.66260    0.05500    1.000
    O82      O        0.43814    0.48200    0.02480    1.000
    O83      O        0.27661    0.36450    0.03370    1.000
    O84      O        0.38682    0.68710    0.06480    1.000
    O85      O        0.27465    0.36830    0.85760    1.000
    O86      O        0.40124    0.37280    0.36740    1.000
    O87      O        0.50718    0.34590    0.98960    1.000
    O88      O        0.21553    0.49430    0.93640    1.000
    O89      O        0.34805    0.32120    0.21070    1.000
    O90      O        0.17882    0.32662    0.92360    1.000
    O91      O        0.31958    0.82530    0.09450    1.000
    O92      O        0.40682    0.31140    0.04490    1.000
    O93      O        0.33804    0.69150    0.21190    1.000
    O94      O        0.28449    0.35510    0.33660    1.000
    O95      O        0.40778    0.37480    0.88280    1.000
    O96      O        0.33522    0.49100    0.26000    1.000
    P25      P        0.05959    0.87949    0.51465    1.000
    P26      P        0.17164    0.21536    0.39409    1.000
    P27      P        0.26241    0.88908    0.56219    1.000
    P28      P        0.15797    0.88565    0.20493    1.000
    Al25     Al       0.16167    0.79652    0.40892    1.000
    Al26     Al       0.08374    0.10027    0.50792    1.000
    Al27     Al       0.24608    0.10860    0.55953    1.000
    Al28     Al       0.16015    0.89128    0.69667    1.000
    F7       F        0.16788    0.04470    0.52680    1.000
    O97      O        0.22897    0.16260    0.44500    1.000
    O98      O        0.06186    0.98200    0.47520    1.000
    O99      O        0.22339    0.86450    0.46630    1.000
    O100     O        0.11318    0.18710    0.43520    1.000
    O101     O        0.22535    0.86830    0.64240    1.000
    O102     O        0.09876    0.87280    0.13260    1.000
    O103     O        0.99282    0.84590    0.51040    1.000
    O104     O        0.28447    0.99430    0.56360    1.000
    O105     O        0.15195    0.82120    0.28930    1.000
    O106     O        0.32118    0.82662    0.57640    1.000
    O107     O        0.18042    0.32530    0.40550    1.000
    O108     O        0.09318    0.81140    0.45510    1.000
    O109     O        0.16196    0.19150    0.28810    1.000
    O110     O        0.21551    0.85510    0.16340    1.000
    O111     O        0.09222    0.87480    0.61720    1.000
    O112     O        0.16478    0.99100    0.24000    1.000
    P29      P        0.55959    0.37949    0.51465    1.000
    P30      P        0.67164    0.71536    0.39409    1.000
    P31      P        0.76241    0.38908    0.56219    1.000
    P32      P        0.65797    0.38565    0.20493    1.000
    Al29     Al       0.66167    0.29652    0.40892    1.000
    Al30     Al       0.58374    0.60027    0.50792    1.000
    Al31     Al       0.74608    0.60860    0.55953    1.000
    Al32     Al       0.66015    0.39128    0.69667    1.000
    F8       F        0.66788    0.54470    0.52680    1.000
    O113     O        0.72897    0.66260    0.44500    1.000
    O114     O        0.56186    0.48200    0.47520    1.000
    O115     O        0.72339    0.36450    0.46630    1.000
    O116     O        0.61318    0.68710    0.43520    1.000
    O117     O        0.72535    0.36830    0.64240    1.000
    O118     O        0.59876    0.37280    0.13260    1.000
    O119     O        0.49282    0.34590    0.51040    1.000
    O120     O        0.78447    0.49430    0.56360    1.000
    O121     O        0.65195    0.32120    0.28930    1.000
    O122     O        0.82118    0.32662    0.57640    1.000
    O123     O        0.68042    0.82530    0.40550    1.000
    O124     O        0.59318    0.31140    0.45510    1.000
    O125     O        0.66196    0.69150    0.28810    1.000
    O126     O        0.71551    0.35510    0.16340    1.000
    O127     O        0.59222    0.37480    0.61720    1.000
    O128     O        0.66478    0.49100    0.24000    1.000
