# CIF file generated by openbabel 3.1.0, see https://openbabel.org
data_I
_chemical_name_common 'image0'
_cell_length_a 5.0798
_cell_length_b 15.203
_cell_length_c 16.3535
_cell_angle_alpha 90
_cell_angle_beta 95.69
_cell_angle_gamma 90
_space_group_name_H-M_alt 'P 1'
_space_group_name_Hall 'P 1'
loop_
    _symmetry_equiv_pos_as_xyz
    x,y,z
loop_
    _atom_site_label
    _atom_site_type_symbol
    _atom_site_fract_x
    _atom_site_fract_y
    _atom_site_fract_z
    _atom_site_occupancy
    Co1      Co       0.96550    0.67712    0.21639    1.000
    Co2      Co       0.34570    0.80312    0.08154    1.000
    Co3      Co       0.00850    0.92897    0.81984    1.000
    P1       P        0.41540    0.60078    0.13008    1.000
    P2       P        0.92460    0.86945    0.16219    1.000
    P3       P        0.47480    0.88604    0.91184    1.000
    O1       O        0.28980    0.95980    0.93370    1.000
    O2       O        0.02980    0.88520    0.07730    1.000
    O3       O        0.75430    0.92140    0.90500    1.000
    O4       O        0.10000    0.79420    0.20120    1.000
    O5       O        0.71640    0.61050    0.14280    1.000
    O6       O        0.80590    0.88590    0.71590    1.000
    O7       O        0.34680    0.85490    0.82540    1.000
    O8       O        0.63700    0.84120    0.15810    1.000
    O9       O        0.29430    0.67420    0.07380    1.000
    O10      O        0.47710    0.80880    0.97120    1.000
    O11      O        0.03260    0.04930    0.78290    1.000
    O12      O        0.33300    0.51210    0.09650    1.000
    Co4      Co       0.53450    0.17712    0.28361    1.000
    Co5      Co       0.15430    0.30312    0.41846    1.000
    Co6      Co       0.49150    0.42897    0.68016    1.000
    P4       P        0.08460    0.10078    0.36992    1.000
    P5       P        0.57540    0.36945    0.33781    1.000
    P6       P        0.02520    0.38604    0.58816    1.000
    O13      O        0.21020    0.45980    0.56630    1.000
    O14      O        0.47020    0.38520    0.42270    1.000
    O15      O        0.74570    0.42140    0.59500    1.000
    O16      O        0.40000    0.29420    0.29880    1.000
    O17      O        0.78360    0.11050    0.35720    1.000
    O18      O        0.69410    0.38590    0.78410    1.000
    O19      O        0.15320    0.35490    0.67460    1.000
    O20      O        0.86300    0.34120    0.34190    1.000
    O21      O        0.20570    0.17420    0.42620    1.000
    O22      O        0.02290    0.30880    0.52880    1.000
    O23      O        0.46740    0.54930    0.71710    1.000
    O24      O        0.16700    0.01210    0.40350    1.000
    Co7      Co       0.03450    0.32288    0.78361    1.000
    Co8      Co       0.65430    0.19688    0.91846    1.000
    Co9      Co       0.99150    0.07103    0.18016    1.000
    P7       P        0.58460    0.39922    0.86992    1.000
    P8       P        0.07540    0.13055    0.83781    1.000
    P9       P        0.52520    0.11396    0.08816    1.000
    O25      O        0.71020    0.04020    0.06630    1.000
    O26      O        0.97020    0.11480    0.92270    1.000
    O27      O        0.24570    0.07860    0.09500    1.000
    O28      O        0.90000    0.20580    0.79880    1.000
    O29      O        0.28360    0.38950    0.85720    1.000
    O30      O        0.19410    0.11410    0.28410    1.000
    O31      O        0.65320    0.14510    0.17460    1.000
    O32      O        0.36300    0.15880    0.84190    1.000
    O33      O        0.70570    0.32580    0.92620    1.000
    O34      O        0.52290    0.19120    0.02880    1.000
    O35      O        0.96740    0.95070    0.21710    1.000
    O36      O        0.66700    0.48790    0.90350    1.000
    Co10     Co       0.46550    0.82288    0.71639    1.000
    Co11     Co       0.84570    0.69688    0.58154    1.000
    Co12     Co       0.50850    0.57103    0.31984    1.000
    P10      P        0.91540    0.89922    0.63008    1.000
    P11      P        0.42460    0.63055    0.66219    1.000
    P12      P        0.97480    0.61396    0.41184    1.000
    O37      O        0.78980    0.54020    0.43370    1.000
    O38      O        0.52980    0.61480    0.57730    1.000
    O39      O        0.25430    0.57860    0.40500    1.000
    O40      O        0.60000    0.70580    0.70120    1.000
    O41      O        0.21640    0.88950    0.64280    1.000
    O42      O        0.30590    0.61410    0.21590    1.000
    O43      O        0.84680    0.64510    0.32540    1.000
    O44      O        0.13700    0.65880    0.65810    1.000
    O45      O        0.79430    0.82580    0.57380    1.000
    O46      O        0.97710    0.69120    0.47120    1.000
    O47      O        0.53260    0.45070    0.28290    1.000
    O48      O        0.83300    0.98790    0.59650    1.000
    Co13     Co       0.00000    0.00000    0.00000    1.000
    Co14     Co       0.50000    0.50000    0.50000    1.000
