data_functionalizedCrystal
_audit_creation_method	'EQeq! by Chris Wilmer'
_symmetry_space_group_name_H-M	'P1'
_symmetry_Int_Tables_number	1
_symmetry_cell_setting	triclinic
loop_
_symmetry_equiv_pos_as_xyz
  x,y,z
_cell_length_a	13.9914
_cell_length_b	20.2561
_cell_length_c	23.3703
_cell_angle_alpha	90
_cell_angle_beta	90
_cell_angle_gamma	90
loop_
_atom_site_label
_atom_site_type_symbol
_atom_site_fract_x
_atom_site_fract_y
_atom_site_fract_z
_atom_site_charge
Mof_Zn	Zn	0.82247	0.19515	0.24702	1.215
Mof_Zn	Zn	0.63304	0.22659	0.9961	1.217
Mof_Zn	Zn	0.79288	0.31495	0.77921	1.166
Mof_N 	N 	0.9503	0.2053	0.2115	-0.273
Mof_N 	N 	0.0922	0.182	0.1762	-0.169
Mof_N 	N 	0.2659	0.9758	0.1626	-0.144
Mof_N 	N 	0.2325	0.8778	0.1989	-0.255
Mof_N 	N 	0.4218	0.185	0.1145	-0.153
Mof_N 	N 	0.5485	0.2162	0.0645	-0.252
Mof_N 	N 	0.5279	0.2444	0.9378	-0.257
Mof_N 	N 	0.3989	0.2874	0.8982	-0.154
Mof_N 	N 	0.0636	0.3206	0.8547	-0.159
Mof_N 	N 	0.9212	0.3031	0.8184	-0.27
Mof_N 	N 	0.2774	0.5102	0.8601	-0.143
Mof_N 	N 	0.2614	0.6093	0.8245	-0.281
Mof_O 	O 	0.8326	0.3312	0.2312	-0.331
Mof_O 	O 	0.7194	0.2584	0.2427	-0.482
Mof_O 	O 	0.5959	0.0904	0.987	-0.343
Mof_O 	O 	0.7128	0.1566	0.9664	-0.444
Mof_O 	O 	0.8051	0.8402	0.8241	-0.446
Mof_O 	O 	0.9327	0.9066	0.8091	-0.294
Mof_O 	O 	0.754	0.2782	0.0767	-0.343
Mof_O 	O 	0.7045	0.3054	0.9929	-0.534
Mof_O 	O 	0.7526	0.228	0.7897	-0.522
Mof_O 	O 	0.6132	0.2715	0.7702	-0.475
Mof_H 	H 	0.647	0.3034	0.7628	0.138
Mof_C 	C 	0.7456	0.3139	0.2345	0.374
Mof_C 	C 	0.6745	0.3682	0.2313	-0.102
Mof_C 	C 	0.5767	0.3567	0.2396	0.017
Mof_H 	H 	0.5558	0.3134	0.244	0.052
Mof_C 	C 	0.5104	0.4067	0.2415	-0.083
Mof_H 	H 	0.4479	0.3965	0.2518	0.049
Mof_C 	C 	0.5337	0.4744	0.2283	0.022
Mof_C 	C 	0.6333	0.4855	0.2167	-0.086
Mof_H 	H 	0.6537	0.5278	0.2072	0.038
Mof_C 	C 	0.6998	0.4349	0.2192	0.02
Mof_H 	H 	0.7637	0.4449	0.2126	0.025
Mof_C 	C 	0.0259	0.1692	0.2147	0.113
Mof_H 	H 	0.0332	0.1365	0.2423	-0.003
Mof_C 	C 	0.9658	0.2456	0.1664	-0.004
Mof_H 	H 	0.922	0.2758	0.1517	0.031
Mof_C 	C 	0.056	0.235	0.1455	-0.016
Mof_H 	H 	0.0867	0.2585	0.1166	0.025
Mof_C 	C 	0.1787	0.1516	0.1648	0.204
Mof_C 	C 	0.1806	0.0811	0.169	-0.246
Mof_H 	H 	0.1264	0.0576	0.1799	0.126
Mof_C 	C 	0.2659	0.0488	0.1564	0.204
Mof_C 	C 	0.3463	0.0786	0.1383	-0.247
Mof_H 	H 	0.4014	0.0552	0.1292	0.128
Mof_C 	C 	0.3407	0.1511	0.134	0.2
Mof_C 	C 	0.2584	0.1853	0.1471	-0.261
Mof_H 	H 	0.2569	0.231	0.144	0.101
Mof_C 	C 	0.217	0.9438	0.2041	0.085
Mof_H 	H 	0.1789	0.9637	0.2317	-0.003
Mof_C 	C 	0.2917	0.8732	0.1527	0.016
Mof_H 	H 	0.3133	0.833	0.1385	0.021
Mof_C 	C 	0.3171	0.9333	0.1286	-0.006
Mof_H 	H 	0.3574	0.9423	0.098	0.042
Mof_C 	C 	0.4571	0.2433	0.1387	0.009
Mof_H 	H 	0.4308	0.2655	0.1698	0.028
Mof_C 	C 	0.5366	0.2622	0.1091	-0.01
Mof_H 	H 	0.5754	0.2984	0.1169	0.032
Mof_C 	C 	0.4782	0.1692	0.0709	0.087
Mof_H 	H 	0.4712	0.132	0.0481	0.008
Mof_C 	C 	0.6714	0.0966	0.9678	0.34
Mof_C 	C 	0.7279	0.0448	0.9378	-0.078
Mof_C 	C 	0.6867	0.9804	0.9379	-0.019
Mof_H 	H 	0.6316	0.9715	0.9588	0.055
Mof_C 	C 	0.7326	0.9299	0.905	-0.035
Mof_H 	H 	0.7051	0.8882	0.9033	0.054
Mof_C 	C 	0.8175	0.9418	0.8754	-0.049
Mof_C 	C 	0.8612	0.0066	0.88	-0.046
Mof_H 	H 	0.9197	0.0154	0.8627	0.068
Mof_C 	C 	0.8141	0.0551	0.9108	-0.002
Mof_H 	H 	0.8419	0.0967	0.9133	0.049
Mof_C 	C 	0.8561	0.8916	0.8347	0.287
Mof_C 	C 	0.7547	0.3156	0.0325	0.426
Mof_C 	C 	0.8265	0.3716	0.0317	-0.236
Mof_C 	C 	0.869	0.3929	0.0861	0.059
Mof_H 	H 	0.8537	0.3735	0.121	0.021
Mof_C 	C 	0.936	0.4458	0.0808	-0.124
Mof_H 	H 	0.964	0.4617	0.1142	0.06
Mof_C 	C 	0.9621	0.4749	0.0304	0.05
Mof_C 	C 	0.9337	0.4431	0.9782	-0.129
Mof_H 	H 	0.9608	0.4554	0.9434	0.069
Mof_C 	C 	0.8593	0.3898	0.9807	0.078
Mof_H 	H 	0.8367	0.3699	0.9475	0.008
Mof_C 	C 	0.4892	0.1997	0.9009	0.008
Mof_H 	H 	0.5143	0.158	0.8936	0.028
Mof_C 	C 	0.4078	0.2248	0.8758	0.007
Mof_H 	H 	0.3677	0.204	0.8497	0.04
Mof_C 	C 	0.4718	0.2959	0.9362	0.107
Mof_H 	H 	0.4805	0.3336	0.9583	-0.024
Mof_C 	C 	0.3206	0.3317	0.8869	0.214
Mof_C 	C 	0.2329	0.3041	0.8794	-0.281
Mof_H 	H 	0.2241	0.2588	0.8833	0.141
Mof_C 	C 	0.1566	0.3455	0.8657	0.206
Mof_C 	C 	0.1701	0.4152	0.862	-0.256
Mof_H 	H 	0.1191	0.4439	0.8561	0.119
Mof_C 	C 	0.2607	0.4375	0.8676	0.201
Mof_C 	C 	0.3415	0.4004	0.8815	-0.254
Mof_H 	H 	0.402	0.4184	0.8867	0.125
Mof_C 	C 	0.0245	0.2683	0.8848	0
Mof_H 	H 	0.053	0.2449	0.9144	0.034
Mof_C 	C 	0.9364	0.2581	0.8623	-0.005
Mof_H 	H 	0.8931	0.2261	0.8744	0.031
Mof_C 	C 	0.0013	0.3382	0.814	0.091
Mof_H 	H 	0.0124	0.3704	0.7865	-0.022
Mof_C 	C 	0.224	0.5452	0.8241	0.069
Mof_H 	H 	0.1722	0.5301	0.8029	-0.028
Mof_C 	C 	0.3395	0.6047	0.8603	0.013
Mof_H 	H 	0.3811	0.6397	0.8667	0.018
Mof_C 	C 	0.3494	0.55	0.8834	-0.005
Mof_H 	H 	0.395	0.538	0.9105	0.028
Mof_C 	C 	0.6655	0.222	0.7811	0.382
Mof_C 	C 	0.6137	0.1565	0.7805	-0.111
Mof_C 	C 	0.6663	0.1009	0.7948	0.029
Mof_H 	H 	0.7302	0.1048	0.8055	0.039
Mof_C 	C 	0.6212	0.0373	0.793	-0.095
Mof_H 	H 	0.6563	0.9993	0.8005	0.069
Mof_C 	C 	0.523	0.033	0.7799	0.039
Mof_C 	C 	0.4751	0.0907	0.7633	-0.103
Mof_H 	H 	0.4118	0.0874	0.7515	0.069
Mof_C 	C 	0.5177	0.1522	0.7637	0.034
Mof_H 	H 	0.4837	0.1897	0.7531	0.039
Mof_H 	H 	0.7771	0.4059	0.0325	0.101
Mof_Zn	Zn	0.17753	0.80485	0.24702	1.214
Mof_Zn	Zn	0.36696	0.77341	0.9961	1.216
Mof_Zn	Zn	0.20712	0.68505	0.77921	1.165
Mof_N 	N 	0.0497	0.7947	0.2115	-0.274
Mof_N 	N 	0.9078	0.818	0.1762	-0.17
Mof_N 	N 	0.7341	0.0242	0.1626	-0.145
Mof_N 	N 	0.7675	0.1222	0.1989	-0.256
Mof_N 	N 	0.5782	0.815	0.1145	-0.154
Mof_N 	N 	0.4515	0.7838	0.0645	-0.253
Mof_N 	N 	0.4721	0.7556	0.9378	-0.258
Mof_N 	N 	0.6011	0.7126	0.8982	-0.154
Mof_N 	N 	0.9364	0.6794	0.8547	-0.159
Mof_N 	N 	0.0788	0.6969	0.8184	-0.27
Mof_N 	N 	0.7226	0.4898	0.8601	-0.143
Mof_N 	N 	0.7386	0.3907	0.8245	-0.281
Mof_O 	O 	0.1674	0.6688	0.2312	-0.331
Mof_O 	O 	0.2806	0.7416	0.2427	-0.482
Mof_O 	O 	0.4041	0.9096	0.987	-0.343
Mof_O 	O 	0.2872	0.8434	0.9664	-0.444
Mof_O 	O 	0.1949	0.1598	0.8241	-0.446
Mof_O 	O 	0.0673	0.0934	0.8091	-0.294
Mof_O 	O 	0.246	0.7218	0.0767	-0.343
Mof_O 	O 	0.2955	0.6946	0.9929	-0.534
Mof_O 	O 	0.2474	0.772	0.7897	-0.522
Mof_O 	O 	0.3868	0.7285	0.7702	-0.475
Mof_H 	H 	0.353	0.6966	0.7628	0.138
Mof_C 	C 	0.2544	0.6861	0.2345	0.374
Mof_C 	C 	0.3255	0.6318	0.2313	-0.102
Mof_C 	C 	0.4233	0.6433	0.2396	0.017
Mof_H 	H 	0.4442	0.6866	0.244	0.052
Mof_C 	C 	0.4896	0.5933	0.2415	-0.083
Mof_H 	H 	0.5521	0.6035	0.2518	0.049
Mof_C 	C 	0.4663	0.5256	0.2283	0.022
Mof_C 	C 	0.3667	0.5145	0.2167	-0.086
Mof_H 	H 	0.3463	0.4722	0.2072	0.038
Mof_C 	C 	0.3002	0.5651	0.2192	0.02
Mof_H 	H 	0.2363	0.5551	0.2126	0.025
Mof_C 	C 	0.9741	0.8308	0.2147	0.113
Mof_H 	H 	0.9668	0.8635	0.2423	-0.003
Mof_C 	C 	0.0342	0.7544	0.1664	-0.004
Mof_H 	H 	0.078	0.7242	0.1517	0.031
Mof_C 	C 	0.944	0.765	0.1455	-0.016
Mof_H 	H 	0.9133	0.7415	0.1166	0.025
Mof_C 	C 	0.8213	0.8484	0.1648	0.204
Mof_C 	C 	0.8194	0.9189	0.169	-0.246
Mof_H 	H 	0.8736	0.9424	0.1799	0.126
Mof_C 	C 	0.7341	0.9512	0.1564	0.204
Mof_C 	C 	0.6537	0.9214	0.1383	-0.247
Mof_H 	H 	0.5986	0.9448	0.1292	0.128
Mof_C 	C 	0.6593	0.8489	0.134	0.2
Mof_C 	C 	0.7416	0.8147	0.1471	-0.261
Mof_H 	H 	0.7431	0.769	0.144	0.101
Mof_C 	C 	0.783	0.0562	0.2041	0.085
Mof_H 	H 	0.8211	0.0363	0.2317	-0.003
Mof_C 	C 	0.7083	0.1268	0.1527	0.016
Mof_H 	H 	0.6867	0.167	0.1385	0.021
Mof_C 	C 	0.6829	0.0667	0.1286	-0.006
Mof_H 	H 	0.6426	0.0577	0.098	0.042
Mof_C 	C 	0.5429	0.7567	0.1387	0.009
Mof_H 	H 	0.5692	0.7345	0.1698	0.028
Mof_C 	C 	0.4634	0.7378	0.1091	-0.01
Mof_H 	H 	0.4246	0.7016	0.1169	0.032
Mof_C 	C 	0.5218	0.8308	0.0709	0.087
Mof_H 	H 	0.5288	0.868	0.0481	0.008
Mof_C 	C 	0.3286	0.9034	0.9678	0.34
Mof_C 	C 	0.2721	0.9552	0.9378	-0.078
Mof_C 	C 	0.3133	0.0196	0.9379	-0.019
Mof_H 	H 	0.3684	0.0285	0.9588	0.055
Mof_C 	C 	0.2674	0.0701	0.905	-0.035
Mof_H 	H 	0.2949	0.1118	0.9033	0.054
Mof_C 	C 	0.1825	0.0582	0.8754	-0.049
Mof_C 	C 	0.1388	0.9934	0.88	-0.046
Mof_H 	H 	0.0803	0.9846	0.8627	0.068
Mof_C 	C 	0.1859	0.9449	0.9108	-0.002
Mof_H 	H 	0.1581	0.9033	0.9133	0.049
Mof_C 	C 	0.1439	0.1084	0.8347	0.287
Mof_C 	C 	0.2453	0.6844	0.0325	0.426
Mof_C 	C 	0.1735	0.6284	0.0317	-0.236
Mof_C 	C 	0.131	0.6071	0.0861	0.059
Mof_H 	H 	0.1463	0.6265	0.121	0.021
Mof_C 	C 	0.064	0.5542	0.0808	-0.124
Mof_H 	H 	0.036	0.5383	0.1142	0.06
Mof_C 	C 	0.0379	0.5251	0.0304	0.05
Mof_C 	C 	0.0663	0.5569	0.9782	-0.129
Mof_H 	H 	0.0392	0.5446	0.9434	0.069
Mof_C 	C 	0.1407	0.6102	0.9807	0.078
Mof_H 	H 	0.1633	0.6301	0.9475	0.008
Mof_C 	C 	0.5108	0.8003	0.9009	0.008
Mof_H 	H 	0.4857	0.842	0.8936	0.028
Mof_C 	C 	0.5922	0.7752	0.8758	0.007
Mof_H 	H 	0.6323	0.796	0.8497	0.04
Mof_C 	C 	0.5282	0.7041	0.9362	0.107
Mof_H 	H 	0.5195	0.6664	0.9583	-0.024
Mof_C 	C 	0.6794	0.6683	0.8869	0.214
Mof_C 	C 	0.7671	0.6959	0.8794	-0.281
Mof_H 	H 	0.7759	0.7412	0.8833	0.141
Mof_C 	C 	0.8434	0.6545	0.8657	0.206
Mof_C 	C 	0.8299	0.5848	0.862	-0.256
Mof_H 	H 	0.8809	0.5561	0.8561	0.119
Mof_C 	C 	0.7393	0.5625	0.8676	0.201
Mof_C 	C 	0.6585	0.5996	0.8815	-0.254
Mof_H 	H 	0.598	0.5816	0.8867	0.125
Mof_C 	C 	0.9755	0.7317	0.8848	0
Mof_H 	H 	0.947	0.7551	0.9144	0.034
Mof_C 	C 	0.0636	0.7419	0.8623	-0.005
Mof_H 	H 	0.1069	0.7739	0.8744	0.031
Mof_C 	C 	0.9987	0.6618	0.814	0.091
Mof_H 	H 	0.9876	0.6296	0.7865	-0.022
Mof_C 	C 	0.776	0.4548	0.8241	0.069
Mof_H 	H 	0.8278	0.4699	0.8029	-0.028
Mof_C 	C 	0.6605	0.3953	0.8603	0.013
Mof_H 	H 	0.6189	0.3603	0.8667	0.018
Mof_C 	C 	0.6506	0.45	0.8834	-0.005
Mof_H 	H 	0.605	0.462	0.9105	0.028
Mof_C 	C 	0.3345	0.778	0.7811	0.382
Mof_C 	C 	0.3863	0.8435	0.7805	-0.111
Mof_C 	C 	0.3337	0.8991	0.7948	0.029
Mof_H 	H 	0.2698	0.8952	0.8055	0.039
Mof_C 	C 	0.3788	0.9627	0.793	-0.095
Mof_H 	H 	0.3437	0.0007	0.8005	0.069
Mof_C 	C 	0.477	0.967	0.7799	0.039
Mof_C 	C 	0.5249	0.9093	0.7633	-0.103
Mof_H 	H 	0.5882	0.9126	0.7515	0.069
Mof_C 	C 	0.4823	0.8478	0.7637	0.034
Mof_H 	H 	0.5163	0.8103	0.7531	0.039
Mof_H 	H 	0.2229	0.5941	0.0325	0.101
Mof_Zn	Zn	0.82247	0.80485	0.74702	1.214
Mof_Zn	Zn	0.63304	0.77341	0.4961	1.217
Mof_Zn	Zn	0.79288	0.68505	0.27921	1.165
Mof_N 	N 	0.9503	0.7947	0.7115	-0.274
Mof_N 	N 	0.0922	0.818	0.6762	-0.17
Mof_N 	N 	0.2659	0.0242	0.6626	-0.145
Mof_N 	N 	0.2325	0.1222	0.6989	-0.256
Mof_N 	N 	0.4218	0.815	0.6145	-0.154
Mof_N 	N 	0.5485	0.7838	0.5645	-0.255
Mof_N 	N 	0.5279	0.7556	0.4378	-0.257
Mof_N 	N 	0.3989	0.7126	0.3982	-0.154
Mof_N 	N 	0.0636	0.6794	0.3547	-0.159
Mof_N 	N 	0.9212	0.6969	0.3184	-0.27
Mof_N 	N 	0.2774	0.4898	0.3601	-0.143
Mof_N 	N 	0.2614	0.3907	0.3245	-0.281
Mof_O 	O 	0.8326	0.6688	0.7312	-0.331
Mof_O 	O 	0.7194	0.7416	0.7427	-0.482
Mof_O 	O 	0.5959	0.9096	0.487	-0.34
Mof_O 	O 	0.7128	0.8434	0.4664	-0.443
Mof_O 	O 	0.8051	0.1598	0.3241	-0.446
Mof_O 	O 	0.9327	0.0934	0.3091	-0.294
Mof_O 	O 	0.754	0.7218	0.5767	-0.342
Mof_O 	O 	0.7045	0.6946	0.4929	-0.526
Mof_O 	O 	0.7526	0.772	0.2897	-0.522
Mof_O 	O 	0.6132	0.7285	0.2702	-0.475
Mof_H 	H 	0.647	0.6966	0.2628	0.138
Mof_C 	C 	0.7456	0.6861	0.7345	0.374
Mof_C 	C 	0.6745	0.6318	0.7313	-0.102
Mof_C 	C 	0.5767	0.6433	0.7396	0.017
Mof_H 	H 	0.5558	0.6866	0.744	0.052
Mof_C 	C 	0.5104	0.5933	0.7415	-0.083
Mof_H 	H 	0.4479	0.6035	0.7518	0.049
Mof_C 	C 	0.5337	0.5256	0.7283	0.022
Mof_C 	C 	0.6333	0.5145	0.7167	-0.086
Mof_H 	H 	0.6537	0.4722	0.7072	0.037
Mof_C 	C 	0.6998	0.5651	0.7192	0.02
Mof_H 	H 	0.7637	0.5551	0.7126	0.025
Mof_C 	C 	0.0259	0.8308	0.7147	0.113
Mof_H 	H 	0.0332	0.8635	0.7423	-0.003
Mof_C 	C 	0.9658	0.7544	0.6664	-0.004
Mof_H 	H 	0.922	0.7242	0.6517	0.031
Mof_C 	C 	0.056	0.765	0.6455	-0.016
Mof_H 	H 	0.0867	0.7415	0.6166	0.024
Mof_C 	C 	0.1787	0.8484	0.6648	0.204
Mof_C 	C 	0.1806	0.9189	0.669	-0.246
Mof_H 	H 	0.1264	0.9424	0.6799	0.126
Mof_C 	C 	0.2659	0.9512	0.6564	0.203
Mof_C 	C 	0.3463	0.9214	0.6383	-0.247
Mof_H 	H 	0.4014	0.9448	0.6292	0.128
Mof_C 	C 	0.3407	0.8489	0.634	0.199
Mof_C 	C 	0.2584	0.8147	0.6471	-0.261
Mof_H 	H 	0.2569	0.769	0.644	0.1
Mof_C 	C 	0.217	0.0562	0.7041	0.085
Mof_H 	H 	0.1789	0.0363	0.7317	-0.003
Mof_C 	C 	0.2917	0.1268	0.6527	0.016
Mof_H 	H 	0.3133	0.167	0.6385	0.021
Mof_C 	C 	0.3171	0.0667	0.6286	-0.007
Mof_H 	H 	0.3574	0.0577	0.598	0.041
Mof_C 	C 	0.4571	0.7567	0.6387	0.008
Mof_H 	H 	0.4308	0.7345	0.6698	0.028
Mof_C 	C 	0.5366	0.7378	0.6091	-0.011
Mof_H 	H 	0.5754	0.7016	0.6169	0.032
Mof_C 	C 	0.4782	0.8308	0.5709	0.086
Mof_H 	H 	0.4712	0.868	0.5481	0.006
Mof_C 	C 	0.6714	0.9034	0.4678	0.339
Mof_C 	C 	0.7279	0.9552	0.4378	-0.077
Mof_C 	C 	0.6867	0.0196	0.4379	-0.019
Mof_H 	H 	0.6316	0.0285	0.4588	0.056
Mof_C 	C 	0.7326	0.0701	0.405	-0.034
Mof_H 	H 	0.7051	0.1118	0.4033	0.054
Mof_C 	C 	0.8175	0.0582	0.3754	-0.049
Mof_C 	C 	0.8612	0.9934	0.38	-0.045
Mof_H 	H 	0.9197	0.9846	0.3627	0.068
Mof_C 	C 	0.8141	0.9449	0.4108	-0.003
Mof_H 	H 	0.8419	0.9033	0.4133	0.05
Mof_C 	C 	0.8561	0.1084	0.3347	0.288
Mof_C 	C 	0.7547	0.6844	0.5325	0.417
Mof_C 	C 	0.8265	0.6284	0.5317	-0.243
Mof_C 	C 	0.869	0.6071	0.5861	0.059
Mof_H 	H 	0.8537	0.6265	0.621	0.02
Mof_C 	C 	0.936	0.5542	0.5808	-0.123
Mof_H 	H 	0.964	0.5383	0.6142	0.06
Mof_C 	C 	0.9621	0.5251	0.5304	0.044
Mof_C 	C 	0.9337	0.5569	0.4782	-0.122
Mof_H 	H 	0.9608	0.5446	0.4434	0.068
Mof_C 	C 	0.8593	0.6102	0.4807	0.087
Mof_H 	H 	0.8367	0.6301	0.4475	0.006
Mof_C 	C 	0.4892	0.8003	0.4009	0.009
Mof_H 	H 	0.5143	0.842	0.3936	0.028
Mof_C 	C 	0.4078	0.7752	0.3758	0.007
Mof_H 	H 	0.3677	0.796	0.3497	0.04
Mof_C 	C 	0.4718	0.7041	0.4362	0.108
Mof_H 	H 	0.4805	0.6664	0.4583	-0.023
Mof_C 	C 	0.3206	0.6683	0.3869	0.215
Mof_C 	C 	0.2329	0.6959	0.3794	-0.281
Mof_H 	H 	0.2241	0.7412	0.3833	0.142
Mof_C 	C 	0.1566	0.6545	0.3657	0.207
Mof_C 	C 	0.1701	0.5848	0.362	-0.256
Mof_H 	H 	0.1191	0.5561	0.3561	0.119
Mof_C 	C 	0.2607	0.5625	0.3676	0.201
Mof_C 	C 	0.3415	0.5996	0.3815	-0.254
Mof_H 	H 	0.402	0.5816	0.3867	0.126
Mof_C 	C 	0.0245	0.7317	0.3848	0
Mof_H 	H 	0.053	0.7551	0.4144	0.035
Mof_C 	C 	0.9364	0.7419	0.3623	-0.005
Mof_H 	H 	0.8931	0.7739	0.3744	0.031
Mof_C 	C 	0.0013	0.6618	0.314	0.091
Mof_H 	H 	0.0124	0.6296	0.2865	-0.022
Mof_C 	C 	0.224	0.4548	0.3241	0.069
Mof_H 	H 	0.1722	0.4699	0.3029	-0.028
Mof_C 	C 	0.3395	0.3953	0.3603	0.014
Mof_H 	H 	0.3811	0.3603	0.3667	0.018
Mof_C 	C 	0.3494	0.45	0.3834	-0.005
Mof_H 	H 	0.395	0.462	0.4105	0.029
Mof_C 	C 	0.6655	0.778	0.2811	0.382
Mof_C 	C 	0.6137	0.8435	0.2805	-0.111
Mof_C 	C 	0.6663	0.8991	0.2948	0.029
Mof_H 	H 	0.7302	0.8952	0.3055	0.039
Mof_C 	C 	0.6212	0.9627	0.293	-0.095
Mof_H 	H 	0.6563	0.0007	0.3005	0.069
Mof_C 	C 	0.523	0.967	0.2799	0.039
Mof_C 	C 	0.4751	0.9093	0.2633	-0.103
Mof_H 	H 	0.4118	0.9126	0.2515	0.069
Mof_C 	C 	0.5177	0.8478	0.2637	0.034
Mof_H 	H 	0.4837	0.8103	0.2531	0.039
Mof_H 	H 	0.7771	0.5941	0.5325	0.1
Mof_Zn	Zn	0.17753	0.19515	0.74702	1.214
Mof_Zn	Zn	0.36696	0.22659	0.4961	1.217
Mof_Zn	Zn	0.20712	0.31495	0.27921	1.165
Mof_N 	N 	0.0497	0.2053	0.7115	-0.274
Mof_N 	N 	0.9078	0.182	0.6762	-0.17
Mof_N 	N 	0.7341	0.9758	0.6626	-0.145
Mof_N 	N 	0.7675	0.8778	0.6989	-0.256
Mof_N 	N 	0.5782	0.185	0.6145	-0.154
Mof_N 	N 	0.4515	0.2162	0.5645	-0.255
Mof_N 	N 	0.4721	0.2444	0.4378	-0.257
Mof_N 	N 	0.6011	0.2874	0.3982	-0.154
Mof_N 	N 	0.9364	0.3206	0.3547	-0.159
Mof_N 	N 	0.0788	0.3031	0.3184	-0.27
Mof_N 	N 	0.7226	0.5102	0.3601	-0.143
Mof_N 	N 	0.7386	0.6093	0.3245	-0.281
Mof_O 	O 	0.1674	0.3312	0.7312	-0.331
Mof_O 	O 	0.2806	0.2584	0.7427	-0.482
Mof_O 	O 	0.4041	0.0904	0.487	-0.34
Mof_O 	O 	0.2872	0.1566	0.4664	-0.443
Mof_O 	O 	0.1949	0.8402	0.3241	-0.446
Mof_O 	O 	0.0673	0.9066	0.3091	-0.294
Mof_O 	O 	0.246	0.2782	0.5767	-0.342
Mof_O 	O 	0.2955	0.3054	0.4929	-0.526
Mof_O 	O 	0.2474	0.228	0.2897	-0.522
Mof_O 	O 	0.3868	0.2715	0.2702	-0.475
Mof_H 	H 	0.353	0.3034	0.2628	0.138
Mof_C 	C 	0.2544	0.3139	0.7345	0.374
Mof_C 	C 	0.3255	0.3682	0.7313	-0.102
Mof_C 	C 	0.4233	0.3567	0.7396	0.017
Mof_H 	H 	0.4442	0.3134	0.744	0.052
Mof_C 	C 	0.4896	0.4067	0.7415	-0.083
Mof_H 	H 	0.5521	0.3965	0.7518	0.049
Mof_C 	C 	0.4663	0.4744	0.7283	0.022
Mof_C 	C 	0.3667	0.4855	0.7167	-0.086
Mof_H 	H 	0.3463	0.5278	0.7072	0.037
Mof_C 	C 	0.3002	0.4349	0.7192	0.02
Mof_H 	H 	0.2363	0.4449	0.7126	0.025
Mof_C 	C 	0.9741	0.1692	0.7147	0.113
Mof_H 	H 	0.9668	0.1365	0.7423	-0.003
Mof_C 	C 	0.0342	0.2456	0.6664	-0.004
Mof_H 	H 	0.078	0.2758	0.6517	0.031
Mof_C 	C 	0.944	0.235	0.6455	-0.016
Mof_H 	H 	0.9133	0.2585	0.6166	0.024
Mof_C 	C 	0.8213	0.1516	0.6648	0.204
Mof_C 	C 	0.8194	0.0811	0.669	-0.246
Mof_H 	H 	0.8736	0.0576	0.6799	0.126
Mof_C 	C 	0.7341	0.0488	0.6564	0.203
Mof_C 	C 	0.6537	0.0786	0.6383	-0.247
Mof_H 	H 	0.5986	0.0552	0.6292	0.128
Mof_C 	C 	0.6593	0.1511	0.634	0.199
Mof_C 	C 	0.7416	0.1853	0.6471	-0.261
Mof_H 	H 	0.7431	0.231	0.644	0.1
Mof_C 	C 	0.783	0.9438	0.7041	0.085
Mof_H 	H 	0.8211	0.9637	0.7317	-0.003
Mof_C 	C 	0.7083	0.8732	0.6527	0.016
Mof_H 	H 	0.6867	0.833	0.6385	0.021
Mof_C 	C 	0.6829	0.9333	0.6286	-0.007
Mof_H 	H 	0.6426	0.9423	0.598	0.041
Mof_C 	C 	0.5429	0.2433	0.6387	0.008
Mof_H 	H 	0.5692	0.2655	0.6698	0.028
Mof_C 	C 	0.4634	0.2622	0.6091	-0.011
Mof_H 	H 	0.4246	0.2984	0.6169	0.032
Mof_C 	C 	0.5218	0.1692	0.5709	0.086
Mof_H 	H 	0.5288	0.132	0.5481	0.006
Mof_C 	C 	0.3286	0.0966	0.4678	0.339
Mof_C 	C 	0.2721	0.0448	0.4378	-0.077
Mof_C 	C 	0.3133	0.9804	0.4379	-0.019
Mof_H 	H 	0.3684	0.9715	0.4588	0.056
Mof_C 	C 	0.2674	0.9299	0.405	-0.034
Mof_H 	H 	0.2949	0.8882	0.4033	0.054
Mof_C 	C 	0.1825	0.9418	0.3754	-0.049
Mof_C 	C 	0.1388	0.0066	0.38	-0.045
Mof_H 	H 	0.0803	0.0154	0.3627	0.068
Mof_C 	C 	0.1859	0.0551	0.4108	-0.003
Mof_H 	H 	0.1581	0.0967	0.4133	0.05
Mof_C 	C 	0.1439	0.8916	0.3347	0.288
Mof_C 	C 	0.2453	0.3156	0.5325	0.417
Mof_C 	C 	0.1735	0.3716	0.5317	-0.243
Mof_C 	C 	0.131	0.3929	0.5861	0.059
Mof_H 	H 	0.1463	0.3735	0.621	0.02
Mof_C 	C 	0.064	0.4458	0.5808	-0.123
Mof_H 	H 	0.036	0.4617	0.6142	0.06
Mof_C 	C 	0.0379	0.4749	0.5304	0.044
Mof_C 	C 	0.0663	0.4431	0.4782	-0.122
Mof_H 	H 	0.0392	0.4554	0.4434	0.068
Mof_C 	C 	0.1407	0.3898	0.4807	0.087
Mof_H 	H 	0.1633	0.3699	0.4475	0.006
Mof_C 	C 	0.5108	0.1997	0.4009	0.009
Mof_H 	H 	0.4857	0.158	0.3936	0.028
Mof_C 	C 	0.5922	0.2248	0.3758	0.007
Mof_H 	H 	0.6323	0.204	0.3497	0.04
Mof_C 	C 	0.5282	0.2959	0.4362	0.108
Mof_H 	H 	0.5195	0.3336	0.4583	-0.023
Mof_C 	C 	0.6794	0.3317	0.3869	0.215
Mof_C 	C 	0.7671	0.3041	0.3794	-0.281
Mof_H 	H 	0.7759	0.2588	0.3833	0.142
Mof_C 	C 	0.8434	0.3455	0.3657	0.207
Mof_C 	C 	0.8299	0.4152	0.362	-0.256
Mof_H 	H 	0.8809	0.4439	0.3561	0.119
Mof_C 	C 	0.7393	0.4375	0.3676	0.201
Mof_C 	C 	0.6585	0.4004	0.3815	-0.254
Mof_H 	H 	0.598	0.4184	0.3867	0.126
Mof_C 	C 	0.9755	0.2683	0.3848	0
Mof_H 	H 	0.947	0.2449	0.4144	0.035
Mof_C 	C 	0.0636	0.2581	0.3623	-0.005
Mof_H 	H 	0.1069	0.2261	0.3744	0.031
Mof_C 	C 	0.9987	0.3382	0.314	0.091
Mof_H 	H 	0.9876	0.3704	0.2865	-0.022
Mof_C 	C 	0.776	0.5452	0.3241	0.069
Mof_H 	H 	0.8278	0.5301	0.3029	-0.028
Mof_C 	C 	0.6605	0.6047	0.3603	0.014
Mof_H 	H 	0.6189	0.6397	0.3667	0.018
Mof_C 	C 	0.6506	0.55	0.3834	-0.005
Mof_H 	H 	0.605	0.538	0.4105	0.029
Mof_C 	C 	0.3345	0.222	0.2811	0.382
Mof_C 	C 	0.3863	0.1565	0.2805	-0.111
Mof_C 	C 	0.3337	0.1009	0.2948	0.029
Mof_H 	H 	0.2698	0.1048	0.3055	0.039
Mof_C 	C 	0.3788	0.0373	0.293	-0.095
Mof_H 	H 	0.3437	0.9993	0.3005	0.069
Mof_C 	C 	0.477	0.033	0.2799	0.039
Mof_C 	C 	0.5249	0.0907	0.2633	-0.103
Mof_H 	H 	0.5882	0.0874	0.2515	0.069
Mof_C 	C 	0.4823	0.1522	0.2637	0.034
Mof_H 	H 	0.5163	0.1897	0.2531	0.039
Mof_H 	H 	0.2229	0.4059	0.5325	0.1
_end
